REMARK  15 active torsions:
REMARK  status: ('A' for Active; 'I' for Inactive)
REMARK    1  A    between atoms: N1_1  and  C1_5 
REMARK    2  A    between atoms: C1_5  and  C2_6 
REMARK    3  A    between atoms: C2_6  and  C3_7 
REMARK    4  A    between atoms: C3_7  and  C4_8 
REMARK    5  A    between atoms: C4_8  and  C5_9 
REMARK    6  A    between atoms: C4_8  and  N8_36 
REMARK       I    between atoms: C5_9  and  N2_11 
REMARK    7  A    between atoms: N2_11  and  C6_13 
REMARK    8  A    between atoms: C6_13  and  C7_14 
REMARK    9  A    between atoms: C6_13  and  C12_23 
REMARK   10  A    between atoms: C7_14  and  C8_15 
REMARK   11  A    between atoms: C8_15  and  C9_16 
REMARK   12  A    between atoms: C9_16  and  C10_17 
REMARK   13  A    between atoms: C10_17  and  N3_18 
REMARK       I    between atoms: C12_23  and  N6_25 
REMARK   14  A    between atoms: C15_28  and  C16_29 
REMARK   15  A    between atoms: C16_29  and  N7_30 
ROOT
HETATM    1  C6  UNL     1       1.244  -0.526  -1.175  1.00  0.00     0.176 C 
ENDROOT
BRANCH   1   2
HETATM    2  N2  UNL     1      -0.019   0.128  -1.313  1.00  0.00    -0.346 N 
HETATM    3  C5  UNL     1      -1.032   0.216  -0.348  1.00  0.00     0.252 C 
HETATM    4  O1  UNL     1      -0.808  -0.345   0.773  1.00  0.00    -0.271 OA
ATOM      5  H2  UNL     1      -0.203   0.579  -2.209  1.00  0.00     0.163 HD
BRANCH   3   6
HETATM    6  C4  UNL     1      -2.325   0.917  -0.563  1.00  0.00     0.314 C 
BRANCH   6   7
HETATM    7  C3  UNL     1      -2.892   0.510  -1.855  1.00  0.00     0.047 C 
BRANCH   7   8
HETATM    8  C2  UNL     1      -4.189   1.071  -2.300  1.00  0.00     0.030 C 
BRANCH   8   9
HETATM    9  C1  UNL     1      -4.459   0.450  -3.692  1.00  0.00     0.230 C 
BRANCH   9  10
HETATM   10  N1  UNL     1      -5.701   0.928  -4.223  1.00  0.00    -0.079 N 
ATOM     11  H13 UNL     1      -6.476   0.767  -3.579  1.00  0.00     0.274 HD
ATOM     12  H12 UNL     1      -5.735   1.947  -4.250  1.00  0.00     0.274 HD
ATOM     13  H11 UNL     1      -5.879   0.519  -5.140  1.00  0.00     0.274 HD
ENDBRANCH   9  10
ENDBRANCH   8   9
ENDBRANCH   7   8
ENDBRANCH   6   7
BRANCH   6  14
HETATM   14  N8  UNL     1      -3.116   0.850   0.610  1.00  0.00     0.102 N 
HETATM   15  C19 UNL     1      -4.225   1.775   0.675  1.00  0.00     0.273 C 
HETATM   16  C20 UNL     1      -4.194   2.567   1.988  1.00  0.00     0.030 C 
HETATM   17  C21 UNL     1      -4.421   1.642   3.166  1.00  0.00     0.002 C 
HETATM   18  C22 UNL     1      -3.304   0.657   3.181  1.00  0.00     0.002 C 
HETATM   19  C23 UNL     1      -3.547  -0.614   2.443  1.00  0.00     0.030 C 
HETATM   20  C24 UNL     1      -3.555  -0.492   0.944  1.00  0.00     0.273 C 
ENDBRANCH   6  14
ENDBRANCH   3   6
ENDBRANCH   1   2
BRANCH   1  21
HETATM   21  C7  UNL     1       2.052   0.190  -0.145  1.00  0.00     0.035 C 
BRANCH  21  22
HETATM   22  C8  UNL     1       2.278   1.654  -0.555  1.00  0.00     0.004 C 
BRANCH  22  23
HETATM   23  C9  UNL     1       3.097   2.288   0.544  1.00  0.00     0.020 C 
BRANCH  23  24
HETATM   24  C10 UNL     1       3.360   3.755   0.200  1.00  0.00     0.122 C 
BRANCH  24  25
HETATM   25  N3  UNL     1       2.046   4.374   0.093  1.00  0.00    -0.367 N 
HETATM   26  C11 UNL     1       1.712   5.217   1.005  1.00  0.00     0.196 C 
HETATM   27  N4  UNL     1       2.519   5.582   2.093  1.00  0.00    -0.067 NA
HETATM   28  N5  UNL     1       0.419   5.829   0.906  1.00  0.00    -0.067 NA
ATOM     29  H3  UNL     1       1.415   4.148  -0.676  1.00  0.00     0.161 HD
ENDBRANCH  24  25
ENDBRANCH  23  24
ENDBRANCH  22  23
ENDBRANCH  21  22
ENDBRANCH   1  21
BRANCH   1  30
HETATM   30  C12 UNL     1       1.130  -1.984  -0.998  1.00  0.00     0.242 C 
HETATM   31  O2  UNL     1      -0.056  -2.477  -0.944  1.00  0.00    -0.271 OA
HETATM   32  N6  UNL     1       2.180  -2.907  -0.883  1.00  0.00    -0.350 N 
HETATM   33  C13 UNL     1       1.885  -4.314  -0.704  1.00  0.00     0.126 C 
HETATM   34  C18 UNL     1       3.581  -2.563  -0.944  1.00  0.00     0.126 C 
HETATM   35  C14 UNL     1       2.940  -4.979   0.139  1.00  0.00     0.026 C 
HETATM   36  C15 UNL     1       4.293  -4.923  -0.514  1.00  0.00     0.014 C 
HETATM   37  C17 UNL     1       4.332  -3.781  -1.505  1.00  0.00     0.026 C 
BRANCH  36  38
HETATM   38  C16 UNL     1       5.365  -4.766   0.564  1.00  0.00     0.234 C 
BRANCH  38  39
HETATM   39  N7  UNL     1       5.262  -5.920   1.437  1.00  0.00    -0.079 N 
ATOM     40  H73 UNL     1       4.325  -6.051   1.819  1.00  0.00     0.274 HD
ATOM     41  H72 UNL     1       5.323  -6.807   0.937  1.00  0.00     0.274 HD
ATOM     42  H71 UNL     1       5.977  -5.815   2.156  1.00  0.00     0.274 HD
ENDBRANCH  38  39
ENDBRANCH  36  38
ENDBRANCH   1  30
TORSDOF 15
