REMARK  2 active torsions:
REMARK  status: ('A' for Active; 'I' for Inactive)
REMARK    1  A    between atoms: C3_3  and  C4_4 
REMARK    2  A    between atoms: C8_8  and  C9_9 
ROOT
HETATM    1  C1  UNL     1       1.590   2.668  -0.650  1.00  0.00     0.013 C 
HETATM    2  C2  UNL     1       1.144   1.597  -0.325  1.00  0.00    -0.102 C 
HETATM    3  C3  UNL     1       0.575   0.285   0.060  1.00  0.00     0.046 C 
HETATM    4  C6  UNL     1       0.631   0.123   1.557  1.00  0.00     0.028 C 
HETATM    5  C7  UNL     1      -0.805  -0.338   1.517  1.00  0.00     0.012 C 
HETATM    6  C8  UNL     1      -0.933   0.332   0.148  1.00  0.00     0.032 C 
ENDROOT
BRANCH   3   7
HETATM    7  C4  UNL     1       1.145  -0.838  -0.698  1.00  0.00    -0.014 C 
HETATM    8  C5  UNL     1       2.260  -1.451  -0.338  1.00  0.00     0.008 C 
ENDBRANCH   3   7
BRANCH   6   9
HETATM    9  C9  UNL     1      -1.667  -0.518  -0.794  1.00  0.00    -0.030 C 
HETATM   10  C10 UNL     1      -2.789  -0.095  -1.345  1.00  0.00     0.007 C 
ENDBRANCH   6   9
TORSDOF 2
