REMARK  0 active torsions:
REMARK  status: ('A' for Active; 'I' for Inactive)
ROOT
HETATM    1  C1  UNL     1       2.054   0.781   0.501  1.00  0.00     0.010 C 
HETATM    2  C2  UNL     1       1.138  -0.358   0.228  1.00  0.00    -0.014 C 
HETATM    3  C3  UNL     1       0.591  -0.348  -1.204  1.00  0.00     0.009 C 
HETATM    4  C4  UNL     1      -0.864  -0.632  -1.069  1.00  0.00    -0.014 C 
HETATM    5  C5  UNL     1      -1.541   0.669  -0.629  1.00  0.00     0.005 C 
HETATM    6  C6  UNL     1      -0.953   0.873   0.769  1.00  0.00     0.005 C 
HETATM    7  C7  UNL     1      -0.121  -0.352   1.056  1.00  0.00    -0.010 C 
HETATM    8  C8  UNL     1      -0.941  -1.391   0.265  1.00  0.00     0.009 C 
ENDROOT
TORSDOF 0
