REMARK  12 active torsions:
REMARK  status: ('A' for Active; 'I' for Inactive)
REMARK    1  A    between atoms: O1_1  and  C1_3 
REMARK    2  A    between atoms: C9_11  and  C10_12 
REMARK    3  A    between atoms: C10_12  and  C11_13 
REMARK    4  A    between atoms: C11_13  and  C12_14 
REMARK    5  A    between atoms: C12_14  and  C13_15 
REMARK    6  A    between atoms: C13_15  and  C14_16 
REMARK    7  A    between atoms: C14_16  and  C15_17 
REMARK    8  A    between atoms: C15_17  and  C16_18 
REMARK    9  A    between atoms: C16_18  and  C17_19 
REMARK   10  A    between atoms: C17_19  and  C18_20 
REMARK   11  A    between atoms: C18_20  and  N1_21 
REMARK   12  A    between atoms: N1_21  and  C19_23 
ROOT
HETATM    1  C14 UNL     1       1.573   0.645   0.409  1.00  0.00     0.000 C 
ENDROOT
BRANCH   1   2
HETATM    2  C13 UNL     1       1.038  -0.112   1.601  1.00  0.00     0.000 C 
BRANCH   2   3
HETATM    3  C12 UNL     1      -0.034   0.636   2.329  1.00  0.00     0.000 C 
BRANCH   3   4
HETATM    4  C11 UNL     1      -1.232   0.939   1.461  1.00  0.00     0.000 C 
BRANCH   4   5
HETATM    5  C10 UNL     1      -1.876  -0.295   0.930  1.00  0.00     0.007 C 
BRANCH   5   6
HETATM    6  C9  UNL     1      -3.073   0.058   0.064  1.00  0.00     0.015 C 
HETATM    7  C1  UNL     1      -4.062   0.801   0.874  1.00  0.00     0.122 C 
HETATM    8  C2  UNL     1      -5.455   0.849   0.425  1.00  0.00     0.036 C 
HETATM    9  C3  UNL     1      -5.776   0.613  -0.993  1.00  0.00    -0.012 C 
HETATM   10  C4  UNL     1      -4.929   1.281  -2.010  1.00  0.00     0.005 C 
HETATM   11  C7  UNL     1      -5.816  -0.875  -1.372  1.00  0.00     0.009 C 
HETATM   12  C5  UNL     1      -4.090   0.179  -2.566  1.00  0.00     0.005 C 
HETATM   13  C6  UNL     1      -4.349  -1.068  -1.781  1.00  0.00    -0.014 C 
HETATM   14  C8  UNL     1      -3.566  -1.217  -0.532  1.00  0.00     0.012 C 
BRANCH   7  15
HETATM   15  O1  UNL     1      -4.054   0.226   2.171  1.00  0.00    -0.395 OA
ATOM     16  H1  UNL     1      -3.150   0.195   2.462  1.00  0.00     0.210 HD
ENDBRANCH   7  15
ENDBRANCH   5   6
ENDBRANCH   4   5
ENDBRANCH   3   4
ENDBRANCH   2   3
ENDBRANCH   1   2
BRANCH   1  17
HETATM   17  C15 UNL     1       2.646  -0.157  -0.284  1.00  0.00     0.000 C 
BRANCH  17  18
HETATM   18  C16 UNL     1       3.817  -0.460   0.619  1.00  0.00     0.002 C 
BRANCH  18  19
HETATM   19  C17 UNL     1       4.848  -1.268  -0.166  1.00  0.00     0.020 C 
BRANCH  19  20
HETATM   20  C18 UNL     1       6.041  -1.597   0.699  1.00  0.00     0.138 C 
BRANCH  20  21
HETATM   21  N1  UNL     1       6.685  -0.410   1.174  1.00  0.00    -0.223 N 
ATOM     22  H1  UNL     1       6.507  -0.083   2.124  1.00  0.00     0.177 HD
BRANCH  21  23
HETATM   23  C19 UNL     1       7.490   0.250   0.408  1.00  0.00     0.709 A 
HETATM   24  N2  UNL     1       8.124   1.374   0.802  1.00  0.00    -0.115 N 
HETATM   25  N3  UNL     1       8.884   1.839  -0.186  1.00  0.00    -0.213 N 
ATOM     26  H2  UNL     1       8.034   1.804   1.722  1.00  0.00     0.207 HD
HETATM   27  N4  UNL     1       8.714   1.000  -1.179  1.00  0.00    -0.213 N 
ATOM     28  H3  UNL     1       9.474   2.671  -0.174  1.00  0.00     0.210 HD
HETATM   29  N5  UNL     1       7.875   0.026  -0.850  1.00  0.00    -0.115 N 
ATOM     30  H4  UNL     1       9.169   1.085  -2.088  1.00  0.00     0.210 HD
ATOM     31  H5  UNL     1       7.580  -0.748  -1.446  1.00  0.00     0.207 HD
ENDBRANCH  21  23
ENDBRANCH  20  21
ENDBRANCH  19  20
ENDBRANCH  18  19
ENDBRANCH  17  18
ENDBRANCH   1  17
TORSDOF 12
