REMARK  1 active torsions:
REMARK  status: ('A' for Active; 'I' for Inactive)
REMARK    1  A    between atoms: C9_12  and  C10_13 
ROOT
HETATM    1  O1  UNL     1      -4.170  -2.543   1.130  1.00  0.00    -0.287 OA
HETATM    2  C1  UNL     1      -3.592  -1.540   0.660  1.00  0.00     0.195 A 
HETATM    3  C2  UNL     1      -4.209  -0.425  -0.046  1.00  0.00     0.027 A 
HETATM    4  C3  UNL     1      -5.496  -0.099  -0.414  1.00  0.00     0.016 A 
HETATM    5  C4  UNL     1      -5.785   1.072  -1.104  1.00  0.00     0.001 A 
HETATM    6  C5  UNL     1      -4.770   1.941  -1.435  1.00  0.00     0.001 A 
HETATM    7  C6  UNL     1      -3.483   1.620  -1.070  1.00  0.00     0.014 A 
HETATM    8  C7  UNL     1      -3.196   0.447  -0.379  1.00  0.00     0.006 A 
HETATM    9  C8  UNL     1      -1.930  -0.109   0.113  1.00  0.00     0.058 A 
HETATM   10  N1  UNL     1      -0.664   0.316   0.062  1.00  0.00    -0.354 N 
ATOM     11  H1  UNL     1      -0.481   1.205  -0.404  1.00  0.00     0.166 HD
HETATM   12  C9  UNL     1       0.395  -0.350   0.585  1.00  0.00     0.043 A 
HETATM   13  C20 UNL     1       0.184  -1.537   1.212  1.00  0.00     0.031 A 
HETATM   14  C21 UNL     1      -1.099  -2.035   1.299  1.00  0.00     0.020 A 
HETATM   15  C22 UNL     1      -2.132  -1.315   0.750  1.00  0.00     0.043 A 
ENDROOT
BRANCH  12  16
HETATM   16  C10 UNL     1       1.662   0.366   0.506  1.00  0.00     0.002 A 
HETATM   17  C11 UNL     1       1.649   1.733   0.829  1.00  0.00     0.014 A 
HETATM   18  C12 UNL     1       2.782   2.483   0.773  1.00  0.00     0.002 A 
HETATM   19  C13 UNL     1       3.973   1.920   0.397  1.00  0.00     0.012 A 
HETATM   20  C14 UNL     1       3.981   0.582   0.079  1.00  0.00    -0.025 A 
HETATM   21  C15 UNL     1       5.161   0.013  -0.332  1.00  0.00     0.012 A 
HETATM   22  C19 UNL     1       2.822  -0.221   0.126  1.00  0.00    -0.013 A 
HETATM   23  C16 UNL     1       5.261  -1.304  -0.703  1.00  0.00     0.001 A 
HETATM   24  C17 UNL     1       4.122  -2.051  -0.651  1.00  0.00     0.001 A 
HETATM   25  C18 UNL     1       2.904  -1.544  -0.247  1.00  0.00     0.013 A 
ENDBRANCH  12  16
TORSDOF 1
