REMARK  8 active torsions:
REMARK  status: ('A' for Active; 'I' for Inactive)
REMARK    1  A    between atoms: O1_2  and  C2_3 
REMARK    2  A    between atoms: C2_3  and  C3_5 
REMARK    3  A    between atoms: C3_5  and  C5_7 
REMARK       I    between atoms: C5_7  and  N1_9 
REMARK    4  A    between atoms: N1_9  and  C6_11 
REMARK    5  A    between atoms: C7_14  and  C8_15 
REMARK    6  A    between atoms: C8_15  and  N3_16 
REMARK    7  A    between atoms: C8_15  and  O4_20 
REMARK    8  A    between atoms: C9_24  and  N5_25 
ROOT
HETATM    1  C6  UNL     1      -0.859   0.157   0.084  1.00  0.00     0.701 A 
HETATM    2  N2  UNL     1      -2.038   0.654  -0.334  1.00  0.00    -0.175 N 
ATOM      3  H2  UNL     1      -2.059   1.607  -0.697  1.00  0.00     0.185 HD
HETATM    4  C7  UNL     1      -3.190  -0.040  -0.298  1.00  0.00     0.169 A 
HETATM    5  N4  UNL     1      -3.137  -1.296   0.185  1.00  0.00    -0.175 N 
ATOM      6  H4  UNL     1      -3.989  -1.856   0.228  1.00  0.00     0.185 HD
HETATM    7  C9  UNL     1      -1.975  -1.821   0.611  1.00  0.00     0.691 A 
HETATM    8  N6  UNL     1      -0.850  -1.100   0.560  1.00  0.00    -0.022 N 
ATOM      9  H6  UNL     1       0.026  -1.509   0.886  1.00  0.00     0.203 HD
ENDROOT
BRANCH   1  10
HETATM   10  N1  UNL     1       0.164   0.908   0.002  1.00  0.00    -0.158 N 
HETATM   11  C5  UNL     1       1.474   0.568   0.387  1.00  0.00     0.249 C 
HETATM   12  O3  UNL     1       1.796   0.111   1.513  1.00  0.00    -0.272 OA
ATOM     13  H1  UNL     1       0.022   1.844  -0.378  1.00  0.00     0.187 HD
BRANCH  11  14
HETATM   14  C3  UNL     1       2.565   0.760  -0.603  1.00  0.00     0.174 C 
HETATM   15  C4  UNL     1       2.538   2.213  -1.032  1.00  0.00     0.030 C 
BRANCH  14  16
HETATM   16  C2  UNL     1       3.871   0.365  -0.065  1.00  0.00     0.271 C 
HETATM   17  O2  UNL     1       4.858   1.139   0.031  1.00  0.00    -0.264 OA
BRANCH  16  18
HETATM   18  O1  UNL     1       4.043  -0.935   0.367  1.00  0.00    -0.326 OA
HETATM   19  C1  UNL     1       5.275  -1.388   0.897  1.00  0.00     0.213 C 
ENDBRANCH  16  18
ENDBRANCH  14  16
ENDBRANCH  11  14
ENDBRANCH   1  10
BRANCH   4  20
HETATM   20  C8  UNL     1      -4.479   0.567  -0.779  1.00  0.00     0.386 C 
BRANCH  20  21
HETATM   21  N3  UNL     1      -4.537   1.906  -0.229  1.00  0.00    -0.046 N 
ATOM     22  H33 UNL     1      -4.434   1.930   0.786  1.00  0.00     0.277 HD
ATOM     23  H32 UNL     1      -3.717   2.470  -0.454  1.00  0.00     0.277 HD
ATOM     24  H31 UNL     1      -5.411   2.318  -0.555  1.00  0.00     0.277 HD
ENDBRANCH  20  21
BRANCH  20  25
HETATM   25  O4  UNL     1      -5.507  -0.239  -0.258  1.00  0.00    -0.364 OA
ATOM     26  H4  UNL     1      -6.321   0.144  -0.562  1.00  0.00     0.212 HD
ENDBRANCH  20  25
ENDBRANCH   4  20
BRANCH   7  27
HETATM   27  N5  UNL     1      -1.950  -3.026   1.069  1.00  0.00    -0.234 N 
ATOM     28  H52 UNL     1      -2.808  -3.576   1.108  1.00  0.00     0.174 HD
ATOM     29  H51 UNL     1      -1.068  -3.424   1.392  1.00  0.00     0.174 HD
ENDBRANCH   7  27
TORSDOF 8
