REMARK  6 active torsions:
REMARK  status: ('A' for Active; 'I' for Inactive)
REMARK    1  A    between atoms: N1_1  and  C1_5 
REMARK       I    between atoms: N3_9  and  C3_11 
REMARK    2  A    between atoms: C3_11  and  C4_13 
REMARK    3  A    between atoms: C4_13  and  N4_14 
REMARK    4  A    between atoms: C4_13  and  N5_18 
REMARK    5  A    between atoms: C5_19  and  O2_20 
REMARK    6  A    between atoms: C8_24  and  O3_25 
ROOT
HETATM    1  C4  UNL     1       0.605  -1.075  -0.359  1.00  0.00     0.384 C 
ENDROOT
BRANCH   1   2
HETATM    2  C3  UNL     1       1.558   0.063  -0.447  1.00  0.00     0.274 C 
HETATM    3  N3  UNL     1       2.640   0.160   0.466  1.00  0.00    -0.310 N 
HETATM    4  C2  UNL     1       3.808   0.574   0.146  1.00  0.00     0.132 A 
ATOM      5  H3  UNL     1       2.477  -0.116   1.434  1.00  0.00     0.170 HD
HETATM    6  C1  UNL     1       5.221   0.944   0.309  1.00  0.00     0.351 A 
HETATM    7  N2  UNL     1       4.608   1.071  -0.978  1.00  0.00    -0.343 N 
ATOM      8  H2  UNL     1       4.677   1.324  -1.964  1.00  0.00     0.163 HD
HETATM    9  O1  UNL     1       1.445   0.963  -1.314  1.00  0.00    -0.269 OA
BRANCH   6  10
HETATM   10  N1  UNL     1       6.216  -0.115   0.437  1.00  0.00    -0.051 N 
ATOM     11  H13 UNL     1       5.811  -1.008   0.156  1.00  0.00     0.277 HD
ATOM     12  H12 UNL     1       6.933  -0.006  -0.280  1.00  0.00     0.277 HD
ATOM     13  H11 UNL     1       6.653  -0.206   1.354  1.00  0.00     0.277 HD
ENDBRANCH   6  10
ENDBRANCH   1   2
BRANCH   1  14
HETATM   14  N4  UNL     1       0.931  -1.975   0.704  1.00  0.00    -0.049 N 
ATOM     15  H43 UNL     1       1.893  -2.305   0.625  1.00  0.00     0.277 HD
ATOM     16  H42 UNL     1       1.001  -1.483   1.595  1.00  0.00     0.277 HD
ATOM     17  H41 UNL     1       0.277  -2.756   0.764  1.00  0.00     0.277 HD
ENDBRANCH   1  14
BRANCH   1  18
HETATM   18  N5  UNL     1      -0.763  -0.596  -0.198  1.00  0.00    -0.270 N 
HETATM   19  C5  UNL     1      -1.370  -0.318   0.959  1.00  0.00     0.153 A 
HETATM   20  C6  UNL     1      -2.642   0.101   0.659  1.00  0.00     0.004 A 
HETATM   21  C7  UNL     1      -2.806   0.074  -0.702  1.00  0.00     0.004 A 
HETATM   22  C11 UNL     1      -3.917   0.576   1.262  1.00  0.00     0.044 C 
HETATM   23  C8  UNL     1      -1.605  -0.369  -1.209  1.00  0.00     0.153 A 
HETATM   24  C9  UNL     1      -4.191   0.525  -1.073  1.00  0.00     0.044 C 
HETATM   25  C10 UNL     1      -4.571   1.347   0.134  1.00  0.00     0.009 C 
BRANCH  19  26
HETATM   26  O2  UNL     1      -0.810  -0.431   2.259  1.00  0.00    -0.345 OA
ATOM     27  H2  UNL     1      -1.242  -0.233   3.082  1.00  0.00     0.219 HD
ENDBRANCH  19  26
BRANCH  23  28
HETATM   28  O3  UNL     1      -1.377  -0.531  -2.583  1.00  0.00    -0.345 OA
ATOM     29  H3  UNL     1      -1.976  -0.369  -3.302  1.00  0.00     0.219 HD
ENDBRANCH  23  28
ENDBRANCH   1  18
TORSDOF 6
