REMARK  24 active torsions:
REMARK  status: ('A' for Active; 'I' for Inactive)
REMARK    1  A    between atoms: C2_2  and  C3_3 
REMARK    2  A    between atoms: C3_3  and  N1_4 
REMARK       I    between atoms: C4_6  and  N3_8 
REMARK    3  A    between atoms: N3_8  and  C5_10 
REMARK    4  A    between atoms: C7_14  and  C8_15 
REMARK       I    between atoms: C8_15  and  N5_17 
REMARK    5  A    between atoms: N5_17  and  C9_18 
REMARK    6  A    between atoms: C9_18  and  C10_19 
REMARK    7  A    between atoms: C10_19  and  C11_20 
REMARK    8  A    between atoms: C11_20  and  C12_21 
REMARK    9  A    between atoms: C12_21  and  N6_22 
REMARK       I    between atoms: N6_22  and  C13_24 
REMARK   10  A    between atoms: C13_24  and  C14_26 
REMARK   11  A    between atoms: C14_26  and  N7_27 
REMARK   12  A    between atoms: N7_27  and  C16_29 
REMARK   13  A    between atoms: C16_29  and  C17_30 
REMARK   14  A    between atoms: C17_30  and  C18_31 
REMARK   15  A    between atoms: C18_31  and  N8_32 
REMARK       I    between atoms: N8_32  and  C19_34 
REMARK       I    between atoms: C19_34  and  N9_35 
REMARK       I    between atoms: C19_34  and  N10_38 
REMARK   16  A    between atoms: N10_38  and  C20_40 
REMARK   17  A    between atoms: C20_40  and  C21_41 
REMARK   18  A    between atoms: C21_41  and  N11_42 
REMARK   19  A    between atoms: N11_42  and  C23_44 
REMARK   20  A    between atoms: C23_44  and  O3_45 
REMARK   21  A    between atoms: C23_44  and  C24_47 
REMARK   22  A    between atoms: C24_47  and  O4_48 
REMARK   23  A    between atoms: C24_47  and  N12_50 
REMARK   24  A    between atoms: N12_50  and  C25_52 
ROOT
HETATM    1  C14 UNL     1       1.377  -0.771  -0.077  1.00  0.00     0.197 C 
ENDROOT
BRANCH   1   2
HETATM    2  C13 UNL     1       0.304  -0.028  -0.789  1.00  0.00     0.231 C 
HETATM    3  N6  UNL     1      -0.638   0.767  -0.027  1.00  0.00    -0.360 N 
ATOM      4  H6  UNL     1      -0.607   0.799   0.992  1.00  0.00     0.162 HD
HETATM    5  O2  UNL     1       0.224  -0.065  -2.008  1.00  0.00    -0.272 OA
BRANCH   3   6
HETATM    6  C12 UNL     1      -1.617   1.507  -0.773  1.00  0.00     0.122 C 
BRANCH   6   7
HETATM    7  C11 UNL     1      -2.724   0.707  -1.403  1.00  0.00     0.022 C 
BRANCH   7   8
HETATM    8  C10 UNL     1      -3.533  -0.006  -0.363  1.00  0.00     0.035 C 
BRANCH   8   9
HETATM    9  C9  UNL     1      -4.855  -0.551  -0.913  1.00  0.00     0.222 C 
BRANCH   9  10
HETATM   10  N5  UNL     1      -5.575   0.592  -1.407  1.00  0.00    -0.410 NA
HETATM   11  C8  UNL     1      -6.232   1.643  -1.866  1.00  0.00     0.339 C 
HETATM   12  O1  UNL     1      -6.085   2.370  -2.847  1.00  0.00    -0.250 OA
BRANCH  11  13
HETATM   13  C7  UNL     1      -7.403   2.061  -0.992  1.00  0.00     0.146 A 
HETATM   14  C6  UNL     1      -7.499   3.209  -0.300  1.00  0.00     0.143 A 
HETATM   15  N4  UNL     1      -8.615   3.214   0.395  1.00  0.00    -0.199 N 
HETATM   16  C5  UNL     1      -9.275   1.967   0.124  1.00  0.00     0.685 A 
ATOM     17  H4  UNL     1      -8.948   3.959   1.008  1.00  0.00     0.183 HD
HETATM   18  N13 UNL     1      -8.448   1.346  -0.738  1.00  0.00    -0.183 N 
ATOM     19  H13 UNL     1      -8.625   0.426  -1.140  1.00  0.00     0.184 HD
BRANCH  16  20
HETATM   20  N3  UNL     1     -10.267   1.720   0.662  1.00  0.00    -0.163 N 
HETATM   21  C4  UNL     1     -11.389   0.940   0.999  1.00  0.00     0.206 C 
HETATM   22  N1  UNL     1     -12.481   1.138   0.621  1.00  0.00    -0.344 N 
HETATM   23  N2  UNL     1     -10.981   0.020   2.101  1.00  0.00    -0.063 NA
ATOM     24  H1  UNL     1     -12.419   1.817  -0.138  1.00  0.00     0.167 HD
ATOM     25  H3  UNL     1     -10.419   2.560   1.220  1.00  0.00     0.187 HD
BRANCH  22  26
HETATM   26  C3  UNL     1     -13.818   0.828   0.783  1.00  0.00     0.063 C 
BRANCH  26  27
HETATM   27  C2  UNL     1     -14.074  -0.651   0.884  1.00  0.00     0.040 C 
HETATM   28  C1  UNL     1     -13.528  -1.397  -0.329  1.00  0.00     0.010 C 
ENDBRANCH  26  27
ENDBRANCH  22  26
ENDBRANCH  16  20
ENDBRANCH  11  13
ENDBRANCH   9  10
ENDBRANCH   8   9
ENDBRANCH   7   8
ENDBRANCH   6   7
ENDBRANCH   3   6
ENDBRANCH   1   2
BRANCH   1  29
HETATM   29  N7  UNL     1       1.369  -0.672   1.357  1.00  0.00    -0.288 NA
HETATM   30  C15 UNL     1       1.762   0.646   1.848  1.00  0.00     0.116 C 
BRANCH  29  31
HETATM   31  C16 UNL     1       2.269  -1.703   1.828  1.00  0.00     0.061 C 
BRANCH  31  32
HETATM   32  C17 UNL     1       3.680  -1.440   1.894  1.00  0.00     0.028 C 
BRANCH  32  33
HETATM   33  C18 UNL     1       4.542  -0.993   0.809  1.00  0.00     0.092 C 
BRANCH  33  34
HETATM   34  N8  UNL     1       4.733  -1.660  -0.386  1.00  0.00    -0.339 N 
HETATM   35  C19 UNL     1       5.380  -2.904  -0.718  1.00  0.00     0.172 C 
HETATM   36  N9  UNL     1       4.908  -3.968  -0.130  1.00  0.00    -0.371 N 
HETATM   37  N10 UNL     1       6.450  -2.942  -1.610  1.00  0.00    -0.361 N 
ATOM     38  H92 UNL     1       4.125  -3.940   0.523  1.00  0.00     0.159 HD
ATOM     39  H91 UNL     1       5.366  -4.849  -0.365  1.00  0.00     0.159 HD
ATOM     40  H10 UNL     1       6.543  -3.651  -2.337  1.00  0.00     0.162 HD
ATOM     41  H8  UNL     1       4.338  -1.176  -1.192  1.00  0.00     0.168 HD
BRANCH  37  42
HETATM   42  C20 UNL     1       7.431  -1.870  -1.409  1.00  0.00     0.142 C 
BRANCH  42  43
HETATM   43  C21 UNL     1       8.182  -1.971  -0.094  1.00  0.00     0.144 C 
BRANCH  43  44
HETATM   44  N11 UNL     1       9.158  -0.871  -0.072  1.00  0.00    -0.361 N 
HETATM   45  C22 UNL     1       8.639   0.439   0.319  1.00  0.00     0.152 C 
BRANCH  44  46
HETATM   46  C23 UNL     1      10.472  -0.976  -0.440  1.00  0.00     0.190 C 
BRANCH  46  47
HETATM   47  O3  UNL     1      10.771  -2.292  -0.762  1.00  0.00    -0.343 OA
ATOM     48  H3  UNL     1      11.683  -2.365  -1.017  1.00  0.00     0.219 HD
ENDBRANCH  46  47
BRANCH  46  49
HETATM   49  C24 UNL     1      11.559  -0.151  -0.555  1.00  0.00     0.188 C 
BRANCH  49  50
HETATM   50  O4  UNL     1      10.949   1.224  -0.263  1.00  0.00    -0.343 OA
ATOM     51  H4  UNL     1      11.703   1.796  -0.343  1.00  0.00     0.219 HD
ENDBRANCH  49  50
BRANCH  49  52
HETATM   52  N12 UNL     1      12.819   0.174  -0.773  1.00  0.00    -0.368 N 
ATOM     53  H12 UNL     1      13.458  -0.592  -0.986  1.00  0.00     0.161 HD
BRANCH  52  54
HETATM   54  C25 UNL     1      13.402   1.534  -0.741  1.00  0.00     0.117 C 
HETATM   55  C26 UNL     1      12.686   2.453  -1.717  1.00  0.00     0.026 C 
ENDBRANCH  52  54
ENDBRANCH  49  52
ENDBRANCH  46  49
ENDBRANCH  44  46
ENDBRANCH  43  44
ENDBRANCH  42  43
ENDBRANCH  37  42
ENDBRANCH  33  34
ENDBRANCH  32  33
ENDBRANCH  31  32
ENDBRANCH  29  31
ENDBRANCH   1  29
TORSDOF 24
