REMARK  2 active torsions:
REMARK  status: ('A' for Active; 'I' for Inactive)
REMARK    1  A    between atoms: C4_5  and  O2_6 
REMARK    2  A    between atoms: C6_9  and  O3_10 
ROOT
HETATM    1  C1  UNL     1       2.512   0.317   0.112  1.00  0.00     0.042 C 
HETATM    2  C2  UNL     1       1.032   0.208   0.272  1.00  0.00     0.146 C 
HETATM    3  O1  UNL     1       0.397   1.357  -0.251  1.00  0.00    -0.381 OA
HETATM    4  C3  UNL     1      -0.802   1.476   0.421  1.00  0.00     0.200 C 
HETATM    5  C4  UNL     1      -1.594   0.233   0.530  1.00  0.00     0.144 C 
HETATM    6  C5  UNL     1      -1.058  -0.965  -0.144  1.00  0.00     0.068 C 
HETATM    7  C6  UNL     1       0.412  -0.953  -0.420  1.00  0.00     0.149 C 
ENDROOT
BRANCH   5   8
HETATM    8  O2  UNL     1      -2.905   0.519   0.082  1.00  0.00    -0.393 OA
ATOM      9  H2  UNL     1      -3.414  -0.280   0.152  1.00  0.00     0.210 HD
ENDBRANCH   5   8
BRANCH   7  10
HETATM   10  O3  UNL     1       1.041  -2.154  -0.100  1.00  0.00    -0.393 OA
ATOM     11  H3  UNL     1       0.645  -2.896  -0.542  1.00  0.00     0.210 HD
ENDBRANCH   7  10
TORSDOF 2
