REMARK  6 active torsions:
REMARK  status: ('A' for Active; 'I' for Inactive)
REMARK    1  A    between atoms: C3_8  and  N3_9 
REMARK    2  A    between atoms: N3_9  and  N4_11 
REMARK    3  A    between atoms: N4_11  and  C4_13 
REMARK    4  A    between atoms: C4_13  and  C5_14 
REMARK    5  A    between atoms: C5_14  and  N5_15 
REMARK    6  A    between atoms: C5_14  and  N6_19 
ROOT
HETATM    1  N4  UNL     1      -0.372  -0.102  -1.381  1.00  0.00    -0.331 N 
ATOM      2  H4  UNL     1      -0.404  -0.060  -2.400  1.00  0.00     0.180 HD
ENDROOT
BRANCH   1   3
HETATM    3  N3  UNL     1       0.784   0.303  -0.710  1.00  0.00    -0.287 N 
ATOM      4  H3  UNL     1       0.960   1.301  -0.593  1.00  0.00     0.188 HD
BRANCH   3   5
HETATM    5  C3  UNL     1       1.632  -0.535  -0.236  1.00  0.00     0.166 A 
HETATM    6  C2  UNL     1       2.787  -0.195   0.435  1.00  0.00     0.077 A 
HETATM    7  C1  UNL     1       3.284   1.190   0.742  1.00  0.00     0.074 C 
HETATM    8  N1  UNL     1       3.365  -1.372   0.748  1.00  0.00    -0.242 N 
HETATM    9  O1  UNL     1       2.606  -2.350   0.296  1.00  0.00    -0.155 OA
ATOM     10  H1  UNL     1       4.245  -1.487   1.252  1.00  0.00     0.196 HD
HETATM   11  N2  UNL     1       1.565  -1.880  -0.295  1.00  0.00    -0.222 N 
ATOM     12  H2  UNL     1       0.822  -2.427  -0.730  1.00  0.00     0.198 HD
ENDBRANCH   3   5
ENDBRANCH   1   3
BRANCH   1  13
HETATM   13  C4  UNL     1      -1.526  -0.580  -0.649  1.00  0.00     0.201 C 
BRANCH  13  14
HETATM   14  C5  UNL     1      -2.029   0.518   0.293  1.00  0.00     0.396 C 
BRANCH  14  15
HETATM   15  N5  UNL     1      -3.186   0.039   1.026  1.00  0.00    -0.049 N 
ATOM     16  H53 UNL     1      -3.920  -0.302   0.405  1.00  0.00     0.276 HD
ATOM     17  H52 UNL     1      -2.995  -0.833   1.519  1.00  0.00     0.276 HD
ATOM     18  H51 UNL     1      -3.521   0.770   1.653  1.00  0.00     0.276 HD
ENDBRANCH  14  15
BRANCH  14  19
HETATM   19  N6  UNL     1      -2.433   1.653  -0.508  1.00  0.00    -0.049 N 
ATOM     20  H63 UNL     1      -1.693   1.978  -1.130  1.00  0.00     0.276 HD
ATOM     21  H62 UNL     1      -3.117   1.406  -1.223  1.00  0.00     0.276 HD
ATOM     22  H61 UNL     1      -2.768   2.384   0.119  1.00  0.00     0.276 HD
ENDBRANCH  14  19
ENDBRANCH  13  14
ENDBRANCH   1  13
TORSDOF 6
