REMARK  8 active torsions:
REMARK  status: ('A' for Active; 'I' for Inactive)
REMARK    1  A    between atoms: C2_2  and  C3_3 
REMARK    2  A    between atoms: C2_2  and  C11_15 
REMARK    3  A    between atoms: C2_2  and  C14_23 
REMARK    4  A    between atoms: C3_3  and  O1_4 
REMARK    5  A    between atoms: O1_4  and  C4_5 
REMARK    6  A    between atoms: C4_5  and  C5_7 
REMARK    7  A    between atoms: C11_15  and  C12_16 
REMARK    8  A    between atoms: C12_16  and  N1_18 
ROOT
HETATM    1  C1  UNL     1      -1.331  -0.562  -2.928  1.00  0.00     0.018 C 
HETATM    2  C2  UNL     1      -0.532  -0.141  -1.709  1.00  0.00    -0.012 C 
ENDROOT
BRANCH   2   3
HETATM    3  C3  UNL     1       0.904  -0.630  -2.087  1.00  0.00     0.189 C 
BRANCH   3   4
HETATM    4  O1  UNL     1       1.813  -0.343  -1.054  1.00  0.00    -0.317 OA
BRANCH   4   5
HETATM    5  C4  UNL     1       3.132  -0.676  -1.153  1.00  0.00     0.293 C 
HETATM    6  O2  UNL     1       3.504  -1.255  -2.215  1.00  0.00    -0.259 OA
BRANCH   5   7
HETATM    7  C5  UNL     1       4.114  -0.399  -0.107  1.00  0.00     0.042 A 
HETATM    8  C6  UNL     1       3.790   0.224   1.073  1.00  0.00     0.041 A 
HETATM    9  C7  UNL     1       4.714   0.487   2.062  1.00  0.00     0.036 A 
HETATM   10 CL1  UNL     1       4.231   1.291   3.552  1.00  0.00    -0.084 Cl
HETATM   11  C8  UNL     1       6.039   0.101   1.851  1.00  0.00     0.047 A 
HETATM   12  C9  UNL     1       6.394  -0.527   0.677  1.00  0.00     0.036 A 
HETATM   13 CL2  UNL     1       8.061  -0.997   0.447  1.00  0.00    -0.084 Cl
HETATM   14  C10 UNL     1       5.429  -0.766  -0.279  1.00  0.00     0.041 A 
ENDBRANCH   5   7
ENDBRANCH   4   5
ENDBRANCH   3   4
ENDBRANCH   2   3
BRANCH   2  15
HETATM   15  C11 UNL     1      -0.396   1.332  -1.683  1.00  0.00     0.081 C 
BRANCH  15  16
HETATM   16  C12 UNL     1      -1.560   2.172  -1.644  1.00  0.00     0.080 C 
HETATM   17  S1  UNL     1      -2.017   3.051  -2.941  1.00  0.00    -0.065 SA
BRANCH  16  18
HETATM   18  N1  UNL     1      -2.362   2.277  -0.493  1.00  0.00    -0.327 N 
HETATM   19  C13 UNL     1      -2.060   3.215   0.359  1.00  0.00     0.201 C 
HETATM   20  N2  UNL     1      -2.838   3.360   1.533  1.00  0.00    -0.066 NA
HETATM   21  N3  UNL     1      -0.980   4.109   0.166  1.00  0.00    -0.066 NA
ATOM     22  H1  UNL     1      -3.147   1.645  -0.332  1.00  0.00     0.168 HD
ENDBRANCH  16  18
ENDBRANCH  15  16
ENDBRANCH   2  15
BRANCH   2  23
HETATM   23  C14 UNL     1      -0.859  -0.849  -0.454  1.00  0.00     0.001 C 
HETATM   24  C15 UNL     1      -0.579  -2.341  -0.641  1.00  0.00     0.006 C 
HETATM   25  C16 UNL     1      -1.218  -2.899   0.616  1.00  0.00     0.006 C 
HETATM   26  C17 UNL     1      -2.541  -2.215   0.628  1.00  0.00    -0.001 A 
HETATM   27  C18 UNL     1      -2.321  -0.874  -0.100  1.00  0.00     0.003 A 
HETATM   28  C19 UNL     1      -2.776  -0.951   1.326  1.00  0.00    -0.039 A 
HETATM   29  C20 UNL     1      -1.851  -0.530   2.442  1.00  0.00     0.015 C 
HETATM   30  C21 UNL     1      -4.223  -0.580   1.571  1.00  0.00     0.015 C 
ENDBRANCH   2  23
TORSDOF 8
