REMARK  10 active torsions:
REMARK  status: ('A' for Active; 'I' for Inactive)
REMARK    1  A    between atoms: C2_2  and  C3_3 
REMARK    2  A    between atoms: C3_3  and  O1_5 
REMARK    3  A    between atoms: C3_3  and  C5_7 
REMARK    4  A    between atoms: C5_7  and  O2_8 
REMARK    5  A    between atoms: C5_7  and  C6_10 
REMARK    6  A    between atoms: C6_10  and  C7_11 
REMARK    7  A    between atoms: C7_11  and  N1_12 
REMARK    8  A    between atoms: C9_14  and  C10_15 
REMARK    9  A    between atoms: C10_15  and  N2_16 
REMARK   10  A    between atoms: N2_16  and  C11_19 
ROOT
HETATM    1  C11 UNL     1       5.090  -1.184   0.075  1.00  0.00     0.213 C 
HETATM    2  C12 UNL     1       4.916  -2.433   0.813  1.00  0.00     0.099 C 
HETATM    3  N3  UNL     1       4.761  -3.418   1.397  1.00  0.00    -0.195 NA
HETATM    4  C13 UNL     1       6.454  -0.525   0.325  1.00  0.00     0.055 C 
HETATM    5  C14 UNL     1       6.448  -0.147  -1.141  1.00  0.00     0.007 C 
HETATM    6  C15 UNL     1       5.526  -1.350  -1.367  1.00  0.00     0.055 C 
ENDROOT
BRANCH   1   7
HETATM    7  N2  UNL     1       4.051  -0.214   0.230  1.00  0.00    -0.048 N 
ATOM      8  H22 UNL     1       4.308   0.670  -0.209  1.00  0.00     0.279 HD
ATOM      9  H21 UNL     1       3.983   0.096   1.199  1.00  0.00     0.279 HD
BRANCH   7  10
HETATM   10  C10 UNL     1       2.767  -0.682  -0.257  1.00  0.00     0.294 C 
BRANCH  10  11
HETATM   11  C9  UNL     1       1.710   0.332  -0.089  1.00  0.00     0.070 A 
HETATM   12  C8  UNL     1       0.381   0.177  -0.447  1.00  0.00     0.139 A 
HETATM   13  N1  UNL     1      -0.288   1.289  -0.154  1.00  0.00    -0.287 N 
HETATM   14  N5  UNL     1       0.553   2.130   0.369  1.00  0.00    -0.241 N 
HETATM   15  N4  UNL     1       1.780   1.587   0.426  1.00  0.00    -0.287 N 
ATOM     16  H5  UNL     1       0.315   3.068   0.690  1.00  0.00     0.208 HD
ATOM     17  H4  UNL     1       2.618   2.038   0.792  1.00  0.00     0.188 HD
BRANCH  13  18
HETATM   18  C7  UNL     1      -1.727   1.483  -0.396  1.00  0.00     0.152 C 
BRANCH  18  19
HETATM   19  C6  UNL     1      -2.509   1.043   0.793  1.00  0.00     0.057 C 
BRANCH  19  20
HETATM   20  C5  UNL     1      -3.975   1.247   0.695  1.00  0.00     0.157 C 
BRANCH  20  21
HETATM   21  C3  UNL     1      -4.711   0.576  -0.385  1.00  0.00     0.097 C 
HETATM   22  C4  UNL     1      -6.179   1.044  -0.352  1.00  0.00     0.053 C 
BRANCH  21  23
HETATM   23  C2  UNL     1      -4.753  -0.898  -0.358  1.00  0.00     0.003 C 
HETATM   24  C1  UNL     1      -4.503  -1.717   0.615  1.00  0.00     0.010 C 
ENDBRANCH  21  23
BRANCH  21  25
HETATM   25  O1  UNL     1      -4.230   1.027  -1.634  1.00  0.00    -0.384 OA
ATOM     26  H1  UNL     1      -4.203   1.976  -1.651  1.00  0.00     0.211 HD
ENDBRANCH  21  25
ENDBRANCH  20  21
BRANCH  20  27
HETATM   27  O2  UNL     1      -4.498   0.924   1.975  1.00  0.00    -0.392 OA
ATOM     28  H2  UNL     1      -4.022   1.358   2.673  1.00  0.00     0.210 HD
ENDBRANCH  20  27
ENDBRANCH  19  20
ENDBRANCH  18  19
ENDBRANCH  13  18
ENDBRANCH  10  11
ENDBRANCH   7  10
ENDBRANCH   1   7
TORSDOF 10
