REMARK  10 active torsions:
REMARK  status: ('A' for Active; 'I' for Inactive)
REMARK    1  A    between atoms: N1_4  and  C4_5 
REMARK    2  A    between atoms: C4_5  and  C5_6 
REMARK    3  A    between atoms: C5_6  and  C6_7 
REMARK    4  A    between atoms: C9_10  and  N2_11 
REMARK       I    between atoms: N2_11  and  C10_13 
REMARK    5  A    between atoms: C10_13  and  C11_15 
REMARK    6  A    between atoms: C11_15  and  N3_16 
REMARK    7  A    between atoms: C15_20  and  C16_21 
REMARK    8  A    between atoms: N4_27  and  C20_28 
REMARK    9  A    between atoms: C20_28  and  C21_29 
REMARK   10  A    between atoms: N5_32  and  C24_33 
ROOT
HETATM    1  C1  UNL     1      -0.968  -3.339  -0.637  1.00  0.00     0.034 C 
HETATM    2  C2  UNL     1      -0.710  -2.102   0.260  1.00  0.00     0.103 C 
HETATM    3  C3  UNL     1       0.727  -1.815   0.180  1.00  0.00     0.296 C 
HETATM    4  N1  UNL     1       1.133  -0.430   0.101  1.00  0.00     0.090 N 
HETATM    5  C17 UNL     1       0.607   0.336   1.206  1.00  0.00     0.274 C 
HETATM    6  C18 UNL     1      -0.665   0.970   0.730  1.00  0.00     0.050 C 
HETATM    7  C19 UNL     1      -1.175   0.147  -0.463  1.00  0.00     0.119 C 
HETATM    8  N4  UNL     1      -1.657  -1.084   0.016  1.00  0.00    -0.406 N 
ENDROOT
BRANCH   4   9
HETATM    9  C4  UNL     1       2.556  -0.397   0.005  1.00  0.00     0.273 C 
BRANCH   9  10
HETATM   10  C5  UNL     1       3.137   0.977  -0.299  1.00  0.00     0.036 C 
BRANCH  10  11
HETATM   11  C6  UNL     1       4.658   0.878  -0.380  1.00  0.00     0.002 C 
HETATM   12  C7  UNL     1       5.174   0.361   0.975  1.00  0.00     0.007 C 
HETATM   13  C8  UNL     1       6.609   0.760   1.135  1.00  0.00     0.026 C 
HETATM   14  C9  UNL     1       7.337   0.727  -0.203  1.00  0.00     0.085 C 
HETATM   15  C14 UNL     1       6.811   1.853  -1.025  1.00  0.00     0.041 C 
HETATM   16  C15 UNL     1       5.330   2.152  -0.638  1.00  0.00     0.093 C 
BRANCH  14  17
HETATM   17  N2  UNL     1       8.745   0.926   0.071  1.00  0.00    -0.355 N 
HETATM   18  C10 UNL     1       9.635  -0.190  -0.099  1.00  0.00     0.246 C 
HETATM   19  O1  UNL     1       9.205  -1.309  -0.468  1.00  0.00    -0.272 OA
ATOM     20  H2  UNL     1       9.096   1.834   0.376  1.00  0.00     0.162 HD
BRANCH  18  21
HETATM   21  C11 UNL     1      11.057   0.003   0.168  1.00  0.00     0.373 C 
BRANCH  21  22
HETATM   22  N3  UNL     1      11.841  -1.201  -0.016  1.00  0.00     0.088 N 
HETATM   23  C12 UNL     1      11.495  -2.151   1.040  1.00  0.00     0.310 C 
HETATM   24  C13 UNL     1      13.236  -0.851   0.096  1.00  0.00     0.310 C 
ENDBRANCH  21  22
ENDBRANCH  18  21
ENDBRANCH  14  17
BRANCH  16  25
HETATM   25  C16 UNL     1       4.767   3.097  -1.593  1.00  0.00     0.177 C 
HETATM   26  O2  UNL     1       3.811   2.910  -2.382  1.00  0.00    -0.648 OA
HETATM   27  O3  UNL     1       5.328   4.398  -1.685  1.00  0.00    -0.648 OA
ENDBRANCH  16  25
ENDBRANCH  10  11
ENDBRANCH   9  10
ENDBRANCH   4   9
BRANCH   8  28
HETATM   28  C20 UNL     1      -2.839  -1.605  -0.615  1.00  0.00     0.122 C 
BRANCH  28  29
HETATM   29  C21 UNL     1      -3.920  -0.628  -0.900  1.00  0.00     0.006 C 
HETATM   30  C22 UNL     1      -5.054  -1.437  -1.567  1.00  0.00     0.036 C 
HETATM   31  C23 UNL     1      -6.159  -0.475  -1.907  1.00  0.00     0.273 C 
HETATM   32  N5  UNL     1      -6.744   0.147  -0.747  1.00  0.00     0.093 N 
HETATM   33  C32 UNL     1      -5.691   0.821  -0.081  1.00  0.00     0.273 C 
HETATM   34  C33 UNL     1      -4.572  -0.100   0.384  1.00  0.00     0.036 C 
BRANCH  32  35
HETATM   35  C24 UNL     1      -7.576  -0.713   0.037  1.00  0.00     0.223 C 
HETATM   36  C25 UNL     1      -8.778  -1.217  -0.707  1.00  0.00     0.036 C 
HETATM   37  C26 UNL     1      -9.881  -1.719   0.156  1.00  0.00     0.002 C 
HETATM   38  C27 UNL     1     -10.960  -0.758   0.455  1.00  0.00     0.000 C 
HETATM   39  C28 UNL     1     -10.783   0.647  -0.022  1.00  0.00     0.000 C 
HETATM   40  C29 UNL     1      -9.594   1.376   0.480  1.00  0.00     0.000 C 
HETATM   41  C30 UNL     1      -8.884   0.771   1.640  1.00  0.00     0.002 C 
HETATM   42  C31 UNL     1      -7.847  -0.224   1.409  1.00  0.00     0.036 C 
ENDBRANCH  32  35
ENDBRANCH  28  29
ENDBRANCH   8  28
TORSDOF 10
