REMARK  10 active torsions:
REMARK  status: ('A' for Active; 'I' for Inactive)
REMARK    1  A    between atoms: C3_3  and  N1_4 
REMARK    2  A    between atoms: N1_4  and  C4_5 
REMARK    3  A    between atoms: N1_4  and  C7_8 
REMARK    4  A    between atoms: C4_5  and  C5_6 
REMARK    5  A    between atoms: C7_8  and  O1_9 
REMARK    6  A    between atoms: N2_14  and  C11_15 
REMARK    7  A    between atoms: C11_15  and  C12_16 
REMARK    8  A    between atoms: C11_15  and  C23_34 
REMARK       I    between atoms: C12_16  and  N3_18 
REMARK    9  A    between atoms: N3_18  and  C13_20 
REMARK       I    between atoms: N4_23  and  C16_24 
REMARK       I    between atoms: C16_24  and  N5_26 
REMARK   10  A    between atoms: N5_26  and  C17_28 
ROOT
HETATM    1  C11 UNL     1      -0.570  -1.012   1.265  1.00  0.00     0.353 C 
ENDROOT
BRANCH   1   2
HETATM    2  N2  UNL     1      -1.293  -0.995   0.034  1.00  0.00     0.107 N 
HETATM    3  C10 UNL     1      -1.231   0.254  -0.692  1.00  0.00     0.278 C 
HETATM    4  C9  UNL     1      -2.624   0.630  -1.284  1.00  0.00     0.069 C 
HETATM    5  C8  UNL     1      -3.455   0.971  -0.101  1.00  0.00    -0.026 C 
HETATM    6  C7  UNL     1      -4.707   1.633  -0.251  1.00  0.00     0.144 C 
HETATM    7  C28 UNL     1      -3.411  -0.221   0.849  1.00  0.00     0.069 C 
HETATM    8  C27 UNL     1      -2.656  -1.394   0.258  1.00  0.00     0.278 C 
BRANCH   6   9
HETATM    9  N1  UNL     1      -5.904   1.326  -0.985  1.00  0.00    -0.338 N 
BRANCH   9  10
HETATM   10  C3  UNL     1      -6.040   0.175  -1.777  1.00  0.00     0.088 C 
HETATM   11  C2  UNL     1      -6.397  -1.158  -1.359  1.00  0.00    -0.014 C 
HETATM   12  C1  UNL     1      -7.687  -1.503  -0.746  1.00  0.00     0.037 C 
ENDBRANCH   9  10
BRANCH   9  13
HETATM   13  C4  UNL     1      -6.903   2.393  -1.066  1.00  0.00     0.130 C 
BRANCH  13  14
HETATM   14  C5  UNL     1      -7.823   2.650   0.021  1.00  0.00     0.016 C 
HETATM   15  C6  UNL     1      -8.808   1.681   0.504  1.00  0.00     0.006 C 
ENDBRANCH  13  14
ENDBRANCH   9  13
ENDBRANCH   6   9
BRANCH   6  16
HETATM   16  O1  UNL     1      -4.826   2.762   0.406  1.00  0.00    -0.346 OA
ATOM     17  H1  UNL     1      -4.035   2.965   0.891  1.00  0.00     0.219 HD
ENDBRANCH   6  16
ENDBRANCH   1   2
BRANCH   1  18
HETATM   18  C12 UNL     1       0.893  -0.827   1.150  1.00  0.00     0.256 C 
HETATM   19  O2  UNL     1       1.549  -0.587   2.228  1.00  0.00    -0.271 OA
HETATM   20  N3  UNL     1       1.657  -0.891  -0.027  1.00  0.00    -0.354 N 
ATOM     21  H3  UNL     1       1.186  -1.079  -0.912  1.00  0.00     0.162 HD
BRANCH  20  22
HETATM   22  C13 UNL     1       3.106  -0.696  -0.023  1.00  0.00     0.087 C 
HETATM   23  C14 UNL     1       3.799  -1.849  -0.716  1.00  0.00     0.045 C 
HETATM   24  C15 UNL     1       5.265  -1.716  -0.552  1.00  0.00     0.130 C 
HETATM   25  N4  UNL     1       5.776  -0.373  -0.471  1.00  0.00    -0.330 N 
HETATM   26  C16 UNL     1       7.181  -0.224  -0.428  1.00  0.00     0.319 C 
HETATM   27  C20 UNL     1       4.957   0.808  -0.432  1.00  0.00     0.086 C 
HETATM   28  O3  UNL     1       7.918  -1.218  -0.463  1.00  0.00    -0.247 OA
HETATM   29  N5  UNL     1       7.782   1.050  -0.342  1.00  0.00    -0.339 N 
ATOM     30  H5  UNL     1       7.185   1.876  -0.310  1.00  0.00     0.164 HD
HETATM   31  C21 UNL     1       4.943   1.377   0.985  1.00  0.00     0.032 C 
HETATM   32  C22 UNL     1       3.512   0.547  -0.805  1.00  0.00     0.050 C 
BRANCH  29  33
HETATM   33  C17 UNL     1       9.228   1.223  -0.298  1.00  0.00     0.078 C 
HETATM   34  C18 UNL     1       9.731   2.032  -1.469  1.00  0.00     0.032 C 
HETATM   35  C19 UNL     1       9.691   1.843   0.993  1.00  0.00     0.032 C 
ENDBRANCH  29  33
ENDBRANCH  20  22
ENDBRANCH   1  18
BRANCH   1  36
HETATM   36  C23 UNL     1      -0.828  -2.361   1.925  1.00  0.00     0.025 A 
HETATM   37  C24 UNL     1      -1.189  -2.611   3.223  1.00  0.00     0.018 A 
HETATM   38  C25 UNL     1      -1.346  -3.892   3.581  1.00  0.00     0.008 A 
HETATM   39  C26 UNL     1      -1.133  -4.846   2.618  1.00  0.00     0.050 A 
HETATM   40  S1  UNL     1      -0.720  -3.922   1.249  1.00  0.00    -0.104 SA
ENDBRANCH   1  36
TORSDOF 10
