REMARK  13 active torsions:
REMARK  status: ('A' for Active; 'I' for Inactive)
REMARK    1  A    between atoms: O1_1  and  C1_3 
REMARK    2  A    between atoms: C1_3  and  C2_4 
REMARK    3  A    between atoms: C3_6  and  O3_7 
REMARK    4  A    between atoms: O3_7  and  C4_8 
REMARK    5  A    between atoms: C5_10  and  C6_11 
REMARK    6  A    between atoms: C6_11  and  O5_12 
REMARK    7  A    between atoms: C7_14  and  O6_15 
REMARK    8  A    between atoms: C8_17  and  O7_18 
REMARK    9  A    between atoms: C9_20  and  O8_21 
REMARK   10  A    between atoms: C10_23  and  O9_24 
REMARK   11  A    between atoms: O9_24  and  C11_25 
REMARK   12  A    between atoms: C11_25  and  C12_26 
REMARK   13  A    between atoms: C22_36  and  O10_37 
ROOT
HETATM    1  C2  UNL     1      -1.370   2.650  -2.476  1.00  0.00     0.177 C 
HETATM    2  O2  UNL     1      -1.337   2.260  -1.147  1.00  0.00    -0.349 OA
HETATM    3  C3  UNL     1      -0.902   0.895  -1.059  1.00  0.00     0.292 C 
HETATM    4  C10 UNL     1       0.541   0.892  -1.457  1.00  0.00     0.179 C 
HETATM    5  C21 UNL     1       0.502   1.148  -2.994  1.00  0.00     0.071 C 
HETATM    6  C22 UNL     1      -0.036   2.549  -3.147  1.00  0.00     0.151 C 
ENDROOT
BRANCH   3   7
HETATM    7  O3  UNL     1      -1.096   0.508   0.237  1.00  0.00    -0.326 OA
BRANCH   7   8
HETATM    8  C4  UNL     1      -2.075  -0.490   0.351  1.00  0.00     0.294 C 
HETATM    9  O4  UNL     1      -3.192   0.169   0.913  1.00  0.00    -0.348 OA
HETATM   10  C5  UNL     1      -4.343  -0.597   0.738  1.00  0.00     0.179 C 
HETATM   11  C7  UNL     1      -4.032  -2.045   0.477  1.00  0.00     0.180 C 
HETATM   12  C8  UNL     1      -2.946  -2.519   1.384  1.00  0.00     0.183 C 
HETATM   13  C9  UNL     1      -1.710  -1.672   1.154  1.00  0.00     0.204 C 
BRANCH  10  14
HETATM   14  C6  UNL     1      -5.222  -0.052  -0.354  1.00  0.00     0.198 C 
BRANCH  14  15
HETATM   15  O5  UNL     1      -6.373  -0.813  -0.530  1.00  0.00    -0.398 OA
ATOM     16  H5  UNL     1      -6.928  -0.469  -1.220  1.00  0.00     0.209 HD
ENDBRANCH  14  15
ENDBRANCH  10  14
BRANCH  11  17
HETATM   17  O6  UNL     1      -5.158  -2.853   0.716  1.00  0.00    -0.390 OA
ATOM     18  H6  UNL     1      -4.962  -3.768   0.551  1.00  0.00     0.210 HD
ENDBRANCH  11  17
BRANCH  12  19
HETATM   19  O7  UNL     1      -3.399  -2.349   2.694  1.00  0.00    -0.390 OA
ATOM     20  H7  UNL     1      -2.708  -2.651   3.271  1.00  0.00     0.210 HD
ENDBRANCH  12  19
BRANCH  13  21
HETATM   21  O8  UNL     1      -1.241  -1.349   2.432  1.00  0.00    -0.388 OA
ATOM     22  H8  UNL     1      -1.006  -2.110   2.949  1.00  0.00     0.210 HD
ENDBRANCH  13  21
ENDBRANCH   7   8
ENDBRANCH   3   7
BRANCH   4  23
HETATM   23  O9  UNL     1       1.265  -0.038  -1.076  1.00  0.00    -0.380 OA
BRANCH  23  24
HETATM   24  C11 UNL     1       2.004  -0.953  -0.686  1.00  0.00     0.173 C 
BRANCH  24  25
HETATM   25  C12 UNL     1       2.274  -0.904   0.821  1.00  0.00     0.018 C 
HETATM   26  C13 UNL     1       2.952   0.401   1.223  1.00  0.00    -0.007 C 
HETATM   27  C14 UNL     1       3.240   0.123   2.674  1.00  0.00     0.010 C 
HETATM   28  C19 UNL     1       4.255   0.263   0.467  1.00  0.00     0.010 C 
HETATM   29  C15 UNL     1       3.610  -1.347   2.665  1.00  0.00    -0.009 C 
HETATM   30  C16 UNL     1       5.104  -1.437   2.885  1.00  0.00     0.005 C 
HETATM   31  C20 UNL     1       3.408  -1.819   1.222  1.00  0.00     0.000 C 
HETATM   32  C17 UNL     1       5.733  -1.381   1.512  1.00  0.00     0.005 C 
HETATM   33  C18 UNL     1       4.584  -1.224   0.544  1.00  0.00    -0.009 C 
ENDBRANCH  24  25
ENDBRANCH  23  24
ENDBRANCH   4  23
BRANCH   1  34
HETATM   34  C1  UNL     1      -1.943   4.029  -2.556  1.00  0.00     0.198 C 
BRANCH  34  35
HETATM   35  O1  UNL     1      -1.986   4.446  -3.899  1.00  0.00    -0.398 OA
ATOM     36  H1  UNL     1      -2.350   5.322  -3.950  1.00  0.00     0.209 HD
ENDBRANCH  34  35
ENDBRANCH   1  34
BRANCH   6  37
HETATM   37  O10 UNL     1       0.908   3.413  -2.571  1.00  0.00    -0.393 OA
ATOM     38  H10 UNL     1       1.755   3.349  -2.997  1.00  0.00     0.210 HD
ENDBRANCH   6  37
TORSDOF 13
