REMARK  9 active torsions:
REMARK  status: ('A' for Active; 'I' for Inactive)
REMARK    1  A    between atoms: C2_7  and  C3_8 
REMARK    2  A    between atoms: C4_9  and  C5_10 
REMARK    3  A    between atoms: C5_10  and  O1_11 
REMARK    4  A    between atoms: C5_10  and  C6_13 
REMARK    5  A    between atoms: C6_13  and  O2_14 
REMARK    6  A    between atoms: C6_13  and  O3_16 
REMARK    7  A    between atoms: C8_20  and  N4_21 
REMARK       I    between atoms: N4_21  and  C9_23 
REMARK       I    between atoms: C9_23  and  N5_24 
REMARK       I    between atoms: C9_23  and  N6_28 
REMARK    8  A    between atoms: C10_32  and  O5_33 
REMARK    9  A    between atoms: C13_41  and  N8_42 
REMARK       I    between atoms: N8_42  and  C14_44 
ROOT
HETATM    1  C3  UNL     1      -0.494   0.108   0.704  1.00  0.00     0.079 A 
HETATM    2  C4  UNL     1       0.100   1.212   0.113  1.00  0.00     0.104 A 
HETATM    3  O4  UNL     1       1.403   1.071   0.100  1.00  0.00    -0.306 OA
HETATM    4  C7  UNL     1       1.746  -0.068   0.648  1.00  0.00     0.140 A 
HETATM    5  C8  UNL     1       2.975  -0.694   0.881  1.00  0.00     0.108 A 
HETATM    6  C10 UNL     1       3.025  -1.923   1.494  1.00  0.00     0.171 A 
HETATM    7  C11 UNL     1       1.821  -2.490   1.855  1.00  0.00     0.324 A 
HETATM    8  O6  UNL     1       1.846  -3.621   2.421  1.00  0.00    -0.257 OA
HETATM    9  O7  UNL     1       0.671  -1.871   1.620  1.00  0.00    -0.269 OA
HETATM   10  C12 UNL     1       0.593  -0.710   1.043  1.00  0.00     0.132 A 
ENDROOT
BRANCH   1  11
HETATM   11  C2  UNL     1      -1.907  -0.152   0.922  1.00  0.00     0.152 A 
HETATM   12  N3  UNL     1      -2.465   0.276   2.062  1.00  0.00    -0.269 N 
HETATM   13  N2  UNL     1      -3.763   0.070   2.324  1.00  0.00    -0.225 N 
ATOM     14  H3  UNL     1      -1.890   0.769   2.745  1.00  0.00     0.190 HD
HETATM   15  N1  UNL     1      -4.510  -0.564   1.451  1.00  0.00    -0.113 N 
ATOM     16  H2  UNL     1      -4.169   0.405   3.198  1.00  0.00     0.209 HD
HETATM   17  C1  UNL     1      -5.903  -0.778   1.746  1.00  0.00     0.199 C 
HETATM   18  C13 UNL     1      -3.970  -0.996   0.312  1.00  0.00     0.705 A 
HETATM   19  N7  UNL     1      -2.676  -0.794   0.042  1.00  0.00    -0.173 N 
ATOM     20  H7  UNL     1      -2.278  -1.130  -0.835  1.00  0.00     0.186 HD
BRANCH  18  21
HETATM   21  N8  UNL     1      -4.751  -1.622  -0.526  1.00  0.00    -0.142 N 
HETATM   22  C14 UNL     1      -4.216  -2.093  -1.740  1.00  0.00     0.347 C 
HETATM   23  N9  UNL     1      -3.989  -1.186  -2.812  1.00  0.00    -0.039 NA
HETATM   24  O8  UNL     1      -3.927  -3.319  -1.906  1.00  0.00    -0.250 OA
ATOM     25  H8  UNL     1      -5.736  -1.768  -0.304  1.00  0.00     0.189 HD
ENDBRANCH  18  21
ENDBRANCH   1  11
BRANCH   2  26
HETATM   26  C5  UNL     1      -0.678   2.368  -0.416  1.00  0.00     0.231 C 
BRANCH  26  27
HETATM   27  O1  UNL     1      -1.359   1.913  -1.571  1.00  0.00    -0.384 OA
ATOM     28  H1  UNL     1      -1.855   2.650  -1.908  1.00  0.00     0.210 HD
ENDBRANCH  26  27
BRANCH  26  29
HETATM   29  C6  UNL     1       0.242   3.471  -0.896  1.00  0.00     0.289 C 
BRANCH  29  30
HETATM   30  O2  UNL     1       0.979   4.022   0.134  1.00  0.00    -0.368 OA
ATOM     31  H2  UNL     1       1.556   4.714  -0.167  1.00  0.00     0.212 HD
ENDBRANCH  29  30
BRANCH  29  32
HETATM   32  O3  UNL     1      -0.516   4.454  -1.489  1.00  0.00    -0.368 OA
ATOM     33  H3  UNL     1       0.061   5.146  -1.790  1.00  0.00     0.212 HD
ENDBRANCH  29  32
ENDBRANCH  26  29
ENDBRANCH   2  26
BRANCH   5  34
HETATM   34  N4  UNL     1       4.155  -0.046   0.484  1.00  0.00    -0.336 N 
HETATM   35  C9  UNL     1       4.634  -0.232  -0.868  1.00  0.00     0.480 C 
HETATM   36  N5  UNL     1       4.890  -1.597  -1.220  1.00  0.00    -0.033 N 
HETATM   37  N6  UNL     1       5.850   0.517  -1.121  1.00  0.00    -0.033 N 
ATOM     38  H53 UNL     1       5.533  -2.023  -0.552  1.00  0.00     0.278 HD
ATOM     39  H52 UNL     1       4.062  -2.169  -1.053  1.00  0.00     0.278 HD
ATOM     40  H51 UNL     1       5.228  -1.728  -2.173  1.00  0.00     0.278 HD
ATOM     41  H63 UNL     1       5.727   1.506  -0.904  1.00  0.00     0.278 HD
ATOM     42  H62 UNL     1       6.573   0.291  -0.438  1.00  0.00     0.278 HD
ATOM     43  H61 UNL     1       6.188   0.386  -2.074  1.00  0.00     0.278 HD
ATOM     44  H4  UNL     1       4.666   0.546   1.138  1.00  0.00     0.163 HD
ENDBRANCH   5  34
BRANCH   6  45
HETATM   45  O5  UNL     1       4.260  -2.511   1.709  1.00  0.00    -0.354 OA
ATOM     46  H5  UNL     1       4.295  -3.361   2.133  1.00  0.00     0.218 HD
ENDBRANCH   6  45
TORSDOF 9
