REMARK  4 active torsions:
REMARK  status: ('A' for Active; 'I' for Inactive)
REMARK    1  A    between atoms: C4_6  and  C5_7 
REMARK    2  A    between atoms: C5_7  and  O3_8 
REMARK    3  A    between atoms: C7_11  and  C8_12 
REMARK    4  A    between atoms: C8_12  and  O4_13 
ROOT
HETATM    1  C1  UNL     1      -3.201   0.650  -0.201  1.00  0.00     0.052 C 
HETATM    2  C2  UNL     1      -1.840   0.178   0.290  1.00  0.00     0.118 C 
HETATM    3  C3  UNL     1      -2.020  -0.864   1.358  1.00  0.00     0.052 C 
HETATM    4  O1  UNL     1      -1.226   1.327   0.853  1.00  0.00    -0.227 OA
HETATM    5  O2  UNL     1      -0.577   2.004  -0.096  1.00  0.00    -0.232 OA
HETATM    6  C4  UNL     1       0.689   1.415  -0.361  1.00  0.00     0.193 C 
HETATM    7  C6  UNL     1       0.471  -0.041  -0.219  1.00  0.00     0.089 C 
HETATM    8  C7  UNL     1       1.246  -0.976  -1.038  1.00  0.00     0.193 C 
HETATM    9  O5  UNL     1       0.258  -1.579  -1.856  1.00  0.00    -0.232 OA
HETATM   10  O6  UNL     1      -0.850  -1.578  -1.102  1.00  0.00    -0.231 OA
HETATM   11  C9  UNL     1      -0.945  -0.254  -0.806  1.00  0.00     0.206 C 
ENDROOT
BRANCH   6  12
HETATM   12  C5  UNL     1       1.643   2.037   0.601  1.00  0.00     0.199 C 
BRANCH  12  13
HETATM   13  O3  UNL     1       2.941   1.601   0.508  1.00  0.00    -0.398 OA
ATOM     14  H3  UNL     1       3.549   1.997   1.121  1.00  0.00     0.209 HD
ENDBRANCH  12  13
ENDBRANCH   6  12
BRANCH   8  15
HETATM   15  C8  UNL     1       1.796  -2.154  -0.218  1.00  0.00     0.199 C 
BRANCH  15  16
HETATM   16  O4  UNL     1       2.785  -1.785   0.656  1.00  0.00    -0.398 OA
ATOM     17  H4  UNL     1       3.125  -2.513   1.163  1.00  0.00     0.209 HD
ENDBRANCH  15  16
ENDBRANCH   8  15
TORSDOF 4
