REMARK  20 active torsions:
REMARK  status: ('A' for Active; 'I' for Inactive)
REMARK    1  A    between atoms: N1_1  and  N2_4 
REMARK    2  A    between atoms: N3_6  and  C1_8 
REMARK    3  A    between atoms: C2_9  and  O1_10 
REMARK    4  A    between atoms: C3_12  and  O2_13 
REMARK    5  A    between atoms: C4_15  and  O3_16 
REMARK    6  A    between atoms: N4_18  and  N5_19 
REMARK    7  A    between atoms: C5_20  and  O4_21 
REMARK    8  A    between atoms: O4_21  and  C6_22 
REMARK    9  A    between atoms: C7_24  and  C8_25 
REMARK   10  A    between atoms: C8_25  and  O6_26 
REMARK   11  A    between atoms: C9_28  and  O7_29 
REMARK   12  A    between atoms: C10_31  and  O8_32 
REMARK   13  A    between atoms: C11_34  and  O9_35 
REMARK   14  A    between atoms: C12_37  and  C13_38 
REMARK   15  A    between atoms: C13_38  and  O10_39 
REMARK   16  A    between atoms: C13_38  and  O11_41 
REMARK   17  A    between atoms: N6_43  and  C14_44 
REMARK   18  A    between atoms: C14_44  and  O12_45 
REMARK   19  A    between atoms: C14_44  and  N7_47 
REMARK   20  A    between atoms: N7_47  and  N8_48 
ROOT
HETATM    1  N5  UNL     1      -1.640  -0.559   0.012  1.00  0.00    -0.207 N 
HETATM    2  C5  UNL     1      -0.403  -0.909  -0.707  1.00  0.00     0.285 C 
HETATM    3  C12 UNL     1      -0.744  -2.382  -0.573  1.00  0.00     0.192 C 
HETATM    4  N6  UNL     1      -2.031  -1.863  -0.193  1.00  0.00    -0.152 NA
ENDROOT
BRANCH   1   5
HETATM    5  N4  UNL     1      -2.006   0.657   0.584  1.00  0.00    -0.195 N 
HETATM    6  C1  UNL     1      -2.249   1.832  -0.076  1.00  0.00     0.183 A 
HETATM    7  C2  UNL     1      -2.582   2.812   0.829  1.00  0.00     0.151 A 
HETATM    8  C3  UNL     1      -2.550   2.240   2.094  1.00  0.00     0.156 A 
HETATM    9  C4  UNL     1      -2.193   0.922   1.902  1.00  0.00     0.201 A 
BRANCH   6  10
HETATM   10  N3  UNL     1      -2.141   1.931  -1.507  1.00  0.00    -0.267 N 
HETATM   11  N2  UNL     1      -2.066   3.108  -1.982  1.00  0.00    -0.248 N 
ATOM     12  H2  UNL     1      -2.087   3.883  -1.320  1.00  0.00     0.207 HD
ATOM     13  H3  UNL     1      -2.125   1.105  -2.106  1.00  0.00     0.190 HD
BRANCH  11  14
HETATM   14  N1  UNL     1      -1.958   3.421  -3.325  1.00  0.00    -0.331 N 
ATOM     15  H12 UNL     1      -1.938   2.633  -3.972  1.00  0.00     0.178 HD
ATOM     16  H11 UNL     1      -1.898   4.365  -3.706  1.00  0.00     0.178 HD
ENDBRANCH  11  14
ENDBRANCH   6  10
BRANCH   7  17
HETATM   17  O1  UNL     1      -2.887   4.107   0.515  1.00  0.00    -0.355 OA
ATOM     18  H1  UNL     1      -3.117   4.784   1.140  1.00  0.00     0.218 HD
ENDBRANCH   7  17
BRANCH   8  19
HETATM   19  O2  UNL     1      -2.825   2.879   3.315  1.00  0.00    -0.354 OA
ATOM     20  H2  UNL     1      -2.803   2.488   4.180  1.00  0.00     0.218 HD
ENDBRANCH   8  19
BRANCH   9  21
HETATM   21  O3  UNL     1      -2.068   0.059   2.986  1.00  0.00    -0.343 OA
ATOM     22  H3  UNL     1      -1.822  -0.849   2.854  1.00  0.00     0.219 HD
ENDBRANCH   9  21
ENDBRANCH   1   5
BRANCH   2  23
HETATM   23  O4  UNL     1       0.686  -0.486   0.007  1.00  0.00    -0.329 OA
BRANCH  23  24
HETATM   24  C6  UNL     1       1.559   0.287  -0.760  1.00  0.00     0.294 C 
HETATM   25  O5  UNL     1       2.737  -0.404  -0.829  1.00  0.00    -0.348 OA
HETATM   26  C7  UNL     1       3.685  -0.124   0.099  1.00  0.00     0.179 C 
HETATM   27  C9  UNL     1       3.981   1.286   0.383  1.00  0.00     0.180 C 
HETATM   28  C10 UNL     1       3.038   2.220  -0.333  1.00  0.00     0.183 C 
HETATM   29  C11 UNL     1       1.657   1.645  -0.138  1.00  0.00     0.204 C 
BRANCH  26  30
HETATM   30  C8  UNL     1       4.958  -0.864  -0.252  1.00  0.00     0.198 C 
BRANCH  30  31
HETATM   31  O6  UNL     1       5.917  -0.577   0.694  1.00  0.00    -0.398 OA
ATOM     32  H6  UNL     1       6.716  -1.041   0.474  1.00  0.00     0.209 HD
ENDBRANCH  30  31
ENDBRANCH  26  30
BRANCH  27  33
HETATM   33  O7  UNL     1       3.883   1.538   1.753  1.00  0.00    -0.390 OA
ATOM     34  H7  UNL     1       4.074   2.450   1.937  1.00  0.00     0.210 HD
ENDBRANCH  27  33
BRANCH  28  35
HETATM   35  O8  UNL     1       3.133   3.473   0.281  1.00  0.00    -0.390 OA
ATOM     36  H8  UNL     1       2.539   4.061  -0.170  1.00  0.00     0.210 HD
ENDBRANCH  28  35
BRANCH  29  37
HETATM   37  O9  UNL     1       1.393   1.544   1.222  1.00  0.00    -0.388 OA
ATOM     38  H9  UNL     1       1.455   2.406   1.617  1.00  0.00     0.210 HD
ENDBRANCH  29  37
ENDBRANCH  23  24
ENDBRANCH   2  23
BRANCH   4  39
HETATM   39  C14 UNL     1      -2.708  -2.569   0.846  1.00  0.00     0.331 C 
BRANCH  39  40
HETATM   40  O12 UNL     1      -3.966  -2.031   1.111  1.00  0.00    -0.364 OA
ATOM     41  H12 UNL     1      -4.417  -2.501   1.803  1.00  0.00     0.213 HD
ENDBRANCH  39  40
BRANCH  39  42
HETATM   42  N7  UNL     1      -2.910  -3.976   0.511  1.00  0.00    -0.098 NA
BRANCH  42  43
HETATM   43  N8  UNL     1      -3.572  -4.573   1.581  1.00  0.00    -0.345 N 
ATOM     44  H82 UNL     1      -3.858  -4.099   2.438  1.00  0.00     0.172 HD
ATOM     45  H81 UNL     1      -3.713  -5.556   1.347  1.00  0.00     0.172 HD
ENDBRANCH  42  43
ENDBRANCH  39  42
ENDBRANCH   4  39
BRANCH   3  46
HETATM   46  C13 UNL     1      -0.769  -3.113  -1.878  1.00  0.00     0.277 C 
BRANCH  46  47
HETATM   47  O10 UNL     1      -1.200  -2.262  -2.895  1.00  0.00    -0.370 OA
ATOM     48  H10 UNL     1      -1.216  -2.726  -3.724  1.00  0.00     0.212 HD
ENDBRANCH  46  47
BRANCH  46  49
HETATM   49  O11 UNL     1       0.512  -3.600  -2.222  1.00  0.00    -0.370 OA
ATOM     50  H11 UNL     1       0.496  -4.064  -3.051  1.00  0.00     0.212 HD
ENDBRANCH  46  49
ENDBRANCH   3  46
TORSDOF 20
