REMARK  13 active torsions:
REMARK  status: ('A' for Active; 'I' for Inactive)
REMARK    1  A    between atoms: C2_2  and  C3_3 
REMARK    2  A    between atoms: C3_3  and  C4_4 
REMARK    3  A    between atoms: C4_4  and  C5_5 
REMARK    4  A    between atoms: C5_5  and  N1_6 
REMARK    5  A    between atoms: C5_5  and  C23_40 
REMARK       I    between atoms: N1_6  and  C6_8 
REMARK    6  A    between atoms: C6_8  and  C7_10 
REMARK    7  A    between atoms: C11_14  and  N2_16 
REMARK       I    between atoms: N2_16  and  C13_18 
REMARK    8  A    between atoms: C13_18  and  C14_20 
REMARK       I    between atoms: C14_20  and  N3_22 
REMARK    9  A    between atoms: N3_22  and  C15_24 
REMARK   10  A    between atoms: C15_24  and  C16_25 
REMARK       I    between atoms: N4_29  and  C20_30 
REMARK   11  A    between atoms: C23_40  and  C24_42 
REMARK       I    between atoms: C24_42  and  N8_44 
REMARK   12  A    between atoms: N8_44  and  C25_46 
REMARK   13  A    between atoms: C25_46  and  C26_47 
ROOT
HETATM    1  C7  UNL     1       0.245  -1.019   1.770  1.00  0.00     0.176 C 
HETATM    2  C8  UNL     1       0.838  -0.143   2.919  1.00  0.00     0.035 C 
HETATM    3  C9  UNL     1       2.074  -0.722   3.496  1.00  0.00     0.006 C 
HETATM    4  C10 UNL     1       3.275  -0.272   2.690  1.00  0.00     0.041 C 
HETATM    5  C11 UNL     1       3.557  -1.339   1.643  1.00  0.00     0.110 C 
HETATM    6  C12 UNL     1       3.426  -2.740   2.194  1.00  0.00     0.049 C 
HETATM    7  C22 UNL     1       2.578  -1.167   0.567  1.00  0.00     0.246 C 
HETATM    8  O4  UNL     1       3.054  -1.246  -0.598  1.00  0.00    -0.271 OA
HETATM    9  N7  UNL     1       1.172  -0.919   0.652  1.00  0.00    -0.346 N 
ATOM     10  H7  UNL     1       0.744  -0.620  -0.224  1.00  0.00     0.163 HD
ENDROOT
BRANCH   1  11
HETATM   11  C6  UNL     1      -0.995  -0.268   1.435  1.00  0.00     0.241 C 
HETATM   12  N1  UNL     1      -2.194  -0.401   2.157  1.00  0.00    -0.347 N 
ATOM     13  H1  UNL     1      -2.177  -1.101   2.899  1.00  0.00     0.163 HD
HETATM   14  O1  UNL     1      -0.902   0.532   0.432  1.00  0.00    -0.271 OA
BRANCH  12  15
HETATM   15  C5  UNL     1      -3.413   0.284   2.012  1.00  0.00     0.164 C 
BRANCH  15  16
HETATM   16  C4  UNL     1      -4.293  -0.043   3.189  1.00  0.00     0.033 C 
BRANCH  16  17
HETATM   17  C3  UNL     1      -3.741   0.342   4.532  1.00  0.00     0.002 C 
BRANCH  17  18
HETATM   18  C2  UNL     1      -4.759  -0.127   5.600  1.00  0.00    -0.004 C 
HETATM   19  C1  UNL     1      -4.313   0.230   6.989  1.00  0.00     0.005 C 
ENDBRANCH  17  18
ENDBRANCH  16  17
ENDBRANCH  15  16
BRANCH  15  20
HETATM   20  C23 UNL     1      -4.253  -0.232   0.821  1.00  0.00     0.238 C 
HETATM   21  O5  UNL     1      -3.881  -1.251   0.222  1.00  0.00    -0.285 OA
BRANCH  20  22
HETATM   22  C24 UNL     1      -5.438   0.557   0.507  1.00  0.00     0.289 C 
HETATM   23  O6  UNL     1      -5.661   1.615   1.168  1.00  0.00    -0.264 OA
HETATM   24  N8  UNL     1      -6.358   0.197  -0.503  1.00  0.00    -0.354 N 
ATOM     25  H8  UNL     1      -6.231  -0.636  -1.078  1.00  0.00     0.162 HD
BRANCH  24  26
HETATM   26  C25 UNL     1      -7.503   1.091  -0.673  1.00  0.00     0.132 C 
BRANCH  26  27
HETATM   27  C26 UNL     1      -8.435   0.664  -1.771  1.00  0.00    -0.023 C 
HETATM   28  C27 UNL     1      -9.039  -0.681  -1.562  1.00  0.00     0.015 C 
HETATM   29  C28 UNL     1     -10.025  -0.935  -2.666  1.00  0.00    -0.013 C 
HETATM   30  C29 UNL     1      -9.283  -0.958  -3.993  1.00  0.00     0.009 C 
HETATM   31  C33 UNL     1     -11.076   0.123  -2.684  1.00  0.00     0.009 C 
HETATM   32  C30 UNL     1      -8.586   0.358  -4.192  1.00  0.00    -0.013 C 
HETATM   33  C31 UNL     1      -9.647   1.431  -4.259  1.00  0.00     0.009 C 
HETATM   34  C35 UNL     1      -7.655   0.697  -3.069  1.00  0.00     0.015 C 
HETATM   35  C32 UNL     1     -10.423   1.463  -2.977  1.00  0.00    -0.013 C 
HETATM   36  C34 UNL     1      -9.505   1.758  -1.848  1.00  0.00     0.015 C 
ENDBRANCH  26  27
ENDBRANCH  24  26
ENDBRANCH  20  22
ENDBRANCH  15  20
ENDBRANCH  12  15
ENDBRANCH   1  11
BRANCH   5  37
HETATM   37  N2  UNL     1       4.934  -1.162   1.240  1.00  0.00    -0.335 N 
HETATM   38  C13 UNL     1       5.465  -0.036   0.582  1.00  0.00     0.310 C 
HETATM   39  O2  UNL     1       4.775   0.925   0.266  1.00  0.00    -0.262 OA
ATOM     40  H2  UNL     1       5.580  -1.922   1.452  1.00  0.00     0.164 HD
BRANCH  38  41
HETATM   41  C14 UNL     1       6.926   0.020   0.247  1.00  0.00     0.313 C 
HETATM   42  O3  UNL     1       7.589  -0.950   0.604  1.00  0.00    -0.262 OA
HETATM   43  N3  UNL     1       7.465   1.112  -0.426  1.00  0.00    -0.332 N 
ATOM     44  H3  UNL     1       6.778   1.834  -0.643  1.00  0.00     0.168 HD
BRANCH  43  45
HETATM   45  C15 UNL     1       8.759   1.425  -0.868  1.00  0.00     0.070 C 
BRANCH  45  46
HETATM   46  C16 UNL     1       9.481   0.666  -1.888  1.00  0.00     0.042 C 
HETATM   47  C17 UNL     1       9.820  -0.754  -1.720  1.00  0.00     0.013 C 
HETATM   48  C18 UNL     1      10.883  -0.995  -0.652  1.00  0.00     0.021 C 
HETATM   49  C19 UNL     1      12.173  -0.376  -1.113  1.00  0.00     0.125 C 
HETATM   50  N4  UNL     1      11.912   0.489  -2.265  1.00  0.00    -0.355 N 
HETATM   51  C20 UNL     1      12.766   0.386  -3.425  1.00  0.00     0.183 C 
HETATM   52  C21 UNL     1      10.813   1.402  -2.205  1.00  0.00     0.135 C 
HETATM   53  N5  UNL     1      14.008   0.253  -3.261  1.00  0.00    -0.374 N 
HETATM   54  N6  UNL     1      12.148   0.441  -4.693  1.00  0.00    -0.064 NA
ATOM     55  H52 UNL     1      14.455   0.213  -2.345  1.00  0.00     0.158 HD
ATOM     56  H51 UNL     1      14.611   0.180  -4.080  1.00  0.00     0.158 HD
ENDBRANCH  45  46
ENDBRANCH  43  45
ENDBRANCH  38  41
ENDBRANCH   5  37
TORSDOF 13
