REMARK  16 active torsions:
REMARK  status: ('A' for Active; 'I' for Inactive)
REMARK       I    between atoms: C1_4  and  N3_6 
REMARK    1  A    between atoms: C6_11  and  C7_12 
REMARK    2  A    between atoms: C7_12  and  O1_13 
REMARK    3  A    between atoms: C7_12  and  N4_15 
REMARK    4  A    between atoms: N4_15  and  C8_17 
REMARK    5  A    between atoms: C8_17  and  C9_18 
REMARK    6  A    between atoms: C8_17  and  C15_25 
REMARK    7  A    between atoms: C9_18  and  N5_19 
REMARK    8  A    between atoms: C15_25  and  O2_26 
REMARK    9  A    between atoms: C15_25  and  N6_28 
REMARK   10  A    between atoms: C19_32  and  C20_33 
REMARK       I    between atoms: C20_33  and  N7_35 
REMARK   11  A    between atoms: N7_35  and  C21_37 
REMARK   12  A    between atoms: C21_37  and  C22_38 
REMARK   13  A    between atoms: C21_37  and  C25_43 
REMARK   14  A    between atoms: C22_38  and  C23_39 
REMARK   15  A    between atoms: C23_39  and  C24_40 
REMARK       I    between atoms: C25_43  and  N8_45 
REMARK   16  A    between atoms: N8_45  and  C26_47 
ROOT
HETATM    1  N6  UNL     1      -0.731  -1.665   0.592  1.00  0.00    -0.350 N 
HETATM    2  C16 UNL     1      -0.310  -1.392   1.920  1.00  0.00     0.126 C 
HETATM    3  C17 UNL     1       0.813  -2.355   2.239  1.00  0.00     0.022 C 
HETATM    4  C18 UNL     1       0.867  -3.346   1.130  1.00  0.00     0.037 C 
HETATM    5  C19 UNL     1       0.192  -2.613  -0.011  1.00  0.00     0.178 C 
ENDROOT
BRANCH   1   6
HETATM    6  C15 UNL     1      -1.847  -1.196  -0.139  1.00  0.00     0.139 C 
BRANCH   6   7
HETATM    7  C8  UNL     1      -2.904  -0.250   0.257  1.00  0.00     0.186 C 
BRANCH   7   8
HETATM    8  N4  UNL     1      -4.169  -0.604  -0.410  1.00  0.00    -0.359 N 
ATOM      9  H4  UNL     1      -4.713  -1.372  -0.017  1.00  0.00     0.162 HD
BRANCH   8  10
HETATM   10  C7  UNL     1      -4.679   0.041  -1.548  1.00  0.00     0.135 C 
BRANCH  10  11
HETATM   11  C6  UNL     1      -5.908  -0.222  -2.258  1.00  0.00     0.161 C 
HETATM   12  N3  UNL     1      -6.854  -1.165  -1.815  1.00  0.00    -0.344 N 
HETATM   13  C1  UNL     1      -7.156  -1.659  -0.532  1.00  0.00     0.184 C 
HETATM   14  C2  UNL     1      -7.709  -1.707  -2.923  1.00  0.00     0.126 C 
HETATM   15  N1  UNL     1      -7.531  -0.858   0.449  1.00  0.00    -0.374 N 
HETATM   16  N2  UNL     1      -7.109  -3.035  -0.183  1.00  0.00    -0.064 NA
ATOM     17  H12 UNL     1      -7.750  -1.216   1.379  1.00  0.00     0.158 HD
ATOM     18  H11 UNL     1      -7.565   0.130   0.198  1.00  0.00     0.158 HD
HETATM   19  C3  UNL     1      -8.508  -0.514  -3.388  1.00  0.00     0.020 C 
HETATM   20  C4  UNL     1      -8.173   0.773  -2.717  1.00  0.00     0.004 C 
HETATM   21  C5  UNL     1      -6.699   1.057  -2.570  1.00  0.00     0.034 C 
ENDBRANCH  10  11
BRANCH  10  22
HETATM   22  O1  UNL     1      -3.984   1.016  -2.072  1.00  0.00    -0.348 OA
ATOM     23  H1  UNL     1      -3.175   1.189  -1.605  1.00  0.00     0.219 HD
ENDBRANCH  10  22
ENDBRANCH   8  10
ENDBRANCH   7   8
BRANCH   7  24
HETATM   24  C9  UNL     1      -3.067  -0.003   1.699  1.00  0.00     0.305 C 
BRANCH  24  25
HETATM   25  N5  UNL     1      -4.031   1.112   1.934  1.00  0.00     0.090 N 
HETATM   26  C10 UNL     1      -4.157   1.318   3.372  1.00  0.00     0.272 C 
HETATM   27  C11 UNL     1      -5.380   2.197   3.613  1.00  0.00     0.030 C 
HETATM   28  C12 UNL     1      -5.266   3.426   2.724  1.00  0.00     0.003 C 
HETATM   29  C13 UNL     1      -3.880   3.559   2.177  1.00  0.00     0.030 C 
HETATM   30  C14 UNL     1      -3.455   2.346   1.378  1.00  0.00     0.272 C 
ENDBRANCH  24  25
ENDBRANCH   7  24
ENDBRANCH   6   7
BRANCH   6  31
HETATM   31  O2  UNL     1      -2.030  -1.627  -1.359  1.00  0.00    -0.348 OA
ATOM     32  H2  UNL     1      -1.348  -2.237  -1.614  1.00  0.00     0.219 HD
ENDBRANCH   6  31
ENDBRANCH   1   6
BRANCH   5  33
HETATM   33  C20 UNL     1       1.212  -1.945  -0.794  1.00  0.00     0.241 C 
HETATM   34  O3  UNL     1       1.551  -2.463  -1.920  1.00  0.00    -0.271 OA
HETATM   35  N7  UNL     1       1.872  -0.765  -0.412  1.00  0.00    -0.346 N 
ATOM     36  H7  UNL     1       1.645  -0.313   0.474  1.00  0.00     0.163 HD
BRANCH  35  37
HETATM   37  C21 UNL     1       2.870  -0.199  -1.278  1.00  0.00     0.177 C 
BRANCH  37  38
HETATM   38  C22 UNL     1       2.639   1.130  -1.843  1.00  0.00     0.045 C 
BRANCH  38  39
HETATM   39  C23 UNL     1       2.442   2.315  -1.001  1.00  0.00     0.116 C 
BRANCH  39  40
HETATM   40  C24 UNL     1       1.244   2.435  -0.196  1.00  0.00     0.172 C 
HETATM   41  O4  UNL     1       0.208   1.731  -0.354  1.00  0.00    -0.648 OA
HETATM   42  O5  UNL     1       1.137   3.369   0.853  1.00  0.00    -0.648 OA
ENDBRANCH  39  40
ENDBRANCH  38  39
ENDBRANCH  37  38
BRANCH  37  43
HETATM   43  C25 UNL     1       4.242  -0.399  -0.692  1.00  0.00     0.241 C 
HETATM   44  O6  UNL     1       4.315  -0.964   0.413  1.00  0.00    -0.271 OA
HETATM   45  N8  UNL     1       5.392   0.030  -1.369  1.00  0.00    -0.350 N 
ATOM     46  H8  UNL     1       5.267   0.491  -2.270  1.00  0.00     0.163 HD
BRANCH  45  47
HETATM   47  C26 UNL     1       6.729  -0.133  -0.886  1.00  0.00     0.034 C 
HETATM   48  C27 UNL     1       6.914   0.579   0.411  1.00  0.00     0.035 C 
HETATM   49  C28 UNL     1       8.357   0.481   0.874  1.00  0.00    -0.012 C 
HETATM   50  C29 UNL     1       8.671  -0.988   1.061  1.00  0.00     0.009 C 
HETATM   51  C33 UNL     1       9.256   1.112  -0.146  1.00  0.00     0.009 C 
HETATM   52  C30 UNL     1       8.505  -1.703  -0.257  1.00  0.00    -0.012 C 
HETATM   53  C31 UNL     1       9.504  -1.089  -1.240  1.00  0.00     0.009 C 
HETATM   54  C35 UNL     1       7.106  -1.604  -0.790  1.00  0.00     0.035 C 
HETATM   55  C32 UNL     1       9.110   0.344  -1.441  1.00  0.00    -0.012 C 
HETATM   56  C34 UNL     1       7.700   0.465  -1.912  1.00  0.00     0.035 C 
ENDBRANCH  45  47
ENDBRANCH  37  43
ENDBRANCH  35  37
ENDBRANCH   5  33
TORSDOF 16
