REMARK  3 active torsions:
REMARK  status: ('A' for Active; 'I' for Inactive)
REMARK    1  A    between atoms: C7_19  and  O1_20 
REMARK    2  A    between atoms: C7_19  and  C8_22 
REMARK    3  A    between atoms: C8_22  and  N6_23 
ROOT
HETATM    1  N1  UNL     1      -0.481   1.113  -2.150  1.00  0.00    -0.385 N 
ATOM      2  H11 UNL     1      -1.324   0.539  -2.170  1.00  0.00     0.157 HD
ATOM      3  H12 UNL     1      -0.240   1.849  -2.813  1.00  0.00     0.157 HD
HETATM    4  C1  UNL     1       0.358   0.899  -1.194  1.00  0.00     0.134 C 
HETATM    5  N2  UNL     1       1.524   1.694  -1.166  1.00  0.00    -0.360 N 
ATOM      6  H2  UNL     1       1.989   1.849  -2.060  1.00  0.00     0.162 HD
HETATM    7  C2  UNL     1       2.131   2.312  -0.009  1.00  0.00     0.239 C 
HETATM    8  N3  UNL     1       3.262   1.597   0.516  1.00  0.00    -0.404 N 
ATOM      9  H3  UNL     1       3.512   1.639   1.504  1.00  0.00     0.154 HD
HETATM   10  C3  UNL     1       4.009   0.833  -0.407  1.00  0.00     0.143 C 
HETATM   11  C4  UNL     1       4.378  -0.543   0.170  1.00  0.00     0.251 C 
HETATM   12  N4  UNL     1       3.331  -0.935   1.065  1.00  0.00    -0.072 N 
ATOM     13  H41 UNL     1       2.605  -0.220   1.124  1.00  0.00     0.277 HD
ATOM     14  H42 UNL     1       3.647  -0.922   2.035  1.00  0.00     0.277 HD
HETATM   15  C5  UNL     1       2.779  -2.214   0.711  1.00  0.00     0.251 C 
HETATM   16  C6  UNL     1       1.257  -2.038   0.682  1.00  0.00     0.145 C 
HETATM   17  N5  UNL     1       0.908  -1.275  -0.446  1.00  0.00    -0.380 N 
ATOM     18  H5  UNL     1       1.274  -1.492  -1.373  1.00  0.00     0.157 HD
HETATM   19  C7  UNL     1       0.008  -0.172  -0.229  1.00  0.00     0.221 C 
ENDROOT
BRANCH  19  20
HETATM   20  O1  UNL     1       0.130   0.171   1.092  1.00  0.00    -0.360 OA
ATOM     21  H1  UNL     1      -0.094  -0.515   1.710  1.00  0.00     0.213 HD
ENDBRANCH  19  20
BRANCH  19  22
HETATM   22  C8  UNL     1      -1.367  -0.726  -0.493  1.00  0.00     0.131 C 
BRANCH  22  23
HETATM   23  N6  UNL     1      -2.477   0.071  -0.232  1.00  0.00    -0.366 N 
HETATM   24  C9  UNL     1      -2.841   0.402   1.085  1.00  0.00     0.090 C 
HETATM   25  C10 UNL     1      -4.314   0.268   1.389  1.00  0.00     0.277 C 
HETATM   26  N7  UNL     1      -4.963  -0.680   0.506  1.00  0.00    -0.069 N 
HETATM   27  C11 UNL     1      -4.858  -0.148  -0.826  1.00  0.00     0.252 C 
ATOM     28  H72 UNL     1      -4.593  -1.627   0.591  1.00  0.00     0.277 HD
ATOM     29  H71 UNL     1      -5.923  -0.892   0.779  1.00  0.00     0.277 HD
HETATM   30  C12 UNL     1      -3.468   0.250  -1.222  1.00  0.00     0.154 C 
ENDBRANCH  22  23
ENDBRANCH  19  22
TORSDOF 3
