REMARK  2 active torsions:
REMARK  status: ('A' for Active; 'I' for Inactive)
REMARK       I    between atoms: C1_4  and  N2_5 
REMARK       I    between atoms: C1_4  and  N7_17 
REMARK       I    between atoms: N2_5  and  C2_7 
REMARK       I    between atoms: C2_7  and  N3_9 
REMARK    1  A    between atoms: N3_9  and  N4_11 
REMARK    2  A    between atoms: N4_11  and  N5_12 
REMARK       I    between atoms: N5_12  and  C3_14 
ROOT
HETATM    1  N1  UNL     1      -1.312  -1.458  -2.239  1.00  0.00    -0.234 N 
ATOM      2  H11 UNL     1      -2.236  -1.039  -2.343  1.00  0.00     0.174 HD
ATOM      3  H12 UNL     1      -0.831  -2.198  -2.751  1.00  0.00     0.174 HD
HETATM    4  C1  UNL     1      -0.593  -0.889  -1.229  1.00  0.00     0.679 C 
HETATM    5  N2  UNL     1       0.661  -1.457  -1.088  1.00  0.00    -0.141 N 
ATOM      6  H2  UNL     1       0.891  -2.225  -1.719  1.00  0.00     0.189 HD
HETATM    7  C2  UNL     1       1.647  -1.081  -0.163  1.00  0.00     0.351 C 
HETATM    8  O1  UNL     1       1.469  -0.164   0.645  1.00  0.00    -0.245 OA
HETATM    9  N3  UNL     1       2.900  -1.772  -0.158  1.00  0.00    -0.235 N 
ATOM     10  H3  UNL     1       3.072  -2.552  -0.792  1.00  0.00     0.189 HD
HETATM   11  N7  UNL     1      -1.249   0.120  -0.531  1.00  0.00    -0.184 N 
HETATM   12  C4  UNL     1      -0.907   1.496  -0.237  1.00  0.00     0.174 C 
HETATM   13  C5  UNL     1      -2.263   2.238  -0.315  1.00  0.00     0.295 C 
HETATM   14  N8  UNL     1      -3.170   1.209  -0.581  1.00  0.00     0.113 N 
HETATM   15  C6  UNL     1      -4.438   1.214   0.104  1.00  0.00     0.275 C 
HETATM   16  C7  UNL     1      -4.802  -0.279   0.076  1.00  0.00     0.034 C 
HETATM   17  C8  UNL     1      -3.504  -0.979  -0.412  1.00  0.00     0.060 C 
HETATM   18  C9  UNL     1      -2.549   0.046   0.096  1.00  0.00     0.339 C 
ENDROOT
BRANCH   9  19
HETATM   19  N4  UNL     1       3.892  -1.342   0.751  1.00  0.00    -0.015 NA
BRANCH  19  20
HETATM   20  N5  UNL     1       4.675  -0.357   0.146  1.00  0.00    -0.238 N 
HETATM   21  C3  UNL     1       5.922   0.109   0.578  1.00  0.00     0.345 C 
HETATM   22  N6  UNL     1       6.622   1.123  -0.146  1.00  0.00    -0.039 NA
HETATM   23  O2  UNL     1       6.491  -0.343   1.630  1.00  0.00    -0.250 OA
ATOM     24  H5  UNL     1       4.298   0.068  -0.701  1.00  0.00     0.188 HD
ENDBRANCH  19  20
ENDBRANCH   9  19
TORSDOF 2
