REMARK  2 active torsions:
REMARK  status: ('A' for Active; 'I' for Inactive)
REMARK       I    between atoms: C2_5  and  N3_6 
REMARK       I    between atoms: C2_5  and  N7_15 
REMARK       I    between atoms: N3_6  and  C3_8 
REMARK       I    between atoms: C3_8  and  N4_10 
REMARK    1  A    between atoms: N7_15  and  C5_17 
REMARK    2  A    between atoms: C5_17  and  C6_18 
ROOT
HETATM    1  N1  UNL     1       1.897   3.630  -1.572  1.00  0.00    -0.171 NA
HETATM    2  C1  UNL     1       1.056   2.846  -1.430  1.00  0.00     0.196 C 
HETATM    3  N2  UNL     1       0.054   1.885  -1.266  1.00  0.00    -0.126 N 
ATOM      4  H2  UNL     1      -0.919   2.189  -1.274  1.00  0.00     0.197 HD
HETATM    5  C2  UNL     1       0.309   0.618  -1.104  1.00  0.00     0.693 C 
HETATM    6  N3  UNL     1       1.675   0.250  -1.100  1.00  0.00    -0.141 N 
ATOM      7  H3  UNL     1       2.355   1.000  -1.226  1.00  0.00     0.189 HD
HETATM    8  C3  UNL     1       2.187  -1.056  -0.938  1.00  0.00     0.340 C 
HETATM    9  O1  UNL     1       1.474  -2.075  -0.771  1.00  0.00    -0.246 OA
HETATM   10  N4  UNL     1       3.605  -1.323  -0.953  1.00  0.00    -0.284 N 
ATOM     11  H4  UNL     1       4.016  -1.798  -1.757  1.00  0.00     0.172 HD
HETATM   12  C4  UNL     1       4.361  -0.973   0.029  1.00  0.00     0.204 C 
HETATM   13  N5  UNL     1       5.746  -1.270  -0.057  1.00  0.00    -0.066 NA
HETATM   14  N6  UNL     1       3.777  -0.312   1.138  1.00  0.00    -0.066 NA
HETATM   15  N7  UNL     1      -0.703  -0.340  -0.946  1.00  0.00    -0.180 N 
ATOM     16  H7  UNL     1      -0.631  -1.212  -1.470  1.00  0.00     0.181 HD
ENDROOT
BRANCH  15  17
HETATM   17  C5  UNL     1      -1.851  -0.153  -0.072  1.00  0.00     0.299 C 
HETATM   18  C7  UNL     1      -2.746   0.964  -0.608  1.00  0.00     0.076 C 
HETATM   19  C8  UNL     1      -4.012   0.657   0.182  1.00  0.00     0.032 C 
HETATM   20  C9  UNL     1      -3.965  -0.833   0.422  1.00  0.00     0.236 C 
HETATM   21  N8  UNL     1      -2.737  -1.285  -0.144  1.00  0.00    -0.038 N 
ATOM     22  H82 UNL     1      -2.834  -1.674  -1.082  1.00  0.00     0.280 HD
ATOM     23  H81 UNL     1      -2.366  -2.128   0.295  1.00  0.00     0.280 HD
BRANCH  17  24
HETATM   24  C6  UNL     1      -1.431   0.073   1.310  1.00  0.00     0.233 C 
HETATM   25  O2  UNL     1      -0.179   0.062   1.560  1.00  0.00    -0.645 OA
HETATM   26  O3  UNL     1      -2.257   0.299   2.387  1.00  0.00    -0.645 OA
ENDBRANCH  17  24
ENDBRANCH  15  17
TORSDOF 2
