REMARK  2 active torsions:
REMARK  status: ('A' for Active; 'I' for Inactive)
REMARK    1  A    between atoms: C2_6  and  C3_7 
REMARK    2  A    between atoms: N3_8  and  C4_10 
ROOT
HETATM    1  C4  UNL     1       1.666  -0.059  -0.614  1.00  0.00     0.189 A 
HETATM    2  N4  UNL     1       2.206   1.159  -0.439  1.00  0.00    -0.277 N 
ATOM      3  H4  UNL     1       1.617   1.978  -0.589  1.00  0.00     0.189 HD
HETATM    4  N5  UNL     1       3.459   1.345  -0.083  1.00  0.00    -0.250 N 
ATOM      5  H5  UNL     1       3.842   2.282   0.042  1.00  0.00     0.192 HD
HETATM    6  C5  UNL     1       4.215   0.247   0.110  1.00  0.00     0.341 A 
HETATM    7  O2  UNL     1       5.421   0.380   0.452  1.00  0.00    -0.245 OA
HETATM    8  N6  UNL     1       3.720  -1.002  -0.053  1.00  0.00    -0.271 N 
ATOM      9  H6  UNL     1       4.323  -1.810   0.102  1.00  0.00     0.174 HD
HETATM   10  C6  UNL     1       2.431  -1.188  -0.420  1.00  0.00     0.294 A 
HETATM   11  O3  UNL     1       1.942  -2.347  -0.579  1.00  0.00    -0.264 OA
ENDROOT
BRANCH   1  12
HETATM   12  N3  UNL     1       0.308  -0.192  -1.000  1.00  0.00    -0.347 N 
HETATM   13  C3  UNL     1      -0.619  -0.090  -0.133  1.00  0.00     0.106 C 
ATOM     14  H3  UNL     1       0.073  -0.370  -1.976  1.00  0.00     0.166 HD
BRANCH  13  15
HETATM   15  C2  UNL     1      -2.028  -0.230  -0.543  1.00  0.00     0.239 C 
HETATM   16  N2  UNL     1      -2.813  -0.989   0.410  1.00  0.00    -0.106 NA
HETATM   17  N1  UNL     1      -4.128  -0.570   0.117  1.00  0.00    -0.253 N 
HETATM   18  C1  UNL     1      -4.020   0.820  -0.170  1.00  0.00     0.333 C 
ATOM     19  H1  UNL     1      -4.974  -1.140   0.112  1.00  0.00     0.187 HD
HETATM   20  O1  UNL     1      -4.981   1.654  -0.118  1.00  0.00    -0.246 OA
HETATM   21  N7  UNL     1      -2.650   1.103  -0.524  1.00  0.00    -0.318 N 
ATOM     22  H7  UNL     1      -2.218   2.007  -0.715  1.00  0.00     0.166 HD
ENDBRANCH  13  15
ENDBRANCH   1  12
TORSDOF 2
