REMARK  13 active torsions:
REMARK  status: ('A' for Active; 'I' for Inactive)
REMARK    1  A    between atoms: C3_3  and  C4_4 
REMARK    2  A    between atoms: C4_4  and  N1_5 
REMARK    3  A    between atoms: N1_5  and  C5_6 
REMARK    4  A    between atoms: C6_7  and  O1_8 
REMARK    5  A    between atoms: C6_7  and  N2_10 
REMARK    6  A    between atoms: N2_10  and  N3_12 
REMARK       I    between atoms: N3_12  and  C7_14 
REMARK    7  A    between atoms: C7_14  and  C8_16 
REMARK    8  A    between atoms: C8_16  and  C9_17 
REMARK    9  A    between atoms: C8_16  and  N5_24 
REMARK   10  A    between atoms: C9_17  and  C10_18 
REMARK   11  A    between atoms: C10_18  and  C11_19 
REMARK   12  A    between atoms: C11_19  and  N4_21 
REMARK       I    between atoms: N5_24  and  C14_25 
REMARK   13  A    between atoms: C17_29  and  N6_30 
REMARK       I    between atoms: N6_30  and  C18_31 
ROOT
HETATM    1  C1  UNL     1       4.744   0.236  -4.579  1.00  0.00     0.112 C 
HETATM    2  C2  UNL     1       4.676  -0.019  -3.134  1.00  0.00    -0.109 C 
HETATM    3  C3  UNL     1       4.663  -0.248  -1.966  1.00  0.00    -0.076 C 
ENDROOT
BRANCH   3   4
HETATM    4  C4  UNL     1       4.713  -0.564  -0.540  1.00  0.00     0.364 C 
BRANCH   4   5
HETATM    5  N1  UNL     1       3.591  -0.033   0.221  1.00  0.00     0.054 N 
HETATM    6  C16 UNL     1       3.999   1.040   1.092  1.00  0.00     0.321 C 
HETATM    7  C17 UNL     1       4.489   0.346   2.385  1.00  0.00     0.288 C 
HETATM    8  C20 UNL     1       3.737  -0.917   2.364  1.00  0.00     0.279 C 
HETATM    9  O5  UNL     1       3.629  -1.748   3.316  1.00  0.00    -0.268 OA
HETATM   10  N7  UNL     1       3.134  -1.048   1.096  1.00  0.00    -0.177 N 
ATOM     11  H7  UNL     1       2.462  -1.773   0.844  1.00  0.00     0.197 HD
BRANCH   5  12
HETATM   12  C5  UNL     1       2.544   0.314  -0.693  1.00  0.00     0.287 C 
HETATM   13  C6  UNL     1       1.167   0.337  -0.250  1.00  0.00     0.181 C 
BRANCH  13  14
HETATM   14  O1  UNL     1       0.969  -0.001   1.028  1.00  0.00    -0.344 OA
ATOM     15  H1  UNL     1       0.065   0.014   1.319  1.00  0.00     0.219 HD
ENDBRANCH  13  14
BRANCH  13  16
HETATM   16  N2  UNL     1       0.041   0.612  -0.973  1.00  0.00    -0.276 N 
ATOM     17  H2  UNL     1       0.242   0.915  -1.926  1.00  0.00     0.189 HD
BRANCH  16  18
HETATM   18  N3  UNL     1      -1.251   0.570  -0.705  1.00  0.00    -0.265 N 
HETATM   19  C7  UNL     1      -2.374   1.417  -0.771  1.00  0.00     0.272 C 
HETATM   20  O2  UNL     1      -2.292   2.596  -1.153  1.00  0.00    -0.268 OA
ATOM     21  H3  UNL     1      -1.513  -0.347  -0.343  1.00  0.00     0.190 HD
BRANCH  19  22
HETATM   22  C8  UNL     1      -3.700   0.812  -0.368  1.00  0.00     0.260 C 
BRANCH  22  23
HETATM   23  C9  UNL     1      -4.006   1.271   1.067  1.00  0.00     0.056 C 
BRANCH  23  24
HETATM   24  C10 UNL     1      -5.293   0.455   1.462  1.00  0.00     0.073 C 
BRANCH  24  25
HETATM   25  C11 UNL     1      -4.831  -0.962   1.391  1.00  0.00     0.074 C 
HETATM   26  S1  UNL     1      -3.411  -1.326   2.155  1.00  0.00    -0.066 SA
BRANCH  25  27
HETATM   27  N4  UNL     1      -5.524  -1.978   0.750  1.00  0.00    -0.384 N 
HETATM   28  C12 UNL     1      -4.944  -3.327   0.699  1.00  0.00     0.149 C 
HETATM   29  C13 UNL     1      -6.802  -1.804   0.120  1.00  0.00     0.149 C 
ENDBRANCH  25  27
ENDBRANCH  24  25
ENDBRANCH  23  24
ENDBRANCH  22  23
BRANCH  22  30
HETATM   30  N5  UNL     1      -4.716   1.151  -1.239  1.00  0.00    -0.400 NA
HETATM   31  C14 UNL     1      -5.717   1.489  -2.095  1.00  0.00     0.283 C 
HETATM   32  C15 UNL     1      -6.175   0.399  -3.097  1.00  0.00     0.134 C 
HETATM   33  O3  UNL     1      -6.360   2.540  -2.227  1.00  0.00    -0.258 OA
ENDBRANCH  22  30
ENDBRANCH  19  22
ENDBRANCH  16  18
ENDBRANCH  13  16
ENDBRANCH   5  12
BRANCH   7  34
HETATM   34  N6  UNL     1       5.901   0.208   2.353  1.00  0.00    -0.398 NA
HETATM   35  C18 UNL     1       7.205   0.007   2.368  1.00  0.00     0.283 C 
HETATM   36  C19 UNL     1       8.002   1.269   1.723  1.00  0.00     0.134 C 
HETATM   37  O4  UNL     1       8.077  -0.793   2.701  1.00  0.00    -0.258 OA
ENDBRANCH   7  34
ENDBRANCH   4   5
ENDBRANCH   3   4
TORSDOF 13
