REMARK  3 active torsions:
REMARK  status: ('A' for Active; 'I' for Inactive)
REMARK    1  A    between atoms: C2_2  and  C3_3 
REMARK    2  A    between atoms: C3_3  and  N1_4 
REMARK       I    between atoms: N1_4  and  C4_6 
REMARK       I    between atoms: C4_6  and  N2_8 
REMARK    3  A    between atoms: N2_8  and  C5_10 
ROOT
HETATM    1  N1  UNL     1      -1.055   0.031  -0.551  1.00  0.00    -0.343 N 
ATOM      2  H1  UNL     1      -1.079   0.211  -1.555  1.00  0.00     0.164 HD
HETATM    3  C4  UNL     1       0.229  -0.007   0.137  1.00  0.00     0.321 C 
HETATM    4  O1  UNL     1       0.139  -0.233   1.344  1.00  0.00    -0.247 OA
HETATM    5  N2  UNL     1       1.405   0.198  -0.554  1.00  0.00    -0.301 N 
ATOM      6  H2  UNL     1       1.256   0.368  -1.549  1.00  0.00     0.171 HD
ENDROOT
BRANCH   5   7
HETATM    7  C5  UNL     1       2.772   0.225  -0.191  1.00  0.00     0.103 A 
HETATM    8  S1  UNL     1       4.076   0.521  -1.336  1.00  0.00    -0.057 SA
HETATM    9  C6  UNL     1       5.401   0.422  -0.294  1.00  0.00     0.100 A 
HETATM   10 CL1  UNL     1       7.137   0.604  -0.652  1.00  0.00    -0.074 Cl
HETATM   11  C7  UNL     1       4.824   0.163   0.912  1.00  0.00     0.087 A 
HETATM   12 CL2  UNL     1       5.876  -0.029   2.361  1.00  0.00    -0.080 Cl
HETATM   13  C8  UNL     1       3.476   0.064   0.958  1.00  0.00     0.091 A 
HETATM   14 CL3  UNL     1       2.656  -0.276   2.522  1.00  0.00    -0.079 Cl
ENDBRANCH   5   7
BRANCH   1  15
HETATM   15  C3  UNL     1      -2.289  -0.181   0.158  1.00  0.00     0.124 C 
BRANCH  15  16
HETATM   16  C2  UNL     1      -3.475  -0.089  -0.790  1.00  0.00     0.015 C 
HETATM   17  C1  UNL     1      -4.725  -0.327   0.049  1.00  0.00     0.006 C 
ENDBRANCH  15  16
ENDBRANCH   1  15
TORSDOF 3
