REMARK  6 active torsions:
REMARK  status: ('A' for Active; 'I' for Inactive)
REMARK    1  A    between atoms: C2_2  and  N1_3 
REMARK    2  A    between atoms: C5_6  and  C6_7 
REMARK    3  A    between atoms: C6_7  and  N2_8 
REMARK    4  A    between atoms: C8_13  and  N4_14 
REMARK    5  A    between atoms: C11_19  and  N6_20 
REMARK    6  A    between atoms: N6_20  and  C12_22 
ROOT
HETATM    1  N2  UNL     1       0.980   1.072  -1.260  1.00  0.00    -0.225 N 
ATOM      2  H2  UNL     1       1.324   2.032  -1.295  1.00  0.00     0.177 HD
HETATM    3  C7  UNL     1      -0.215   0.918  -0.821  1.00  0.00     0.707 A 
HETATM    4  N3  UNL     1      -0.895   2.044  -0.449  1.00  0.00    -0.021 N 
ATOM      5  H3  UNL     1      -0.426   2.945  -0.536  1.00  0.00     0.203 HD
HETATM    6  C8  UNL     1      -2.147   2.021   0.024  1.00  0.00     0.708 A 
HETATM    7  N5  UNL     1      -2.745   0.831   0.131  1.00  0.00    -0.021 N 
ATOM      8  H5  UNL     1      -3.699   0.786   0.488  1.00  0.00     0.203 HD
HETATM    9  C11 UNL     1      -2.113  -0.326  -0.225  1.00  0.00     0.707 A 
HETATM   10  N7  UNL     1      -0.856  -0.249  -0.695  1.00  0.00    -0.022 N 
ATOM     11  H7  UNL     1      -0.376  -1.108  -0.964  1.00  0.00     0.203 HD
ENDROOT
BRANCH   1  12
HETATM   12  C6  UNL     1       1.882   0.071  -1.703  1.00  0.00     0.142 C 
BRANCH  12  13
HETATM   13  C5  UNL     1       2.587  -0.481  -0.459  1.00  0.00     0.007 C 
HETATM   14  C4  UNL     1       3.335   0.610   0.274  1.00  0.00     0.036 C 
HETATM   15  C3  UNL     1       4.634   0.072   0.866  1.00  0.00     0.272 C 
HETATM   16  N1  UNL     1       5.596  -0.216  -0.182  1.00  0.00     0.088 N 
HETATM   17  C18 UNL     1       4.844  -0.541  -1.387  1.00  0.00     0.272 C 
HETATM   18  C17 UNL     1       3.677  -1.423  -0.991  1.00  0.00     0.036 C 
BRANCH  16  19
HETATM   19  C2  UNL     1       6.476  -1.313   0.149  1.00  0.00     0.268 C 
HETATM   20  C1  UNL     1       7.397  -0.940   1.270  1.00  0.00     0.037 C 
ENDBRANCH  16  19
ENDBRANCH  12  13
ENDBRANCH   1  12
BRANCH   6  21
HETATM   21  N4  UNL     1      -2.846   3.201   0.409  1.00  0.00    -0.225 N 
HETATM   22  C9  UNL     1      -3.633   3.867  -0.608  1.00  0.00     0.168 C 
HETATM   23  C10 UNL     1      -2.764   3.703   1.757  1.00  0.00     0.168 C 
ENDBRANCH   6  21
BRANCH   9  24
HETATM   24  N6  UNL     1      -2.682  -1.465  -0.127  1.00  0.00    -0.220 N 
ATOM     25  H6  UNL     1      -2.201  -2.323  -0.396  1.00  0.00     0.178 HD
BRANCH  24  26
HETATM   26  C12 UNL     1      -4.040  -1.490   0.382  1.00  0.00     0.099 C 
HETATM   27  C13 UNL     1      -4.575  -2.870   0.605  1.00  0.00     0.026 C 
HETATM   28  C14 UNL     1      -6.085  -2.631   0.460  1.00  0.00     0.002 C 
HETATM   29  C15 UNL     1      -6.137  -1.796  -0.782  1.00  0.00     0.002 C 
HETATM   30  C16 UNL     1      -5.002  -0.801  -0.560  1.00  0.00     0.026 C 
ENDBRANCH  24  26
ENDBRANCH   9  24
TORSDOF 6
