REMARK  5 active torsions:
REMARK  status: ('A' for Active; 'I' for Inactive)
REMARK    1  A    between atoms: O1_2  and  C2_3 
REMARK    2  A    between atoms: C2_3  and  C3_4 
REMARK    3  A    between atoms: C2_3  and  C18_24 
REMARK    4  A    between atoms: C4_5  and  C5_6 
REMARK    5  A    between atoms: C15_17  and  O2_18 
ROOT
HETATM    1  C3  UNL     1       0.577  -0.084  -0.226  1.00  0.00     0.054 C 
HETATM    2  C4  UNL     1       0.431  -1.512  -0.633  1.00  0.00     0.006 C 
HETATM    3  C8  UNL     1      -1.064  -1.813  -0.661  1.00  0.00     0.048 C 
HETATM    4  C9  UNL     1      -1.555  -1.230  -1.967  1.00  0.00     0.280 C 
HETATM    5  N1  UNL     1      -0.958   0.018  -2.217  1.00  0.00     0.095 N 
HETATM    6  C10 UNL     1      -1.977   1.056  -2.189  1.00  0.00     0.285 C 
HETATM    7  C11 UNL     1      -1.431   1.403  -0.802  1.00  0.00     0.110 C 
HETATM    8  C12 UNL     1      -0.264   0.693  -1.205  1.00  0.00     0.240 C 
HETATM    9  C13 UNL     1      -2.344   1.045   0.271  1.00  0.00     0.173 C 
HETATM   10  C14 UNL     1      -2.857  -0.338   0.342  1.00  0.00     0.101 C 
HETATM   11  C15 UNL     1      -1.858  -1.438   0.506  1.00  0.00     0.129 C 
HETATM   12  O3  UNL     1      -3.511   1.816  -0.023  1.00  0.00    -0.352 OA
HETATM   13  C16 UNL     1      -4.200   1.937   1.147  1.00  0.00     0.197 C 
HETATM   14  C17 UNL     1      -3.118   1.890   2.194  1.00  0.00     0.197 C 
HETATM   15  O4  UNL     1      -1.993   1.613   1.469  1.00  0.00    -0.352 OA
ENDROOT
BRANCH   1  16
HETATM   16  C2  UNL     1       1.998   0.409  -0.201  1.00  0.00     0.134 C 
BRANCH  16  17
HETATM   17  O1  UNL     1       2.569   0.393  -1.438  1.00  0.00    -0.390 OA
HETATM   18  C1  UNL     1       3.645  -0.362  -1.712  1.00  0.00     0.202 C 
ENDBRANCH  16  17
BRANCH  16  19
HETATM   19  C18 UNL     1       2.292   1.696   0.466  1.00  0.00    -0.025 C 
HETATM   20  C19 UNL     1       1.714   1.898   1.818  1.00  0.00     0.017 C 
HETATM   21  C20 UNL     1       2.037   2.951  -0.321  1.00  0.00     0.017 C 
HETATM   22  C21 UNL     1       3.843   1.789   0.709  1.00  0.00     0.017 C 
ENDBRANCH  16  19
ENDBRANCH   1  16
BRANCH   2  23
HETATM   23  C5  UNL     1       1.183  -2.542   0.136  1.00  0.00    -0.018 C 
HETATM   24  C6  UNL     1       0.896  -2.662   1.593  1.00  0.00     0.010 C 
HETATM   25  C7  UNL     1       0.876  -3.928  -0.464  1.00  0.00     0.010 C 
ENDBRANCH   2  23
BRANCH  11  26
HETATM   26  O2  UNL     1      -2.669  -2.546   0.843  1.00  0.00    -0.395 OA
ATOM     27  H2  UNL     1      -3.185  -2.302   1.602  1.00  0.00     0.210 HD
ENDBRANCH  11  26
TORSDOF 5
