REMARK  8 active torsions:
REMARK  status: ('A' for Active; 'I' for Inactive)
REMARK    1  A    between atoms: C1_2  and  C2_3 
REMARK    2  A    between atoms: C1_2  and  O4_11 
REMARK    3  A    between atoms: C2_3  and  C3_4 
REMARK    4  A    between atoms: C3_4  and  C4_5 
REMARK       I    between atoms: C4_5  and  N1_7 
REMARK    5  A    between atoms: O4_11  and  C5_12 
REMARK    6  A    between atoms: C7_15  and  C8_16 
REMARK    7  A    between atoms: C8_16  and  N4_17 
REMARK    8  A    between atoms: C9_18  and  O6_19 
ROOT
HETATM    1  C5  UNL     1       1.326   1.039  -1.493  1.00  0.00     0.186 C 
HETATM    2  C6  UNL     1       0.539   0.922  -2.809  1.00  0.00     0.203 C 
HETATM    3  O5  UNL     1      -0.429   0.228  -2.041  1.00  0.00    -0.379 OA
HETATM    4  C7  UNL     1      -0.071   1.110  -0.995  1.00  0.00     0.179 C 
ENDROOT
BRANCH   4   5
HETATM    5  C8  UNL     1      -0.291   0.547   0.381  1.00  0.00     0.276 C 
BRANCH   5   6
HETATM    6  N4  UNL     1      -1.713   0.212   0.576  1.00  0.00    -0.025 N 
HETATM    7  C9  UNL     1      -2.564   1.314   0.653  1.00  0.00     0.328 C 
HETATM    8  C10 UNL     1      -3.969   1.160   0.230  1.00  0.00     0.043 C 
HETATM    9  C11 UNL     1      -4.882   0.600   1.278  1.00  0.00     0.013 C 
HETATM   10  C15 UNL     1      -4.030   0.311  -1.020  1.00  0.00     0.015 C 
HETATM   11  C12 UNL     1      -4.523  -0.831   1.544  1.00  0.00    -0.012 C 
HETATM   12  C13 UNL     1      -4.493  -1.679   0.298  1.00  0.00     0.011 C 
HETATM   13  C18 UNL     1      -3.227  -0.980   2.255  1.00  0.00     0.040 C 
HETATM   14  C14 UNL     1      -3.466  -1.038  -0.634  1.00  0.00     0.020 C 
HETATM   15  C16 UNL     1      -2.124  -0.982  -0.009  1.00  0.00     0.229 A 
HETATM   16  C17 UNL     1      -2.009  -0.915   1.412  1.00  0.00     0.226 A 
BRANCH   7  17
HETATM   17  O6  UNL     1      -2.569   1.814   1.978  1.00  0.00    -0.369 OA
ATOM     18  H6  UNL     1      -3.149   2.565   2.030  1.00  0.00     0.212 HD
ENDBRANCH   7  17
ENDBRANCH   5   6
ENDBRANCH   4   5
BRANCH   1  19
HETATM   19  O4  UNL     1       2.015  -0.174  -1.298  1.00  0.00    -0.311 OA
BRANCH  19  20
HETATM   20  C1  UNL     1       3.396  -0.134  -1.064  1.00  0.00     0.259 C 
HETATM   21  O1  UNL     1       3.927   0.987  -1.043  1.00  0.00    -0.265 OA
BRANCH  20  22
HETATM   22  C2  UNL     1       4.205  -1.342  -0.849  1.00  0.00     0.120 C 
BRANCH  22  23
HETATM   23  C3  UNL     1       5.649  -1.069  -0.545  1.00  0.00     0.116 C 
BRANCH  23  24
HETATM   24  C4  UNL     1       5.891  -0.300   0.682  1.00  0.00     0.256 C 
HETATM   25  O2  UNL     1       4.928   0.017   1.415  1.00  0.00    -0.270 OA
HETATM   26  N1  UNL     1       7.197   0.089   1.052  1.00  0.00    -0.114 N 
HETATM   27  N2  UNL     1       8.418  -0.073   0.523  1.00  0.00     0.069 NA
HETATM   28  N3  UNL     1       7.813   0.750   2.020  1.00  0.00     0.069 NA
HETATM   29  O3  UNL     1       8.977   0.574   1.479  1.00  0.00    -0.124 OA
ENDBRANCH  23  24
ENDBRANCH  22  23
ENDBRANCH  20  22
ENDBRANCH  19  20
ENDBRANCH   1  19
TORSDOF 8
