REMARK  7 active torsions:
REMARK  status: ('A' for Active; 'I' for Inactive)
REMARK    1  A    between atoms: C2_2  and  O2_4 
REMARK    2  A    between atoms: O2_4  and  C3_5 
REMARK    3  A    between atoms: C10_13  and  O3_14 
REMARK    4  A    between atoms: C13_18  and  O4_19 
REMARK    5  A    between atoms: C14_21  and  O5_22 
REMARK    6  A    between atoms: O5_22  and  C15_23 
REMARK    7  A    between atoms: C15_23  and  C16_25 
ROOT
HETATM    1  C3  UNL     1      -1.084   1.746  -0.719  1.00  0.00     0.159 C 
HETATM    2  C4  UNL     1      -2.364   1.087  -0.188  1.00  0.00     0.075 C 
HETATM    3  C5  UNL     1      -1.945  -0.190   0.382  1.00  0.00     0.260 C 
HETATM    4  N1  UNL     1      -2.627  -0.937   1.347  1.00  0.00     0.092 N 
HETATM    5  C6  UNL     1      -3.204  -0.223   2.439  1.00  0.00     0.310 C 
HETATM    6  C7  UNL     1      -1.599  -1.914   1.787  1.00  0.00     0.273 C 
HETATM    7  C8  UNL     1      -0.367  -1.972   1.006  1.00  0.00     0.052 C 
HETATM    8  C9  UNL     1      -0.332  -1.522  -0.449  1.00  0.00     0.069 C 
HETATM    9  C10 UNL     1      -0.156  -2.701  -1.313  1.00  0.00     0.136 C 
HETATM   10  C11 UNL     1      -1.445  -3.470  -0.957  1.00  0.00     0.036 C 
HETATM   11  C12 UNL     1      -2.516  -2.379  -0.847  1.00  0.00     0.044 C 
HETATM   12  C13 UNL     1      -1.748  -1.114  -0.762  1.00  0.00     0.105 C 
HETATM   13  C14 UNL     1       0.513  -0.319  -0.685  1.00  0.00     0.070 C 
HETATM   14  C20 UNL     1      -0.002   0.933  -1.229  1.00  0.00     0.039 C 
ENDROOT
BRANCH  13  15
HETATM   15  O5  UNL     1       1.371  -0.037   0.425  1.00  0.00    -0.282 OA
BRANCH  15  16
HETATM   16  C15 UNL     1       2.724  -0.198   0.439  1.00  0.00     0.268 C 
HETATM   17  O6  UNL     1       3.282  -0.629  -0.603  1.00  0.00    -0.264 OA
BRANCH  16  18
HETATM   18  C16 UNL     1       3.597   0.102   1.603  1.00  0.00     0.086 C 
HETATM   19  C17 UNL     1       5.062  -0.160   1.366  1.00  0.00     0.014 C 
HETATM   20  C18 UNL     1       5.322   1.316   1.083  1.00  0.00     0.002 C 
HETATM   21  C19 UNL     1       3.940   1.585   1.690  1.00  0.00     0.014 C 
ENDBRANCH  16  18
ENDBRANCH  15  16
ENDBRANCH  13  15
BRANCH   9  22
HETATM   22  O3  UNL     1       0.915  -3.509  -0.947  1.00  0.00    -0.394 OA
ATOM     23  H3  UNL     1       1.029  -4.270  -1.505  1.00  0.00     0.210 HD
ENDBRANCH   9  22
BRANCH  12  24
HETATM   24  O4  UNL     1      -1.921  -0.520  -2.012  1.00  0.00    -0.386 OA
ATOM     25  H4  UNL     1      -1.795  -1.112  -2.745  1.00  0.00     0.210 HD
ENDBRANCH  12  24
BRANCH   1  26
HETATM   26  O2  UNL     1      -1.388   2.722  -1.697  1.00  0.00    -0.312 OA
BRANCH  26  27
HETATM   27  C2  UNL     1      -1.244   4.064  -1.521  1.00  0.00     0.255 C 
HETATM   28  C1  UNL     1      -1.557   5.098  -2.533  1.00  0.00     0.126 C 
HETATM   29  O1  UNL     1      -0.811   4.428  -0.409  1.00  0.00    -0.266 OA
ENDBRANCH  26  27
ENDBRANCH   1  26
TORSDOF 7
