REMARK  8 active torsions:
REMARK  status: ('A' for Active; 'I' for Inactive)
REMARK    1  A    between atoms: C1_2  and  C2_4 
REMARK    2  A    between atoms: C3_5  and  C4_6 
REMARK    3  A    between atoms: C4_6  and  S1_7 
REMARK    4  A    between atoms: S1_7  and  C5_8 
REMARK    5  A    between atoms: C6_10  and  C7_11 
REMARK    6  A    between atoms: C7_11  and  N2_12 
REMARK    7  A    between atoms: C7_11  and  O3_16 
REMARK    8  A    between atoms: C8_20  and  C9_21 
ROOT
HETATM    1  C5  UNL     1      -0.603   0.673   0.618  1.00  0.00     0.145 A 
HETATM    2  O2  UNL     1      -0.854  -0.601   0.682  1.00  0.00    -0.284 OA
HETATM    3  C6  UNL     1      -1.853  -0.949  -0.088  1.00  0.00     0.182 A 
HETATM    4  N3  UNL     1      -2.299   0.169  -0.709  1.00  0.00    -0.331 N 
ATOM      5  H3  UNL     1      -3.069   0.233  -1.375  1.00  0.00     0.168 HD
HETATM    6  C8  UNL     1      -1.525   1.176  -0.273  1.00  0.00     0.122 A 
ENDROOT
BRANCH   6   7
HETATM    7  C9  UNL     1      -1.632   2.587  -0.666  1.00  0.00     0.167 A 
HETATM    8  N4  UNL     1      -0.894   3.622  -0.267  1.00  0.00    -0.267 N 
HETATM    9  N5  UNL     1      -1.332   4.711  -0.863  1.00  0.00    -0.227 N 
ATOM     10  H4  UNL     1      -0.117   3.578   0.392  1.00  0.00     0.190 HD
HETATM   11  N6  UNL     1      -2.346   4.389  -1.643  1.00  0.00    -0.227 N 
ATOM     12  H5  UNL     1      -0.950   5.649  -0.742  1.00  0.00     0.210 HD
HETATM   13  N7  UNL     1      -2.549   3.090  -1.539  1.00  0.00    -0.267 N 
ATOM     14  H6  UNL     1      -2.881   5.033  -2.226  1.00  0.00     0.210 HD
ATOM     15  H7  UNL     1      -3.267   2.555  -2.027  1.00  0.00     0.190 HD
ENDBRANCH   6   7
BRANCH   1  16
HETATM   16  S1  UNL     1       0.633   1.663   1.449  1.00  0.00    -0.090 SA
BRANCH  16  17
HETATM   17  C4  UNL     1       2.159   1.718   0.476  1.00  0.00     0.175 C 
BRANCH  17  18
HETATM   18  C3  UNL     1       2.772   0.376   0.437  1.00  0.00    -0.086 C 
HETATM   19  C2  UNL     1       3.287  -0.714   0.420  1.00  0.00    -0.008 C 
BRANCH  19  20
HETATM   20  C1  UNL     1       3.920  -2.001   0.413  1.00  0.00     0.309 C 
HETATM   21  N1  UNL     1       5.345  -2.035   0.412  1.00  0.00    -0.049 NA
HETATM   22  O1  UNL     1       3.294  -3.087   0.409  1.00  0.00    -0.262 OA
ENDBRANCH  19  20
ENDBRANCH  17  18
ENDBRANCH  16  17
ENDBRANCH   1  16
BRANCH   3  23
HETATM   23  C7  UNL     1      -2.433  -2.318  -0.281  1.00  0.00     0.392 C 
BRANCH  23  24
HETATM   24  N2  UNL     1      -2.568  -2.905   1.043  1.00  0.00    -0.045 N 
ATOM     25  H23 UNL     1      -1.696  -2.908   1.573  1.00  0.00     0.277 HD
ATOM     26  H22 UNL     1      -3.107  -2.326   1.687  1.00  0.00     0.277 HD
ATOM     27  H21 UNL     1      -2.963  -3.836   0.912  1.00  0.00     0.277 HD
ENDBRANCH  23  24
BRANCH  23  28
HETATM   28  O3  UNL     1      -3.683  -2.241  -0.884  1.00  0.00    -0.364 OA
ATOM     29  H3  UNL     1      -4.051  -3.108  -1.006  1.00  0.00     0.212 HD
ENDBRANCH  23  28
ENDBRANCH   3  23
TORSDOF 8
