REMARK  12 active torsions:
REMARK  status: ('A' for Active; 'I' for Inactive)
REMARK    1  A    between atoms: N1_2  and  N2_4 
REMARK    2  A    between atoms: C2_6  and  C3_7 
REMARK    3  A    between atoms: C2_6  and  N9_32 
REMARK    4  A    between atoms: C3_7  and  C4_8 
REMARK    5  A    between atoms: C4_8  and  C5_9 
REMARK    6  A    between atoms: C5_9  and  N3_10 
REMARK    7  A    between atoms: C5_9  and  C6_14 
REMARK       I    between atoms: C6_14  and  N4_16 
REMARK    8  A    between atoms: N4_16  and  C7_18 
REMARK    9  A    between atoms: C7_18  and  C8_19 
REMARK   10  A    between atoms: C10_22  and  N5_23 
REMARK       I    between atoms: N5_23  and  C11_25 
REMARK   11  A    between atoms: N9_32  and  C12_34 
REMARK   12  A    between atoms: C13_37  and  N11_38 
ROOT
HETATM    1  C5  UNL     1      -0.533  -2.960  -0.474  1.00  0.00     0.275 C 
ENDROOT
BRANCH   1   2
HETATM    2  C4  UNL     1       0.332  -1.713  -0.431  1.00  0.00     0.050 C 
BRANCH   2   3
HETATM    3  C3  UNL     1       1.721  -2.133  -0.002  1.00  0.00     0.080 C 
BRANCH   3   4
HETATM    4  C2  UNL     1       2.657  -1.012   0.076  1.00  0.00     0.097 C 
HETATM    5  N2  UNL     1       3.731  -1.031  -0.631  1.00  0.00    -0.290 N 
ATOM      6  H2  UNL     1       4.371  -0.240  -0.561  1.00  0.00     0.188 HD
BRANCH   5   7
HETATM    7  N1  UNL     1       4.064  -2.076  -1.486  1.00  0.00    -0.321 N 
HETATM    8  C1  UNL     1       3.948  -1.907  -2.748  1.00  0.00     0.139 C 
ATOM      9  H1  UNL     1       4.396  -2.965  -1.112  1.00  0.00     0.185 HD
ENDBRANCH   5   7
BRANCH   4  10
HETATM   10  N9  UNL     1       2.424   0.108   0.916  1.00  0.00    -0.335 N 
ATOM     11  H9  UNL     1       1.528   0.163   1.401  1.00  0.00     0.168 HD
BRANCH  10  12
HETATM   12  C12 UNL     1       3.354   1.151   1.123  1.00  0.00     0.082 C 
HETATM   13  N10 UNL     1       4.486   0.974   1.714  1.00  0.00    -0.337 N 
HETATM   14  C13 UNL     1       5.395   2.101   1.891  1.00  0.00     0.383 C 
ATOM     15  H10 UNL     1       4.745   0.049   2.057  1.00  0.00     0.164 HD
HETATM   16  N12 UNL     1       5.454   2.967   0.759  1.00  0.00    -0.380 N 
HETATM   17  C14 UNL     1       4.204   3.281   0.148  1.00  0.00     0.125 C 
ATOM     18  H12 UNL     1       6.336   3.339   0.408  1.00  0.00     0.157 HD
HETATM   19  C15 UNL     1       3.031   2.509   0.648  1.00  0.00     0.095 C 
BRANCH  14  20
HETATM   20  N11 UNL     1       5.148   2.785   3.141  1.00  0.00    -0.041 N 
ATOM     21 3H11 UNL     1       4.173   3.074   3.223  1.00  0.00     0.279 HD
ATOM     22 2H11 UNL     1       5.189   2.143   3.933  1.00  0.00     0.279 HD
ATOM     23 1H11 UNL     1       5.784   3.573   3.265  1.00  0.00     0.279 HD
ENDBRANCH  14  20
ENDBRANCH  10  12
ENDBRANCH   4  10
ENDBRANCH   3   4
ENDBRANCH   2   3
ENDBRANCH   1   2
BRANCH   1  24
HETATM   24  N3  UNL     1      -0.590  -3.586   0.824  1.00  0.00    -0.066 N 
ATOM     25  H33 UNL     1       0.341  -3.784   1.189  1.00  0.00     0.275 HD
ATOM     26  H32 UNL     1      -0.901  -2.935   1.544  1.00  0.00     0.275 HD
ATOM     27  H31 UNL     1      -1.171  -4.424   0.795  1.00  0.00     0.275 HD
ENDBRANCH   1  24
BRANCH   1  28
HETATM   28  C6  UNL     1      -1.900  -2.649  -0.974  1.00  0.00     0.248 C 
HETATM   29  O1  UNL     1      -1.973  -2.082  -2.094  1.00  0.00    -0.271 OA
HETATM   30  N4  UNL     1      -3.008  -3.003  -0.179  1.00  0.00    -0.354 N 
ATOM     31  H4  UNL     1      -2.818  -3.463   0.711  1.00  0.00     0.162 HD
BRANCH  30  32
HETATM   32  C7  UNL     1      -4.391  -2.768  -0.522  1.00  0.00     0.180 C 
BRANCH  32  33
HETATM   33  C8  UNL     1      -4.667  -1.276  -0.684  1.00  0.00     0.035 A 
HETATM   34  C9  UNL     1      -4.743  -0.746  -1.948  1.00  0.00     0.080 A 
HETATM   35  S1  UNL     1      -5.059   0.900  -1.626  1.00  0.00    -0.064 SA
HETATM   36  C10 UNL     1      -5.077   0.820   0.076  1.00  0.00     0.151 A 
HETATM   37  N8  UNL     1      -4.839  -0.464   0.321  1.00  0.00    -0.338 N 
ATOM     38  H8  UNL     1      -4.792  -0.809   1.280  1.00  0.00     0.168 HD
BRANCH  36  39
HETATM   39  N5  UNL     1      -5.273   1.767   0.968  1.00  0.00    -0.311 N 
HETATM   40  C11 UNL     1      -5.512   3.076   0.485  1.00  0.00     0.187 C 
HETATM   41  N6  UNL     1      -5.771   3.991   1.365  1.00  0.00    -0.373 N 
HETATM   42  N7  UNL     1      -5.485   3.440  -0.877  1.00  0.00    -0.064 NA
ATOM     43  H62 UNL     1      -5.791   3.728   2.350  1.00  0.00     0.158 HD
ATOM     44  H61 UNL     1      -5.943   4.934   1.017  1.00  0.00     0.158 HD
ATOM     45  H5  UNL     1      -5.254   1.566   1.968  1.00  0.00     0.170 HD
ENDBRANCH  36  39
ENDBRANCH  32  33
ENDBRANCH  30  32
ENDBRANCH   1  28
TORSDOF 12
