REMARK  14 active torsions:
REMARK  status: ('A' for Active; 'I' for Inactive)
REMARK    1  A    between atoms: C2_4  and  C3_5 
REMARK    2  A    between atoms: C3_5  and  O1_6 
REMARK    3  A    between atoms: C3_5  and  C4_8 
REMARK    4  A    between atoms: C4_8  and  O2_9 
REMARK    5  A    between atoms: C4_8  and  N3_11 
REMARK    6  A    between atoms: N3_11  and  C5_13 
REMARK    7  A    between atoms: C6_18  and  C7_19 
REMARK    8  A    between atoms: C7_19  and  O3_20 
REMARK    9  A    between atoms: C7_19  and  C8_22 
REMARK   10  A    between atoms: C8_22  and  O4_23 
REMARK   11  A    between atoms: C8_22  and  C9_25 
REMARK   12  A    between atoms: C9_25  and  N6_26 
REMARK   13  A    between atoms: C11_32  and  N9_33 
REMARK   14  A    between atoms: C12_38  and  N11_39 
ROOT
HETATM    1  N1  UNL     1       6.946   2.734  -3.106  1.00  0.00    -0.171 NA
HETATM    2  C1  UNL     1       6.831   2.216  -2.077  1.00  0.00     0.192 C 
HETATM    3  N2  UNL     1       6.678   1.605  -0.831  1.00  0.00    -0.218 N 
HETATM    4  C2  UNL     1       5.516   1.179  -0.320  1.00  0.00     0.137 A 
HETATM    5  N14 UNL     1       5.691   0.637   0.895  1.00  0.00    -0.328 N 
ATOM      6  H14 UNL     1       4.963   0.241   1.490  1.00  0.00     0.168 HD
HETATM    7  C16 UNL     1       7.007   0.712   1.185  1.00  0.00     0.160 A 
HETATM    8  N15 UNL     1       7.668   0.266   2.359  1.00  0.00    -0.079 NA
HETATM    9  C17 UNL     1       7.606   1.318   0.099  1.00  0.00     0.174 A 
HETATM   10  N16 UNL     1       8.993   1.595  -0.019  1.00  0.00    -0.078 NA
ENDROOT
BRANCH   4  11
HETATM   11  C3  UNL     1       4.159   1.273  -0.987  1.00  0.00     0.261 C 
BRANCH  11  12
HETATM   12  O1  UNL     1       3.298   1.715  -0.047  1.00  0.00    -0.380 OA
ATOM     13  H1  UNL     1       2.447   1.774  -0.465  1.00  0.00     0.211 HD
ENDBRANCH  11  12
BRANCH  11  14
HETATM   14  C4  UNL     1       3.967   0.039  -1.695  1.00  0.00     0.154 C 
BRANCH  14  15
HETATM   15  O2  UNL     1       4.946  -0.193  -2.561  1.00  0.00    -0.347 OA
ATOM     16  H2  UNL     1       4.819  -1.010  -3.030  1.00  0.00     0.219 HD
ENDBRANCH  14  15
BRANCH  14  17
HETATM   17  N3  UNL     1       3.009  -0.935  -1.671  1.00  0.00    -0.322 N 
ATOM     18  H3  UNL     1       3.170  -1.710  -2.315  1.00  0.00     0.169 HD
BRANCH  17  19
HETATM   19  C5  UNL     1       1.849  -1.039  -0.909  1.00  0.00     0.146 A 
HETATM   20  N4  UNL     1       1.411  -0.166  -0.001  1.00  0.00    -0.284 N 
HETATM   21  N5  UNL     1       0.320  -0.255   0.721  1.00  0.00    -0.300 N 
ATOM     22  H4  UNL     1       1.988   0.662   0.148  1.00  0.00     0.188 HD
HETATM   23  C6  UNL     1      -0.470  -1.304   0.574  1.00  0.00     0.059 A 
ATOM     24  H5  UNL     1       0.084   0.478   1.389  1.00  0.00     0.186 HD
HETATM   25  C14 UNL     1      -0.118  -2.269  -0.334  1.00  0.00     0.059 A 
HETATM   26  C15 UNL     1       1.026  -2.172  -1.087  1.00  0.00     0.093 A 
HETATM   27  N13 UNL     1       1.381  -3.175  -2.023  1.00  0.00    -0.098 NA
BRANCH  23  28
HETATM   28  C7  UNL     1      -1.708  -1.444   1.366  1.00  0.00     0.199 C 
BRANCH  28  29
HETATM   29  O3  UNL     1      -1.843  -2.725   1.874  1.00  0.00    -0.387 OA
ATOM     30  H3  UNL     1      -2.640  -2.815   2.384  1.00  0.00     0.210 HD
ENDBRANCH  28  29
BRANCH  28  31
HETATM   31  C8  UNL     1      -2.942  -1.121   0.515  1.00  0.00     0.172 C 
BRANCH  31  32
HETATM   32  O4  UNL     1      -2.959  -2.078  -0.497  1.00  0.00    -0.391 OA
ATOM     33  H4  UNL     1      -3.724  -1.878  -1.024  1.00  0.00     0.210 HD
ENDBRANCH  31  32
BRANCH  31  34
HETATM   34  C9  UNL     1      -4.132  -1.270   1.439  1.00  0.00     0.187 C 
BRANCH  34  35
HETATM   35  N6  UNL     1      -5.368  -0.995   0.772  1.00  0.00    -0.257 N 
HETATM   36  N7  UNL     1      -6.106  -1.891   0.142  1.00  0.00    -0.238 N 
HETATM   37  N8  UNL     1      -7.175  -1.331  -0.365  1.00  0.00    -0.279 N 
ATOM     38  H7  UNL     1      -5.875  -2.881   0.062  1.00  0.00     0.208 HD
HETATM   39  C10 UNL     1      -7.129  -0.016  -0.051  1.00  0.00     0.140 A 
ATOM     40  H8  UNL     1      -7.907  -1.800  -0.898  1.00  0.00     0.189 HD
HETATM   41  C11 UNL     1      -7.948   1.063  -0.298  1.00  0.00     0.147 A 
HETATM   42  C13 UNL     1      -5.981   0.190   0.670  1.00  0.00     0.171 A 
HETATM   43  N10 UNL     1      -7.651   2.278   0.143  1.00  0.00    -0.175 N 
HETATM   44  C12 UNL     1      -6.518   2.426   0.841  1.00  0.00     0.679 A 
ATOM     45  H10 UNL     1      -8.264   3.072  -0.043  1.00  0.00     0.186 HD
HETATM   46  N12 UNL     1      -5.677   1.415   1.116  1.00  0.00    -0.173 N 
ATOM     47  H12 UNL     1      -4.825   1.577   1.653  1.00  0.00     0.186 HD
BRANCH  41  48
HETATM   48  N9  UNL     1      -9.030   0.884  -0.973  1.00  0.00    -0.383 N 
ATOM     49  H92 UNL     1      -9.258  -0.050  -1.312  1.00  0.00     0.157 HD
ATOM     50  H91 UNL     1      -9.637   1.683  -1.156  1.00  0.00     0.157 HD
ENDBRANCH  41  48
BRANCH  44  51
HETATM   51  N11 UNL     1      -6.227   3.618   1.273  1.00  0.00    -0.234 N 
ATOM     52 2H11 UNL     1      -6.865   4.386   1.064  1.00  0.00     0.174 HD
ATOM     53 1H11 UNL     1      -5.364   3.731   1.805  1.00  0.00     0.174 HD
ENDBRANCH  44  51
ENDBRANCH  34  35
ENDBRANCH  31  34
ENDBRANCH  28  31
ENDBRANCH  23  28
ENDBRANCH  17  19
ENDBRANCH  14  17
ENDBRANCH  11  14
ENDBRANCH   4  11
TORSDOF 14
