REMARK  5 active torsions:
REMARK  status: ('A' for Active; 'I' for Inactive)
REMARK    1  A    between atoms: N1_2  and  C2_5 
REMARK    2  A    between atoms: C8_11  and  C9_12 
REMARK    3  A    between atoms: C8_11  and  C10_15 
REMARK    4  A    between atoms: C9_12  and  O1_13 
REMARK    5  A    between atoms: C16_21  and  C17_22 
ROOT
HETATM    1  C2  UNL     1       1.969  -0.321  -0.280  1.00  0.00     0.195 C 
HETATM    2  C3  UNL     1       0.790  -1.052  -0.891  1.00  0.00     0.029 C 
HETATM    3  C4  UNL     1       0.430   0.036  -1.920  1.00  0.00     0.014 C 
HETATM    4  C5  UNL     1       0.545   1.352  -1.128  1.00  0.00     0.014 C 
HETATM    5  C6  UNL     1       1.226   0.897   0.120  1.00  0.00     0.033 C 
HETATM    6  C7  UNL     1      -0.235   0.477   0.434  1.00  0.00     0.003 A 
HETATM    7  C8  UNL     1      -0.200  -0.965   0.263  1.00  0.00     0.000 C 
HETATM    8  C13 UNL     1      -0.922   1.456   1.119  1.00  0.00    -0.019 A 
HETATM    9  C14 UNL     1      -2.364   1.281   1.586  1.00  0.00     0.017 C 
HETATM   10  C15 UNL     1      -0.179   2.455   2.021  1.00  0.00     0.017 C 
HETATM   11  C16 UNL     1      -0.715   1.539  -0.355  1.00  0.00     0.070 A 
ENDROOT
BRANCH   7  12
HETATM   12  C9  UNL     1       0.319  -1.585   1.532  1.00  0.00     0.175 C 
BRANCH  12  13
HETATM   13  O1  UNL     1       0.648  -2.899   1.497  1.00  0.00    -0.400 OA
ATOM     14  H1  UNL     1       0.976  -3.290   2.298  1.00  0.00     0.209 HD
ENDBRANCH  12  13
ENDBRANCH   7  12
BRANCH   7  15
HETATM   15  C10 UNL     1      -1.444  -1.654  -0.143  1.00  0.00    -0.003 A 
HETATM   16  C11 UNL     1      -1.475  -3.107  -0.535  1.00  0.00     0.006 A 
HETATM   17  C12 UNL     1      -2.147  -2.647   0.695  1.00  0.00     0.006 A 
ENDBRANCH   7  15
BRANCH   1  18
HETATM   18  N1  UNL     1       2.820   0.060  -1.422  1.00  0.00    -0.074 N 
HETATM   19  C1  UNL     1       3.987   0.767  -0.982  1.00  0.00     0.267 C 
ATOM     20  H12 UNL     1       2.298   0.592  -2.118  1.00  0.00     0.277 HD
ATOM     21  H11 UNL     1       3.064  -0.748  -1.995  1.00  0.00     0.277 HD
ENDBRANCH   1  18
BRANCH  11  22
HETATM   22  C17 UNL     1      -1.840   1.997  -1.078  1.00  0.00     0.183 C 
HETATM   23  O2  UNL     1      -2.376   3.094  -0.667  1.00  0.00    -0.647 OA
HETATM   24  O3  UNL     1      -2.489   1.464  -2.180  1.00  0.00    -0.647 OA
ENDBRANCH  11  22
TORSDOF 5
