REMARK  4 active torsions:
REMARK  status: ('A' for Active; 'I' for Inactive)
REMARK    1  A    between atoms: C2_2  and  N1_4 
REMARK    2  A    between atoms: N1_4  and  S1_6 
REMARK    3  A    between atoms: S1_6  and  N2_9 
REMARK       I    between atoms: N2_9  and  C5_11 
REMARK       I    between atoms: N4_13  and  C6_15 
REMARK       I    between atoms: C6_15  and  N6_19 
REMARK    4  A    between atoms: N6_19  and  C7_21 
ROOT
HETATM    1  N2  UNL     1      -0.920   0.160   0.783  1.00  0.00    -0.244 N 
ATOM      2  H2  UNL     1      -0.946   1.140   1.064  1.00  0.00     0.182 HD
HETATM    3  C5  UNL     1       0.284  -0.344   0.235  1.00  0.00     0.217 C 
HETATM    4  N3  UNL     1       0.889  -1.466   0.853  1.00  0.00    -0.062 NA
HETATM    5  N4  UNL     1       0.841   0.176  -0.793  1.00  0.00    -0.163 N 
ATOM      6  H4  UNL     1       0.421   0.984  -1.253  1.00  0.00     0.187 HD
HETATM    7  C6  UNL     1       2.046  -0.380  -1.287  1.00  0.00     0.674 C 
HETATM    8  N5  UNL     1       2.022  -1.617  -1.654  1.00  0.00    -0.235 N 
ATOM      9  H51 UNL     1       2.890  -2.017  -2.010  1.00  0.00     0.174 HD
ATOM     10  H52 UNL     1       1.171  -2.175  -1.589  1.00  0.00     0.174 HD
HETATM   11  N6  UNL     1       3.215   0.386  -1.376  1.00  0.00    -0.218 N 
ATOM     12  H6  UNL     1       3.459   0.787  -2.282  1.00  0.00     0.178 HD
ENDROOT
BRANCH   1  13
HETATM   13  S1  UNL     1      -2.345  -0.785   1.004  1.00  0.00     0.305 S 
HETATM   14  O1  UNL     1      -1.995  -2.246   1.230  1.00  0.00    -0.188 OA
HETATM   15  O2  UNL     1      -3.039  -0.326   2.253  1.00  0.00    -0.188 OA
BRANCH  13  16
HETATM   16  N1  UNL     1      -3.310  -0.690  -0.388  1.00  0.00    -0.194 NA
HETATM   17  C4  UNL     1      -3.975  -1.926  -0.668  1.00  0.00     0.131 C 
BRANCH  16  18
HETATM   18  C2  UNL     1      -4.262   0.383  -0.381  1.00  0.00     0.067 C 
HETATM   19  C1  UNL     1      -5.301   0.238   0.719  1.00  0.00     0.027 C 
HETATM   20  C3  UNL     1      -3.630   1.745  -0.313  1.00  0.00     0.027 C 
ENDBRANCH  16  18
ENDBRANCH  13  16
ENDBRANCH   1  13
BRANCH  11  21
HETATM   21  C7  UNL     1       4.089   0.640  -0.269  1.00  0.00     0.036 C 
HETATM   22  C8  UNL     1       5.278   1.505  -0.677  1.00  0.00     0.038 C 
HETATM   23  C9  UNL     1       4.661  -0.607   0.351  1.00  0.00     0.038 C 
HETATM   24  C10 UNL     1       3.345   1.430   0.809  1.00  0.00     0.038 C 
ENDBRANCH  11  21
TORSDOF 4
