REMARK  5 active torsions:
REMARK  status: ('A' for Active; 'I' for Inactive)
REMARK       I    between atoms: N1_2  and  C2_4 
REMARK       I    between atoms: C2_4  and  N2_5 
REMARK       I    between atoms: C2_4  and  N5_11 
REMARK       I    between atoms: N2_5  and  C3_6 
REMARK    1  A    between atoms: N5_11  and  C4_13 
REMARK    2  A    between atoms: C5_14  and  N6_15 
REMARK    3  A    between atoms: N7_24  and  C13_25 
REMARK    4  A    between atoms: C13_25  and  C14_26 
REMARK    5  A    between atoms: C14_26  and  O2_27 
ROOT
HETATM    1  C4  UNL     1      -0.323   0.183  -0.973  1.00  0.00     0.231 C 
HETATM    2  C5  UNL     1       0.937   0.891  -0.715  1.00  0.00     0.323 C 
HETATM    3  C12 UNL     1       0.096   2.103  -0.683  1.00  0.00     0.257 C 
HETATM    4  O1  UNL     1       0.199   3.345  -0.914  1.00  0.00    -0.271 OA
HETATM    5  N7  UNL     1      -0.989   1.247  -0.247  1.00  0.00    -0.324 N 
ENDROOT
BRANCH   1   6
HETATM    6  N5  UNL     1      -0.494  -1.152  -0.579  1.00  0.00    -0.327 N 
HETATM    7  C2  UNL     1      -1.599  -1.984  -0.970  1.00  0.00     0.255 C 
HETATM    8  N1  UNL     1      -2.839  -1.766  -0.245  1.00  0.00    -0.355 N 
HETATM    9  N2  UNL     1      -1.543  -2.806  -1.823  1.00  0.00    -0.339 NA
HETATM   10  C1  UNL     1      -3.070  -2.286   1.081  1.00  0.00     0.150 C 
ATOM     11  H1  UNL     1      -3.577  -1.223  -0.692  1.00  0.00     0.163 HD
HETATM   12  C3  UNL     1      -1.364  -3.685  -2.783  1.00  0.00     0.264 C 
HETATM   13  N3  UNL     1      -1.701  -4.969  -2.725  1.00  0.00    -0.362 N 
HETATM   14  N4  UNL     1      -0.752  -3.274  -4.036  1.00  0.00    -0.049 NA
ATOM     15  H32 UNL     1      -2.130  -5.257  -1.846  1.00  0.00     0.159 HD
ATOM     16  H31 UNL     1      -1.562  -5.651  -3.470  1.00  0.00     0.159 HD
ATOM     17  H5  UNL     1       0.216  -1.562   0.028  1.00  0.00     0.165 HD
ENDBRANCH   1   6
BRANCH   2  18
HETATM   18  N6  UNL     1       1.809   0.657   0.342  1.00  0.00    -0.054 N 
HETATM   19  C6  UNL     1       2.865  -0.261  -0.131  1.00  0.00     0.273 C 
HETATM   20  C7  UNL     1       1.361   0.235   1.601  1.00  0.00     0.238 C 
HETATM   21  C8  UNL     1       1.802   1.115   2.777  1.00  0.00     0.028 C 
HETATM   22  C9  UNL     1       3.292   1.259   2.796  1.00  0.00     0.003 C 
HETATM   23  C10 UNL     1       3.742   1.714   1.425  1.00  0.00     0.028 C 
HETATM   24  C11 UNL     1       2.542   1.924   0.562  1.00  0.00     0.238 C 
ENDBRANCH   2  18
BRANCH   5  25
HETATM   25  C13 UNL     1      -2.126   1.569   0.551  1.00  0.00     0.154 C 
BRANCH  25  26
HETATM   26  C14 UNL     1      -3.284   2.007  -0.327  1.00  0.00     0.184 C 
BRANCH  26  27
HETATM   27  O2  UNL     1      -3.000   3.124  -1.091  1.00  0.00    -0.399 OA
ATOM     28  H2  UNL     1      -3.725   3.398  -1.641  1.00  0.00     0.209 HD
ENDBRANCH  26  27
ENDBRANCH  25  26
ENDBRANCH   5  25
TORSDOF 5
