REMARK  3 active torsions:
REMARK  status: ('A' for Active; 'I' for Inactive)
REMARK    1  A    between atoms: C5_11  and  N4_12 
REMARK       I    between atoms: N4_12  and  C6_14 
REMARK    2  A    between atoms: N7_20  and  C9_22 
REMARK    3  A    between atoms: C9_22  and  S2_23 
ROOT
HETATM    1  C1  UNL     1      -1.393   3.408  -0.022  1.00  0.00     0.152 C 
HETATM    2  N1  UNL     1      -0.820   2.068  -0.135  1.00  0.00    -0.349 N 
HETATM    3  C2  UNL     1       0.619   2.069  -0.081  1.00  0.00     0.180 C 
HETATM    4  C3  UNL     1       1.199   0.730   0.299  1.00  0.00     0.309 C 
HETATM    5  N2  UNL     1       1.035   0.456   1.715  1.00  0.00    -0.338 N 
ATOM      6  H2  UNL     1       1.850   0.520   2.325  1.00  0.00     0.164 HD
HETATM    7  C4  UNL     1      -0.234   0.097   2.290  1.00  0.00     0.171 C 
HETATM    8  S1  UNL     1      -0.421   0.370   3.877  1.00  0.00    -0.041 SA
HETATM    9  N3  UNL     1      -1.368  -0.483   1.622  1.00  0.00    -0.332 N 
ATOM     10  H3  UNL     1      -2.066  -0.985   2.172  1.00  0.00     0.165 HD
HETATM   11  C5  UNL     1      -1.548  -0.371   0.162  1.00  0.00     0.216 C 
HETATM   12  C7  UNL     1      -0.370  -0.976  -0.549  1.00  0.00     0.304 C 
HETATM   13  N7  UNL     1       0.856  -0.332  -0.575  1.00  0.00    -0.036 N 
HETATM   14  C8  UNL     1       1.165   0.171  -1.931  1.00  0.00     0.276 C 
HETATM   15  C12 UNL     1      -1.764   1.016  -0.278  1.00  0.00     0.270 C 
HETATM   16  O1  UNL     1      -2.845   1.350  -0.829  1.00  0.00    -0.268 OA
ENDROOT
BRANCH  11  17
HETATM   17  N4  UNL     1      -2.706  -1.180  -0.141  1.00  0.00    -0.329 N 
HETATM   18  C6  UNL     1      -4.024  -0.944   0.260  1.00  0.00     0.184 C 
HETATM   19  N5  UNL     1      -4.289  -0.208   1.277  1.00  0.00    -0.374 N 
HETATM   20  N6  UNL     1      -5.103  -1.515  -0.457  1.00  0.00    -0.064 NA
ATOM     21  H52 UNL     1      -3.512   0.203   1.794  1.00  0.00     0.158 HD
ATOM     22  H51 UNL     1      -5.251  -0.036   1.570  1.00  0.00     0.158 HD
ATOM     23  H4  UNL     1      -2.544  -2.012  -0.708  1.00  0.00     0.165 HD
ENDBRANCH  11  17
BRANCH  13  24
HETATM   24  C9  UNL     1       1.890  -1.367  -0.362  1.00  0.00     0.303 C 
BRANCH  24  25
HETATM   25  S2  UNL     1       3.476  -0.799  -0.889  1.00  0.00    -0.193 SA
HETATM   26  C10 UNL     1       4.835  -1.926  -0.701  1.00  0.00     0.074 A 
HETATM   27  C11 UNL     1       4.708  -0.850   0.389  1.00  0.00     0.074 A 
ENDBRANCH  24  25
ENDBRANCH  13  24
TORSDOF 3
