REMARK  1 active torsions:
REMARK  status: ('A' for Active; 'I' for Inactive)
REMARK    1  A    between atoms: C4_6  and  O1_7 
ROOT
HETATM    1  C1  UNL     1      -1.491   0.874  -0.966  1.00  0.00     0.013 C 
HETATM    2  C2  UNL     1      -1.241  -0.503  -0.360  1.00  0.00     0.017 C 
HETATM    3  C3  UNL     1      -1.114  -0.290   1.134  1.00  0.00     0.141 C 
HETATM    4  N1  UNL     1       0.313  -0.126   1.325  1.00  0.00    -0.137 NA
HETATM    5  N2  UNL     1       0.996  -0.324   0.125  1.00  0.00    -0.285 N 
HETATM    6  C4  UNL     1       2.206   0.033  -0.122  1.00  0.00     0.238 C 
HETATM    7  C5  UNL     1       0.110  -1.010  -0.819  1.00  0.00     0.151 C 
ENDROOT
BRANCH   6   8
HETATM    8  O1  UNL     1       2.933   0.675   0.866  1.00  0.00    -0.355 OA
ATOM      9  H1  UNL     1       3.827   0.939   0.683  1.00  0.00     0.218 HD
ENDBRANCH   6   8
TORSDOF 1
