REMARK  1 active torsions:
REMARK  status: ('A' for Active; 'I' for Inactive)
REMARK    1  A    between atoms: N1_2  and  C4_5 
ROOT
HETATM    1  C4  UNL     1       0.759  -0.509  -0.260  1.00  0.00     0.240 C 
HETATM    2  C5  UNL     1       1.885  -0.163   0.628  1.00  0.00     0.267 C 
HETATM    3  N2  UNL     1       2.036   1.124  -0.060  1.00  0.00    -0.071 N 
ATOM      4  H21 UNL     1       2.945   1.580  -0.133  1.00  0.00     0.277 HD
ATOM      5  H22 UNL     1       1.664   1.985   0.342  1.00  0.00     0.277 HD
HETATM    6  C6  UNL     1       1.419   0.510  -1.200  1.00  0.00     0.267 C 
ENDROOT
BRANCH   1   7
HETATM    7  N1  UNL     1      -0.570  -0.224   0.103  1.00  0.00    -0.071 N 
HETATM    8  C1  UNL     1      -0.811   0.041   1.487  1.00  0.00     0.272 C 
HETATM    9  C2  UNL     1      -1.439  -1.360  -0.265  1.00  0.00     0.272 C 
HETATM   10  C3  UNL     1      -1.161   0.895  -0.652  1.00  0.00     0.272 C 
ENDBRANCH   1   7
TORSDOF 1
