REMARK  5 active torsions:
REMARK  status: ('A' for Active; 'I' for Inactive)
REMARK    1  A    between atoms: C3_3  and  C4_4 
REMARK    2  A    between atoms: C5_5  and  C6_6 
REMARK    3  A    between atoms: C6_6  and  O1_7 
REMARK    4  A    between atoms: C12_15  and  N1_16 
REMARK    5  A    between atoms: N1_16  and  C13_18 
ROOT
HETATM    1  C1  UNL     1       7.502  -0.860  -0.832  1.00  0.00     0.113 C 
HETATM    2  C2  UNL     1       6.087  -0.809  -0.453  1.00  0.00    -0.097 C 
HETATM    3  C3  UNL     1       4.925  -0.767  -0.120  1.00  0.00    -0.015 C 
ENDROOT
BRANCH   3   4
HETATM    4  C4  UNL     1       3.567  -0.696   0.283  1.00  0.00    -0.011 C 
HETATM    5  C5  UNL     1       2.409  -0.615   0.625  1.00  0.00    -0.046 C 
BRANCH   5   6
HETATM    6  C6  UNL     1       0.974  -0.506   1.021  1.00  0.00     0.185 C 
HETATM    7  C7  UNL     1       0.279  -1.629   0.351  1.00  0.00     0.103 C 
HETATM    8  C8  UNL     1      -1.146  -1.840   0.537  1.00  0.00     0.112 C 
HETATM    9  F1  UNL     1      -1.454  -3.208   0.363  1.00  0.00    -0.242 F 
HETATM   10  C9  UNL     1      -1.867  -1.353   1.733  1.00  0.00     0.049 C 
HETATM   11  C17 UNL     1      -2.082  -1.057  -0.335  1.00  0.00     0.032 C 
HETATM   12  C10 UNL     1      -2.936  -0.707   0.855  1.00  0.00    -0.002 C 
HETATM   13  C11 UNL     1      -2.965   0.803   0.957  1.00  0.00     0.036 C 
HETATM   14  C12 UNL     1      -1.885   1.326   0.042  1.00  0.00     0.040 C 
HETATM   15  C14 UNL     1      -0.695   1.712   0.926  1.00  0.00     0.113 C 
HETATM   16  C16 UNL     1      -1.537   0.211  -0.893  1.00  0.00     0.039 C 
HETATM   17  C15 UNL     1       0.467   0.846   0.687  1.00  0.00     0.176 C 
HETATM   18  O3  UNL     1       1.284   1.451  -0.027  1.00  0.00    -0.293 OA
BRANCH   6  19
HETATM   19  O1  UNL     1       1.013  -0.699   2.425  1.00  0.00    -0.370 OA
ATOM     20  H1  UNL     1       0.100  -0.630   2.677  1.00  0.00     0.212 HD
ENDBRANCH   6  19
BRANCH  14  21
HETATM   21  N1  UNL     1      -2.399   2.490  -0.650  1.00  0.00    -0.359 N 
ATOM     22  H1  UNL     1      -1.893   3.367  -0.527  1.00  0.00     0.162 HD
BRANCH  21  23
HETATM   23  C13 UNL     1      -3.529   2.513  -1.472  1.00  0.00     0.349 C 
HETATM   24  O2  UNL     1      -4.216   1.481  -1.681  1.00  0.00    -0.284 OA
ENDBRANCH  21  23
ENDBRANCH  14  21
ENDBRANCH   5   6
ENDBRANCH   3   4
TORSDOF 5
