REMARK  4 active torsions:
REMARK  status: ('A' for Active; 'I' for Inactive)
REMARK    1  A    between atoms: C3_3  and  N1_4 
REMARK    2  A    between atoms: N1_4  and  C4_5 
REMARK    3  A    between atoms: C9_10  and  O1_11 
REMARK    4  A    between atoms: C10_13  and  O2_14 
ROOT
HETATM    1  C1  UNL     1       3.196  -2.261   1.146  1.00  0.00     0.113 C 
HETATM    2  C2  UNL     1       1.997  -1.464   0.852  1.00  0.00    -0.081 C 
HETATM    3  C3  UNL     1       1.016  -0.812   0.590  1.00  0.00     0.119 C 
ENDROOT
BRANCH   3   4
HETATM    4  N1  UNL     1      -0.132  -0.047   0.259  1.00  0.00     0.030 N 
HETATM    5  C7  UNL     1      -0.506   0.677   1.449  1.00  0.00     0.260 C 
HETATM    6  C8  UNL     1      -1.321   1.827   0.852  1.00  0.00     0.065 C 
HETATM    7  C9  UNL     1      -0.443   2.240  -0.300  1.00  0.00     0.177 C 
HETATM    8  C10 UNL     1       0.167   0.931  -0.739  1.00  0.00     0.368 C 
BRANCH   4   9
HETATM    9  C4  UNL     1      -1.186  -0.949  -0.076  1.00  0.00     0.209 A 
HETATM   10  C5  UNL     1      -2.032  -0.822  -1.263  1.00  0.00     0.037 A 
HETATM   11  C6  UNL     1      -0.888  -1.804  -1.303  1.00  0.00     0.037 A 
ENDBRANCH   4   9
BRANCH   7  12
HETATM   12  O1  UNL     1      -1.164   2.827  -1.331  1.00  0.00    -0.391 OA
ATOM     13  H1  UNL     1      -0.610   3.087  -2.058  1.00  0.00     0.210 HD
ENDBRANCH   7  12
BRANCH   8  14
HETATM   14  O2  UNL     1       1.571   1.098  -0.744  1.00  0.00    -0.366 OA
ATOM     15  H2  UNL     1       1.770   1.748  -1.407  1.00  0.00     0.212 HD
ENDBRANCH   8  14
ENDBRANCH   3   4
TORSDOF 4
