REMARK  2 active torsions:
REMARK  status: ('A' for Active; 'I' for Inactive)
REMARK    1  A    between atoms: O1_1  and  C1_3 
REMARK    2  A    between atoms: C1_3  and  C2_4 
ROOT
HETATM    1  C2  UNL     1      -1.937   0.377   0.383  1.00  0.00     0.235 C 
HETATM    2  C3  UNL     1      -0.525   0.788   0.137  1.00  0.00     0.272 C 
HETATM    3  N1  UNL     1       0.429  -0.296   0.295  1.00  0.00    -0.063 N 
HETATM    4  C4  UNL     1       0.818  -0.868  -0.967  1.00  0.00     0.237 C 
HETATM    5  C5  UNL     1       1.898  -0.106  -1.672  1.00  0.00     0.028 C 
HETATM    6  C6  UNL     1       3.087  -0.051  -0.734  1.00  0.00     0.003 C 
HETATM    7  C7  UNL     1       2.612   0.844   0.415  1.00  0.00     0.028 C 
HETATM    8  C8  UNL     1       1.516   0.130   1.115  1.00  0.00     0.237 C 
HETATM    9  C9  UNL     1      -0.262  -1.350   1.029  1.00  0.00     0.265 C 
HETATM   10  C10 UNL     1      -1.348  -1.948   0.186  1.00  0.00     0.260 C 
HETATM   11  N2  UNL     1      -2.284  -0.909  -0.160  1.00  0.00    -0.066 N 
ATOM     12  H21 UNL     1      -2.405  -0.854  -1.171  1.00  0.00     0.277 HD
ATOM     13  H22 UNL     1      -3.232  -1.172   0.110  1.00  0.00     0.277 HD
ENDROOT
BRANCH   1  14
HETATM   14  C1  UNL     1      -2.873   1.398  -0.259  1.00  0.00     0.199 C 
BRANCH  14  15
HETATM   15  O1  UNL     1      -2.626   2.672   0.193  1.00  0.00    -0.399 OA
ATOM     16  H1  UNL     1      -3.208   3.307  -0.206  1.00  0.00     0.209 HD
ENDBRANCH  14  15
ENDBRANCH   1  14
TORSDOF 2
