REMARK  1 active torsions:
REMARK  status: ('A' for Active; 'I' for Inactive)
REMARK       I    between atoms: N1_2  and  C2_4 
REMARK       I    between atoms: C2_4  and  N4_15 
REMARK       I    between atoms: N2_5  and  C3_7 
REMARK       I    between atoms: C3_7  and  N3_9 
REMARK    1  A    between atoms: N4_15  and  N5_17 
ROOT
HETATM    1  C1  UNL     1       2.522   3.488  -0.137  1.00  0.00     0.165 C 
HETATM    2  N1  UNL     1       2.066   2.263   0.479  1.00  0.00    -0.229 N 
ATOM      3  H1  UNL     1       2.247   2.129   1.474  1.00  0.00     0.177 HD
HETATM    4  C2  UNL     1       1.379   1.234  -0.222  1.00  0.00     0.703 C 
HETATM    5  N2  UNL     1       0.145   1.457  -0.517  1.00  0.00    -0.140 N 
ATOM      6  H2  UNL     1      -0.249   2.352  -0.227  1.00  0.00     0.189 HD
HETATM    7  C3  UNL     1      -0.701   0.576  -1.201  1.00  0.00     0.336 C 
HETATM    8  O1  UNL     1      -0.547   0.247  -2.406  1.00  0.00    -0.246 OA
HETATM    9  N3  UNL     1      -1.810   0.004  -0.518  1.00  0.00    -0.334 N 
HETATM   10  C4  UNL     1      -2.075   0.321   0.874  1.00  0.00     0.127 C 
HETATM   11  C5  UNL     1      -2.702  -0.883   1.528  1.00  0.00     0.020 C 
HETATM   12  C6  UNL     1      -4.047  -1.137   0.904  1.00  0.00     0.003 C 
HETATM   13  C7  UNL     1      -4.113  -0.669  -0.531  1.00  0.00     0.020 C 
HETATM   14  C8  UNL     1      -2.738  -0.920  -1.156  1.00  0.00     0.127 C 
HETATM   15  N4  UNL     1       1.973   0.019  -0.595  1.00  0.00    -0.038 N 
ATOM     16  H4  UNL     1       1.640  -0.414  -1.457  1.00  0.00     0.214 HD
ENDROOT
BRANCH  15  17
HETATM   17  N5  UNL     1       2.969  -0.646   0.099  1.00  0.00     0.077 N 
HETATM   18  C9  UNL     1       2.889  -2.090  -0.156  1.00  0.00     0.318 C 
HETATM   19  C10 UNL     1       2.946  -0.457   1.510  1.00  0.00     0.318 C 
HETATM   20 BR1  UNL     1       4.654  -0.090  -0.588  1.00  0.00     0.193 Br
ENDBRANCH  15  17
TORSDOF 1
