REMARK  2 active torsions:
REMARK  status: ('A' for Active; 'I' for Inactive)
REMARK    1  A    between atoms: C7_10  and  C8_11 
REMARK    2  A    between atoms: C8_11  and  O1_13 
ROOT
HETATM    1  C1  UNL     1      -2.891   0.009   2.505  1.00  0.00     0.013 C 
HETATM    2  C2  UNL     1      -2.136  -0.161   1.589  1.00  0.00    -0.105 C 
HETATM    3  C3  UNL     1      -1.245  -0.372   0.471  1.00  0.00     0.057 C 
HETATM    4  C4  UNL     1      -1.641  -1.450  -0.508  1.00  0.00     0.256 C 
HETATM    5  N1  UNL     1      -0.454  -2.149  -0.902  1.00  0.00    -0.068 N 
ATOM      6  H11 UNL     1      -0.407  -2.330  -1.905  1.00  0.00     0.277 HD
ATOM      7  H12 UNL     1      -0.439  -3.122  -0.596  1.00  0.00     0.277 HD
HETATM    8  C5  UNL     1       0.677  -1.369  -0.402  1.00  0.00     0.204 A 
HETATM    9  C6  UNL     1       0.167  -0.778   0.807  1.00  0.00     0.053 A 
HETATM   10  C7  UNL     1       0.607   0.103  -0.387  1.00  0.00     0.026 A 
HETATM   11  C10 UNL     1      -0.653   0.862  -0.156  1.00  0.00     0.018 C 
HETATM   12  C11 UNL     1      -1.339   1.436  -1.333  1.00  0.00     0.012 C 
ENDROOT
BRANCH  10  13
HETATM   13  C8  UNL     1       1.888   0.851  -0.260  1.00  0.00     0.125 C 
HETATM   14  C9  UNL     1       2.636   0.530   1.010  1.00  0.00     0.040 C 
BRANCH  13  15
HETATM   15  O1  UNL     1       2.661   0.636  -1.386  1.00  0.00    -0.395 OA
ATOM     16  H1  UNL     1       3.478   1.113  -1.305  1.00  0.00     0.210 HD
ENDBRANCH  13  15
ENDBRANCH  10  13
TORSDOF 2
