REMARK  10 active torsions:
REMARK  status: ('A' for Active; 'I' for Inactive)
REMARK    1  A    between atoms: C4_7  and  C5_8 
REMARK    2  A    between atoms: C5_8  and  N2_9 
REMARK       I    between atoms: N2_9  and  C6_10 
REMARK    3  A    between atoms: N2_9  and  C11_21 
REMARK    4  A    between atoms: C6_10  and  C7_12 
REMARK    5  A    between atoms: C8_13  and  C9_14 
REMARK       I    between atoms: C9_14  and  N3_16 
REMARK    6  A    between atoms: C11_21  and  C12_22 
REMARK    7  A    between atoms: C19_31  and  C20_32 
REMARK    8  A    between atoms: C20_32  and  C21_33 
REMARK    9  A    between atoms: C22_34  and  N7_35 
REMARK       I    between atoms: N7_35  and  C23_37 
REMARK       I    between atoms: C23_37  and  N8_39 
REMARK   10  A    between atoms: N8_39  and  C24_41 
ROOT
HETATM    1  C1  UNL     1      -0.877  -3.269   1.068  1.00  0.00     0.069 C 
HETATM    2  C2  UNL     1       0.547  -2.942   0.830  1.00  0.00     0.015 A 
HETATM    3  N1  UNL     1       1.485  -3.889   1.172  1.00  0.00    -0.327 N 
ATOM      4  H1  UNL     1       1.159  -4.752   1.607  1.00  0.00     0.169 HD
HETATM    5  C3  UNL     1       2.792  -3.745   0.969  1.00  0.00     0.253 A 
HETATM    6  O1  UNL     1       3.631  -4.646   1.299  1.00  0.00    -0.268 OA
HETATM    7  C4  UNL     1       3.333  -2.590   0.377  1.00  0.00     0.028 A 
HETATM    8  C18 UNL     1       2.403  -1.657   0.043  1.00  0.00     0.023 A 
HETATM    9  C19 UNL     1       1.000  -1.813   0.262  1.00  0.00    -0.032 A 
ENDROOT
BRANCH   7  10
HETATM   10  C5  UNL     1       4.795  -2.496   0.212  1.00  0.00     0.171 C 
BRANCH  10  11
HETATM   11  N2  UNL     1       5.291  -1.306  -0.435  1.00  0.00    -0.326 N 
HETATM   12  C6  UNL     1       5.569  -0.168   0.364  1.00  0.00     0.244 C 
HETATM   13  O2  UNL     1       5.316  -0.375   1.613  1.00  0.00    -0.268 OA
BRANCH  12  14
HETATM   14  C7  UNL     1       6.064   1.098  -0.018  1.00  0.00     0.080 C 
HETATM   15  C8  UNL     1       6.318   2.137   0.677  1.00  0.00     0.080 C 
BRANCH  15  16
HETATM   16  C9  UNL     1       6.216   2.447   2.068  1.00  0.00     0.247 C 
HETATM   17  O3  UNL     1       5.826   1.729   3.015  1.00  0.00    -0.268 OA
HETATM   18  N3  UNL     1       6.619   3.796   2.484  1.00  0.00    -0.300 N 
HETATM   19  C10 UNL     1       7.726   4.000   3.095  1.00  0.00     0.203 C 
ATOM     20  H3  UNL     1       6.006   4.586   2.283  1.00  0.00     0.171 HD
HETATM   21  N4  UNL     1       8.596   2.919   3.386  1.00  0.00    -0.066 NA
HETATM   22  N5  UNL     1       8.041   5.322   3.459  1.00  0.00    -0.066 NA
ENDBRANCH  15  16
ENDBRANCH  12  14
BRANCH  11  23
HETATM   23  C11 UNL     1       5.566  -1.300  -1.857  1.00  0.00     0.114 C 
HETATM   24  C13 UNL     1       5.304  -2.697  -2.425  1.00  0.00     0.041 C 
HETATM   25  C14 UNL     1       5.347  -2.664  -3.909  1.00  0.00     0.003 C 
HETATM   26  C15 UNL     1       4.427  -1.678  -4.565  1.00  0.00     0.000 C 
HETATM   27  C16 UNL     1       3.737  -0.814  -3.529  1.00  0.00     0.003 C 
HETATM   28  C17 UNL     1       4.772  -0.268  -2.561  1.00  0.00     0.041 C 
BRANCH  23  29
HETATM   29  C12 UNL     1       7.040  -1.097  -2.036  1.00  0.00     0.259 C 
HETATM   30  N6  UNL     1       7.635  -0.757  -3.272  1.00  0.00    -0.060 NA
HETATM   31  O4  UNL     1       7.787  -1.234  -1.038  1.00  0.00    -0.274 OA
ENDBRANCH  23  29
ENDBRANCH  11  23
ENDBRANCH  10  11
ENDBRANCH   7  10
BRANCH   9  32
HETATM   32  C20 UNL     1       0.175  -0.641  -0.122  1.00  0.00     0.069 C 
BRANCH  32  33
HETATM   33  C21 UNL     1      -0.087   0.373   0.885  1.00  0.00    -0.005 C 
HETATM   34  C22 UNL     1      -0.967   0.320   2.031  1.00  0.00     0.089 C 
BRANCH  34  35
HETATM   35  N7  UNL     1      -2.366   0.477   1.897  1.00  0.00    -0.319 N 
HETATM   36  C23 UNL     1      -3.409  -0.094   1.231  1.00  0.00     0.320 C 
HETATM   37  O5  UNL     1      -3.343  -1.047   0.447  1.00  0.00    -0.247 OA
HETATM   38  N8  UNL     1      -4.772   0.415   1.404  1.00  0.00    -0.336 N 
ATOM     39  H8  UNL     1      -4.935   1.204   2.029  1.00  0.00     0.164 HD
ATOM     40  H7  UNL     1      -2.694   1.252   2.473  1.00  0.00     0.169 HD
BRANCH  38  41
HETATM   41  C24 UNL     1      -5.895  -0.182   0.703  1.00  0.00     0.116 C 
HETATM   42  C25 UNL     1      -6.852  -0.669   1.690  1.00  0.00     0.027 C 
HETATM   43  C26 UNL     1      -7.444   0.273   2.679  1.00  0.00     0.002 C 
HETATM   44  C27 UNL     1      -8.429   1.263   2.210  1.00  0.00     0.002 C 
HETATM   45  C28 UNL     1      -9.166   0.747   0.990  1.00  0.00     0.028 C 
HETATM   46  C29 UNL     1      -8.573   1.361  -0.202  1.00  0.00     0.237 C 
HETATM   47  N9  UNL     1      -7.594   0.652  -0.943  1.00  0.00    -0.069 N 
HETATM   48  C30 UNL     1      -7.986  -0.684  -1.327  1.00  0.00     0.272 C 
HETATM   49  C31 UNL     1      -7.497   1.388  -2.229  1.00  0.00     0.272 C 
HETATM   50  C32 UNL     1      -6.258   0.682  -0.419  1.00  0.00     0.208 C 
HETATM   51  C33 UNL     1      -5.783   2.110  -0.215  1.00  0.00     0.042 C 
ENDBRANCH  38  41
ENDBRANCH  34  35
ENDBRANCH  32  33
ENDBRANCH   9  32
TORSDOF 10
