REMARK  13 active torsions:
REMARK  status: ('A' for Active; 'I' for Inactive)
REMARK    1  A    between atoms: C2_2  and  C3_3 
REMARK    2  A    between atoms: C3_3  and  C4_4 
REMARK    3  A    between atoms: C4_4  and  C5_5 
REMARK    4  A    between atoms: C10_10  and  O1_11 
REMARK    5  A    between atoms: C11_14  and  C12_15 
REMARK       I    between atoms: C12_15  and  N2_17 
REMARK    6  A    between atoms: N2_17  and  C13_18 
REMARK    7  A    between atoms: C13_18  and  C14_19 
REMARK    8  A    between atoms: C13_18  and  C31_49 
REMARK    9  A    between atoms: C14_19  and  C15_20 
REMARK   10  A    between atoms: C17_22  and  C18_23 
REMARK   11  A    between atoms: C18_23  and  N3_24 
REMARK   12  A    between atoms: C20_29  and  C21_30 
REMARK       I    between atoms: C21_30  and  N5_32 
REMARK   13  A    between atoms: C24_36  and  C25_37 
REMARK       I    between atoms: C25_37  and  N6_39 
ROOT
HETATM    1  C15 UNL     1       1.594   1.314   0.643  1.00  0.00    -0.050 A 
HETATM    2  C16 UNL     1       1.835   0.564   1.708  1.00  0.00     0.022 A 
HETATM    3  C17 UNL     1       3.018   0.287   2.250  1.00  0.00     0.006 A 
HETATM    4  C19 UNL     1       4.153   0.865   1.614  1.00  0.00     0.032 A 
HETATM    5  C20 UNL     1       3.989   1.642   0.489  1.00  0.00     0.033 A 
HETATM    6  C30 UNL     1       2.740   1.878  -0.017  1.00  0.00     0.024 A 
ENDROOT
BRANCH   1   7
HETATM    7  C14 UNL     1       0.288   1.852   0.200  1.00  0.00     0.117 C 
BRANCH   7   8
HETATM    8  C13 UNL     1      -0.738   0.876  -0.100  1.00  0.00     0.157 C 
BRANCH   8   9
HETATM    9  N2  UNL     1      -1.978   1.122  -0.586  1.00  0.00    -0.365 NA
HETATM   10  C12 UNL     1      -3.216   1.460  -1.069  1.00  0.00     0.331 C 
HETATM   11  O2  UNL     1      -3.714   2.593  -1.333  1.00  0.00    -0.250 OA
BRANCH  10  12
HETATM   12  C11 UNL     1      -3.960   0.146  -1.193  1.00  0.00     0.183 C 
HETATM   13  N1  UNL     1      -5.274  -0.129  -1.404  1.00  0.00    -0.324 N 
HETATM   14  C5  UNL     1      -6.296  -0.264  -0.292  1.00  0.00     0.047 C 
HETATM   15  C10 UNL     1      -6.051  -0.418  -2.497  1.00  0.00     0.128 C 
HETATM   16  C6  UNL     1      -7.631   0.284  -0.595  1.00  0.00     0.033 C 
HETATM   17  C32 UNL     1      -6.580  -1.740  -0.656  1.00  0.00    -0.007 C 
HETATM   18  C7  UNL     1      -8.277  -0.535  -1.709  1.00  0.00     0.021 C 
HETATM   19  C8  UNL     1      -7.109  -1.408  -2.088  1.00  0.00     0.031 C 
HETATM   20  C9  UNL     1      -7.347  -2.548  -2.921  1.00  0.00     0.025 C 
HETATM   21  C33 UNL     1      -5.356  -2.568  -0.746  1.00  0.00     0.018 C 
HETATM   22  C34 UNL     1      -7.614  -2.345   0.208  1.00  0.00     0.018 C 
BRANCH  14  23
HETATM   23  C4  UNL     1      -5.774  -0.053   1.036  1.00  0.00     0.032 C 
BRANCH  23  24
HETATM   24  C3  UNL     1      -5.754   1.364   1.536  1.00  0.00     0.002 C 
BRANCH  24  25
HETATM   25  C2  UNL     1      -7.074   1.944   1.987  1.00  0.00    -0.004 C 
HETATM   26  C1  UNL     1      -7.687   1.110   3.104  1.00  0.00     0.005 C 
ENDBRANCH  24  25
ENDBRANCH  23  24
ENDBRANCH  14  23
BRANCH  15  27
HETATM   27  O1  UNL     1      -5.950   0.071  -3.710  1.00  0.00    -0.349 OA
ATOM     28  H1  UNL     1      -5.282   0.696  -3.968  1.00  0.00     0.219 HD
ENDBRANCH  15  27
ENDBRANCH  10  12
ENDBRANCH   8   9
BRANCH   8  29
HETATM   29  C31 UNL     1      -0.102  -0.323  -0.805  1.00  0.00     0.291 C 
HETATM   30  N9  UNL     1       0.423  -1.456  -0.194  1.00  0.00    -0.055 NA
HETATM   31  O5  UNL     1      -0.104  -0.208  -2.088  1.00  0.00    -0.269 OA
ENDBRANCH   8  29
ENDBRANCH   7   8
ENDBRANCH   1   7
BRANCH   3  32
HETATM   32  C18 UNL     1       3.466  -0.900   3.085  1.00  0.00     0.120 C 
HETATM   33  N4  UNL     1       2.583  -1.996   2.994  1.00  0.00    -0.082 NA
BRANCH  32  34
HETATM   34  N3  UNL     1       4.358  -0.720   3.716  1.00  0.00    -0.387 N 
ATOM     35  H32 UNL     1       4.997   0.073   3.782  1.00  0.00     0.157 HD
ATOM     36  H31 UNL     1       4.659  -1.517   4.277  1.00  0.00     0.157 HD
ENDBRANCH  32  34
ENDBRANCH   3  32
BRANCH   5  37
HETATM   37  C21 UNL     1       5.108   2.314  -0.064  1.00  0.00     0.257 C 
HETATM   38  O3  UNL     1       6.090   2.930  -0.071  1.00  0.00    -0.267 OA
HETATM   39  N5  UNL     1       4.838   2.007  -1.709  1.00  0.00    -0.308 N 
HETATM   40  C22 UNL     1       5.892   1.236  -1.988  1.00  0.00     0.124 A 
ATOM     41  H5  UNL     1       4.082   2.323  -2.316  1.00  0.00     0.170 HD
HETATM   42  C23 UNL     1       6.935   0.796  -1.228  1.00  0.00     0.086 A 
HETATM   43  N8  UNL     1       6.102   0.740  -3.244  1.00  0.00    -0.285 N 
HETATM   44  C24 UNL     1       7.801   0.038  -2.018  1.00  0.00     0.119 A 
HETATM   45  N7  UNL     1       7.223   0.029  -3.229  1.00  0.00    -0.294 N 
ATOM     46  H7  UNL     1       7.599  -0.464  -4.039  1.00  0.00     0.187 HD
ATOM     47  H8  UNL     1       5.501   0.890  -4.054  1.00  0.00     0.188 HD
BRANCH  44  48
HETATM   48  C25 UNL     1       8.984  -0.643  -1.582  1.00  0.00     0.271 C 
HETATM   49  O4  UNL     1       9.446  -1.621  -2.266  1.00  0.00    -0.266 OA
HETATM   50  N6  UNL     1       9.737  -0.362  -0.442  1.00  0.00    -0.347 N 
HETATM   51  C26 UNL     1       9.602   0.858   0.409  1.00  0.00     0.126 C 
HETATM   52  C29 UNL     1      10.716  -1.168   0.275  1.00  0.00     0.126 C 
HETATM   53  C27 UNL     1      11.142   1.218   0.391  1.00  0.00     0.021 C 
HETATM   54  C28 UNL     1      11.794  -0.130   0.543  1.00  0.00     0.021 C 
ENDBRANCH  44  48
ENDBRANCH   5  37
TORSDOF 13
