REMARK  3 active torsions:
REMARK  status: ('A' for Active; 'I' for Inactive)
REMARK    1  A    between atoms: N1_1  and  C1_4 
REMARK    2  A    between atoms: C11_21  and  C12_22 
REMARK    3  A    between atoms: C12_22  and  C13_23 
ROOT
HETATM    1  C1  UNL     1       2.321   1.265  -1.792  1.00  0.00     0.675 A 
HETATM    2  N2  UNL     1       1.294   1.029  -0.965  1.00  0.00    -0.194 N 
ATOM      3  H2  UNL     1       0.514   1.686  -0.945  1.00  0.00     0.184 HD
HETATM    4  C2  UNL     1       1.261  -0.062  -0.150  1.00  0.00     0.045 A 
HETATM    5  C3  UNL     1       2.354  -0.880  -0.252  1.00  0.00    -0.018 A 
HETATM    6  C4  UNL     1       3.426  -0.635  -1.114  1.00  0.00     0.115 A 
HETATM    7  N3  UNL     1       3.392   0.458  -1.888  1.00  0.00    -0.202 N 
ATOM      8  H3  UNL     1       4.155   0.671  -2.530  1.00  0.00     0.183 HD
HETATM    9  C5  UNL     1       2.381  -2.107   0.619  1.00  0.00     0.042 C 
HETATM   10  C6  UNL     1       0.990  -2.722   0.403  1.00  0.00     0.006 C 
HETATM   11  C7  UNL     1      -0.002  -1.798   1.055  1.00  0.00     0.018 C 
HETATM   12  C8  UNL     1       0.178  -0.352   0.769  1.00  0.00     0.033 C 
HETATM   13  C9  UNL     1       0.447   0.431   2.080  1.00  0.00     0.045 C 
HETATM   14  C10 UNL     1       0.073   1.833   1.601  1.00  0.00     0.234 C 
HETATM   15  N4  UNL     1      -0.908   1.656   0.581  1.00  0.00    -0.070 N 
ATOM     16  H41 UNL     1      -0.645   2.112  -0.292  1.00  0.00     0.277 HD
ATOM     17  H42 UNL     1      -1.761   2.184   0.768  1.00  0.00     0.277 HD
HETATM   18  C11 UNL     1      -1.159   0.268   0.410  1.00  0.00     0.200 C 
ENDROOT
BRANCH  18  19
HETATM   19  C12 UNL     1      -1.674  -0.145  -0.908  1.00  0.00     0.039 C 
BRANCH  19  20
HETATM   20  C13 UNL     1      -2.994   0.427  -1.283  1.00  0.00    -0.013 A 
HETATM   21  C14 UNL     1      -4.219   0.186  -0.487  1.00  0.00     0.005 A 
HETATM   22  C15 UNL     1      -3.597   1.604  -0.665  1.00  0.00     0.005 A 
ENDBRANCH  19  20
ENDBRANCH  18  19
BRANCH   1  23
HETATM   23  N1  UNL     1       2.307   2.328  -2.556  1.00  0.00    -0.234 N 
ATOM     24  H12 UNL     1       1.494   2.940  -2.483  1.00  0.00     0.174 HD
ATOM     25  H11 UNL     1       3.089   2.508  -3.186  1.00  0.00     0.174 HD
ENDBRANCH   1  23
TORSDOF 3
