REMARK  3 active torsions:
REMARK  status: ('A' for Active; 'I' for Inactive)
REMARK    1  A    between atoms: C2_2  and  N1_3 
REMARK       I    between atoms: C3_5  and  N2_6 
REMARK       I    between atoms: C3_5  and  N4_15 
REMARK    2  A    between atoms: N2_6  and  C4_8 
REMARK    3  A    between atoms: N4_15  and  N5_17 
REMARK       I    between atoms: N5_17  and  C9_19 
REMARK       I    between atoms: C9_19  and  N8_24 
ROOT
HETATM    1  N5  UNL     1       2.131  -0.811  -0.832  1.00  0.00    -0.116 N 
ATOM      2  H5  UNL     1       1.749  -0.735  -1.775  1.00  0.00     0.206 HD
HETATM    3  C9  UNL     1       3.359  -1.492  -0.636  1.00  0.00     0.715 C 
HETATM    4  N6  UNL     1       4.401  -1.091  -1.272  1.00  0.00    -0.124 N 
ATOM      5  H6  UNL     1       5.280  -1.587  -1.124  1.00  0.00     0.197 HD
HETATM    6  C10 UNL     1       4.390  -0.007  -2.157  1.00  0.00     0.196 C 
HETATM    7  N7  UNL     1       4.382   0.884  -2.912  1.00  0.00    -0.171 NA
HETATM    8  N8  UNL     1       3.485  -2.600   0.236  1.00  0.00    -0.124 N 
ATOM      9  H8  UNL     1       3.051  -3.490  -0.011  1.00  0.00     0.197 HD
HETATM   10  C11 UNL     1       4.194  -2.487   1.426  1.00  0.00     0.196 C 
HETATM   11  N9  UNL     1       4.788  -2.386   2.435  1.00  0.00    -0.171 NA
ENDROOT
BRANCH   1  12
HETATM   12  N4  UNL     1       1.427  -0.237   0.242  1.00  0.00    -0.118 N 
HETATM   13  C3  UNL     1       0.283   0.551  -0.011  1.00  0.00     0.694 C 
HETATM   14  N1  UNL     1       0.208   1.715   0.460  1.00  0.00    -0.225 N 
HETATM   15  N2  UNL     1      -0.765   0.022  -0.792  1.00  0.00    -0.176 N 
ATOM     16  H1  UNL     1       1.006   2.026   1.014  1.00  0.00     0.177 HD
ATOM     17  H2  UNL     1      -0.674   0.044  -1.808  1.00  0.00     0.186 HD
ATOM     18  H4  UNL     1       1.742  -0.389   1.200  1.00  0.00     0.206 HD
BRANCH  14  19
HETATM   19  C2  UNL     1      -0.856   2.654   0.314  1.00  0.00     0.134 C 
HETATM   20  C1  UNL     1      -0.258   4.002  -0.029  1.00  0.00     0.027 C 
ENDBRANCH  14  19
BRANCH  15  21
HETATM   21  C4  UNL     1      -1.825  -0.485  -0.285  1.00  0.00     0.120 A 
HETATM   22  C5  UNL     1      -2.800  -0.978  -1.106  1.00  0.00     0.049 A 
HETATM   23  C6  UNL     1      -3.953  -1.530  -0.573  1.00  0.00     0.005 A 
HETATM   24  C7  UNL     1      -4.089  -1.567   0.806  1.00  0.00     0.017 A 
HETATM   25  C8  UNL     1      -3.077  -1.056   1.581  1.00  0.00     0.089 A 
HETATM   26  N3  UNL     1      -1.960  -0.522   1.036  1.00  0.00    -0.352 N 
ATOM     27  H3  UNL     1      -1.225  -0.149   1.637  1.00  0.00     0.166 HD
ENDBRANCH  15  21
ENDBRANCH   1  12
TORSDOF 3
