REMARK  4 active torsions:
REMARK  status: ('A' for Active; 'I' for Inactive)
REMARK    1  A    between atoms: C2_2  and  C3_3 
REMARK    2  A    between atoms: C3_3  and  C4_4 
REMARK    3  A    between atoms: C4_4  and  C5_5 
REMARK    4  A    between atoms: C5_5  and  C6_6 
ROOT
HETATM    1  C6  UNL     1      -0.459  -1.104   0.223  1.00  0.00     0.030 C 
HETATM    2  C7  UNL     1      -1.377  -1.982   1.049  1.00  0.00     0.060 C 
HETATM    3  N1  UNL     1      -2.602  -2.212   0.391  1.00  0.00    -0.401 N 
ATOM      4  H1  UNL     1      -3.003  -3.148   0.338  1.00  0.00     0.158 HD
HETATM    5  C8  UNL     1      -3.258  -1.101  -0.195  1.00  0.00     0.125 C 
HETATM    6  C9  UNL     1      -2.413  -0.008  -0.709  1.00  0.00     0.035 C 
HETATM    7  C10 UNL     1      -3.122   1.316  -0.419  1.00  0.00     0.239 C 
HETATM    8  N2  UNL     1      -2.487   1.887   0.737  1.00  0.00    -0.074 N 
ATOM      9  H21 UNL     1      -3.146   2.293   1.401  1.00  0.00     0.277 HD
ATOM     10  H22 UNL     1      -1.970   2.742   0.533  1.00  0.00     0.277 HD
HETATM   11  C11 UNL     1      -1.650   0.823   1.320  1.00  0.00     0.238 C 
HETATM   12  C12 UNL     1      -1.111   0.208   0.048  1.00  0.00     0.027 C 
ENDROOT
BRANCH   1  13
HETATM   13  C5  UNL     1       0.942  -1.098   0.737  1.00  0.00     0.010 C 
BRANCH  13  14
HETATM   14  C4  UNL     1       1.835  -0.218  -0.107  1.00  0.00     0.001 C 
BRANCH  14  15
HETATM   15  C3  UNL     1       3.251  -0.233   0.425  1.00  0.00    -0.000 C 
BRANCH  15  16
HETATM   16  C2  UNL     1       4.186   0.617  -0.364  1.00  0.00    -0.005 C 
HETATM   17  C1  UNL     1       3.778   2.074  -0.391  1.00  0.00     0.005 C 
ENDBRANCH  15  16
ENDBRANCH  14  15
ENDBRANCH  13  14
ENDBRANCH   1  13
TORSDOF 4
