REMARK  8 active torsions:
REMARK  status: ('A' for Active; 'I' for Inactive)
REMARK    1  A    between atoms: N1_1  and  N2_4 
REMARK    2  A    between atoms: N2_4  and  N3_5 
REMARK    3  A    between atoms: N3_5  and  C1_7 
REMARK    4  A    between atoms: C1_7  and  C2_8 
REMARK    5  A    between atoms: C2_8  and  C3_9 
REMARK    6  A    between atoms: C4_10  and  C5_11 
REMARK    7  A    between atoms: C6_12  and  C7_13 
REMARK    8  A    between atoms: C8_14  and  N4_15 
ROOT
HETATM    1  C3  UNL     1      -1.211  -0.114   0.124  1.00  0.00    -0.091 C 
HETATM    2  C4  UNL     1      -0.005  -0.163   0.231  1.00  0.00    -0.014 C 
ENDROOT
BRANCH   1   3
HETATM    3  C2  UNL     1      -2.670  -0.066   0.018  1.00  0.00     0.117 C 
BRANCH   3   4
HETATM    4  C1  UNL     1      -3.093   0.201  -1.418  1.00  0.00     0.167 C 
BRANCH   4   5
HETATM    5  N3  UNL     1      -4.527   0.242  -1.488  1.00  0.00    -0.252 N 
ATOM      6  H3  UNL     1      -4.997   0.733  -2.248  1.00  0.00     0.197 HD
BRANCH   5   7
HETATM    7  N2  UNL     1      -5.173  -0.324  -0.618  1.00  0.00    -0.249 NA
BRANCH   7   8
HETATM    8  N1  UNL     1      -5.815  -0.584   0.395  1.00  0.00    -0.261 N 
ATOM      9  H12 UNL     1      -5.757   0.367   0.759  1.00  0.00     0.193 HD
ATOM     10  H11 UNL     1      -6.354  -1.056   1.121  1.00  0.00     0.193 HD
ENDBRANCH   7   8
ENDBRANCH   5   7
ENDBRANCH   4   5
ENDBRANCH   3   4
ENDBRANCH   1   3
BRANCH   2  11
HETATM   11  C5  UNL     1       1.408  -0.231   0.378  1.00  0.00    -0.001 C 
HETATM   12  C6  UNL     1       2.613  -0.307   0.510  1.00  0.00     0.001 C 
BRANCH  12  13
HETATM   13  C7  UNL     1       4.012  -0.412   0.676  1.00  0.00     0.009 C 
HETATM   14  C8  UNL     1       5.214  -0.503   0.832  1.00  0.00     0.017 C 
BRANCH  14  15
HETATM   15  N4  UNL     1       6.597  -0.619   1.021  1.00  0.00    -0.359 N 
ATOM     16  H42 UNL     1       5.636  -0.910   1.203  1.00  0.00     0.166 HD
ATOM     17  H41 UNL     1       7.606  -0.695   1.152  1.00  0.00     0.166 HD
ENDBRANCH  14  15
ENDBRANCH  12  13
ENDBRANCH   2  11
TORSDOF 8
