REMARK  8 active torsions:
REMARK  status: ('A' for Active; 'I' for Inactive)
REMARK    1  A    between atoms: C2_2  and  N1_3 
REMARK    2  A    between atoms: N1_3  and  C3_4 
REMARK    3  A    between atoms: N1_3  and  C5_7 
REMARK    4  A    between atoms: C3_4  and  C4_5 
REMARK    5  A    between atoms: C5_7  and  C6_8 
REMARK    6  A    between atoms: C6_8  and  C7_9 
REMARK    7  A    between atoms: C7_9  and  N2_10 
REMARK       I    between atoms: N2_10  and  C8_12 
REMARK       I    between atoms: C8_12  and  N3_14 
REMARK    8  A    between atoms: N3_14  and  C9_16 
ROOT
HETATM    1  N2  UNL     1      -1.044   0.476  -1.037  1.00  0.00    -0.343 N 
ATOM      2  H2  UNL     1      -1.049   1.365  -1.537  1.00  0.00     0.164 HD
HETATM    3  C8  UNL     1       0.183  -0.155  -0.713  1.00  0.00     0.316 C 
HETATM    4  O1  UNL     1       0.181  -1.266  -0.086  1.00  0.00    -0.247 OA
HETATM    5  N3  UNL     1       1.424   0.420  -1.069  1.00  0.00    -0.339 N 
ATOM      6  H3  UNL     1       1.414   1.309  -1.570  1.00  0.00     0.164 HD
ENDROOT
BRANCH   1   7
HETATM    7  C7  UNL     1      -2.288  -0.152  -0.653  1.00  0.00     0.126 C 
BRANCH   7   8
HETATM    8  C6  UNL     1      -3.418   0.737  -1.122  1.00  0.00     0.050 C 
BRANCH   8   9
HETATM    9  C5  UNL     1      -4.772   0.249  -0.812  1.00  0.00     0.274 C 
BRANCH   9  10
HETATM   10  N1  UNL     1      -5.168   0.033   0.542  1.00  0.00     0.090 N 
BRANCH  10  11
HETATM   11  C2  UNL     1      -6.537  -0.568   0.375  1.00  0.00     0.268 C 
HETATM   12  C1  UNL     1      -7.415   0.283  -0.481  1.00  0.00     0.037 C 
ENDBRANCH  10  11
BRANCH  10  13
HETATM   13  C3  UNL     1      -5.377   1.180   1.356  1.00  0.00     0.303 C 
BRANCH  13  14
HETATM   14  C4  UNL     1      -4.111   1.720   1.969  1.00  0.00     0.252 C 
HETATM   15  F1  UNL     1      -3.537   0.734   2.789  1.00  0.00    -0.254 F 
ENDBRANCH  13  14
ENDBRANCH  10  13
ENDBRANCH   9  10
ENDBRANCH   8   9
ENDBRANCH   7   8
ENDBRANCH   1   7
BRANCH   5  16
HETATM   16  C9  UNL     1       2.711  -0.176  -0.766  1.00  0.00     0.086 C 
HETATM   17  C10 UNL     1       3.341  -0.523  -2.081  1.00  0.00     0.025 C 
HETATM   18  C11 UNL     1       4.728  -1.042  -2.034  1.00  0.00     0.002 C 
HETATM   19  C12 UNL     1       5.077  -1.895  -0.859  1.00  0.00     0.000 C 
HETATM   20  C13 UNL     1       6.218  -1.259  -0.073  1.00  0.00     0.000 C 
HETATM   21  C14 UNL     1       5.782  -1.104   1.361  1.00  0.00     0.000 C 
HETATM   22  C15 UNL     1       5.233   0.246   1.689  1.00  0.00     0.000 C 
HETATM   23  C16 UNL     1       3.724   0.283   1.413  1.00  0.00     0.002 C 
HETATM   24  C17 UNL     1       3.478   0.832   0.028  1.00  0.00     0.025 C 
ENDBRANCH   5  16
TORSDOF 8
