REMARK  19 active torsions:
REMARK  status: ('A' for Active; 'I' for Inactive)
REMARK       I    between atoms: C2_2  and  N1_4 
REMARK    1  A    between atoms: N1_4  and  C3_5 
REMARK    2  A    between atoms: N1_4  and  C19_31 
REMARK    3  A    between atoms: C3_5  and  C4_6 
REMARK    4  A    between atoms: C4_6  and  N2_7 
REMARK    5  A    between atoms: N2_7  and  C5_8 
REMARK    6  A    between atoms: N2_7  and  C7_12 
REMARK    7  A    between atoms: C5_8  and  C6_9 
REMARK    8  A    between atoms: C10_17  and  N5_18 
REMARK    9  A    between atoms: N5_18  and  C11_20 
REMARK   10  A    between atoms: C19_31  and  C20_32 
REMARK       I    between atoms: C20_32  and  N8_34 
REMARK   11  A    between atoms: N8_34  and  C21_36 
REMARK   12  A    between atoms: C21_36  and  C22_37 
REMARK   13  A    between atoms: C22_37  and  C23_38 
REMARK   14  A    between atoms: C23_38  and  C24_39 
REMARK   15  A    between atoms: C24_39  and  N9_40 
REMARK   16  A    between atoms: N9_40  and  C25_41 
REMARK       I    between atoms: N9_40  and  C30_47 
REMARK   17  A    between atoms: C25_41  and  C26_42 
REMARK   18  A    between atoms: C26_42  and  C27_43 
REMARK   19  A    between atoms: C27_43  and  N10_44 
ROOT
HETATM    1  C3  UNL     1      -1.201   3.233  -1.295  1.00  0.00     0.146 C 
ENDROOT
BRANCH   1   2
HETATM    2  N1  UNL     1       0.154   3.435  -0.836  1.00  0.00    -0.342 N 
HETATM    3  C2  UNL     1       1.146   3.837  -1.766  1.00  0.00     0.216 C 
HETATM    4  C1  UNL     1       0.794   4.031  -3.180  1.00  0.00     0.117 C 
HETATM    5  O1  UNL     1       2.314   4.023  -1.387  1.00  0.00    -0.274 OA
BRANCH   2   6
HETATM    6  C19 UNL     1       0.557   3.306   0.542  1.00  0.00     0.228 C 
BRANCH   6   7
HETATM    7  C20 UNL     1       1.166   2.049   0.937  1.00  0.00     0.235 C 
HETATM    8  O3  UNL     1       1.486   1.944   2.179  1.00  0.00    -0.272 OA
HETATM    9  N8  UNL     1       1.465   0.922   0.160  1.00  0.00    -0.360 N 
ATOM     10  H8  UNL     1       1.224   0.968  -0.830  1.00  0.00     0.162 HD
BRANCH   9  11
HETATM   11  C21 UNL     1       2.073  -0.280   0.619  1.00  0.00     0.122 C 
BRANCH  11  12
HETATM   12  C22 UNL     1       3.452  -0.120   1.208  1.00  0.00     0.021 C 
BRANCH  12  13
HETATM   13  C23 UNL     1       4.417   0.480   0.208  1.00  0.00     0.021 C 
BRANCH  13  14
HETATM   14  C24 UNL     1       5.792   0.619   0.810  1.00  0.00     0.125 C 
BRANCH  14  15
HETATM   15  N9  UNL     1       6.281  -0.695   1.183  1.00  0.00    -0.356 N 
HETATM   16  C30 UNL     1       6.463  -1.069   2.539  1.00  0.00     0.183 C 
HETATM   17  N11 UNL     1       6.198  -2.279   2.951  1.00  0.00    -0.374 N 
HETATM   18  N12 UNL     1       6.943  -0.166   3.523  1.00  0.00    -0.064 NA
ATOM     19 2H11 UNL     1       5.853  -2.928   2.244  1.00  0.00     0.158 HD
ATOM     20 1H11 UNL     1       6.329  -2.548   3.926  1.00  0.00     0.158 HD
BRANCH  15  21
HETATM   21  C25 UNL     1       6.594  -1.643   0.109  1.00  0.00     0.127 C 
BRANCH  21  22
HETATM   22  C26 UNL     1       7.806  -1.205  -0.693  1.00  0.00     0.050 C 
BRANCH  22  23
HETATM   23  C27 UNL     1       9.002  -1.133   0.232  1.00  0.00     0.273 C 
BRANCH  23  24
HETATM   24  N10 UNL     1       9.217  -2.457   0.793  1.00  0.00     0.080 N 
HETATM   25  C28 UNL     1       9.655  -3.375  -0.246  1.00  0.00     0.309 C 
HETATM   26  C29 UNL     1      10.186  -2.443   1.881  1.00  0.00     0.309 C 
ENDBRANCH  23  24
ENDBRANCH  22  23
ENDBRANCH  21  22
ENDBRANCH  15  21
ENDBRANCH  14  15
ENDBRANCH  13  14
ENDBRANCH  12  13
ENDBRANCH  11  12
ENDBRANCH   9  11
ENDBRANCH   6   7
ENDBRANCH   2   6
ENDBRANCH   1   2
BRANCH   1  27
HETATM   27  C4  UNL     1      -1.559   1.857  -1.730  1.00  0.00     0.143 C 
BRANCH  27  28
HETATM   28  N2  UNL     1      -2.903   1.749  -2.229  1.00  0.00    -0.370 N 
BRANCH  28  29
HETATM   29  C5  UNL     1      -3.195   2.371  -3.495  1.00  0.00     0.222 C 
BRANCH  29  30
HETATM   30  C6  UNL     1      -2.528   1.598  -4.576  1.00  0.00     0.248 C 
HETATM   31  N3  UNL     1      -2.654   2.025  -5.941  1.00  0.00    -0.061 NA
HETATM   32  O2  UNL     1      -1.839   0.567  -4.408  1.00  0.00    -0.275 OA
ENDBRANCH  29  30
ENDBRANCH  28  29
BRANCH  28  33
HETATM   33  C7  UNL     1      -3.928   1.094  -1.507  1.00  0.00     0.048 A 
HETATM   34  C8  UNL     1      -3.753   0.714  -0.194  1.00  0.00     0.064 A 
HETATM   35  C9  UNL     1      -4.782   0.060   0.481  1.00  0.00     0.096 A 
HETATM   36  N4  UNL     1      -4.892  -0.410   1.742  1.00  0.00    -0.188 N 
HETATM   37  C16 UNL     1      -5.964  -0.201  -0.168  1.00  0.00     0.150 A 
HETATM   38  C10 UNL     1      -6.117  -0.967   1.921  1.00  0.00     0.680 A 
ATOM     39  H4  UNL     1      -4.163  -0.355   2.454  1.00  0.00     0.184 HD
HETATM   40  N6  UNL     1      -6.748  -0.828   0.746  1.00  0.00    -0.174 N 
ATOM     41  H6  UNL     1      -7.697  -1.152   0.562  1.00  0.00     0.186 HD
HETATM   42  N7  UNL     1      -6.155   0.161  -1.449  1.00  0.00    -0.343 N 
HETATM   43  C17 UNL     1      -7.420  -0.136  -2.093  1.00  0.00     0.157 C 
HETATM   44  C18 UNL     1      -5.152   0.789  -2.078  1.00  0.00     0.121 A 
BRANCH  38  45
HETATM   45  N5  UNL     1      -6.581  -1.509   2.988  1.00  0.00    -0.221 N 
ATOM     46  H5  UNL     1      -5.968  -1.531   3.803  1.00  0.00     0.178 HD
BRANCH  45  47
HETATM   47  C11 UNL     1      -7.889  -2.088   3.135  1.00  0.00     0.099 C 
HETATM   48  C12 UNL     1      -8.187  -3.236   2.234  1.00  0.00     0.026 C 
HETATM   49  C13 UNL     1      -9.655  -3.161   1.885  1.00  0.00     0.002 C 
HETATM   50  C14 UNL     1     -10.146  -1.795   2.307  1.00  0.00     0.002 C 
HETATM   51  C15 UNL     1      -9.014  -1.087   2.975  1.00  0.00     0.026 C 
ENDBRANCH  45  47
ENDBRANCH  38  45
ENDBRANCH  28  33
ENDBRANCH  27  28
ENDBRANCH   1  27
TORSDOF 19
