REMARK  20 active torsions:
REMARK  status: ('A' for Active; 'I' for Inactive)
REMARK    1  A    between atoms: C2_2  and  C5_5 
REMARK       I    between atoms: C5_5  and  N1_7 
REMARK    2  A    between atoms: N1_7  and  C6_9 
REMARK    3  A    between atoms: C9_14  and  N3_15 
REMARK    4  A    between atoms: C10_17  and  C11_18 
REMARK    5  A    between atoms: C11_18  and  N4_19 
REMARK       I    between atoms: N4_19  and  C12_20 
REMARK    6  A    between atoms: C12_20  and  C13_22 
REMARK    7  A    between atoms: C13_22  and  C14_23 
REMARK    8  A    between atoms: C14_23  and  N5_24 
REMARK    9  A    between atoms: N6_29  and  C17_30 
REMARK   10  A    between atoms: C17_30  and  C18_31 
REMARK   11  A    between atoms: C18_31  and  C19_32 
REMARK   12  A    between atoms: C19_32  and  C20_33 
REMARK   13  A    between atoms: C20_33  and  C21_34 
REMARK   14  A    between atoms: C21_34  and  C22_35 
REMARK   15  A    between atoms: C22_35  and  C23_36 
REMARK   16  A    between atoms: C23_36  and  C24_37 
REMARK   17  A    between atoms: C24_37  and  C25_38 
REMARK   18  A    between atoms: C25_38  and  C26_39 
REMARK   19  A    between atoms: C26_39  and  N7_40 
REMARK   20  A    between atoms: C30_44  and  N8_45 
REMARK       I    between atoms: N8_45  and  C31_47 
ROOT
HETATM    1  N5  UNL     1       0.840  -1.297   0.114  1.00  0.00    -0.284 N 
HETATM    2  C15 UNL     1       0.355  -2.127  -0.980  1.00  0.00     0.318 C 
HETATM    3  O3  UNL     1       0.996  -2.841  -1.745  1.00  0.00    -0.262 OA
HETATM    4  C16 UNL     1      -1.123  -1.905  -0.945  1.00  0.00     0.315 C 
HETATM    5  O4  UNL     1      -1.960  -2.406  -1.696  1.00  0.00    -0.262 OA
HETATM    6  N6  UNL     1      -1.397  -0.983   0.151  1.00  0.00    -0.305 N 
HETATM    7  C30 UNL     1      -0.156  -0.202   0.198  1.00  0.00     0.305 C 
ENDROOT
BRANCH   1   8
HETATM    8  C14 UNL     1       1.958  -1.529   0.931  1.00  0.00     0.081 C 
BRANCH   8   9
HETATM    9  C13 UNL     1       3.293  -0.989   0.773  1.00  0.00     0.164 C 
BRANCH   9  10
HETATM   10  C12 UNL     1       3.890  -1.217  -0.588  1.00  0.00     0.295 C 
HETATM   11  N4  UNL     1       5.006  -2.021  -0.660  1.00  0.00    -0.382 NA
HETATM   12  O2  UNL     1       3.253  -0.615  -1.503  1.00  0.00    -0.257 OA
BRANCH  11  13
HETATM   13  C11 UNL     1       6.092  -2.804  -0.731  1.00  0.00     0.204 C 
BRANCH  13  14
HETATM   14  C10 UNL     1       7.419  -2.359  -1.260  1.00  0.00     0.138 C 
HETATM   15  N3  UNL     1       8.093  -1.406  -0.562  1.00  0.00    -0.199 N 
ATOM     16  H3  UNL     1       8.802  -1.054  -1.206  1.00  0.00     0.183 HD
BRANCH  15  17
HETATM   17  C9  UNL     1       8.255  -0.765   0.479  1.00  0.00     0.683 A 
HETATM   18  N2  UNL     1       7.569  -0.851   1.627  1.00  0.00    -0.202 N 
HETATM   19  C8  UNL     1       7.934  -0.126   2.694  1.00  0.00     0.110 A 
ATOM     20  H2  UNL     1       6.763  -1.473   1.689  1.00  0.00     0.183 HD
HETATM   21  C7  UNL     1       9.004   0.721   2.670  1.00  0.00     0.067 A 
HETATM   22  C6  UNL     1       9.753   0.836   1.471  1.00  0.00     0.124 A 
HETATM   23  N11 UNL     1       9.333   0.098   0.472  1.00  0.00    -0.176 N 
ATOM     24  H11 UNL     1       9.857   0.169  -0.400  1.00  0.00     0.186 HD
BRANCH  22  25
HETATM   25  N1  UNL     1      10.753   1.627   1.522  1.00  0.00    -0.312 N 
HETATM   26  C5  UNL     1      11.625   1.887   0.460  1.00  0.00     0.230 C 
HETATM   27  O1  UNL     1      11.429   2.997  -0.186  1.00  0.00    -0.272 OA
ATOM     28  H1  UNL     1      10.930   2.106   2.405  1.00  0.00     0.170 HD
BRANCH  26  29
HETATM   29  C2  UNL     1      12.736   1.070  -0.025  1.00  0.00     0.030 C 
HETATM   30  C1  UNL     1      13.478   1.815  -1.152  1.00  0.00     0.025 C 
HETATM   31  C3  UNL     1      12.356  -0.256  -0.619  1.00  0.00     0.025 C 
HETATM   32  C4  UNL     1      13.762   0.904   1.080  1.00  0.00     0.025 C 
ENDBRANCH  26  29
ENDBRANCH  22  25
ENDBRANCH  15  17
ENDBRANCH  13  14
ENDBRANCH  11  13
ENDBRANCH   9  10
ENDBRANCH   8   9
ENDBRANCH   1   8
BRANCH   7  33
HETATM   33  N8  UNL     1      -0.036   0.843  -0.717  1.00  0.00    -0.326 N 
HETATM   34  C31 UNL     1      -0.220   0.976  -2.087  1.00  0.00     0.184 C 
HETATM   35  N9  UNL     1       0.275   0.264  -3.019  1.00  0.00    -0.374 N 
HETATM   36  N10 UNL     1      -1.065   2.064  -2.576  1.00  0.00    -0.064 NA
ATOM     37  H92 UNL     1       0.865  -0.495  -2.678  1.00  0.00     0.158 HD
ATOM     38  H91 UNL     1       0.140   0.362  -4.025  1.00  0.00     0.158 HD
ATOM     39  H8  UNL     1       0.256   1.715  -0.276  1.00  0.00     0.166 HD
ENDBRANCH   7  33
BRANCH   6  40
HETATM   40  C17 UNL     1      -2.523  -1.002   1.011  1.00  0.00     0.130 C 
BRANCH  40  41
HETATM   41  C18 UNL     1      -3.757  -0.347   0.542  1.00  0.00     0.020 C 
BRANCH  41  42
HETATM   42  C19 UNL     1      -3.726   1.101   0.263  1.00  0.00     0.002 C 
BRANCH  42  43
HETATM   43  C20 UNL     1      -5.068   1.570  -0.285  1.00  0.00     0.000 C 
BRANCH  43  44
HETATM   44  C21 UNL     1      -6.155   1.362   0.690  1.00  0.00     0.000 C 
BRANCH  44  45
HETATM   45  C22 UNL     1      -7.511   1.804   0.145  1.00  0.00     0.000 C 
BRANCH  45  46
HETATM   46  C23 UNL     1      -7.903   1.019  -1.064  1.00  0.00     0.000 C 
BRANCH  46  47
HETATM   47  C24 UNL     1      -9.224   1.445  -1.611  1.00  0.00     0.002 C 
BRANCH  47  48
HETATM   48  C25 UNL     1     -10.380   1.331  -0.680  1.00  0.00     0.028 C 
BRANCH  48  49
HETATM   49  C26 UNL     1     -10.567  -0.085  -0.243  1.00  0.00     0.236 C 
BRANCH  49  50
HETATM   50  N7  UNL     1     -11.682  -0.246   0.664  1.00  0.00    -0.079 N 
HETATM   51  C27 UNL     1     -12.802   0.606   0.335  1.00  0.00     0.271 C 
HETATM   52  C28 UNL     1     -12.154  -1.608   0.569  1.00  0.00     0.271 C 
HETATM   53  C29 UNL     1     -11.303  -0.026   2.046  1.00  0.00     0.271 C 
ENDBRANCH  49  50
ENDBRANCH  48  49
ENDBRANCH  47  48
ENDBRANCH  46  47
ENDBRANCH  45  46
ENDBRANCH  44  45
ENDBRANCH  43  44
ENDBRANCH  42  43
ENDBRANCH  41  42
ENDBRANCH  40  41
ENDBRANCH   6  40
TORSDOF 20
