REMARK  8 active torsions:
REMARK  status: ('A' for Active; 'I' for Inactive)
REMARK    1  A    between atoms: C2_2  and  C3_3 
REMARK    2  A    between atoms: C3_3  and  C4_4 
REMARK    3  A    between atoms: C3_3  and  N1_6 
REMARK    4  A    between atoms: C3_3  and  C14_17 
REMARK       I    between atoms: N1_6  and  C6_8 
REMARK    5  A    between atoms: C6_8  and  C7_10 
REMARK    6  A    between atoms: C7_10  and  C8_11 
REMARK    7  A    between atoms: C14_17  and  C15_19 
REMARK       I    between atoms: C15_19  and  N2_21 
REMARK    8  A    between atoms: N2_21  and  C16_23 
ROOT
HETATM    1  C15 UNL     1      -0.013  -0.820  -0.041  1.00  0.00     0.290 C 
HETATM    2  O3  UNL     1      -0.740  -1.833   0.090  1.00  0.00    -0.264 OA
HETATM    3  N2  UNL     1      -0.611   0.276  -0.731  1.00  0.00    -0.349 N 
ATOM      4  H2  UNL     1      -0.059   1.124  -0.862  1.00  0.00     0.163 HD
ENDROOT
BRANCH   1   5
HETATM    5  C14 UNL     1       1.348  -0.694   0.444  1.00  0.00     0.244 C 
HETATM    6  O2  UNL     1       1.943   0.402   0.233  1.00  0.00    -0.284 OA
BRANCH   5   7
HETATM    7  C3  UNL     1       2.064  -1.762   1.159  1.00  0.00     0.102 C 
BRANCH   7   8
HETATM    8  C2  UNL     1       2.093  -3.025   0.359  1.00  0.00     0.035 C 
HETATM    9  C1  UNL     1       2.841  -4.134   1.115  1.00  0.00     0.008 C 
ENDBRANCH   7   8
BRANCH   7  10
HETATM   10  C4  UNL     1       1.335  -2.024   2.494  1.00  0.00     0.035 C 
HETATM   11  C5  UNL     1       1.309  -0.757   3.288  1.00  0.00     0.008 C 
ENDBRANCH   7  10
BRANCH   7  12
HETATM   12  N1  UNL     1       3.402  -1.295   1.488  1.00  0.00    -0.344 N 
HETATM   13  C6  UNL     1       4.397  -0.974   0.528  1.00  0.00     0.218 C 
HETATM   14  O1  UNL     1       4.181  -1.074  -0.695  1.00  0.00    -0.274 OA
ATOM     15  H1  UNL     1       3.641  -1.191   2.474  1.00  0.00     0.163 HD
BRANCH  13  16
HETATM   16  C7  UNL     1       5.722  -0.510   0.985  1.00  0.00     0.107 C 
BRANCH  16  17
HETATM   17  C8  UNL     1       6.598  -0.220  -0.184  1.00  0.00    -0.006 C 
HETATM   18  C9  UNL     1       7.981   0.242   0.238  1.00  0.00     0.005 C 
HETATM   19  C10 UNL     1       7.948   1.643   0.803  1.00  0.00     0.000 C 
HETATM   20  C11 UNL     1       7.459   2.576  -0.273  1.00  0.00     0.000 C 
HETATM   21  C12 UNL     1       6.918   1.857  -1.466  1.00  0.00     0.000 C 
HETATM   22  C13 UNL     1       5.926   0.784  -1.079  1.00  0.00     0.005 C 
ENDBRANCH  16  17
ENDBRANCH  13  16
ENDBRANCH   7  12
ENDBRANCH   5   7
ENDBRANCH   1   5
BRANCH   3  23
HETATM   23  C16 UNL     1      -1.953   0.248  -1.253  1.00  0.00     0.089 C 
HETATM   24  C17 UNL     1      -2.039   0.575  -2.700  1.00  0.00     0.029 C 
HETATM   25  C18 UNL     1      -3.416   0.400  -3.250  1.00  0.00     0.036 C 
HETATM   26  C19 UNL     1      -4.467   0.490  -2.217  1.00  0.00    -0.076 C 
HETATM   27  C20 UNL     1      -4.233   0.881  -0.978  1.00  0.00    -0.065 C 
HETATM   28  C29 UNL     1      -5.859   0.110  -2.652  1.00  0.00     0.036 C 
HETATM   29  C21 UNL     1      -2.868   1.262  -0.540  1.00  0.00     0.060 C 
HETATM   30  C22 UNL     1      -5.411   0.918  -0.051  1.00  0.00     0.001 C 
HETATM   31  C23 UNL     1      -4.862   0.932   1.377  1.00  0.00     0.022 C 
HETATM   32  C24 UNL     1      -6.236   2.135  -0.251  1.00  0.00     0.025 C 
HETATM   33  C27 UNL     1      -6.150  -0.381  -0.206  1.00  0.00     0.097 C 
HETATM   34  C25 UNL     1      -7.707   1.938  -0.157  1.00  0.00     0.104 C 
HETATM   35  C26 UNL     1      -8.103   0.791   0.702  1.00  0.00     0.217 C 
HETATM   36  O4  UNL     1      -9.135   0.821   1.445  1.00  0.00    -0.274 OA
HETATM   37  N3  UNL     1      -7.294  -0.371   0.683  1.00  0.00    -0.355 N 
ATOM     38  H3  UNL     1      -7.509  -1.173   1.275  1.00  0.00     0.162 HD
HETATM   39  C28 UNL     1      -6.603  -0.661  -1.595  1.00  0.00     0.030 C 
ENDBRANCH   3  23
TORSDOF 8
