REMARK  12 active torsions:
REMARK  status: ('A' for Active; 'I' for Inactive)
REMARK    1  A    between atoms: C2_2  and  C3_3 
REMARK       I    between atoms: C3_3  and  N1_5 
REMARK    2  A    between atoms: N1_5  and  C4_6 
REMARK    3  A    between atoms: N1_5  and  C8_10 
REMARK    4  A    between atoms: C4_6  and  C5_7 
REMARK    5  A    between atoms: C5_7  and  C6_8 
REMARK    6  A    between atoms: C8_10  and  O2_11 
REMARK    7  A    between atoms: C8_10  and  C9_13 
REMARK    8  A    between atoms: C9_13  and  O3_14 
REMARK    9  A    between atoms: C17_23  and  O4_24 
REMARK   10  A    between atoms: C25_33  and  C26_34 
REMARK   11  A    between atoms: C26_34  and  C27_35 
REMARK   12  A    between atoms: C27_35  and  C28_36 
ROOT
HETATM    1  C9  UNL     1       1.548   0.414  -0.557  1.00  0.00     0.123 C 
HETATM    2  C10 UNL     1       0.431   0.474   0.507  1.00  0.00     0.052 C 
HETATM    3  C11 UNL     1      -0.402  -0.728   0.297  1.00  0.00     0.002 C 
HETATM    4  C12 UNL     1      -1.877  -0.504   0.521  1.00  0.00    -0.005 C 
HETATM    5  C13 UNL     1      -2.182  -0.081   1.941  1.00  0.00     0.006 C 
HETATM    6  C14 UNL     1      -3.690  -0.139   2.113  1.00  0.00     0.006 C 
HETATM    7  C15 UNL     1      -4.431  -0.078   0.818  1.00  0.00    -0.004 C 
HETATM    8  C16 UNL     1      -5.886   0.218   1.111  1.00  0.00     0.037 C 
HETATM    9  C17 UNL     1      -6.678   0.512  -0.133  1.00  0.00     0.118 C 
HETATM   10  C18 UNL     1      -6.020   1.535  -1.013  1.00  0.00     0.032 C 
HETATM   11  C19 UNL     1      -4.635   1.050  -1.387  1.00  0.00     0.012 C 
HETATM   12  C20 UNL     1      -3.816   0.921  -0.128  1.00  0.00    -0.036 C 
HETATM   13  C21 UNL     1      -3.716   2.296   0.498  1.00  0.00     0.016 C 
HETATM   14  C22 UNL     1      -2.445   0.456  -0.489  1.00  0.00    -0.002 C 
HETATM   15  C23 UNL     1      -2.396  -0.291  -1.828  1.00  0.00     0.006 C 
HETATM   16  C24 UNL     1      -0.957  -0.497  -2.151  1.00  0.00     0.010 C 
HETATM   17  C25 UNL     1      -0.176  -1.240  -1.079  1.00  0.00    -0.033 C 
HETATM   18  C29 UNL     1       1.273  -0.909  -1.318  1.00  0.00     0.056 C 
ENDROOT
BRANCH   1  19
HETATM   19  C8  UNL     1       2.846   0.241   0.064  1.00  0.00     0.156 C 
BRANCH  19  20
HETATM   20  N1  UNL     1       3.987   1.018   0.202  1.00  0.00    -0.296 N 
HETATM   21  C3  UNL     1       4.174   2.326  -0.195  1.00  0.00     0.248 C 
HETATM   22  O1  UNL     1       3.297   3.015  -0.752  1.00  0.00    -0.268 OA
BRANCH  21  23
HETATM   23  C2  UNL     1       5.471   3.013   0.023  1.00  0.00     0.064 C 
HETATM   24  C1  UNL     1       5.621   4.284  -0.369  1.00  0.00     0.017 C 
ENDBRANCH  21  23
BRANCH  20  25
HETATM   25  C4  UNL     1       5.155   0.390   0.890  1.00  0.00     0.134 C 
BRANCH  25  26
HETATM   26  C5  UNL     1       6.089  -0.257  -0.062  1.00  0.00     0.020 C 
BRANCH  26  27
HETATM   27  C6  UNL     1       7.243  -0.884   0.686  1.00  0.00    -0.003 C 
HETATM   28  C7  UNL     1       8.042   0.114   1.481  1.00  0.00     0.005 C 
ENDBRANCH  26  27
ENDBRANCH  25  26
ENDBRANCH  20  25
ENDBRANCH  19  20
BRANCH  19  29
HETATM   29  O2  UNL     1       2.974  -0.961   0.647  1.00  0.00    -0.347 OA
ATOM     30  H2  UNL     1       2.193  -1.493   0.553  1.00  0.00     0.219 HD
ENDBRANCH  19  29
ENDBRANCH   1  19
BRANCH   1  31
HETATM   31  O3  UNL     1       1.441   1.474  -1.409  1.00  0.00    -0.381 OA
ATOM     32  H3  UNL     1       0.590   1.587  -1.816  1.00  0.00     0.211 HD
ENDBRANCH   1  31
BRANCH  17  33
HETATM   33  C26 UNL     1      -0.486  -2.703  -1.203  1.00  0.00     0.020 C 
BRANCH  33  34
HETATM   34  C27 UNL     1       0.313  -3.617  -0.329  1.00  0.00     0.114 C 
BRANCH  34  35
HETATM   35  C28 UNL     1      -0.144  -5.021  -0.598  1.00  0.00     0.172 C 
HETATM   36  O5  UNL     1      -1.254  -5.367  -0.138  1.00  0.00    -0.648 OA
HETATM   37  O6  UNL     1       0.664  -5.862  -1.330  1.00  0.00    -0.648 OA
ENDBRANCH  34  35
ENDBRANCH  33  34
ENDBRANCH  17  33
BRANCH   9  38
HETATM   38  O4  UNL     1      -7.923   1.008   0.251  1.00  0.00    -0.396 OA
ATOM     39  H4  UNL     1      -8.423   1.194  -0.535  1.00  0.00     0.210 HD
ENDBRANCH   9  38
TORSDOF 12
