REMARK  14 active torsions:
REMARK  status: ('A' for Active; 'I' for Inactive)
REMARK    1  A    between atoms: C2_2  and  C3_3 
REMARK    2  A    between atoms: C2_2  and  N1_6 
REMARK    3  A    between atoms: C3_3  and  O1_4 
REMARK       I    between atoms: N1_6  and  C4_8 
REMARK    4  A    between atoms: C4_8  and  C5_10 
REMARK    5  A    between atoms: C5_10  and  C6_11 
REMARK    6  A    between atoms: C5_10  and  C12_18 
REMARK    7  A    between atoms: C7_12  and  C8_13 
REMARK    8  A    between atoms: C8_13  and  N2_14 
REMARK       I    between atoms: C12_18  and  N3_20 
REMARK    9  A    between atoms: N3_20  and  C13_22 
REMARK   10  A    between atoms: C13_22  and  C14_23 
REMARK   11  A    between atoms: C13_22  and  C16_27 
REMARK   12  A    between atoms: C14_23  and  C15_24 
REMARK   13  A    between atoms: C16_27  and  O6_28 
REMARK   14  A    between atoms: C16_27  and  C17_30 
ROOT
HETATM    1  C5  UNL     1      -0.237  -1.030  -1.358  1.00  0.00     0.192 C 
ENDROOT
BRANCH   1   2
HETATM    2  C4  UNL     1       0.657  -2.138  -0.986  1.00  0.00     0.234 C 
HETATM    3  N1  UNL     1       0.148  -3.420  -0.695  1.00  0.00    -0.354 N 
ATOM      4  H1  UNL     1      -0.860  -3.567  -0.747  1.00  0.00     0.162 HD
HETATM    5  O2  UNL     1       1.882  -1.940  -0.929  1.00  0.00    -0.272 OA
BRANCH   3   6
HETATM    6  C2  UNL     1       0.992  -4.540  -0.325  1.00  0.00     0.104 C 
HETATM    7  C1  UNL     1       0.897  -5.588  -1.406  1.00  0.00     0.034 C 
BRANCH   6   8
HETATM    8  C3  UNL     1       0.633  -5.164   0.983  1.00  0.00     0.189 C 
BRANCH   8   9
HETATM    9  O1  UNL     1       0.728  -4.262   2.049  1.00  0.00    -0.399 OA
ATOM     10  H1  UNL     1       0.500  -4.659   2.881  1.00  0.00     0.209 HD
ENDBRANCH   8   9
ENDBRANCH   6   8
ENDBRANCH   3   6
ENDBRANCH   1   2
BRANCH   1  11
HETATM   11  C6  UNL     1      -1.150  -0.765  -0.207  1.00  0.00    -0.006 C 
HETATM   12  C7  UNL     1      -1.297   0.390   0.407  1.00  0.00    -0.002 C 
BRANCH  12  13
HETATM   13  C8  UNL     1      -2.227   0.557   1.541  1.00  0.00     0.263 C 
BRANCH  13  14
HETATM   14  N2  UNL     1      -3.243   1.557   1.275  1.00  0.00    -0.075 N 
HETATM   15  C9  UNL     1      -2.800   2.778   1.967  1.00  0.00     0.272 C 
HETATM   16  C10 UNL     1      -4.519   1.198   1.849  1.00  0.00     0.272 C 
HETATM   17  C11 UNL     1      -3.343   1.890  -0.119  1.00  0.00     0.272 C 
ENDBRANCH  13  14
ENDBRANCH  12  13
ENDBRANCH   1  11
BRANCH   1  18
HETATM   18  C12 UNL     1       0.519   0.187  -1.734  1.00  0.00     0.235 C 
HETATM   19  O3  UNL     1       0.290   0.785  -2.843  1.00  0.00    -0.272 OA
HETATM   20  N3  UNL     1       1.508   0.738  -0.908  1.00  0.00    -0.349 N 
ATOM     21  H3  UNL     1       1.728   0.295  -0.016  1.00  0.00     0.163 HD
BRANCH  20  22
HETATM   22  C13 UNL     1       2.242   1.969  -1.325  1.00  0.00     0.154 C 
BRANCH  22  23
HETATM   23  C14 UNL     1       1.986   2.979  -0.296  1.00  0.00     0.145 C 
BRANCH  23  24
HETATM   24  C15 UNL     1       2.476   4.339  -0.508  1.00  0.00     0.174 C 
HETATM   25  O4  UNL     1       2.818   4.747  -1.632  1.00  0.00    -0.648 OA
HETATM   26  O5  UNL     1       2.560   5.195   0.575  1.00  0.00    -0.648 OA
ENDBRANCH  23  24
ENDBRANCH  22  23
BRANCH  22  27
HETATM   27  C16 UNL     1       3.622   1.545  -1.606  1.00  0.00     0.104 C 
BRANCH  27  28
HETATM   28  O6  UNL     1       3.712   0.484  -2.382  1.00  0.00    -0.360 OA
ATOM     29  H6  UNL     1       4.603   0.210  -2.564  1.00  0.00     0.217 HD
ENDBRANCH  27  28
BRANCH  27  30
HETATM   30  C17 UNL     1       4.875   2.060  -1.194  1.00  0.00     0.292 C 
HETATM   31  O7  UNL     1       5.116   2.967  -0.396  1.00  0.00    -0.300 OA
ENDBRANCH  27  30
ENDBRANCH  22  27
ENDBRANCH  20  22
ENDBRANCH   1  18
TORSDOF 14
