REMARK  9 active torsions:
REMARK  status: ('A' for Active; 'I' for Inactive)
REMARK    1  A    between atoms: C4_4  and  C5_5 
REMARK    2  A    between atoms: C5_5  and  C6_6 
REMARK    3  A    between atoms: C10_11  and  C11_12 
REMARK    4  A    between atoms: C10_11  and  C12_14 
REMARK    5  A    between atoms: C12_14  and  N2_15 
REMARK    6  A    between atoms: C12_14  and  C16_23 
REMARK       I    between atoms: N2_15  and  C13_17 
REMARK    7  A    between atoms: C13_17  and  C14_19 
REMARK    8  A    between atoms: C14_19  and  N3_20 
REMARK    9  A    between atoms: N3_20  and  C15_21 
ROOT
HETATM    1  C6  UNL     1      -0.952   0.817   0.838  1.00  0.00     0.085 C 
HETATM    2  C7  UNL     1      -0.217   2.228   0.878  1.00  0.00     0.027 C 
HETATM    3  C8  UNL     1       0.110   2.335  -0.590  1.00  0.00     0.022 C 
HETATM    4  C9  UNL     1       0.140   0.919  -1.096  1.00  0.00     0.123 C 
HETATM    5  N1  UNL     1       0.069   0.180   0.180  1.00  0.00    -0.375 N 
HETATM    6  C10 UNL     1       0.321  -1.153   0.076  1.00  0.00     0.077 C 
ENDROOT
BRANCH   6   7
HETATM    7  C11 UNL     1      -0.324  -2.041  -0.854  1.00  0.00     0.286 C 
HETATM    8  O1  UNL     1      -1.089  -1.772  -1.757  1.00  0.00    -0.300 OA
ENDBRANCH   6   7
BRANCH   6   9
HETATM    9  C12 UNL     1       1.646  -1.690   0.539  1.00  0.00     0.227 C 
BRANCH   9  10
HETATM   10  N2  UNL     1       2.800  -1.169  -0.052  1.00  0.00    -0.337 N 
HETATM   11  C13 UNL     1       4.075  -1.766  -0.179  1.00  0.00     0.271 C 
HETATM   12  O2  UNL     1       4.333  -2.892   0.265  1.00  0.00    -0.266 OA
ATOM     13  H2  UNL     1       2.710  -0.232  -0.445  1.00  0.00     0.164 HD
BRANCH  11  14
HETATM   14  C14 UNL     1       5.178  -0.997  -0.892  1.00  0.00     0.259 C 
BRANCH  14  15
HETATM   15  N3  UNL     1       4.766   0.210  -1.418  1.00  0.00    -0.386 NA
BRANCH  15  16
HETATM   16  C15 UNL     1       4.366   1.400  -1.937  1.00  0.00     0.440 C 
HETATM   17  O3  UNL     1       4.898   2.334  -2.517  1.00  0.00    -0.268 OA
ENDBRANCH  15  16
ENDBRANCH  14  15
ENDBRANCH  11  14
ENDBRANCH   9  10
BRANCH   9  18
HETATM   18  C16 UNL     1       1.728  -1.758   2.017  1.00  0.00     0.260 C 
HETATM   19  N4  UNL     1       0.646  -1.826   2.874  1.00  0.00    -0.060 NA
HETATM   20  O4  UNL     1       2.899  -1.740   2.522  1.00  0.00    -0.274 OA
ENDBRANCH   9  18
ENDBRANCH   6   9
BRANCH   1  21
HETATM   21  C5  UNL     1      -2.276   1.197   0.398  1.00  0.00     0.030 C 
BRANCH  21  22
HETATM   22  C4  UNL     1      -3.349   0.187   0.274  1.00  0.00    -0.009 A 
HETATM   23  C2  UNL     1      -4.681   0.843  -0.140  1.00  0.00    -0.014 A 
HETATM   24  C1  UNL     1      -5.919   0.374   0.568  1.00  0.00     0.010 C 
HETATM   25  C3  UNL     1      -4.042  -0.067  -1.060  1.00  0.00     0.010 A 
ENDBRANCH  21  22
ENDBRANCH   1  21
TORSDOF 9
