REMARK  5 active torsions:
REMARK  status: ('A' for Active; 'I' for Inactive)
REMARK    1  A    between atoms: C2_2  and  O1_3 
REMARK    2  A    between atoms: O1_3  and  C3_4 
REMARK    3  A    between atoms: C3_4  and  C4_5 
REMARK    4  A    between atoms: C4_5  and  C5_6 
REMARK    5  A    between atoms: C5_6  and  C6_7 
ROOT
HETATM    1  C6  UNL     1      -0.370  -0.256  -1.070  1.00  0.00    -0.033 A 
HETATM    2  C7  UNL     1      -0.633   0.001  -2.395  1.00  0.00     0.097 A 
HETATM    3  N1  UNL     1      -1.934   0.301  -2.557  1.00  0.00    -0.351 N 
ATOM      4  H1  UNL     1      -2.393   0.532  -3.438  1.00  0.00     0.166 HD
HETATM    5  C8  UNL     1      -2.524   0.241  -1.341  1.00  0.00     0.113 A 
HETATM    6  C9  UNL     1      -1.563  -0.105  -0.405  1.00  0.00    -0.006 A 
HETATM    7  C10 UNL     1      -1.795  -0.282   1.053  1.00  0.00     0.049 C 
HETATM    8  C11 UNL     1      -2.982  -1.186   1.325  1.00  0.00     0.076 C 
HETATM    9  C12 UNL     1      -4.277  -0.506   1.108  1.00  0.00     0.122 A 
HETATM   10  O2  UNL     1      -5.462  -0.247   1.605  1.00  0.00    -0.237 OA
HETATM   11  N2  UNL     1      -5.900   0.470   0.596  1.00  0.00    -0.242 N 
ATOM     12  H2  UNL     1      -6.758   0.968   0.361  1.00  0.00     0.196 HD
HETATM   13  C13 UNL     1      -4.724   0.255   0.020  1.00  0.00     0.159 A 
HETATM   14  N3  UNL     1      -3.926   0.506  -1.134  1.00  0.00    -0.325 N 
ATOM     15  H3  UNL     1      -4.414   0.932  -1.922  1.00  0.00     0.169 HD
ENDROOT
BRANCH   1  16
HETATM   16  C5  UNL     1       0.923  -0.613  -0.473  1.00  0.00     0.043 C 
BRANCH  16  17
HETATM   17  C4  UNL     1       1.465   0.653   0.201  1.00  0.00     0.031 C 
BRANCH  17  18
HETATM   18  C3  UNL     1       2.827   0.321   0.832  1.00  0.00     0.167 C 
BRANCH  18  19
HETATM   19  O1  UNL     1       3.625  -0.092  -0.195  1.00  0.00    -0.391 OA
BRANCH  19  20
HETATM   20  C2  UNL     1       4.907  -0.448   0.102  1.00  0.00     0.163 C 
HETATM   21  C1  UNL     1       5.751   0.608   0.709  1.00  0.00     0.033 C 
ENDBRANCH  19  20
ENDBRANCH  18  19
ENDBRANCH  17  18
ENDBRANCH  16  17
ENDBRANCH   1  16
TORSDOF 5
