REMARK  8 active torsions:
REMARK  status: ('A' for Active; 'I' for Inactive)
REMARK    1  A    between atoms: C2_2  and  C3_3 
REMARK    2  A    between atoms: C3_3  and  C4_4 
REMARK    3  A    between atoms: C4_4  and  C5_5 
REMARK    4  A    between atoms: C5_5  and  C6_6 
REMARK    5  A    between atoms: C9_9  and  O1_10 
REMARK    6  A    between atoms: C10_12  and  C11_13 
REMARK    7  A    between atoms: C11_13  and  O2_16 
REMARK    8  A    between atoms: C14_18  and  O3_19 
ROOT
HETATM    1  C6  UNL     1       0.289  -0.847   0.532  1.00  0.00     0.015 C 
HETATM    2  C7  UNL     1      -0.214  -2.075  -0.176  1.00  0.00     0.010 C 
HETATM    3  C8  UNL     1      -1.606  -2.477   0.123  1.00  0.00     0.033 C 
HETATM    4  C9  UNL     1      -2.410  -1.296   0.683  1.00  0.00     0.127 C 
HETATM    5  C10 UNL     1      -2.001  -0.098  -0.138  1.00  0.00     0.077 C 
HETATM    6  C14 UNL     1      -0.642   0.334   0.388  1.00  0.00     0.131 C 
ENDROOT
BRANCH   1   7
HETATM    7  C5  UNL     1       1.641  -0.521  -0.069  1.00  0.00     0.007 C 
BRANCH   7   8
HETATM    8  C4  UNL     1       2.271   0.686   0.542  1.00  0.00     0.000 C 
BRANCH   8   9
HETATM    9  C3  UNL     1       3.608   0.925  -0.126  1.00  0.00    -0.000 C 
BRANCH   9  10
HETATM   10  C2  UNL     1       4.566  -0.213   0.022  1.00  0.00    -0.005 C 
HETATM   11  C1  UNL     1       5.848   0.207  -0.707  1.00  0.00     0.005 C 
ENDBRANCH   9  10
ENDBRANCH   8   9
ENDBRANCH   7   8
ENDBRANCH   1   7
BRANCH   6  12
HETATM   12  O3  UNL     1      -0.843   0.840   1.671  1.00  0.00    -0.395 OA
ATOM     13  H3  UNL     1      -1.428   1.583   1.580  1.00  0.00     0.210 HD
ENDBRANCH   6  12
BRANCH   5  14
HETATM   14  C11 UNL     1      -3.019   0.988  -0.052  1.00  0.00     0.059 C 
HETATM   15  C12 UNL     1      -4.370   0.600  -0.551  1.00  0.00     0.046 C 
HETATM   16  C13 UNL     1      -2.582   2.242  -0.804  1.00  0.00     0.046 C 
BRANCH  14  17
HETATM   17  O2  UNL     1      -3.106   1.366   1.309  1.00  0.00    -0.390 OA
ATOM     18  H2  UNL     1      -3.755   2.058   1.364  1.00  0.00     0.210 HD
ENDBRANCH  14  17
ENDBRANCH   5  14
BRANCH   4  19
HETATM   19  O1  UNL     1      -3.750  -1.573   0.683  1.00  0.00    -0.395 OA
ATOM     20  H1  UNL     1      -4.248  -0.842   1.030  1.00  0.00     0.210 HD
ENDBRANCH   4  19
TORSDOF 8
