REMARK  7 active torsions:
REMARK  status: ('A' for Active; 'I' for Inactive)
REMARK    1  A    between atoms: N1_2  and  C3_4 
REMARK    2  A    between atoms: C3_4  and  C4_6 
REMARK    3  A    between atoms: C5_7  and  O1_8 
REMARK    4  A    between atoms: C6_12  and  S2_13 
REMARK    5  A    between atoms: S2_13  and  C7_14 
REMARK    6  A    between atoms: C7_14  and  C8_15 
REMARK    7  A    between atoms: C11_27  and  N8_28 
ROOT
HETATM    1  C8  UNL     1       4.736   0.359   0.437  1.00  0.00     0.107 A 
HETATM    2  N3  UNL     1       5.475  -0.114   1.464  1.00  0.00    -0.286 N 
ATOM      3  H3  UNL     1       5.117  -0.346   2.390  1.00  0.00     0.188 HD
HETATM    4  N4  UNL     1       6.749  -0.230   1.076  1.00  0.00    -0.275 N 
ATOM      5  H4  UNL     1       7.521  -0.563   1.654  1.00  0.00     0.189 HD
HETATM    6  C9  UNL     1       6.840   0.168  -0.207  1.00  0.00     0.204 A 
HETATM    7  C10 UNL     1       8.047   0.199  -1.013  1.00  0.00     0.138 C 
HETATM    8  N5  UNL     1       9.006   0.215  -1.665  1.00  0.00    -0.188 NA
HETATM    9  N6  UNL     1       5.595   0.526  -0.582  1.00  0.00    -0.320 N 
ATOM     10  H6  UNL     1       5.342   0.874  -1.507  1.00  0.00     0.169 HD
ENDROOT
BRANCH   1  11
HETATM   11  C7  UNL     1       3.277   0.638   0.433  1.00  0.00     0.160 C 
BRANCH  11  12
HETATM   12  S2  UNL     1       2.319  -0.823  -0.083  1.00  0.00    -0.086 SA
BRANCH  12  13
HETATM   13  C6  UNL     1       0.601  -0.372  -0.049  1.00  0.00     0.148 A 
HETATM   14  N2  UNL     1      -0.095  -0.557   1.084  1.00  0.00    -0.317 N 
HETATM   15  C5  UNL     1      -1.399  -0.235   1.172  1.00  0.00     0.159 A 
ATOM     16  H2  UNL     1       0.376  -0.951   1.898  1.00  0.00     0.170 HD
HETATM   17  C4  UNL     1      -2.011   0.294   0.063  1.00  0.00     0.096 A 
HETATM   18  C11 UNL     1      -1.302   0.495  -1.127  1.00  0.00     0.118 A 
HETATM   19  N7  UNL     1       0.017   0.144  -1.140  1.00  0.00    -0.322 N 
ATOM     20  H7  UNL     1       0.565   0.276  -1.990  1.00  0.00     0.169 HD
BRANCH  15  21
HETATM   21  O1  UNL     1      -2.124  -0.420   2.329  1.00  0.00    -0.345 OA
ATOM     22  H1  UNL     1      -1.700  -0.786   3.097  1.00  0.00     0.219 HD
ENDBRANCH  15  21
BRANCH  17  23
HETATM   23  C3  UNL     1      -3.406   0.649   0.125  1.00  0.00     0.116 C 
HETATM   24  S1  UNL     1      -3.805   2.179   0.529  1.00  0.00    -0.059 SA
BRANCH  23  25
HETATM   25  N1  UNL     1      -4.416  -0.324  -0.164  1.00  0.00    -0.380 N 
HETATM   26  C1  UNL     1      -5.816   0.016  -0.107  1.00  0.00     0.150 C 
HETATM   27  C2  UNL     1      -4.030  -1.668  -0.519  1.00  0.00     0.150 C 
ENDBRANCH  23  25
ENDBRANCH  17  23
BRANCH  18  28
HETATM   28  N8  UNL     1      -1.891   0.992  -2.159  1.00  0.00    -0.385 N 
ATOM     29  H82 UNL     1      -2.877   1.254  -2.149  1.00  0.00     0.157 HD
ATOM     30  H81 UNL     1      -1.374   1.138  -3.026  1.00  0.00     0.157 HD
ENDBRANCH  18  28
ENDBRANCH  12  13
ENDBRANCH  11  12
ENDBRANCH   1  11
TORSDOF 7
