REMARK  6 active torsions:
REMARK  status: ('A' for Active; 'I' for Inactive)
REMARK    1  A    between atoms: N1_1  and  N2_4 
REMARK    2  A    between atoms: N2_4  and  C1_6 
REMARK    3  A    between atoms: C1_6  and  N3_8 
REMARK    4  A    between atoms: N3_8  and  C2_10 
REMARK    5  A    between atoms: C3_15  and  S2_16 
REMARK    6  A    between atoms: S2_16  and  N6_17 
ROOT
HETATM    1  C2  UNL     1       0.339  -1.212  -0.931  1.00  0.00     0.701 A 
HETATM    2  N4  UNL     1      -0.655  -2.064  -1.169  1.00  0.00    -0.130 N 
ATOM      3  H4  UNL     1      -0.566  -3.037  -1.462  1.00  0.00     0.205 HD
HETATM    4  N5  UNL     1      -1.778  -1.407  -0.953  1.00  0.00    -0.260 N 
ATOM      5  H5  UNL     1      -2.719  -1.789  -1.051  1.00  0.00     0.190 HD
HETATM    6  C3  UNL     1      -1.477  -0.152  -0.582  1.00  0.00     0.253 A 
HETATM    7  N7  UNL     1      -0.140  -0.012  -0.562  1.00  0.00    -0.162 N 
ATOM      8  H7  UNL     1       0.394   0.823  -0.320  1.00  0.00     0.186 HD
ENDROOT
BRANCH   1   9
HETATM    9  N3  UNL     1       1.584  -1.529  -1.047  1.00  0.00    -0.163 N 
ATOM     10  H3  UNL     1       1.858  -2.469  -1.333  1.00  0.00     0.186 HD
BRANCH   9  11
HETATM   11  C1  UNL     1       2.557  -0.547  -0.769  1.00  0.00     0.204 C 
HETATM   12  S1  UNL     1       3.389   0.079  -2.013  1.00  0.00    -0.039 SA
BRANCH  11  13
HETATM   13  N2  UNL     1       2.792  -0.128   0.561  1.00  0.00    -0.282 N 
ATOM     14  H2  UNL     1       2.251  -0.543   1.319  1.00  0.00     0.189 HD
BRANCH  13  15
HETATM   15  N1  UNL     1       3.761   0.853   0.859  1.00  0.00    -0.343 N 
ATOM     16  H12 UNL     1       4.294   1.258   0.089  1.00  0.00     0.176 HD
ATOM     17  H11 UNL     1       3.931   1.155   1.818  1.00  0.00     0.176 HD
ENDBRANCH  13  15
ENDBRANCH  11  13
ENDBRANCH   9  11
ENDBRANCH   1   9
BRANCH   6  18
HETATM   18  S2  UNL     1      -2.700   1.059  -0.198  1.00  0.00     0.290 S 
HETATM   19  O1  UNL     1      -3.536   1.214  -1.455  1.00  0.00    -0.198 OA
HETATM   20  O2  UNL     1      -2.085   2.349   0.194  1.00  0.00    -0.198 OA
BRANCH  18  21
HETATM   21  N6  UNL     1      -3.623   0.463   1.114  1.00  0.00    -0.322 N 
ATOM     22  H62 UNL     1      -3.479  -0.433   1.579  1.00  0.00     0.169 HD
ATOM     23  H61 UNL     1      -4.330   1.163   1.336  1.00  0.00     0.169 HD
ENDBRANCH  18  21
ENDBRANCH   6  18
TORSDOF 6
