REMARK  5 active torsions:
REMARK  status: ('A' for Active; 'I' for Inactive)
REMARK    1  A    between atoms: C3_5  and  N2_6 
REMARK    2  A    between atoms: C4_9  and  C5_10 
REMARK       I    between atoms: C5_10  and  N3_12 
REMARK    3  A    between atoms: N3_12  and  N4_14 
REMARK    4  A    between atoms: C6_19  and  S1_20 
REMARK    5  A    between atoms: S1_20  and  N6_21 
ROOT
HETATM    1  C1  UNL     1      -2.068   1.812   1.507  1.00  0.00     0.071 C 
HETATM    2  C2  UNL     1      -0.928   1.200   0.778  1.00  0.00     0.047 A 
HETATM    3  N1  UNL     1       0.244   1.860   0.741  1.00  0.00    -0.342 N 
ATOM      4  H1  UNL     1       0.330   2.762   1.210  1.00  0.00     0.167 HD
HETATM    5  C3  UNL     1       1.303   1.345   0.093  1.00  0.00     0.132 A 
HETATM    6  C4  UNL     1       1.226   0.122  -0.557  1.00  0.00     0.147 A 
HETATM    7  N5  UNL     1       0.037  -0.521  -0.505  1.00  0.00    -0.336 N 
ATOM      8  H5  UNL     1      -0.060  -1.423  -0.971  1.00  0.00     0.167 HD
HETATM    9  C6  UNL     1      -1.020  -0.003   0.144  1.00  0.00     0.172 A 
ENDROOT
BRANCH   6  10
HETATM   10  C5  UNL     1       2.368  -0.436  -1.257  1.00  0.00     0.289 C 
HETATM   11  O1  UNL     1       3.435   0.206  -1.268  1.00  0.00    -0.264 OA
HETATM   12  N3  UNL     1       2.228  -1.687  -1.900  1.00  0.00    -0.271 N 
ATOM     13  H3  UNL     1       1.341  -2.190  -1.873  1.00  0.00     0.189 HD
BRANCH  12  14
HETATM   14  N4  UNL     1       3.333  -2.221  -2.575  1.00  0.00    -0.342 N 
ATOM     15  H42 UNL     1       4.213  -1.705  -2.593  1.00  0.00     0.176 HD
ATOM     16  H41 UNL     1       3.232  -3.124  -3.039  1.00  0.00     0.176 HD
ENDBRANCH  12  14
ENDBRANCH   6  10
BRANCH   5  17
HETATM   17  N2  UNL     1       2.415   1.983   0.065  1.00  0.00    -0.383 N 
ATOM     18  H22 UNL     1       2.472   2.882   0.543  1.00  0.00     0.157 HD
ATOM     19  H21 UNL     1       3.219   1.592  -0.427  1.00  0.00     0.157 HD
ENDBRANCH   5  17
BRANCH   9  20
HETATM   20  S1  UNL     1      -2.518  -0.892   0.166  1.00  0.00     0.274 S 
HETATM   21  O2  UNL     1      -2.565  -1.770  -1.054  1.00  0.00    -0.199 OA
HETATM   22  O3  UNL     1      -3.715   0.020   0.187  1.00  0.00    -0.199 OA
BRANCH  20  23
HETATM   23  N6  UNL     1      -2.541  -1.948   1.552  1.00  0.00    -0.323 N 
ATOM     24  H62 UNL     1      -1.787  -2.023   2.235  1.00  0.00     0.169 HD
ATOM     25  H61 UNL     1      -3.418  -2.469   1.565  1.00  0.00     0.169 HD
ENDBRANCH  20  23
ENDBRANCH   9  20
TORSDOF 5
