REMARK  6 active torsions:
REMARK  status: ('A' for Active; 'I' for Inactive)
REMARK    1  A    between atoms: N1_2  and  N2_4 
REMARK    2  A    between atoms: N2_4  and  C2_6 
REMARK    3  A    between atoms: C5_15  and  N6_16 
REMARK    4  A    between atoms: N6_16  and  C6_18 
REMARK    5  A    between atoms: C6_18  and  N7_19 
REMARK    6  A    between atoms: C6_18  and  C7_23 
ROOT
HETATM    1  C2  UNL     1       2.805  -0.921  -0.018  1.00  0.00     0.152 A 
HETATM    2  N3  UNL     1       3.168  -2.056   0.677  1.00  0.00    -0.336 N 
ATOM      3  H3  UNL     1       4.138  -2.372   0.681  1.00  0.00     0.168 HD
HETATM    4  C3  UNL     1       2.241  -2.728   1.338  1.00  0.00     0.183 A 
HETATM    5  N4  UNL     1       0.955  -2.361   1.368  1.00  0.00    -0.336 N 
ATOM      6  H4  UNL     1       0.276  -2.913   1.893  1.00  0.00     0.168 HD
HETATM    7  C4  UNL     1       0.563  -1.265   0.705  1.00  0.00     0.153 A 
HETATM    8  N5  UNL     1      -0.638  -0.671   0.561  1.00  0.00    -0.174 N 
ATOM      9  H5  UNL     1      -1.513  -0.996   0.973  1.00  0.00     0.186 HD
HETATM   10  C5  UNL     1      -0.499   0.404  -0.203  1.00  0.00     0.682 A 
HETATM   11  N9  UNL     1       0.807   0.482  -0.541  1.00  0.00    -0.184 N 
ATOM     12  H9  UNL     1       1.221   1.207  -1.127  1.00  0.00     0.184 HD
HETATM   13  C8  UNL     1       1.474  -0.537   0.010  1.00  0.00     0.139 A 
ENDROOT
BRANCH  10  14
HETATM   14  N6  UNL     1      -1.380   1.223  -0.570  1.00  0.00    -0.188 N 
ATOM     15  H6  UNL     1      -1.056   1.988  -1.162  1.00  0.00     0.180 HD
BRANCH  14  16
HETATM   16  C6  UNL     1      -2.764   1.222  -0.268  1.00  0.00     0.385 C 
BRANCH  16  17
HETATM   17  N7  UNL     1      -3.005   1.235   1.185  1.00  0.00    -0.049 N 
ATOM     18  H73 UNL     1      -2.523   0.465   1.649  1.00  0.00     0.277 HD
ATOM     19  H72 UNL     1      -2.527   2.016   1.634  1.00  0.00     0.277 HD
ATOM     20  H71 UNL     1      -4.002   1.234   1.402  1.00  0.00     0.277 HD
ENDBRANCH  16  17
BRANCH  16  21
HETATM   21  C7  UNL     1      -3.546   0.161  -0.879  1.00  0.00     0.281 C 
HETATM   22  N8  UNL     1      -4.935   0.072  -0.641  1.00  0.00    -0.059 NA
HETATM   23  O1  UNL     1      -2.998  -0.681  -1.618  1.00  0.00    -0.273 OA
ENDBRANCH  16  21
ENDBRANCH  14  16
ENDBRANCH  10  14
BRANCH   1  24
HETATM   24  N2  UNL     1       3.718  -0.308  -0.635  1.00  0.00    -0.285 N 
ATOM     25  H2  UNL     1       4.655  -0.706  -0.567  1.00  0.00     0.188 HD
BRANCH  24  26
HETATM   26  N1  UNL     1       3.598   0.817  -1.377  1.00  0.00    -0.320 N 
HETATM   27  C1  UNL     1       4.451   1.784  -1.375  1.00  0.00     0.139 C 
ATOM     28  H1  UNL     1       2.779   0.906  -1.978  1.00  0.00     0.185 HD
ENDBRANCH  24  26
ENDBRANCH   1  24
TORSDOF 6
