REMARK  2 active torsions:
REMARK  status: ('A' for Active; 'I' for Inactive)
REMARK    1  A    between atoms: N2_3  and  C2_5 
REMARK    2  A    between atoms: C8_19  and  N6_20 
ROOT
HETATM    1  N1  UNL     1       0.331   4.799   0.153  1.00  0.00    -0.172 NA
HETATM    2  C1  UNL     1       0.129   3.739  -0.277  1.00  0.00     0.179 C 
HETATM    3  N2  UNL     1      -0.143   2.453  -0.796  1.00  0.00    -0.305 N 
ATOM      4  H2  UNL     1      -0.170   2.324  -1.807  1.00  0.00     0.173 HD
ENDROOT
BRANCH   3   5
HETATM    5  C2  UNL     1      -0.385   1.314   0.063  1.00  0.00     0.222 C 
HETATM    6  N3  UNL     1       0.734   0.880   0.813  1.00  0.00    -0.398 N 
HETATM    7  C3  UNL     1       1.901   1.723   0.808  1.00  0.00     0.143 C 
ATOM      8  H3  UNL     1       0.714   0.005   1.336  1.00  0.00     0.155 HD
HETATM    9  C4  UNL     1       3.079   0.801   1.172  1.00  0.00     0.251 C 
HETATM   10  N4  UNL     1       3.304  -0.107   0.061  1.00  0.00    -0.072 N 
HETATM   11  C5  UNL     1       2.711  -1.424   0.281  1.00  0.00     0.259 C 
ATOM     12  H42 UNL     1       2.978   0.299  -0.816  1.00  0.00     0.277 HD
ATOM     13  H41 UNL     1       4.298  -0.184  -0.153  1.00  0.00     0.277 HD
HETATM   14  C6  UNL     1       1.779  -1.774  -0.879  1.00  0.00     0.259 C 
HETATM   15  N5  UNL     1       1.274  -0.529  -1.386  1.00  0.00    -0.071 N 
HETATM   16  C7  UNL     1      -0.116  -0.526  -1.671  1.00  0.00     0.272 C 
ATOM     17  H52 UNL     1       1.507   0.233  -0.749  1.00  0.00     0.277 HD
ATOM     18  H51 UNL     1       1.805  -0.240  -2.208  1.00  0.00     0.277 HD
HETATM   19  C8  UNL     1      -1.018   0.203  -0.754  1.00  0.00     0.292 C 
BRANCH  19  20
HETATM   20  N6  UNL     1      -1.804  -0.709   0.016  1.00  0.00     0.125 N 
HETATM   21  C9  UNL     1      -3.019  -1.116  -0.725  1.00  0.00     0.302 C 
HETATM   22  C10 UNL     1      -3.777  -1.820   0.395  1.00  0.00     0.264 C 
HETATM   23  N7  UNL     1      -3.268  -1.233   1.624  1.00  0.00    -0.047 N 
HETATM   24  C11 UNL     1      -2.448  -0.096   1.159  1.00  0.00     0.503 C 
ATOM     25  H72 UNL     1      -3.989  -0.982   2.300  1.00  0.00     0.279 HD
ATOM     26  H71 UNL     1      -2.774  -1.888   2.230  1.00  0.00     0.279 HD
ENDBRANCH  19  20
ENDBRANCH   3   5
TORSDOF 2
