REMARK  13 active torsions:
REMARK  status: ('A' for Active; 'I' for Inactive)
REMARK    1  A    between atoms: C2_2  and  C3_3 
REMARK    2  A    between atoms: C3_3  and  C4_4 
REMARK    3  A    between atoms: C9_9  and  O1_10 
REMARK    4  A    between atoms: O1_10  and  C10_11 
REMARK    5  A    between atoms: C12_13  and  O2_14 
REMARK    6  A    between atoms: C13_16  and  O3_17 
REMARK    7  A    between atoms: C14_19  and  C15_20 
REMARK    8  A    between atoms: C15_20  and  O4_21 
REMARK    9  A    between atoms: O4_21  and  C16_22 
REMARK   10  A    between atoms: C17_24  and  C18_25 
REMARK   11  A    between atoms: C19_28  and  O8_29 
REMARK   12  A    between atoms: C20_31  and  O9_32 
REMARK   13  A    between atoms: C21_34  and  O10_35 
ROOT
HETATM    1  C10 UNL     1      -1.083  -0.928   0.755  1.00  0.00     0.263 C 
HETATM    2  C11 UNL     1      -1.463  -2.063   1.684  1.00  0.00     0.095 C 
HETATM    3  C12 UNL     1      -0.617  -1.978   2.935  1.00  0.00     0.154 C 
HETATM    4  C13 UNL     1       0.216  -0.730   2.941  1.00  0.00     0.178 C 
HETATM    5  C14 UNL     1       0.975  -0.521   1.657  1.00  0.00     0.179 C 
HETATM    6  O11 UNL     1       0.284  -0.962   0.542  1.00  0.00    -0.351 OA
ENDROOT
BRANCH   5   7
HETATM    7  C15 UNL     1       1.287   0.958   1.558  1.00  0.00     0.205 C 
BRANCH   7   8
HETATM    8  O4  UNL     1       2.055   1.296   0.478  1.00  0.00    -0.356 OA
BRANCH   8   9
HETATM    9  C16 UNL     1       3.296   0.724   0.394  1.00  0.00     0.292 C 
HETATM   10  O5  UNL     1       3.273  -0.100  -0.757  1.00  0.00    -0.340 OA
HETATM   11  C17 UNL     1       4.443  -0.802  -0.919  1.00  0.00     0.256 C 
HETATM   12  C19 UNL     1       5.498   0.216  -1.372  1.00  0.00     0.189 C 
HETATM   13  C20 UNL     1       5.683   1.180  -0.232  1.00  0.00     0.183 C 
HETATM   14  C21 UNL     1       4.414   1.734   0.308  1.00  0.00     0.204 C 
BRANCH  11  15
HETATM   15  C18 UNL     1       4.231  -1.823  -1.965  1.00  0.00     0.206 C 
HETATM   16  O6  UNL     1       3.142  -1.977  -2.570  1.00  0.00    -0.646 OA
HETATM   17  O7  UNL     1       5.278  -2.663  -2.307  1.00  0.00    -0.646 OA
ENDBRANCH  11  15
BRANCH  12  18
HETATM   18  O8  UNL     1       5.020   0.915  -2.465  1.00  0.00    -0.390 OA
ATOM     19  H8  UNL     1       5.673   1.545  -2.745  1.00  0.00     0.210 HD
ENDBRANCH  12  18
BRANCH  13  20
HETATM   20  O9  UNL     1       6.452   2.245  -0.719  1.00  0.00    -0.390 OA
ATOM     21  H9  UNL     1       6.569   2.854   0.001  1.00  0.00     0.210 HD
ENDBRANCH  13  20
BRANCH  14  22
HETATM   22  O10 UNL     1       4.038   2.872  -0.414  1.00  0.00    -0.388 OA
ATOM     23  H10 UNL     1       4.742   3.508  -0.468  1.00  0.00     0.210 HD
ENDBRANCH  14  22
ENDBRANCH   8   9
ENDBRANCH   7   8
ENDBRANCH   5   7
BRANCH   4  24
HETATM   24  O3  UNL     1       1.182  -0.898   3.958  1.00  0.00    -0.390 OA
ATOM     25  H3  UNL     1       1.709  -0.108   3.962  1.00  0.00     0.210 HD
ENDBRANCH   4  24
BRANCH   3  26
HETATM   26  O2  UNL     1       0.225  -3.098   3.065  1.00  0.00    -0.393 OA
ATOM     27  H2  UNL     1       0.756  -3.045   3.851  1.00  0.00     0.210 HD
ENDBRANCH   3  26
BRANCH   1  28
HETATM   28  O1  UNL     1      -1.854  -0.846  -0.342  1.00  0.00    -0.356 OA
BRANCH  28  29
HETATM   29  C9  UNL     1      -2.652   0.225  -0.561  1.00  0.00     0.129 C 
HETATM   30  C4  UNL     1      -4.123  -0.052  -0.542  1.00  0.00     0.018 C 
HETATM   31  C5  UNL     1      -4.871   1.254  -0.676  1.00  0.00     0.007 C 
HETATM   32  C6  UNL     1      -3.993   2.464  -0.449  1.00  0.00     0.001 C 
HETATM   33  C7  UNL     1      -2.807   2.496  -1.379  1.00  0.00     0.002 C 
HETATM   34  C8  UNL     1      -2.335   1.085  -1.728  1.00  0.00     0.032 C 
BRANCH  30  35
HETATM   35  C3  UNL     1      -4.593  -0.908  -1.685  1.00  0.00     0.033 C 
BRANCH  35  36
HETATM   36  C2  UNL     1      -6.063  -1.099  -1.544  1.00  0.00    -0.036 C 
HETATM   37  C1  UNL     1      -6.611  -2.307  -1.407  1.00  0.00     0.007 C 
ENDBRANCH  35  36
ENDBRANCH  30  35
ENDBRANCH  28  29
ENDBRANCH   1  28
TORSDOF 13
