REMARK  12 active torsions:
REMARK  status: ('A' for Active; 'I' for Inactive)
REMARK    1  A    between atoms: N1_1  and  C1_4 
REMARK    2  A    between atoms: C4_9  and  C5_10 
REMARK    3  A    between atoms: C6_11  and  O1_12 
REMARK    4  A    between atoms: C7_17  and  N4_18 
REMARK    5  A    between atoms: N6_23  and  C8_24 
REMARK    6  A    between atoms: C8_24  and  C9_25 
REMARK    7  A    between atoms: C9_25  and  O3_26 
REMARK    8  A    between atoms: C10_28  and  C11_29 
REMARK    9  A    between atoms: C11_29  and  N7_30 
REMARK   10  A    between atoms: C11_29  and  S1_34 
REMARK   11  A    between atoms: S1_34  and  N8_37 
REMARK   12  A    between atoms: C12_42  and  N11_43 
ROOT
HETATM    1  C1  UNL     1       0.270   0.447   2.637  1.00  0.00     0.677 A 
HETATM    2  N2  UNL     1      -0.944   0.908   2.326  1.00  0.00    -0.174 N 
ATOM      3  H2  UNL     1      -1.441   1.505   2.987  1.00  0.00     0.186 HD
HETATM    4  C2  UNL     1      -1.515   0.596   1.158  1.00  0.00     0.152 A 
HETATM    5  C3  UNL     1      -0.859  -0.229   0.216  1.00  0.00     0.066 A 
HETATM    6  C4  UNL     1      -1.686  -0.377  -0.860  1.00  0.00     0.083 A 
HETATM    7  N5  UNL     1      -2.814   0.346  -0.570  1.00  0.00    -0.295 N 
ATOM      8  H5  UNL     1      -3.625   0.435  -1.183  1.00  0.00     0.187 HD
HETATM    9  N6  UNL     1      -2.700   0.905   0.605  1.00  0.00    -0.273 N 
HETATM   10  C10 UNL     1       0.395  -0.704   0.537  1.00  0.00     0.090 A 
HETATM   11  N13 UNL     1       0.892  -0.329   1.753  1.00  0.00    -0.192 N 
ATOM     12  H13 UNL     1       1.819  -0.673   2.005  1.00  0.00     0.184 HD
ENDROOT
BRANCH  10  13
HETATM   13  C11 UNL     1       1.148  -1.581  -0.319  1.00  0.00     0.379 C 
BRANCH  13  14
HETATM   14  N7  UNL     1       1.653  -2.618   0.722  1.00  0.00    -0.054 N 
ATOM     15  H73 UNL     1       2.160  -2.234   1.519  1.00  0.00     0.276 HD
ATOM     16  H72 UNL     1       0.932  -3.064   1.289  1.00  0.00     0.276 HD
ATOM     17  H71 UNL     1       2.187  -3.240   0.115  1.00  0.00     0.276 HD
ENDBRANCH  13  14
BRANCH  13  18
HETATM   18  S1  UNL     1       2.664  -0.932  -0.917  1.00  0.00     0.301 S 
HETATM   19  O4  UNL     1       3.728  -2.019  -0.993  1.00  0.00    -0.200 OA
HETATM   20  O5  UNL     1       2.504  -0.417  -2.337  1.00  0.00    -0.200 OA
BRANCH  18  21
HETATM   21  N8  UNL     1       3.332   0.351  -0.011  1.00  0.00    -0.085 N 
HETATM   22  N9  UNL     1       2.797   1.553   0.201  1.00  0.00    -0.196 N 
HETATM   23  N10 UNL     1       3.588   2.290   0.944  1.00  0.00    -0.114 N 
ATOM     24  H9  UNL     1       1.895   1.858  -0.165  1.00  0.00     0.212 HD
HETATM   25  C12 UNL     1       4.662   1.544   1.219  1.00  0.00     0.708 A 
ATOM     26  H10 UNL     1       3.416   3.247   1.252  1.00  0.00     0.207 HD
HETATM   27  N12 UNL     1       4.490   0.356   0.626  1.00  0.00    -0.099 N 
ATOM     28  H12 UNL     1       5.149  -0.422   0.660  1.00  0.00     0.208 HD
BRANCH  25  29
HETATM   29  N11 UNL     1       5.646   1.970   1.939  1.00  0.00    -0.232 N 
ATOM     30 2H11 UNL     1       5.777   2.875   2.391  1.00  0.00     0.174 HD
ATOM     31 1H11 UNL     1       6.466   1.401   2.149  1.00  0.00     0.174 HD
ENDBRANCH  25  29
ENDBRANCH  18  21
ENDBRANCH  13  18
ENDBRANCH  10  13
BRANCH   6  32
HETATM   32  C5  UNL     1      -1.507  -1.127  -2.090  1.00  0.00     0.098 A 
HETATM   33  C6  UNL     1      -1.877  -2.457  -2.273  1.00  0.00     0.177 A 
HETATM   34  N3  UNL     1      -1.605  -2.791  -3.547  1.00  0.00    -0.236 N 
HETATM   35  O2  UNL     1      -1.104  -1.745  -4.111  1.00  0.00    -0.217 OA
ATOM     36  H3  UNL     1      -1.765  -3.699  -3.984  1.00  0.00     0.197 HD
HETATM   37  C7  UNL     1      -1.017  -0.720  -3.307  1.00  0.00     0.181 A 
BRANCH  33  38
HETATM   38  O1  UNL     1      -2.427  -3.290  -1.316  1.00  0.00    -0.344 OA
ATOM     39  H1  UNL     1      -2.679  -4.197  -1.441  1.00  0.00     0.219 HD
ENDBRANCH  33  38
BRANCH  37  40
HETATM   40  N4  UNL     1      -0.560   0.468  -3.587  1.00  0.00    -0.377 N 
ATOM     41  H42 UNL     1      -0.492   1.269  -2.959  1.00  0.00     0.158 HD
ATOM     42  H41 UNL     1      -0.196   0.770  -4.491  1.00  0.00     0.158 HD
ENDBRANCH  37  40
ENDBRANCH   6  32
BRANCH   1  43
HETATM   43  N1  UNL     1       0.840   0.749   3.785  1.00  0.00    -0.234 N 
ATOM     44  H12 UNL     1       0.363   1.344   4.463  1.00  0.00     0.174 HD
ATOM     45  H11 UNL     1       1.767   0.397   4.023  1.00  0.00     0.174 HD
ENDBRANCH   1  43
BRANCH   9  46
HETATM   46  C8  UNL     1      -3.737   1.738   1.193  1.00  0.00     0.177 C 
BRANCH  46  47
HETATM   47  C9  UNL     1      -3.565   3.189   0.826  1.00  0.00     0.185 C 
BRANCH  47  48
HETATM   48  O3  UNL     1      -4.605   3.893   1.438  1.00  0.00    -0.399 OA
ATOM     49  H3  UNL     1      -4.497   4.808   1.207  1.00  0.00     0.209 HD
ENDBRANCH  47  48
ENDBRANCH  46  47
ENDBRANCH   9  46
TORSDOF 12
