REMARK  9 active torsions:
REMARK  status: ('A' for Active; 'I' for Inactive)
REMARK    1  A    between atoms: C4_4  and  C5_5 
REMARK    2  A    between atoms: C5_5  and  N1_6 
REMARK    3  A    between atoms: C8_9  and  C9_10 
REMARK    4  A    between atoms: C10_13  and  N3_14 
REMARK    5  A    between atoms: N3_14  and  C11_16 
REMARK    6  A    between atoms: C11_16  and  C12_20 
REMARK    7  A    between atoms: C12_20  and  O1_21 
REMARK    8  A    between atoms: O1_21  and  C13_22 
REMARK    9  A    between atoms: C13_22  and  C14_23 
ROOT
HETATM    1  C1  UNL     1      -7.442   5.139  -0.548  1.00  0.00     0.027 C 
HETATM    2  C2  UNL     1      -7.116   4.008  -0.234  1.00  0.00    -0.026 C 
HETATM    3  C3  UNL     1      -6.733   2.698   0.156  1.00  0.00    -0.014 C 
HETATM    4  C4  UNL     1      -6.426   1.582   0.494  1.00  0.00    -0.072 C 
ENDROOT
BRANCH   4   5
HETATM    5  C5  UNL     1      -6.074   0.227   0.920  1.00  0.00     0.223 C 
BRANCH   5   6
HETATM    6  N1  UNL     1      -4.691  -0.097   0.651  1.00  0.00    -0.350 N 
HETATM    7  C6  UNL     1      -3.775   0.168   1.585  1.00  0.00     0.093 A 
HETATM    8  C7  UNL     1      -2.451  -0.107   1.408  1.00  0.00     0.031 A 
HETATM    9  C8  UNL     1      -2.011  -0.690   0.210  1.00  0.00    -0.004 A 
HETATM   10  C19 UNL     1      -2.979  -0.939  -0.703  1.00  0.00     0.038 A 
HETATM   11  C20 UNL     1      -4.347  -0.650  -0.510  1.00  0.00     0.009 A 
HETATM   12  C21 UNL     1      -5.325  -0.965  -1.581  1.00  0.00     0.068 C 
BRANCH   9  13
HETATM   13  C9  UNL     1      -0.588  -1.000   0.088  1.00  0.00     0.082 A 
HETATM   14  N2  UNL     1       0.302  -0.952   1.129  1.00  0.00    -0.189 N 
HETATM   15  C10 UNL     1       1.511  -1.260   0.648  1.00  0.00     0.684 A 
ATOM     16  H2  UNL     1       0.081  -0.722   2.098  1.00  0.00     0.184 HD
HETATM   17  N5  UNL     1       1.465  -1.507  -0.646  1.00  0.00    -0.193 N 
HETATM   18  C17 UNL     1       0.148  -1.346  -1.017  1.00  0.00     0.051 A 
ATOM     19  H5  UNL     1       2.246  -1.765  -1.250  1.00  0.00     0.184 HD
HETATM   20  C18 UNL     1      -0.325  -1.512  -2.415  1.00  0.00     0.071 C 
BRANCH  15  21
HETATM   21  N3  UNL     1       2.586  -1.305   1.383  1.00  0.00    -0.179 N 
ATOM     22  H3  UNL     1       2.523  -1.097   2.380  1.00  0.00     0.185 HD
BRANCH  21  23
HETATM   23  C11 UNL     1       3.846  -1.640   0.816  1.00  0.00     0.115 C 
HETATM   24  N4  UNL     1       4.278  -2.843   0.959  1.00  0.00    -0.387 N 
ATOM     25  H42 UNL     1       3.704  -3.511   1.473  1.00  0.00     0.157 HD
ATOM     26  H41 UNL     1       5.182  -3.083   0.552  1.00  0.00     0.157 HD
BRANCH  23  27
HETATM   27  C12 UNL     1       4.679  -0.671   0.071  1.00  0.00     0.245 C 
BRANCH  27  28
HETATM   28  O1  UNL     1       5.837  -1.278  -0.360  1.00  0.00    -0.372 OA
BRANCH  28  29
HETATM   29  C13 UNL     1       6.665  -0.411  -1.071  1.00  0.00     0.261 C 
BRANCH  29  30
HETATM   30  C14 UNL     1       7.072   0.738  -0.261  1.00  0.00    -0.081 C 
HETATM   31  C15 UNL     1       7.397   1.694   0.430  1.00  0.00    -0.109 C 
HETATM   32  C16 UNL     1       7.785   2.849   1.234  1.00  0.00     0.112 C 
ENDBRANCH  29  30
ENDBRANCH  28  29
ENDBRANCH  27  28
ENDBRANCH  23  27
ENDBRANCH  21  23
ENDBRANCH  15  21
ENDBRANCH   9  13
ENDBRANCH   5   6
ENDBRANCH   4   5
TORSDOF 9
