REMARK  11 active torsions:
REMARK  status: ('A' for Active; 'I' for Inactive)
REMARK       I    between atoms: C2_2  and  N1_4 
REMARK    1  A    between atoms: N1_4  and  C3_6 
REMARK    2  A    between atoms: C3_6  and  C4_7 
REMARK    3  A    between atoms: C3_6  and  C24_39 
REMARK    4  A    between atoms: C4_7  and  O3_9 
REMARK    5  A    between atoms: O3_9  and  C5_10 
REMARK    6  A    between atoms: C5_10  and  C6_11 
REMARK    7  A    between atoms: C7_13  and  C8_14 
REMARK    8  A    between atoms: C8_14  and  N2_15 
REMARK       I    between atoms: N2_15  and  C9_17 
REMARK    9  A    between atoms: C9_17  and  O6_19 
REMARK   10  A    between atoms: O6_19  and  C10_20 
REMARK   11  A    between atoms: C23_36  and  O10_37 
ROOT
HETATM    1  C6  UNL     1       0.295  -1.540   0.885  1.00  0.00     0.177 C 
HETATM    2  O4  UNL     1      -0.550  -1.035  -0.024  1.00  0.00    -0.369 OA
HETATM    3  C7  UNL     1      -1.907  -1.249   0.078  1.00  0.00     0.203 C 
HETATM    4  C14 UNL     1      -2.180  -2.685   0.066  1.00  0.00     0.201 C 
HETATM    5  O7  UNL     1      -2.026  -3.179   1.295  1.00  0.00    -0.322 OA
HETATM    6  C15 UNL     1      -1.520  -4.453   1.391  1.00  0.00     0.270 C 
HETATM    7  O8  UNL     1      -0.193  -4.351   1.576  1.00  0.00    -0.352 OA
HETATM    8  C16 UNL     1       0.627  -4.029   0.548  1.00  0.00     0.160 C 
HETATM    9  C17 UNL     1       0.168  -4.578  -0.754  1.00  0.00     0.018 C 
HETATM   10  C18 UNL     1      -0.822  -5.739  -0.500  1.00  0.00     0.019 C 
HETATM   11  C19 UNL     1      -2.046  -5.136   0.169  1.00  0.00     0.071 C 
HETATM   12  C20 UNL     1      -2.830  -4.267  -0.752  1.00  0.00     0.143 C 
HETATM   13  O9  UNL     1      -3.484  -3.157  -0.212  1.00  0.00    -0.346 OA
HETATM   14  C21 UNL     1      -1.865  -3.214  -1.223  1.00  0.00     0.081 C 
HETATM   15  C22 UNL     1      -0.580  -3.679  -1.681  1.00  0.00     0.020 C 
HETATM   16  C23 UNL     1       1.195  -2.628   0.528  1.00  0.00     0.178 C 
ENDROOT
BRANCH   1  17
HETATM   17  C5  UNL     1       0.953  -0.417   1.622  1.00  0.00     0.213 C 
BRANCH  17  18
HETATM   18  O3  UNL     1       1.706   0.539   1.110  1.00  0.00    -0.317 OA
BRANCH  18  19
HETATM   19  C4  UNL     1       2.944   0.660   0.606  1.00  0.00     0.282 C 
HETATM   20  O2  UNL     1       3.668  -0.376   0.575  1.00  0.00    -0.263 OA
BRANCH  19  21
HETATM   21  C3  UNL     1       3.572   1.902   0.073  1.00  0.00     0.187 C 
BRANCH  21  22
HETATM   22  N1  UNL     1       4.905   1.667  -0.313  1.00  0.00    -0.347 N 
HETATM   23  C2  UNL     1       6.023   2.362  -0.750  1.00  0.00     0.214 C 
HETATM   24  C1  UNL     1       7.276   1.494  -1.062  1.00  0.00     0.117 C 
HETATM   25  O1  UNL     1       6.174   3.576  -0.933  1.00  0.00    -0.274 OA
ATOM     26  H1  UNL     1       5.115   0.671  -0.252  1.00  0.00     0.163 HD
ENDBRANCH  21  22
BRANCH  21  27
HETATM   27  C24 UNL     1       3.343   3.048   1.034  1.00  0.00     0.010 C 
HETATM   28  C25 UNL     1       3.651   4.403   0.484  1.00  0.00     0.012 C 
HETATM   29  C26 UNL     1       1.941   3.104   1.595  1.00  0.00     0.012 C 
ENDBRANCH  21  27
ENDBRANCH  19  21
ENDBRANCH  18  19
ENDBRANCH  17  18
ENDBRANCH   1  17
BRANCH  16  30
HETATM   30  O10 UNL     1       1.802  -2.543  -0.741  1.00  0.00    -0.390 OA
ATOM     31  H10 UNL     1       2.389  -3.253  -0.974  1.00  0.00     0.210 HD
ENDBRANCH  16  30
BRANCH   3  32
HETATM   32  C8  UNL     1      -2.569  -0.482   1.177  1.00  0.00     0.162 C 
BRANCH  32  33
HETATM   33  N2  UNL     1      -2.498   0.941   1.059  1.00  0.00    -0.334 N 
HETATM   34  C9  UNL     1      -3.068   1.718   0.020  1.00  0.00     0.361 C 
HETATM   35  O5  UNL     1      -3.707   1.098  -0.883  1.00  0.00    -0.238 OA
ATOM     36  H2  UNL     1      -1.991   1.442   1.789  1.00  0.00     0.164 HD
BRANCH  34  37
HETATM   37  O6  UNL     1      -2.994   3.077  -0.104  1.00  0.00    -0.294 OA
BRANCH  37  38
HETATM   38  C10 UNL     1      -3.602   3.795  -1.166  1.00  0.00     0.061 C 
HETATM   39  C11 UNL     1      -5.104   3.487  -1.021  1.00  0.00     0.046 C 
HETATM   40  C12 UNL     1      -3.198   3.343  -2.529  1.00  0.00     0.046 C 
HETATM   41  C13 UNL     1      -3.425   5.274  -1.088  1.00  0.00     0.046 C 
ENDBRANCH  37  38
ENDBRANCH  34  37
ENDBRANCH  32  33
ENDBRANCH   3  32
TORSDOF 11
