REMARK  1 active torsions:
REMARK  status: ('A' for Active; 'I' for Inactive)
REMARK    1  A    between atoms: N1_5  and  C5_6 
ROOT
HETATM    1  C1  UNL     1       3.907   0.705  -0.256  1.00  0.00     0.019 C 
HETATM    2  C2  UNL     1       2.805   0.220  -0.137  1.00  0.00    -0.058 C 
HETATM    3  C3  UNL     1       1.485  -0.343  -0.008  1.00  0.00     0.102 A 
HETATM    4  C4  UNL     1       0.266   0.330  -0.117  1.00  0.00     0.136 A 
HETATM    5  N1  UNL     1      -0.763  -0.506   0.060  1.00  0.00    -0.327 N 
HETATM    6  C7  UNL     1      -0.198  -1.728   0.283  1.00  0.00     0.188 A 
HETATM    7  N2  UNL     1       1.142  -1.621   0.241  1.00  0.00    -0.344 N 
ATOM      8  H2  UNL     1       1.798  -2.390   0.377  1.00  0.00     0.167 HD
ENDROOT
BRANCH   5   9
HETATM    9  C5  UNL     1      -2.151  -0.200   0.024  1.00  0.00     0.087 C 
HETATM   10  C6  UNL     1      -2.510   1.045  -0.207  1.00  0.00     0.030 C 
ENDBRANCH   5   9
TORSDOF 1
