REMARK  9 active torsions:
REMARK  status: ('A' for Active; 'I' for Inactive)
REMARK    1  A    between atoms: C3_3  and  C4_4 
REMARK    2  A    between atoms: C7_7  and  O1_8 
REMARK    3  A    between atoms: O1_8  and  C8_9 
REMARK    4  A    between atoms: C10_11  and  O2_12 
REMARK    5  A    between atoms: O2_12  and  C11_13 
REMARK    6  A    between atoms: C11_13  and  C12_14 
REMARK       I    between atoms: C12_14  and  N1_16 
REMARK    7  A    between atoms: N1_16  and  C13_18 
REMARK    8  A    between atoms: C18_28  and  N4_29 
REMARK    9  A    between atoms: N4_29  and  N5_31 
ROOT
HETATM    1  C1  UNL     1      -2.991   1.769   3.532  1.00  0.00     0.012 C 
HETATM    2  C2  UNL     1      -3.129   1.817   2.328  1.00  0.00    -0.112 C 
HETATM    3  C3  UNL     1      -3.263   1.882   0.880  1.00  0.00     0.146 C 
ENDROOT
BRANCH   3   4
HETATM    4  C4  UNL     1      -2.874   0.631   0.174  1.00  0.00     0.081 A 
HETATM    5  C5  UNL     1      -1.685   0.531  -0.395  1.00  0.00     0.014 A 
HETATM    6  C6  UNL     1      -0.986   1.717  -0.188  1.00  0.00     0.054 A 
HETATM    7  C17 UNL     1      -1.030  -0.436  -1.129  1.00  0.00     0.063 A 
HETATM    8  C7  UNL     1       0.277   1.975  -0.656  1.00  0.00     0.103 A 
HETATM    9  C10 UNL     1       0.910   0.958  -1.402  1.00  0.00     0.104 A 
HETATM   10  C16 UNL     1       0.260  -0.225  -1.630  1.00  0.00     0.070 A 
HETATM   11  N3  UNL     1      -1.420  -1.586  -1.472  1.00  0.00    -0.189 N 
HETATM   12  C18 UNL     1      -2.590  -2.355  -1.291  1.00  0.00     0.711 A 
ATOM     13  H3  UNL     1      -0.714  -2.084  -2.015  1.00  0.00     0.184 HD
HETATM   14  N6  UNL     1      -3.615  -1.995  -0.630  1.00  0.00    -0.111 N 
HETATM   15  S2  UNL     1      -4.085  -0.653   0.245  1.00  0.00     0.274 S 
ATOM     16  H6  UNL     1      -4.339  -2.714  -0.636  1.00  0.00     0.197 HD
HETATM   17  O6  UNL     1      -4.155  -1.033   1.720  1.00  0.00    -0.200 OA
HETATM   18  O7  UNL     1      -5.430  -0.112  -0.189  1.00  0.00    -0.200 OA
BRANCH   8  19
HETATM   19  O1  UNL     1       0.918   3.153  -0.424  1.00  0.00    -0.349 OA
BRANCH  19  20
HETATM   20  C8  UNL     1       0.389   4.201   0.320  1.00  0.00     0.171 C 
HETATM   21  C9  UNL     1       0.109   3.917   1.758  1.00  0.00     0.034 C 
ENDBRANCH  19  20
ENDBRANCH   8  19
BRANCH   9  22
HETATM   22  O2  UNL     1       2.166   1.202  -1.870  1.00  0.00    -0.339 OA
BRANCH  22  23
HETATM   23  C11 UNL     1       3.030   0.405  -2.588  1.00  0.00     0.278 C 
BRANCH  23  24
HETATM   24  C12 UNL     1       3.479  -0.822  -1.890  1.00  0.00     0.247 C 
HETATM   25  O3  UNL     1       4.206  -1.651  -2.524  1.00  0.00    -0.271 OA
HETATM   26  N1  UNL     1       3.158  -1.135  -0.565  1.00  0.00    -0.305 N 
ATOM     27  H1  UNL     1       2.234  -0.892  -0.207  1.00  0.00     0.171 HD
BRANCH  26  28
HETATM   28  C13 UNL     1       4.019  -1.736   0.234  1.00  0.00     0.150 A 
HETATM   29  N2  UNL     1       3.838  -2.086   1.506  1.00  0.00    -0.346 N 
HETATM   30  C14 UNL     1       4.808  -2.674   2.136  1.00  0.00     0.097 A 
ATOM     31  H2  UNL     1       2.953  -1.895   1.976  1.00  0.00     0.167 HD
HETATM   32  C15 UNL     1       5.975  -2.905   1.456  1.00  0.00     0.070 A 
HETATM   33  S1  UNL     1       5.616  -2.255  -0.082  1.00  0.00    -0.064 SA
ENDBRANCH  26  28
ENDBRANCH  23  24
ENDBRANCH  22  23
ENDBRANCH   9  22
BRANCH  12  34
HETATM   34  N4  UNL     1      -2.675  -3.644  -1.877  1.00  0.00    -0.071 N 
ATOM     35  H4  UNL     1      -2.069  -3.866  -2.667  1.00  0.00     0.212 HD
BRANCH  34  36
HETATM   36  N5  UNL     1      -3.553  -4.613  -1.415  1.00  0.00    -0.024 N 
HETATM   37  O4  UNL     1      -3.109  -5.576  -0.770  1.00  0.00    -0.516 OA
HETATM   38  O5  UNL     1      -4.913  -4.566  -1.637  1.00  0.00    -0.516 OA
ENDBRANCH  34  36
ENDBRANCH  12  34
ENDBRANCH   3   4
TORSDOF 9
