REMARK  11 active torsions:
REMARK  status: ('A' for Active; 'I' for Inactive)
REMARK       I    between atoms: C2_2  and  N1_4 
REMARK    1  A    between atoms: N1_4  and  C3_6 
REMARK    2  A    between atoms: C5_13  and  N5_14 
REMARK    3  A    between atoms: N5_14  and  C6_16 
REMARK    4  A    between atoms: C6_16  and  O2_18 
REMARK    5  A    between atoms: C8_20  and  C9_21 
REMARK    6  A    between atoms: C9_21  and  O3_22 
REMARK    7  A    between atoms: C9_21  and  C10_24 
REMARK    8  A    between atoms: C10_24  and  O4_25 
REMARK    9  A    between atoms: C10_24  and  C11_27 
REMARK   10  A    between atoms: C11_27  and  O5_28 
REMARK   11  A    between atoms: C13_32  and  C14_33 
ROOT
HETATM    1  C3  UNL     1       3.912   0.432  -0.324  1.00  0.00     0.720 C 
HETATM    2  N2  UNL     1       2.606   0.724  -0.272  1.00  0.00    -0.113 N 
ATOM      3  H2  UNL     1       2.318   1.678  -0.055  1.00  0.00     0.206 HD
HETATM    4  N3  UNL     1       1.614  -0.259  -0.511  1.00  0.00    -0.096 N 
HETATM    5  C4  UNL     1       0.304   0.202  -0.124  1.00  0.00     0.704 A 
HETATM    6  N4  UNL     1      -0.224   1.439  -0.271  1.00  0.00    -0.173 N 
ATOM      7  H4  UNL     1       0.224   2.251  -0.695  1.00  0.00     0.186 HD
HETATM    8  C5  UNL     1      -1.449   1.381   0.251  1.00  0.00     0.145 A 
HETATM    9  C8  UNL     1      -1.676   0.074   0.728  1.00  0.00     0.104 A 
HETATM   10  N6  UNL     1      -0.572  -0.627   0.480  1.00  0.00    -0.176 N 
HETATM   11  C12 UNL     1      -0.060  -1.943   0.748  1.00  0.00     0.194 C 
HETATM   12  C13 UNL     1       0.813  -2.541  -0.292  1.00  0.00     0.140 C 
HETATM   13  O6  UNL     1       2.015  -3.102   0.200  1.00  0.00    -0.336 OA
HETATM   14  C15 UNL     1       2.836  -2.432  -0.735  1.00  0.00     0.319 C 
HETATM   15  O7  UNL     1       3.968  -1.978  -0.144  1.00  0.00    -0.231 OA
HETATM   16  N8  UNL     1       4.453  -0.830  -0.658  1.00  0.00    -0.092 N 
ATOM     17  H8  UNL     1       5.236  -0.874  -1.310  1.00  0.00     0.213 HD
HETATM   18  C16 UNL     1       1.708  -1.572  -1.037  1.00  0.00     0.226 C 
ENDROOT
BRANCH   9  19
HETATM   19  C9  UNL     1      -2.867  -0.289   1.504  1.00  0.00     0.203 C 
BRANCH  19  20
HETATM   20  O3  UNL     1      -2.375  -1.175   2.574  1.00  0.00    -0.387 OA
ATOM     21  H3  UNL     1      -3.146  -1.410   3.076  1.00  0.00     0.210 HD
ENDBRANCH  19  20
BRANCH  19  22
HETATM   22  C10 UNL     1      -3.859  -1.170   0.824  1.00  0.00     0.176 C 
BRANCH  22  23
HETATM   23  O4  UNL     1      -3.356  -2.292   0.294  1.00  0.00    -0.390 OA
ATOM     24  H4  UNL     1      -3.988  -2.853  -0.139  1.00  0.00     0.210 HD
ENDBRANCH  22  23
BRANCH  22  25
HETATM   25  C11 UNL     1      -4.969  -1.509   1.818  1.00  0.00     0.198 C 
BRANCH  25  26
HETATM   26  O5  UNL     1      -5.988  -2.153   1.076  1.00  0.00    -0.398 OA
ATOM     27  H5  UNL     1      -6.678  -2.364   1.694  1.00  0.00     0.209 HD
ENDBRANCH  25  26
ENDBRANCH  22  25
ENDBRANCH  19  22
ENDBRANCH   9  19
BRANCH   8  28
HETATM   28  N5  UNL     1      -2.359   2.458   0.295  1.00  0.00    -0.348 N 
ATOM     29  H5  UNL     1      -3.256   2.324   0.762  1.00  0.00     0.163 HD
BRANCH  28  30
HETATM   30  C6  UNL     1      -2.070   3.736  -0.293  1.00  0.00     0.215 C 
HETATM   31  C7  UNL     1      -1.947   3.532  -1.811  1.00  0.00     0.063 C 
BRANCH  30  32
HETATM   32  O2  UNL     1      -3.153   4.620  -0.150  1.00  0.00    -0.377 OA
ATOM     33  H2  UNL     1      -2.962   5.465  -0.539  1.00  0.00     0.212 HD
ENDBRANCH  30  32
ENDBRANCH  28  30
ENDBRANCH   8  28
BRANCH  12  34
HETATM   34  C14 UNL     1       0.102  -3.387  -1.278  1.00  0.00     0.095 C 
HETATM   35  N7  UNL     1      -0.703  -2.815  -2.063  1.00  0.00    -0.408 N 
ATOM     36  H72 UNL     1      -0.847  -1.807  -2.008  1.00  0.00     0.155 HD
ATOM     37  H71 UNL     1      -1.193  -3.398  -2.742  1.00  0.00     0.155 HD
ENDBRANCH  12  34
BRANCH   1  38
HETATM   38  N1  UNL     1       4.745   1.532  -0.059  1.00  0.00    -0.157 N 
HETATM   39  C2  UNL     1       6.147   1.450  -0.035  1.00  0.00     0.232 C 
HETATM   40  C1  UNL     1       6.906   2.701   0.268  1.00  0.00     0.118 C 
HETATM   41  O1  UNL     1       6.756   0.398  -0.251  1.00  0.00    -0.273 OA
ATOM     42  H1  UNL     1       4.310   2.436   0.125  1.00  0.00     0.187 HD
ENDBRANCH   1  38
TORSDOF 11
