REMARK  15 active torsions:
REMARK  status: ('A' for Active; 'I' for Inactive)
REMARK    1  A    between atoms: C1_2  and  C2_4 
REMARK    2  A    between atoms: C4_8  and  C5_9 
REMARK    3  A    between atoms: N1_10  and  N2_12 
REMARK    4  A    between atoms: N2_12  and  C6_14 
REMARK    5  A    between atoms: C7_16  and  C8_17 
REMARK    6  A    between atoms: C8_17  and  O6_18 
REMARK    7  A    between atoms: C9_20  and  C10_21 
REMARK    8  A    between atoms: C10_21  and  O7_22 
REMARK    9  A    between atoms: C10_21  and  O8_24 
REMARK   10  A    between atoms: C11_26  and  C12_27 
REMARK   11  A    between atoms: C12_27  and  O9_28 
REMARK   12  A    between atoms: C12_27  and  O10_30 
REMARK   13  A    between atoms: C13_32  and  O11_33 
REMARK   14  A    between atoms: C14_35  and  O12_36 
REMARK   15  A    between atoms: C16_40  and  O14_41 
ROOT
HETATM    1  C6  UNL     1      -1.503  -0.474  -0.936  1.00  0.00     0.197 A 
HETATM    2  O5  UNL     1      -2.557  -0.394  -1.710  1.00  0.00    -0.292 OA
HETATM    3  C7  UNL     1      -3.787  -0.196  -1.244  1.00  0.00     0.090 A 
HETATM    4  C9  UNL     1      -4.003  -0.066   0.099  1.00  0.00     0.042 A 
HETATM    5  C11 UNL     1      -2.917  -0.146   0.933  1.00  0.00     0.047 A 
HETATM    6  C13 UNL     1      -1.617  -0.353   0.453  1.00  0.00     0.130 A 
ENDROOT
BRANCH   1   7
HETATM    7  N2  UNL     1      -0.394  -0.663  -1.502  1.00  0.00    -0.278 N 
ATOM      8  H2  UNL     1      -0.464  -0.731  -2.517  1.00  0.00     0.189 HD
BRANCH   7   9
HETATM    9  N1  UNL     1       0.871  -0.794  -1.041  1.00  0.00    -0.309 N 
HETATM   10  C5  UNL     1       1.662   0.172  -0.880  1.00  0.00     0.127 C 
ATOM     11  H1  UNL     1       1.203  -1.730  -0.810  1.00  0.00     0.186 HD
BRANCH  10  12
HETATM   12  C4  UNL     1       3.024   0.168  -0.403  1.00  0.00     0.093 C 
HETATM   13  C3  UNL     1       3.676   1.401  -0.330  1.00  0.00     0.303 C 
HETATM   14  O3  UNL     1       4.980   1.663  -0.399  1.00  0.00    -0.265 OA
HETATM   15  O4  UNL     1       2.904   2.376  -0.179  1.00  0.00    -0.259 OA
HETATM   16  C2  UNL     1       6.022   0.846  -0.236  1.00  0.00     0.192 C 
HETATM   17  C16 UNL     1       6.002  -0.499  -0.541  1.00  0.00     0.160 C 
HETATM   18  C15 UNL     1       4.950  -1.362  -0.309  1.00  0.00     0.241 C 
HETATM   19  C14 UNL     1       3.601  -1.045  -0.055  1.00  0.00     0.137 C 
HETATM   20  O13 UNL     1       5.180  -2.583  -0.317  1.00  0.00    -0.282 OA
BRANCH  16  21
HETATM   21  C1  UNL     1       7.249   1.409   0.296  1.00  0.00     0.237 C 
HETATM   22  O1  UNL     1       7.217   2.647   0.556  1.00  0.00    -0.642 OA
HETATM   23  O2  UNL     1       8.419   0.758   0.545  1.00  0.00    -0.642 OA
ENDBRANCH  16  21
BRANCH  17  24
HETATM   24  O14 UNL     1       7.115  -1.031  -1.124  1.00  0.00    -0.355 OA
ATOM     25  H14 UNL     1       7.101  -1.957  -1.334  1.00  0.00     0.218 HD
ENDBRANCH  17  24
BRANCH  19  26
HETATM   26  O12 UNL     1       2.841  -1.966   0.557  1.00  0.00    -0.356 OA
ATOM     27  H12 UNL     1       3.236  -2.796   0.795  1.00  0.00     0.218 HD
ENDBRANCH  19  26
ENDBRANCH  10  12
ENDBRANCH   7   9
ENDBRANCH   1   7
BRANCH   6  28
HETATM   28  O11 UNL     1      -0.505  -0.438   1.211  1.00  0.00    -0.356 OA
ATOM     29  H11 UNL     1      -0.582  -0.356   2.154  1.00  0.00     0.218 HD
ENDBRANCH   6  28
BRANCH   3  30
HETATM   30  C8  UNL     1      -4.898  -0.125  -2.210  1.00  0.00     0.230 C 
BRANCH  30  31
HETATM   31  O6  UNL     1      -4.407  -0.253  -3.540  1.00  0.00    -0.394 OA
ATOM     32  H6  UNL     1      -5.123  -0.207  -4.163  1.00  0.00     0.209 HD
ENDBRANCH  30  31
ENDBRANCH   3  30
BRANCH   5  33
HETATM   33  C12 UNL     1      -3.055  -0.017   2.380  1.00  0.00     0.292 C 
BRANCH  33  34
HETATM   34  O9  UNL     1      -2.314  -1.071   2.983  1.00  0.00    -0.367 OA
ATOM     35  H9  UNL     1      -2.404  -0.987   3.925  1.00  0.00     0.213 HD
ENDBRANCH  33  34
BRANCH  33  36
HETATM   36  O10 UNL     1      -2.435   1.147   2.865  1.00  0.00    -0.367 OA
ATOM     37  H10 UNL     1      -2.525   1.231   3.807  1.00  0.00     0.213 HD
ENDBRANCH  33  36
ENDBRANCH   5  33
BRANCH   4  38
HETATM   38  C10 UNL     1      -5.345   0.173   0.596  1.00  0.00     0.291 C 
BRANCH  38  39
HETATM   39  O7  UNL     1      -6.339  -0.652   0.034  1.00  0.00    -0.367 OA
ATOM     40  H7  UNL     1      -7.218  -0.496   0.359  1.00  0.00     0.213 HD
ENDBRANCH  38  39
BRANCH  38  41
HETATM   41  O8  UNL     1      -5.768   1.511   0.313  1.00  0.00    -0.367 OA
ATOM     42  H8  UNL     1      -6.647   1.667   0.638  1.00  0.00     0.213 HD
ENDBRANCH  38  41
ENDBRANCH   4  38
TORSDOF 15
