REMARK  5 active torsions:
REMARK  status: ('A' for Active; 'I' for Inactive)
REMARK       I    between atoms: N1_1  and  C1_5 
REMARK       I    between atoms: C1_5  and  N2_6 
REMARK       I    between atoms: C1_5  and  N3_10 
REMARK    1  A    between atoms: N3_10  and  O1_11 
REMARK    2  A    between atoms: N3_10  and  C2_13 
REMARK    3  A    between atoms: C2_13  and  C3_14 
REMARK    4  A    between atoms: C7_18  and  C8_19 
REMARK    5  A    between atoms: C8_19  and  C9_20 
ROOT
HETATM    1  C3  UNL     1       1.149  -1.099   0.923  1.00  0.00    -0.042 A 
HETATM    2  C4  UNL     1       1.048  -1.230   2.303  1.00  0.00     0.008 A 
HETATM    3  C5  UNL     1      -0.157  -1.513   2.913  1.00  0.00     0.001 A 
HETATM    4  C6  UNL     1      -1.302  -1.674   2.176  1.00  0.00     0.007 A 
HETATM    5  C7  UNL     1      -1.225  -1.549   0.814  1.00  0.00    -0.053 A 
HETATM    6  C15 UNL     1      -0.027  -1.268   0.215  1.00  0.00     0.015 A 
ENDROOT
BRANCH   1   7
HETATM    7  C2  UNL     1       2.424  -0.797   0.234  1.00  0.00     0.163 C 
BRANCH   7   8
HETATM    8  N3  UNL     1       2.638   0.629   0.088  1.00  0.00    -0.141 NA
HETATM    9  C1  UNL     1       3.901   0.842  -0.592  1.00  0.00     0.479 C 
HETATM   10  N1  UNL     1       4.917   0.147   0.175  1.00  0.00    -0.035 N 
HETATM   11  N2  UNL     1       4.251   2.223  -0.700  1.00  0.00    -0.035 N 
ATOM     12  H13 UNL     1       5.851   0.279  -0.212  1.00  0.00     0.278 HD
ATOM     13  H12 UNL     1       5.075   0.578   1.086  1.00  0.00     0.278 HD
ATOM     14  H11 UNL     1       4.667  -0.839   0.252  1.00  0.00     0.278 HD
ATOM     15  H23 UNL     1       4.409   2.654   0.211  1.00  0.00     0.278 HD
ATOM     16  H22 UNL     1       5.185   2.355  -1.087  1.00  0.00     0.278 HD
ATOM     17  H21 UNL     1       3.536   2.712  -1.239  1.00  0.00     0.278 HD
BRANCH   8  18
HETATM   18  O1  UNL     1       1.614   1.236  -0.543  1.00  0.00    -0.309 OA
ATOM     19  H1  UNL     1       0.787   1.096  -0.098  1.00  0.00     0.237 HD
ENDBRANCH   8  18
ENDBRANCH   7   8
ENDBRANCH   1   7
BRANCH   5  20
HETATM   20  C8  UNL     1      -2.411  -1.705  -0.077  1.00  0.00     0.077 C 
BRANCH  20  21
HETATM   21  C9  UNL     1      -3.116  -0.439  -0.306  1.00  0.00    -0.054 A 
HETATM   22  C10 UNL     1      -4.138  -0.044   0.532  1.00  0.00     0.007 A 
HETATM   23  C11 UNL     1      -4.807   1.151   0.319  1.00  0.00     0.001 A 
HETATM   24  C12 UNL     1      -4.455   1.973  -0.748  1.00  0.00     0.000 A 
HETATM   25  C13 UNL     1      -3.449   1.585  -1.575  1.00  0.00     0.001 A 
HETATM   26  C14 UNL     1      -2.785   0.386  -1.354  1.00  0.00     0.007 A 
ENDBRANCH  20  21
ENDBRANCH   5  20
TORSDOF 5
