REMARK  6 active torsions:
REMARK  status: ('A' for Active; 'I' for Inactive)
REMARK    1  A    between atoms: N1_1  and  N2_4 
REMARK    2  A    between atoms: N2_4  and  O1_5 
REMARK    3  A    between atoms: O1_5  and  C1_6 
REMARK    4  A    between atoms: N4_13  and  C6_15 
REMARK    5  A    between atoms: C6_15  and  C7_16 
REMARK    6  A    between atoms: C7_16  and  C8_17 
ROOT
HETATM    1  C1  UNL     1      -2.224   0.380  -0.650  1.00  0.00     0.139 A 
HETATM    2  C2  UNL     1      -3.574   0.306  -0.408  1.00  0.00     0.044 A 
HETATM    3  C3  UNL     1      -4.138  -0.939  -0.275  1.00  0.00     0.020 A 
HETATM    4  C4  UNL     1      -3.416  -2.096  -0.374  1.00  0.00     0.090 A 
HETATM    5  N3  UNL     1      -2.091  -2.000  -0.612  1.00  0.00    -0.350 N 
ATOM      6  H3  UNL     1      -1.531  -2.849  -0.690  1.00  0.00     0.166 HD
HETATM    7  C5  UNL     1      -1.500  -0.800  -0.748  1.00  0.00     0.137 A 
HETATM    8  N4  UNL     1      -0.248  -0.688  -0.976  1.00  0.00    -0.374 N 
ATOM      9  H4  UNL     1       0.108   0.264  -1.066  1.00  0.00     0.161 HD
ENDROOT
BRANCH   1  10
HETATM   10  O1  UNL     1      -1.640   1.625  -0.786  1.00  0.00    -0.221 OA
BRANCH  10  11
HETATM   11  N2  UNL     1      -1.264   2.283   0.344  1.00  0.00     0.020 NA
BRANCH  11  12
HETATM   12  N1  UNL     1      -2.374   2.836   0.957  1.00  0.00    -0.322 N 
ATOM     13  H12 UNL     1      -3.327   2.754   0.602  1.00  0.00     0.174 HD
ATOM     14  H11 UNL     1      -2.092   3.329   1.804  1.00  0.00     0.174 HD
ENDBRANCH  11  12
ENDBRANCH  10  11
ENDBRANCH   1  10
BRANCH   8  15
HETATM   15  C6  UNL     1       0.709  -1.729  -1.120  1.00  0.00     0.126 C 
BRANCH  15  16
HETATM   16  C7  UNL     1       1.614  -1.895   0.087  1.00  0.00     0.058 C 
BRANCH  16  17
HETATM   17  C8  UNL     1       2.370  -0.646   0.326  1.00  0.00    -0.057 A 
HETATM   18  C9  UNL     1       1.894   0.347   1.146  1.00  0.00     0.007 A 
HETATM   19  C10 UNL     1       2.621   1.485   1.340  1.00  0.00     0.001 A 
HETATM   20  C11 UNL     1       3.835   1.669   0.728  1.00  0.00     0.000 A 
HETATM   21  C12 UNL     1       4.336   0.694  -0.097  1.00  0.00     0.001 A 
HETATM   22  C13 UNL     1       3.595  -0.453  -0.288  1.00  0.00     0.007 A 
ENDBRANCH  16  17
ENDBRANCH  15  16
ENDBRANCH   8  15
TORSDOF 6
