REMARK  14 active torsions:
REMARK  status: ('A' for Active; 'I' for Inactive)
REMARK    1  A    between atoms: C4_4  and  O1_5 
REMARK    2  A    between atoms: C5_8  and  O3_9 
REMARK    3  A    between atoms: C7_12  and  O4_13 
REMARK    4  A    between atoms: O4_13  and  C8_14 
REMARK    5  A    between atoms: C11_17  and  C12_18 
REMARK    6  A    between atoms: C11_17  and  C15_26 
REMARK    7  A    between atoms: C12_18  and  O5_19 
REMARK    8  A    between atoms: O5_19  and  C13_20 
REMARK    9  A    between atoms: C13_20  and  C14_21 
REMARK   10  A    between atoms: C14_21  and  N1_22 
REMARK   11  A    between atoms: C15_26  and  N2_27 
REMARK   12  A    between atoms: C18_32  and  C19_33 
REMARK   13  A    between atoms: C19_33  and  O8_34 
REMARK   14  A    between atoms: C20_37  and  O10_38 
ROOT
HETATM    1  C1  UNL     1      -5.204   2.230   1.101  1.00  0.00     0.025 C 
HETATM    2  C2  UNL     1      -4.885   1.033   0.644  1.00  0.00     0.003 C 
HETATM    3  C3  UNL     1      -4.163   0.174   1.573  1.00  0.00     0.046 A 
HETATM    4  C4  UNL     1      -4.366   0.123   2.944  1.00  0.00     0.197 A 
HETATM    5  O2  UNL     1      -3.542  -0.770   3.430  1.00  0.00    -0.263 OA
HETATM    6  C5  UNL     1      -2.815  -1.304   2.450  1.00  0.00     0.195 A 
HETATM    7  C6  UNL     1      -3.177  -0.731   1.242  1.00  0.00     0.047 A 
HETATM    8  C7  UNL     1      -2.621  -1.033  -0.086  1.00  0.00     0.192 C 
HETATM    9  C18 UNL     1      -3.491  -0.715  -1.248  1.00  0.00     0.182 C 
HETATM   10  O9  UNL     1      -4.830  -0.593  -1.049  1.00  0.00    -0.347 OA
HETATM   11  C20 UNL     1      -5.289   0.697  -0.772  1.00  0.00     0.292 C 
ENDROOT
BRANCH   8  12
HETATM   12  O4  UNL     1      -1.469  -0.218  -0.237  1.00  0.00    -0.373 OA
BRANCH  12  13
HETATM   13  C8  UNL     1      -0.301  -0.920  -0.324  1.00  0.00     0.122 C 
HETATM   14  C9  UNL     1       0.440  -0.633  -1.640  1.00  0.00     0.033 C 
HETATM   15  C10 UNL     1       1.942  -0.875  -1.437  1.00  0.00     0.016 C 
HETATM   16  C11 UNL     1       2.495   0.327  -0.764  1.00  0.00     0.003 C 
HETATM   17  C16 UNL     1       1.408   0.813   0.212  1.00  0.00     0.016 C 
HETATM   18  C17 UNL     1       0.641  -0.364   0.755  1.00  0.00     0.033 C 
BRANCH  16  19
HETATM   19  C12 UNL     1       3.657  -0.096   0.121  1.00  0.00     0.179 C 
BRANCH  19  20
HETATM   20  O5  UNL     1       4.209   0.973   0.768  1.00  0.00    -0.389 OA
BRANCH  20  21
HETATM   21  C13 UNL     1       5.258   0.722   1.607  1.00  0.00     0.194 C 
BRANCH  21  22
HETATM   22  C14 UNL     1       6.446   0.103   0.920  1.00  0.00     0.255 C 
BRANCH  22  23
HETATM   23  N1  UNL     1       7.518  -0.123   1.906  1.00  0.00    -0.077 N 
ATOM     24  H13 UNL     1       7.764   0.729   2.411  1.00  0.00     0.274 HD
ATOM     25  H12 UNL     1       7.200  -0.677   2.702  1.00  0.00     0.274 HD
ATOM     26  H11 UNL     1       8.323  -0.542   1.441  1.00  0.00     0.274 HD
ENDBRANCH  22  23
ENDBRANCH  21  22
ENDBRANCH  20  21
ENDBRANCH  19  20
ENDBRANCH  16  19
BRANCH  16  27
HETATM   27  C15 UNL     1       2.841   1.471  -1.650  1.00  0.00     0.213 C 
BRANCH  27  28
HETATM   28  N2  UNL     1       3.833   1.209  -2.654  1.00  0.00    -0.155 N 
HETATM   29  O6  UNL     1       4.400   0.116  -2.769  1.00  0.00    -0.537 OA
HETATM   30  O7  UNL     1       4.180   2.211  -3.524  1.00  0.00    -0.537 OA
ENDBRANCH  27  28
ENDBRANCH  16  27
ENDBRANCH  12  13
ENDBRANCH   8  12
BRANCH   9  31
HETATM   31  C19 UNL     1      -3.325  -1.815  -2.313  1.00  0.00     0.199 C 
BRANCH  31  32
HETATM   32  O8  UNL     1      -3.997  -1.368  -3.450  1.00  0.00    -0.398 OA
ATOM     33  H8  UNL     1      -3.895  -2.047  -4.107  1.00  0.00     0.209 HD
ENDBRANCH  31  32
ENDBRANCH   9  31
BRANCH   6  34
HETATM   34  O3  UNL     1      -1.850  -2.273   2.585  1.00  0.00    -0.340 OA
ATOM     35  H3  UNL     1      -1.331  -2.654   1.886  1.00  0.00     0.220 HD
ENDBRANCH   6  34
BRANCH   4  36
HETATM   36  O1  UNL     1      -5.279   0.891   3.629  1.00  0.00    -0.340 OA
ATOM     37  H1  UNL     1      -5.418   0.856   4.568  1.00  0.00     0.220 HD
ENDBRANCH   4  36
BRANCH  11  38
HETATM   38  O10 UNL     1      -4.790   1.638  -1.665  1.00  0.00    -0.367 OA
ATOM     39  H10 UNL     1      -5.044   1.427  -2.556  1.00  0.00     0.213 HD
ENDBRANCH  11  38
TORSDOF 14
