REMARK  10 active torsions:
REMARK  status: ('A' for Active; 'I' for Inactive)
REMARK    1  A    between atoms: C2_2  and  N1_4 
REMARK    2  A    between atoms: N1_4  and  C4_6 
REMARK    3  A    between atoms: C5_9  and  N3_10 
REMARK    4  A    between atoms: C6_15  and  N6_16 
REMARK    5  A    between atoms: C8_25  and  N10_26 
REMARK    6  A    between atoms: N10_26  and  C9_28 
REMARK    7  A    between atoms: C9_28  and  C10_29 
REMARK    8  A    between atoms: C10_29  and  N11_30 
REMARK    9  A    between atoms: N11_30  and  C11_32 
REMARK   10  A    between atoms: C14_38  and  N14_39 
ROOT
HETATM    1  C4  UNL     1      -1.350   0.916   0.778  1.00  0.00     0.163 A 
HETATM    2  N2  UNL     1      -1.833   1.157   2.034  1.00  0.00    -0.169 N 
ATOM      3  H2  UNL     1      -2.820   1.395   2.137  1.00  0.00     0.186 HD
HETATM    4  C5  UNL     1      -1.072   1.096   3.139  1.00  0.00     0.737 A 
HETATM    5  N8  UNL     1       0.231   0.783   3.006  1.00  0.00    -0.125 N 
ATOM      6  H8  UNL     1       0.811   0.736   3.844  1.00  0.00     0.206 HD
HETATM    7  N9  UNL     1       0.780   0.539   1.854  1.00  0.00    -0.264 N 
HETATM    8  C7  UNL     1       2.180   0.191   1.661  1.00  0.00     0.180 C 
HETATM    9  C8  UNL     1       0.003   0.599   0.691  1.00  0.00     0.167 A 
ENDROOT
BRANCH   9  10
HETATM   10  N10 UNL     1       0.589   0.395  -0.378  1.00  0.00    -0.350 N 
ATOM     11  H10 UNL     1       1.574   0.175  -0.229  1.00  0.00     0.166 HD
BRANCH  10  12
HETATM   12  C9  UNL     1       0.266   0.385  -1.722  1.00  0.00     0.082 C 
BRANCH  12  13
HETATM   13  C10 UNL     1       0.079  -1.006  -2.317  1.00  0.00     0.165 C 
BRANCH  13  14
HETATM   14  N11 UNL     1       1.293  -1.753  -2.168  1.00  0.00    -0.371 N 
ATOM     15  H11 UNL     1       1.269  -2.552  -1.534  1.00  0.00     0.161 HD
BRANCH  14  16
HETATM   16  C11 UNL     1       2.522  -1.487  -2.817  1.00  0.00     0.120 A 
HETATM   17  C12 UNL     1       3.651  -2.271  -2.567  1.00  0.00     0.094 A 
HETATM   18  C13 UNL     1       4.854  -2.051  -3.182  1.00  0.00     0.135 A 
HETATM   19  N12 UNL     1       5.978  -2.893  -2.884  1.00  0.00    -0.082 NA
HETATM   20  N13 UNL     1       4.946  -1.043  -4.058  1.00  0.00    -0.179 N 
HETATM   21  C14 UNL     1       3.862  -0.266  -4.319  1.00  0.00     0.678 A 
ATOM     22  H13 UNL     1       5.831  -0.858  -4.530  1.00  0.00     0.185 HD
HETATM   23  N15 UNL     1       2.697  -0.500  -3.706  1.00  0.00    -0.177 N 
ATOM     24  H15 UNL     1       1.903   0.102  -3.926  1.00  0.00     0.185 HD
BRANCH  21  25
HETATM   25  N14 UNL     1       4.028   0.674  -5.165  1.00  0.00    -0.234 N 
ATOM     26 2H14 UNL     1       4.917   0.853  -5.633  1.00  0.00     0.174 HD
ATOM     27 1H14 UNL     1       3.214   1.257  -5.361  1.00  0.00     0.174 HD
ENDBRANCH  21  25
ENDBRANCH  14  16
ENDBRANCH  13  14
ENDBRANCH  12  13
ENDBRANCH  10  12
ENDBRANCH   9  10
BRANCH   1  28
HETATM   28  N1  UNL     1      -2.087   0.936  -0.240  1.00  0.00    -0.369 N 
ATOM     29  H1  UNL     1      -1.581   0.739  -1.104  1.00  0.00     0.161 HD
BRANCH  28  30
HETATM   30  C2  UNL     1      -3.448   1.169  -0.444  1.00  0.00     0.075 C 
HETATM   31  C1  UNL     1      -4.432   0.423   0.398  1.00  0.00     0.031 C 
HETATM   32  C3  UNL     1      -3.856   0.843  -1.908  1.00  0.00     0.031 C 
ENDBRANCH  28  30
ENDBRANCH   1  28
BRANCH   4  33
HETATM   33  N3  UNL     1      -1.633   1.340   4.425  1.00  0.00     0.011 N 
HETATM   34  N4  UNL     1      -1.247   2.289   5.255  1.00  0.00    -0.191 N 
HETATM   35  N5  UNL     1      -1.982   2.229   6.382  1.00  0.00    -0.115 N 
ATOM     36  H4  UNL     1      -0.505   2.965   5.072  1.00  0.00     0.211 HD
HETATM   37  C6  UNL     1      -2.838   1.220   6.239  1.00  0.00     0.708 A 
ATOM     38  H5  UNL     1      -1.898   2.842   7.193  1.00  0.00     0.207 HD
HETATM   39  N7  UNL     1      -2.609   0.687   5.032  1.00  0.00    -0.093 N 
ATOM     40  H7  UNL     1      -3.114  -0.107   4.638  1.00  0.00     0.208 HD
BRANCH  37  41
HETATM   41  N6  UNL     1      -3.716   0.814   7.077  1.00  0.00    -0.232 N 
ATOM     42  H62 UNL     1      -3.890   1.220   7.996  1.00  0.00     0.174 HD
ATOM     43  H61 UNL     1      -4.372   0.041   6.967  1.00  0.00     0.174 HD
ENDBRANCH  37  41
ENDBRANCH   4  33
TORSDOF 10
