REMARK  9 active torsions:
REMARK  status: ('A' for Active; 'I' for Inactive)
REMARK    1  A    between atoms: C2_2  and  O1_3 
REMARK    2  A    between atoms: O1_3  and  C3_4 
REMARK    3  A    between atoms: C3_4  and  O2_5 
REMARK    4  A    between atoms: C3_4  and  C4_7 
REMARK    5  A    between atoms: C5_9  and  C6_10 
REMARK       I    between atoms: C6_10  and  N1_12 
REMARK    6  A    between atoms: N1_12  and  C7_14 
REMARK    7  A    between atoms: C8_23  and  C9_24 
REMARK    8  A    between atoms: C9_24  and  N7_27 
REMARK    9  A    between atoms: N7_27  and  N8_28 
ROOT
HETATM    1  C9  UNL     1       1.641  -2.080  -0.025  1.00  0.00     0.242 C 
HETATM    2  C10 UNL     1       1.598  -2.449  -1.465  1.00  0.00     0.087 C 
HETATM    3  N6  UNL     1       1.562  -2.749  -2.580  1.00  0.00    -0.195 NA
ENDROOT
BRANCH   1   4
HETATM    4  C8  UNL     1       0.931  -0.830   0.217  1.00  0.00     0.033 A 
HETATM    5  C5  UNL     1       1.451   0.419   0.452  1.00  0.00     0.154 A 
HETATM    6  O3  UNL     1       0.416   1.257   0.592  1.00  0.00    -0.303 OA
HETATM    7  C4  UNL     1      -0.721   0.623   0.462  1.00  0.00     0.123 A 
HETATM    8  C11 UNL     1      -0.463  -0.706   0.221  1.00  0.00     0.057 A 
HETATM    9  C12 UNL     1      -1.396  -1.771  -0.010  1.00  0.00     0.150 A 
HETATM   10  N9  UNL     1      -2.016  -2.506   0.928  1.00  0.00    -0.268 N 
HETATM   11  N12 UNL     1      -1.845  -2.265  -1.200  1.00  0.00    -0.268 N 
HETATM   12  N10 UNL     1      -2.787  -3.384   0.316  1.00  0.00    -0.227 N 
ATOM     13  H9  UNL     1      -1.909  -2.403   1.937  1.00  0.00     0.190 HD
HETATM   14  N11 UNL     1      -2.692  -3.248  -0.991  1.00  0.00    -0.227 N 
ATOM     15  H10 UNL     1      -3.374  -4.072   0.788  1.00  0.00     0.210 HD
ATOM     16  H11 UNL     1      -3.179  -3.797  -1.700  1.00  0.00     0.210 HD
ATOM     17  H12 UNL     1      -1.564  -1.921  -2.118  1.00  0.00     0.190 HD
BRANCH   5  18
HETATM   18  C6  UNL     1       2.851   0.816   0.542  1.00  0.00     0.294 C 
HETATM   19  O4  UNL     1       3.822   0.052   0.412  1.00  0.00    -0.265 OA
HETATM   20  N1  UNL     1       3.169   2.182   0.800  1.00  0.00    -0.151 N 
ATOM     21  H1  UNL     1       2.836   2.627   1.655  1.00  0.00     0.188 HD
BRANCH  20  22
HETATM   22  C7  UNL     1       3.863   2.846  -0.027  1.00  0.00     0.716 A 
HETATM   23  N2  UNL     1       4.246   4.140   0.072  1.00  0.00    -0.115 N 
HETATM   24  N3  UNL     1       4.952   4.468  -0.977  1.00  0.00    -0.213 N 
ATOM     25  H2  UNL     1       4.018   4.763   0.847  1.00  0.00     0.207 HD
HETATM   26  N4  UNL     1       5.019   3.382  -1.745  1.00  0.00    -0.213 N 
ATOM     27  H3  UNL     1       5.370   5.378  -1.170  1.00  0.00     0.210 HD
HETATM   28  N5  UNL     1       4.362   2.400  -1.174  1.00  0.00    -0.115 N 
ATOM     29  H4  UNL     1       5.506   3.323  -2.639  1.00  0.00     0.210 HD
ATOM     30  H5  UNL     1       4.253   1.457  -1.547  1.00  0.00     0.207 HD
ENDBRANCH  20  22
ENDBRANCH   5  18
BRANCH   7  31
HETATM   31  C3  UNL     1      -2.049   1.301   0.569  1.00  0.00     0.316 C 
BRANCH  31  32
HETATM   32  O1  UNL     1      -2.878   0.878  -0.459  1.00  0.00    -0.355 OA
BRANCH  32  33
HETATM   33  C2  UNL     1      -4.131   0.493   0.011  1.00  0.00     0.167 C 
HETATM   34  C1  UNL     1      -4.753   1.711   0.695  1.00  0.00     0.033 C 
ENDBRANCH  32  33
ENDBRANCH  31  32
BRANCH  31  35
HETATM   35  O2  UNL     1      -1.861   2.688   0.349  1.00  0.00    -0.365 OA
ATOM     36  H2  UNL     1      -1.293   2.978   1.053  1.00  0.00     0.213 HD
ENDBRANCH  31  35
ENDBRANCH   7  31
ENDBRANCH   1   4
BRANCH   1  37
HETATM   37  N7  UNL     1       1.147  -3.215   0.749  1.00  0.00    -0.124 NA
BRANCH  37  38
HETATM   38  N8  UNL     1       1.376  -2.996   2.127  1.00  0.00    -0.347 N 
ATOM     39  H82 UNL     1       1.822  -2.162   2.509  1.00  0.00     0.172 HD
ATOM     40  H81 UNL     1       1.031  -3.789   2.668  1.00  0.00     0.172 HD
ENDBRANCH  37  38
ENDBRANCH   1  37
TORSDOF 9
