REMARK  12 active torsions:
REMARK  status: ('A' for Active; 'I' for Inactive)
REMARK    1  A    between atoms: C2_2  and  N1_3 
REMARK    2  A    between atoms: N1_3  and  C3_5 
REMARK    3  A    between atoms: C3_5  and  C5_7 
REMARK    4  A    between atoms: C3_5  and  C7_13 
REMARK    5  A    between atoms: C5_7  and  C6_8 
REMARK    6  A    between atoms: C6_8  and  N2_9 
REMARK    7  A    between atoms: C7_13  and  C8_14 
REMARK    8  A    between atoms: C8_14  and  N3_15 
REMARK    9  A    between atoms: C8_14  and  C9_19 
REMARK   10  A    between atoms: C8_14  and  C13_30 
REMARK   11  A    between atoms: C9_19  and  C10_20 
REMARK   12  A    between atoms: C12_24  and  N5_25 
ROOT
HETATM    1  C8  UNL     1       1.082  -1.161  -0.262  1.00  0.00     0.185 C 
ENDROOT
BRANCH   1   2
HETATM    2  C7  UNL     1      -0.027  -0.290  -0.611  1.00  0.00     0.077 C 
BRANCH   2   3
HETATM    3  C3  UNL     1      -1.241  -0.093   0.167  1.00  0.00     0.026 C 
HETATM    4  C4  UNL     1      -1.151   0.453   1.544  1.00  0.00     0.038 C 
BRANCH   3   5
HETATM    5  N1  UNL     1      -2.058   0.874  -0.607  1.00  0.00    -0.413 N 
ATOM      6  H1  UNL     1      -2.949   0.612  -1.030  1.00  0.00     0.154 HD
BRANCH   5   7
HETATM    7  C2  UNL     1      -1.533   2.169  -0.723  1.00  0.00     0.110 C 
HETATM    8  C1  UNL     1      -2.581   2.975  -1.521  1.00  0.00     0.026 C 
ENDBRANCH   5   7
ENDBRANCH   3   5
BRANCH   3   9
HETATM    9  C5  UNL     1      -2.182  -1.306   0.243  1.00  0.00     0.057 C 
BRANCH   9  10
HETATM   10  C6  UNL     1      -3.496  -0.967   0.920  1.00  0.00     0.232 C 
BRANCH  10  11
HETATM   11  N2  UNL     1      -4.269  -2.223   0.890  1.00  0.00    -0.079 N 
ATOM     12  H23 UNL     1      -4.374  -2.623  -0.042  1.00  0.00     0.274 HD
ATOM     13  H22 UNL     1      -3.783  -3.019   1.303  1.00  0.00     0.274 HD
ATOM     14  H21 UNL     1      -5.153  -1.995   1.345  1.00  0.00     0.274 HD
ENDBRANCH  10  11
ENDBRANCH   9  10
ENDBRANCH   3   9
ENDBRANCH   2   3
ENDBRANCH   1   2
BRANCH   1  15
HETATM   15  N3  UNL     1       2.010  -0.895  -1.477  1.00  0.00    -0.063 N 
ATOM     16  H33 UNL     1       1.596  -1.044  -2.397  1.00  0.00     0.275 HD
ATOM     17  H32 UNL     1       2.246   0.081  -1.655  1.00  0.00     0.275 HD
ATOM     18  H31 UNL     1       2.789  -1.507  -1.232  1.00  0.00     0.275 HD
ENDBRANCH   1  15
BRANCH   1  19
HETATM   19  C9  UNL     1       2.003  -0.724   0.850  1.00  0.00     0.105 C 
BRANCH  19  20
HETATM   20  C10 UNL     1       2.725   0.546   0.579  1.00  0.00     0.045 A 
HETATM   21  C11 UNL     1       3.972   0.616  -0.076  1.00  0.00     0.131 A 
HETATM   22  N4  UNL     1       4.333   1.896  -0.145  1.00  0.00    -0.200 N 
HETATM   23  C12 UNL     1       3.397   2.657   0.424  1.00  0.00     0.675 A 
ATOM     24  H4  UNL     1       5.194   2.242  -0.568  1.00  0.00     0.183 HD
HETATM   25  N6  UNL     1       2.437   1.822   0.853  1.00  0.00    -0.194 N 
ATOM     26  H6  UNL     1       1.589   2.125   1.331  1.00  0.00     0.184 HD
BRANCH  23  27
HETATM   27  N5  UNL     1       3.448   3.936   0.519  1.00  0.00    -0.234 N 
ATOM     28  H52 UNL     1       4.177   4.570   0.193  1.00  0.00     0.174 HD
ATOM     29  H51 UNL     1       2.732   4.518   0.954  1.00  0.00     0.174 HD
ENDBRANCH  23  27
ENDBRANCH  19  20
ENDBRANCH   1  19
BRANCH   1  30
HETATM   30  C13 UNL     1       0.950  -2.618  -0.394  1.00  0.00     0.123 C 
HETATM   31  N7  UNL     1       0.124  -3.224  -1.155  1.00  0.00    -0.389 N 
ATOM     32  H72 UNL     1      -0.507  -2.618  -1.680  1.00  0.00     0.157 HD
ATOM     33  H71 UNL     1       0.032  -4.236  -1.247  1.00  0.00     0.157 HD
HETATM   34  N8  UNL     1       1.831  -3.463   0.338  1.00  0.00    -0.085 NA
ENDBRANCH   1  30
TORSDOF 12
