REMARK  15 active torsions:
REMARK  status: ('A' for Active; 'I' for Inactive)
REMARK    1  A    between atoms: N1_1  and  C1_4 
REMARK    2  A    between atoms: C2_7  and  N3_8 
REMARK    3  A    between atoms: C3_13  and  N5_14 
REMARK    4  A    between atoms: N5_14  and  C4_16 
REMARK    5  A    between atoms: C4_16  and  N6_17 
REMARK    6  A    between atoms: C4_16  and  N7_21 
REMARK    7  A    between atoms: C4_16  and  C5_25 
REMARK    8  A    between atoms: C5_25  and  C6_26 
REMARK    9  A    between atoms: C6_26  and  C7_27 
REMARK   10  A    between atoms: C7_27  and  C8_28 
REMARK   11  A    between atoms: C8_28  and  C9_29 
REMARK   12  A    between atoms: C9_29  and  C10_30 
REMARK   13  A    between atoms: C10_30  and  C11_31 
REMARK   14  A    between atoms: C11_31  and  C12_32 
REMARK   15  A    between atoms: C12_32  and  N8_33 
ROOT
HETATM    1  C4  UNL     1       1.924  -0.074   1.449  1.00  0.00     0.371 C 
ENDROOT
BRANCH   1   2
HETATM    2  N5  UNL     1       1.977  -0.218   0.020  1.00  0.00    -0.167 N 
ATOM      3  H5  UNL     1       1.084  -0.328  -0.460  1.00  0.00     0.182 HD
BRANCH   2   4
HETATM    4  C3  UNL     1       3.024  -0.223  -0.713  1.00  0.00     0.710 A 
HETATM    5  N4  UNL     1       2.924  -0.369  -2.066  1.00  0.00    -0.022 N 
HETATM    6  C2  UNL     1       4.003  -0.377  -2.857  1.00  0.00     0.705 A 
ATOM      7  H4  UNL     1       2.001  -0.475  -2.486  1.00  0.00     0.203 HD
HETATM    8  N2  UNL     1       5.240  -0.242  -2.350  1.00  0.00    -0.022 N 
HETATM    9  C1  UNL     1       5.374  -0.098  -1.038  1.00  0.00     0.705 A 
ATOM     10  H2  UNL     1       6.057  -0.250  -2.960  1.00  0.00     0.203 HD
HETATM   11  N9  UNL     1       4.278  -0.090  -0.249  1.00  0.00    -0.022 N 
ATOM     12  H9  UNL     1       4.410   0.023   0.756  1.00  0.00     0.203 HD
BRANCH   6  13
HETATM   13  N3  UNL     1       3.907  -0.516  -4.141  1.00  0.00    -0.234 N 
ATOM     14  H32 UNL     1       4.730  -0.522  -4.744  1.00  0.00     0.174 HD
ATOM     15  H31 UNL     1       2.968  -0.618  -4.526  1.00  0.00     0.174 HD
ENDBRANCH   6  13
BRANCH   9  16
HETATM   16  N1  UNL     1       6.553   0.033  -0.541  1.00  0.00    -0.234 N 
ATOM     17  H12 UNL     1       7.381   0.027  -1.137  1.00  0.00     0.174 HD
ATOM     18  H11 UNL     1       6.656   0.144   0.468  1.00  0.00     0.174 HD
ENDBRANCH   9  16
ENDBRANCH   2   4
ENDBRANCH   1   2
BRANCH   1  19
HETATM   19  N6  UNL     1       2.641  -1.182   2.096  1.00  0.00    -0.026 N 
ATOM     20  H63 UNL     1       2.293  -2.091   1.791  1.00  0.00     0.279 HD
ATOM     21  H62 UNL     1       3.599  -1.266   1.756  1.00  0.00     0.279 HD
ATOM     22  H61 UNL     1       2.603  -1.080   3.110  1.00  0.00     0.279 HD
ENDBRANCH   1  19
BRANCH   1  23
HETATM   23  N7  UNL     1       2.449   1.208   1.817  1.00  0.00    -0.026 N 
ATOM     24  H73 UNL     1       3.387   1.362   1.448  1.00  0.00     0.279 HD
ATOM     25  H72 UNL     1       1.976   1.972   1.334  1.00  0.00     0.279 HD
ATOM     26  H71 UNL     1       2.411   1.310   2.831  1.00  0.00     0.279 HD
ENDBRANCH   1  23
BRANCH   1  27
HETATM   27  C5  UNL     1       0.480  -0.232   1.924  1.00  0.00     0.093 C 
BRANCH  27  28
HETATM   28  C6  UNL     1      -0.407   0.838   1.278  1.00  0.00     0.006 C 
BRANCH  28  29
HETATM   29  C7  UNL     1      -1.805   0.585   1.818  1.00  0.00     0.000 C 
BRANCH  29  30
HETATM   30  C8  UNL     1      -2.782   1.578   1.261  1.00  0.00     0.000 C 
BRANCH  30  31
HETATM   31  C9  UNL     1      -2.815   1.476  -0.239  1.00  0.00     0.000 C 
BRANCH  31  32
HETATM   32  C10 UNL     1      -3.220   0.103  -0.654  1.00  0.00     0.002 C 
BRANCH  32  33
HETATM   33  C11 UNL     1      -4.590  -0.240  -0.122  1.00  0.00     0.027 C 
BRANCH  33  34
HETATM   34  C12 UNL     1      -4.938  -1.660  -0.605  1.00  0.00     0.229 C 
BRANCH  34  35
HETATM   35  N8  UNL     1      -4.952  -1.750  -2.032  1.00  0.00    -0.079 N 
ATOM     36  H83 UNL     1      -5.577  -1.056  -2.441  1.00  0.00     0.274 HD
ATOM     37  H82 UNL     1      -4.071  -1.428  -2.432  1.00  0.00     0.274 HD
ATOM     38  H81 UNL     1      -5.183  -2.691  -2.352  1.00  0.00     0.274 HD
ENDBRANCH  34  35
ENDBRANCH  33  34
ENDBRANCH  32  33
ENDBRANCH  31  32
ENDBRANCH  30  31
ENDBRANCH  29  30
ENDBRANCH  28  29
ENDBRANCH  27  28
ENDBRANCH   1  27
TORSDOF 15
