REMARK  1 active torsions:
REMARK  status: ('A' for Active; 'I' for Inactive)
REMARK       I    between atoms: C1_2  and  N1_3 
REMARK       I    between atoms: C1_2  and  N3_16 
REMARK    1  A    between atoms: N1_3  and  C2_5 
ROOT
HETATM    1  O1  UNL     1       1.127   1.203  -1.880  1.00  0.00    -0.246 OA
HETATM    2  C1  UNL     1       0.840   0.838  -0.731  1.00  0.00     0.331 C 
HETATM    3  N1  UNL     1      -0.458   1.071  -0.190  1.00  0.00    -0.307 N 
ATOM      4  H1  UNL     1      -0.556   1.816   0.499  1.00  0.00     0.170 HD
HETATM    5  N3  UNL     1       1.775   0.170   0.121  1.00  0.00    -0.274 N 
HETATM    6  C11 UNL     1       1.564  -0.266   1.382  1.00  0.00     0.103 A 
HETATM    7  C12 UNL     1       2.660  -0.864   1.920  1.00  0.00     0.031 A 
HETATM    8  C13 UNL     1       3.630  -0.802   0.933  1.00  0.00    -0.007 A 
HETATM    9  C14 UNL     1       4.931  -1.255   0.936  1.00  0.00     0.014 A 
HETATM   10  C15 UNL     1       5.680  -1.048  -0.221  1.00  0.00     0.001 A 
HETATM   11  C16 UNL     1       5.132  -0.415  -1.318  1.00  0.00     0.002 A 
HETATM   12  C17 UNL     1       3.821   0.029  -1.292  1.00  0.00     0.031 A 
HETATM   13  C18 UNL     1       3.068  -0.168  -0.155  1.00  0.00     0.053 A 
ENDROOT
BRANCH   3  14
HETATM   14  C2  UNL     1      -1.495   0.422  -0.502  1.00  0.00     0.050 A 
HETATM   15  C3  UNL     1      -1.425  -0.592  -1.424  1.00  0.00     0.047 A 
HETATM   16  C4  UNL     1      -2.571  -1.312  -1.771  1.00  0.00     0.090 A 
HETATM   17  N2  UNL     1      -3.732  -0.993  -1.187  1.00  0.00    -0.365 N 
HETATM   18  C5  UNL     1      -3.817   0.002  -0.279  1.00  0.00     0.044 A 
ATOM     19  H2  UNL     1      -4.573  -1.514  -1.434  1.00  0.00     0.165 HD
HETATM   20  C6  UNL     1      -5.008   0.336   0.325  1.00  0.00     0.030 A 
HETATM   21  C10 UNL     1      -2.689   0.743   0.091  1.00  0.00     0.017 A 
HETATM   22  C7  UNL     1      -5.117   1.346   1.253  1.00  0.00     0.002 A 
HETATM   23  C8  UNL     1      -4.009   2.077   1.620  1.00  0.00     0.001 A 
HETATM   24  C9  UNL     1      -2.806   1.756   1.025  1.00  0.00     0.016 A 
ENDBRANCH   3  14
TORSDOF 1
