REMARK  5 active torsions:
REMARK  status: ('A' for Active; 'I' for Inactive)
REMARK    1  A    between atoms: O1_2  and  C2_3 
REMARK    2  A    between atoms: C2_3  and  C3_4 
REMARK    3  A    between atoms: C3_4  and  N1_5 
REMARK    4  A    between atoms: N1_5  and  C4_7 
REMARK    5  A    between atoms: C5_12  and  N4_13 
ROOT
HETATM    1  C4  UNL     1      -0.936  -0.353   0.234  1.00  0.00     0.707 A 
HETATM    2  N2  UNL     1      -1.578  -1.330   0.906  1.00  0.00    -0.117 N 
ATOM      3  H2  UNL     1      -1.121  -2.121   1.361  1.00  0.00     0.206 HD
HETATM    4  N3  UNL     1      -2.879  -1.119   0.892  1.00  0.00    -0.118 N 
ATOM      5  H3  UNL     1      -3.587  -1.709   1.328  1.00  0.00     0.206 HD
HETATM    6  C5  UNL     1      -3.108   0.013   0.200  1.00  0.00     0.705 A 
HETATM    7  N5  UNL     1      -1.908   0.478  -0.201  1.00  0.00    -0.020 N 
ATOM      8  H5  UNL     1      -1.757   1.326  -0.748  1.00  0.00     0.203 HD
ENDROOT
BRANCH   1   9
HETATM    9  N1  UNL     1       0.341  -0.280   0.072  1.00  0.00    -0.222 N 
ATOM     10  H1  UNL     1       0.952  -0.995   0.466  1.00  0.00     0.177 HD
BRANCH   9  11
HETATM   11  C3  UNL     1       0.897   0.823  -0.672  1.00  0.00     0.164 C 
BRANCH  11  12
HETATM   12  C2  UNL     1       2.310   1.153  -0.363  1.00  0.00     0.187 C 
BRANCH  12  13
HETATM   13  O1  UNL     1       3.266   0.231  -0.566  1.00  0.00    -0.394 OA
HETATM   14  C1  UNL     1       3.228  -0.959   0.083  1.00  0.00     0.201 C 
ENDBRANCH  12  13
ENDBRANCH  11  12
ENDBRANCH   9  11
ENDBRANCH   1   9
BRANCH   6  15
HETATM   15  N4  UNL     1      -4.288   0.542  -0.026  1.00  0.00    -0.233 N 
ATOM     16  H42 UNL     1      -5.196   0.190   0.277  1.00  0.00     0.174 HD
ATOM     17  H41 UNL     1      -4.461   1.400  -0.550  1.00  0.00     0.174 HD
ENDBRANCH   6  15
TORSDOF 5
