REMARK  3 active torsions:
REMARK  status: ('A' for Active; 'I' for Inactive)
REMARK    1  A    between atoms: N1_2  and  C2_4 
REMARK    2  A    between atoms: N4_11  and  C5_13 
REMARK    3  A    between atoms: C5_13  and  C6_14 
ROOT
HETATM    1  C6  UNL     1       3.576   0.941   0.003  1.00  0.00     0.106 C 
HETATM    2  C7  UNL     1       4.019  -0.233   0.842  1.00  0.00     0.027 C 
HETATM    3  C8  UNL     1       4.109   2.170   0.595  1.00  0.00     0.065 C 
HETATM    4  N5  UNL     1       4.534   3.128   1.071  1.00  0.00    -0.197 NA
ENDROOT
BRANCH   1   5
HETATM    5  C5  UNL     1       2.040   0.966   0.065  1.00  0.00     0.140 C 
BRANCH   5   6
HETATM    6  N4  UNL     1       1.573  -0.249  -0.453  1.00  0.00    -0.373 N 
HETATM    7  C4  UNL     1       0.487  -0.810  -0.617  1.00  0.00     0.133 A 
HETATM    8  C3  UNL     1      -0.729  -0.279  -0.267  1.00  0.00     0.122 A 
HETATM    9  N6  UNL     1       0.472  -2.059  -1.190  1.00  0.00    -0.337 N 
HETATM   10  N3  UNL     1      -1.086   0.906   0.309  1.00  0.00    -0.293 N 
HETATM   11  C10 UNL     1      -1.912  -0.947  -0.472  1.00  0.00     0.111 A 
HETATM   12  N2  UNL     1      -2.406   0.960   0.448  1.00  0.00    -0.283 N 
ATOM     13  H3  UNL     1      -0.436   1.640   0.591  1.00  0.00     0.187 HD
HETATM   14  C2  UNL     1      -2.938  -0.164  -0.023  1.00  0.00     0.145 A 
ATOM     15  H2  UNL     1      -2.928   1.738   0.851  1.00  0.00     0.188 HD
HETATM   16  N7  UNL     1      -1.850  -2.177  -1.043  1.00  0.00    -0.347 N 
HETATM   17  C9  UNL     1      -0.673  -2.720  -1.395  1.00  0.00     0.182 A 
ATOM     18  H7  UNL     1      -2.712  -2.698  -1.207  1.00  0.00     0.167 HD
ATOM     19  H6  UNL     1       1.354  -2.492  -1.465  1.00  0.00     0.168 HD
ATOM     20  H4  UNL     1       2.343  -0.829  -0.786  1.00  0.00     0.161 HD
BRANCH  14  21
HETATM   21  N1  UNL     1      -4.174  -0.536  -0.087  1.00  0.00    -0.378 N 
HETATM   22  C1  UNL     1      -5.271   0.282   0.385  1.00  0.00     0.148 C 
ATOM     23  H1  UNL     1      -4.387  -1.449  -0.489  1.00  0.00     0.160 HD
ENDBRANCH  14  21
ENDBRANCH   5   6
ENDBRANCH   1   5
TORSDOF 3
