REMARK  3 active torsions:
REMARK  status: ('A' for Active; 'I' for Inactive)
REMARK    1  A    between atoms: N1_2  and  C2_4 
REMARK    2  A    between atoms: C8_17  and  C9_18 
REMARK    3  A    between atoms: N5_19  and  O2_21 
ROOT
HETATM    1  C2  UNL     1      -0.135   1.169   0.018  1.00  0.00     0.114 A 
HETATM    2  N2  UNL     1       1.124   1.668  -0.055  1.00  0.00    -0.326 N 
ATOM      3  H2  UNL     1       1.251   2.680  -0.045  1.00  0.00     0.169 HD
HETATM    4  C3  UNL     1       2.197   0.893  -0.139  1.00  0.00     0.138 A 
HETATM    5  N3  UNL     1       3.531   1.158  -0.228  1.00  0.00    -0.282 N 
ATOM      6  H3  UNL     1       3.944   2.090  -0.240  1.00  0.00     0.188 HD
HETATM    7  N4  UNL     1       4.199   0.041  -0.295  1.00  0.00    -0.264 N 
ATOM      8  H4  UNL     1       5.212  -0.053  -0.367  1.00  0.00     0.190 HD
HETATM    9  C4  UNL     1       3.285  -0.992  -0.250  1.00  0.00     0.274 A 
HETATM   10  O1  UNL     1       3.585  -2.192  -0.293  1.00  0.00    -0.266 OA
HETATM   11  C5  UNL     1       2.025  -0.452  -0.151  1.00  0.00     0.086 A 
HETATM   12  C6  UNL     1       0.756  -1.045  -0.077  1.00  0.00    -0.027 A 
HETATM   13  C7  UNL     1       0.622  -2.487  -0.050  1.00  0.00     0.050 C 
HETATM   14  C8  UNL     1      -0.355  -0.233   0.009  1.00  0.00     0.032 A 
ENDROOT
BRANCH  14  15
HETATM   15  C9  UNL     1      -1.722  -0.649   0.102  1.00  0.00     0.132 C 
HETATM   16  N5  UNL     1      -2.467  -1.635   0.108  1.00  0.00    -0.276 N 
HETATM   17  C10 UNL     1      -3.972  -1.338   0.259  1.00  0.00     0.184 C 
BRANCH  16  18
HETATM   18  O2  UNL     1      -2.306  -2.962  -0.009  1.00  0.00    -0.288 OA
ATOM     19  H2  UNL     1      -2.879  -3.720  -0.004  1.00  0.00     0.244 HD
ENDBRANCH  16  18
ENDBRANCH  14  15
BRANCH   1  20
HETATM   20  N1  UNL     1      -1.137   2.152   0.084  1.00  0.00    -0.380 N 
HETATM   21  C1  UNL     1      -0.808   3.586   0.097  1.00  0.00     0.147 C 
ATOM     22  H1  UNL     1      -2.115   1.865   0.124  1.00  0.00     0.160 HD
ENDBRANCH   1  20
TORSDOF 3
