REMARK  5 active torsions:
REMARK  status: ('A' for Active; 'I' for Inactive)
REMARK    1  A    between atoms: N1_2  and  C2_4 
REMARK    2  A    between atoms: C3_9  and  N4_10 
REMARK    3  A    between atoms: N4_10  and  C4_12 
REMARK    4  A    between atoms: C4_12  and  C6_14 
REMARK       I    between atoms: N5_18  and  C10_19 
REMARK    5  A    between atoms: C10_19  and  C11_21 
ROOT
HETATM    1  C4  UNL     1       1.028  -0.667   0.232  1.00  0.00     0.118 C 
HETATM    2  C5  UNL     1       1.302  -0.108   1.579  1.00  0.00     0.035 C 
ENDROOT
BRANCH   1   3
HETATM    3  N4  UNL     1       2.253  -1.251  -0.276  1.00  0.00    -0.218 N 
ATOM      4  H4  UNL     1       2.350  -2.266  -0.286  1.00  0.00     0.178 HD
BRANCH   3   5
HETATM    5  C3  UNL     1       3.222  -0.529  -0.715  1.00  0.00     0.708 A 
HETATM    6  N3  UNL     1       4.375  -1.027  -1.195  1.00  0.00    -0.117 N 
HETATM    7  N2  UNL     1       5.160  -0.013  -1.565  1.00  0.00    -0.117 N 
ATOM      8  H3  UNL     1       4.611  -2.017  -1.265  1.00  0.00     0.206 HD
HETATM    9  C2  UNL     1       4.522   1.148  -1.328  1.00  0.00     0.707 A 
ATOM     10  H2  UNL     1       6.094  -0.104  -1.964  1.00  0.00     0.206 HD
HETATM   11  N6  UNL     1       3.329   0.806  -0.804  1.00  0.00    -0.020 N 
ATOM     12  H6  UNL     1       2.609   1.468  -0.516  1.00  0.00     0.203 HD
BRANCH   9  13
HETATM   13  N1  UNL     1       4.959   2.352  -1.554  1.00  0.00    -0.229 N 
HETATM   14  C1  UNL     1       6.273   2.506  -2.124  1.00  0.00     0.165 C 
ATOM     15  H1  UNL     1       4.386   3.166  -1.333  1.00  0.00     0.177 HD
ENDBRANCH   9  13
ENDBRANCH   3   5
ENDBRANCH   1   3
BRANCH   1  16
HETATM   16  C6  UNL     1      -0.076  -1.669   0.171  1.00  0.00     0.110 C 
HETATM   17  C7  UNL     1       0.148  -2.911   0.956  1.00  0.00     0.029 C 
HETATM   18  C8  UNL     1      -0.695  -2.806   2.193  1.00  0.00     0.022 C 
HETATM   19  C9  UNL     1      -1.451  -1.531   2.029  1.00  0.00     0.126 C 
HETATM   20  N5  UNL     1      -1.338  -1.137   0.648  1.00  0.00    -0.345 N 
HETATM   21  C10 UNL     1      -2.294  -0.381  -0.067  1.00  0.00     0.226 C 
HETATM   22  O1  UNL     1      -2.012  -0.144  -1.281  1.00  0.00    -0.273 OA
BRANCH  21  23
HETATM   23  C11 UNL     1      -3.514   0.080   0.587  1.00  0.00     0.106 A 
HETATM   24  C12 UNL     1      -4.753  -0.061  -0.303  1.00  0.00     0.104 A 
HETATM   25 CL1  UNL     1      -6.143  -0.808   0.516  1.00  0.00    -0.123 Cl
HETATM   26  C13 UNL     1      -4.263   1.275   0.155  1.00  0.00    -0.017 A 
HETATM   27  C14 UNL     1      -5.157   1.945   1.179  1.00  0.00     0.017 C 
HETATM   28  C15 UNL     1      -3.678   2.240  -0.854  1.00  0.00     0.017 C 
ENDBRANCH  21  23
ENDBRANCH   1  16
TORSDOF 5
