REMARK  6 active torsions:
REMARK  status: ('A' for Active; 'I' for Inactive)
REMARK    1  A    between atoms: C2_2  and  C4_4 
REMARK    2  A    between atoms: C2_2  and  C5_8 
REMARK    3  A    between atoms: C5_8  and  O2_9 
REMARK    4  A    between atoms: C5_8  and  C6_11 
REMARK    5  A    between atoms: C6_11  and  N2_12 
REMARK    6  A    between atoms: C6_11  and  N3_16 
ROOT
HETATM    1  C5  UNL     1       0.585  -0.552  -0.365  1.00  0.00     0.188 C 
ENDROOT
BRANCH   1   2
HETATM    2  C2  UNL     1      -0.769  -0.173   0.127  1.00  0.00     0.030 C 
HETATM    3  C1  UNL     1      -1.330   0.904  -0.790  1.00  0.00     0.022 C 
HETATM    4  C3  UNL     1      -0.793   0.381   1.518  1.00  0.00     0.022 C 
BRANCH   2   5
HETATM    5  C4  UNL     1      -1.686  -1.362   0.035  1.00  0.00     0.281 A 
HETATM    6  N1  UNL     1      -3.005  -1.370   0.352  1.00  0.00    -0.268 N 
HETATM    7  O1  UNL     1      -2.047  -1.999   1.266  1.00  0.00    -0.254 OA
ATOM      8  H1  UNL     1      -3.967  -1.120   0.121  1.00  0.00     0.190 HD
ENDBRANCH   2   5
ENDBRANCH   1   2
BRANCH   1   9
HETATM    9  O2  UNL     1       0.514  -1.043  -1.669  1.00  0.00    -0.391 OA
ATOM     10  H2  UNL     1       1.377  -1.285  -1.983  1.00  0.00     0.210 HD
ENDBRANCH   1   9
BRANCH   1  11
HETATM   11  C6  UNL     1       1.606   0.532  -0.340  1.00  0.00     0.407 C 
BRANCH  11  12
HETATM   12  N2  UNL     1       2.874  -0.084  -0.760  1.00  0.00    -0.048 N 
ATOM     13  H23 UNL     1       3.133  -0.897  -0.202  1.00  0.00     0.276 HD
ATOM     14  H22 UNL     1       2.813  -0.562  -1.659  1.00  0.00     0.276 HD
ATOM     15  H21 UNL     1       3.573   0.658  -0.743  1.00  0.00     0.276 HD
ENDBRANCH  11  12
BRANCH  11  16
HETATM   16  N3  UNL     1       1.859   1.067   0.979  1.00  0.00    -0.048 N 
ATOM     17  H33 UNL     1       0.990   1.382   1.411  1.00  0.00     0.276 HD
ATOM     18  H32 UNL     1       2.112   0.321   1.627  1.00  0.00     0.276 HD
ATOM     19  H31 UNL     1       2.558   1.809   0.996  1.00  0.00     0.276 HD
ENDBRANCH  11  16
ENDBRANCH   1  11
TORSDOF 6
