REMARK  5 active torsions:
REMARK  status: ('A' for Active; 'I' for Inactive)
REMARK    1  A    between atoms: N1_1  and  C1_4 
REMARK    2  A    between atoms: C2_9  and  S1_10 
REMARK    3  A    between atoms: S1_10  and  C3_11 
REMARK    4  A    between atoms: C3_11  and  C4_12 
REMARK    5  A    between atoms: C4_12  and  N4_13 
ROOT
HETATM    1  C1  UNL     1      -2.947  -0.057   0.034  1.00  0.00     0.692 A 
HETATM    2  N2  UNL     1      -2.387  -0.993  -0.753  1.00  0.00    -0.130 N 
ATOM      3  H2  UNL     1      -2.832  -1.434  -1.558  1.00  0.00     0.205 HD
HETATM    4  N3  UNL     1      -1.157  -1.251  -0.311  1.00  0.00    -0.265 N 
ATOM      5  H3  UNL     1      -0.510  -1.922  -0.726  1.00  0.00     0.189 HD
HETATM    6  C2  UNL     1      -0.901  -0.490   0.765  1.00  0.00     0.174 A 
HETATM    7  N5  UNL     1      -2.021   0.239   0.959  1.00  0.00    -0.168 N 
ATOM      8  H5  UNL     1      -2.146   0.922   1.707  1.00  0.00     0.186 HD
ENDROOT
BRANCH   6   9
HETATM    9  S1  UNL     1       0.613  -0.473   1.712  1.00  0.00    -0.090 SA
BRANCH   9  10
HETATM   10  C3  UNL     1       1.786   0.733   1.065  1.00  0.00     0.109 C 
BRANCH  10  11
HETATM   11  C4  UNL     1       2.287   0.375  -0.312  1.00  0.00     0.240 C 
BRANCH  11  12
HETATM   12  N4  UNL     1       2.957  -0.904  -0.319  1.00  0.00    -0.079 N 
ATOM     13  H43 UNL     1       3.708  -0.934   0.370  1.00  0.00     0.274 HD
ATOM     14  H42 UNL     1       2.361  -1.639   0.063  1.00  0.00     0.274 HD
ATOM     15  H41 UNL     1       3.296  -1.146  -1.250  1.00  0.00     0.274 HD
ENDBRANCH  11  12
ENDBRANCH  10  11
ENDBRANCH   9  10
ENDBRANCH   6   9
BRANCH   1  16
HETATM   16  N1  UNL     1      -4.130   0.416  -0.119  1.00  0.00    -0.233 N 
ATOM     17  H12 UNL     1      -4.834   0.191  -0.822  1.00  0.00     0.174 HD
ATOM     18  H11 UNL     1      -4.555   1.126   0.478  1.00  0.00     0.174 HD
ENDBRANCH   1  16
TORSDOF 5
