REMARK  12 active torsions:
REMARK  status: ('A' for Active; 'I' for Inactive)
REMARK    1  A    between atoms: N1_2  and  C4_5 
REMARK    2  A    between atoms: C4_5  and  C5_6 
REMARK    3  A    between atoms: C5_6  and  C6_7 
REMARK    4  A    between atoms: C6_7  and  N2_8 
REMARK    5  A    between atoms: N2_8  and  C7_10 
REMARK    6  A    between atoms: C8_13  and  N4_14 
REMARK    7  A    between atoms: N4_14  and  C9_16 
REMARK    8  A    between atoms: C9_16  and  C10_17 
REMARK    9  A    between atoms: C10_17  and  C11_18 
REMARK   10  A    between atoms: C12_22  and  N6_23 
REMARK   11  A    between atoms: N6_23  and  C13_24 
REMARK   12  A    between atoms: C13_24  and  C14_25 
ROOT
HETATM    1  C7  UNL     1      -0.303  -0.770   0.471  1.00  0.00     0.696 A 
HETATM    2  N3  UNL     1       0.001  -1.990   0.983  1.00  0.00    -0.022 N 
ATOM      3  H3  UNL     1      -0.724  -2.644   1.278  1.00  0.00     0.203 HD
HETATM    4  C8  UNL     1       1.330  -2.295   1.082  1.00  0.00     0.696 A 
HETATM    5  N5  UNL     1       2.361  -1.492   0.760  1.00  0.00    -0.148 N 
ATOM      6  H5  UNL     1       3.341  -1.762   0.846  1.00  0.00     0.188 HD
HETATM    7  C12 UNL     1       1.926  -0.221   0.285  1.00  0.00     0.287 A 
HETATM    8  N7  UNL     1       0.626   0.079   0.157  1.00  0.00    -0.148 N 
ATOM      9  H7  UNL     1       0.360   0.998  -0.196  1.00  0.00     0.188 HD
ENDROOT
BRANCH   7  10
HETATM   10  N6  UNL     1       2.807   0.417  -0.247  1.00  0.00    -0.382 NA
BRANCH  10  11
HETATM   11  C13 UNL     1       3.793   1.026  -0.794  1.00  0.00     0.199 C 
BRANCH  11  12
HETATM   12  C14 UNL     1       4.360   2.301  -0.314  1.00  0.00     0.015 A 
HETATM   13  C15 UNL     1       5.013   2.390   0.861  1.00  0.00     0.017 A 
HETATM   14  C16 UNL     1       5.740   3.520   1.294  1.00  0.00     0.025 A 
HETATM   15  C17 UNL     1       5.774   4.624   0.474  1.00  0.00     0.035 A 
HETATM   16 CL2  UNL     1       6.695   6.072   0.822  1.00  0.00    -0.084 Cl
HETATM   17  C18 UNL     1       5.046   4.546  -0.788  1.00  0.00     0.048 A 
HETATM   18  C19 UNL     1       4.327   3.397  -1.231  1.00  0.00     0.048 A 
HETATM   19 CL3  UNL     1       3.623   3.413  -2.763  1.00  0.00    -0.083 Cl
ENDBRANCH  11  12
ENDBRANCH  10  11
ENDBRANCH   7  10
BRANCH   4  20
HETATM   20  N4  UNL     1       1.472  -3.570   1.080  1.00  0.00    -0.225 N 
ATOM     21  H4  UNL     1       0.675  -4.206   1.089  1.00  0.00     0.177 HD
BRANCH  20  22
HETATM   22  C9  UNL     1       2.810  -4.036   1.065  1.00  0.00     0.139 C 
BRANCH  22  23
HETATM   23  C10 UNL     1       2.822  -5.486   0.711  1.00  0.00     0.035 C 
BRANCH  23  24
HETATM   24  C11 UNL     1       1.973  -5.758  -0.489  1.00  0.00     0.116 C 
HETATM   25 CL1  UNL     1       1.836  -7.582  -0.767  1.00  0.00    -0.130 Cl
ENDBRANCH  23  24
ENDBRANCH  22  23
ENDBRANCH  20  22
ENDBRANCH   4  20
BRANCH   1  26
HETATM   26  N2  UNL     1      -1.594  -0.747   0.214  1.00  0.00    -0.225 N 
ATOM     27  H2  UNL     1      -2.260  -1.484   0.446  1.00  0.00     0.177 HD
BRANCH  26  28
HETATM   28  C6  UNL     1      -1.922   0.541  -0.475  1.00  0.00     0.139 C 
BRANCH  28  29
HETATM   29  C5  UNL     1      -3.121   1.279  -0.066  1.00  0.00     0.048 C 
BRANCH  29  30
HETATM   30  C4  UNL     1      -4.334   0.394   0.076  1.00  0.00     0.237 C 
BRANCH  30  31
HETATM   31  N1  UNL     1      -5.625   0.994   0.129  1.00  0.00    -0.079 N 
HETATM   32  C1  UNL     1      -6.429   0.350  -0.846  1.00  0.00     0.271 C 
HETATM   33  C2  UNL     1      -6.165   1.034   1.470  1.00  0.00     0.271 C 
HETATM   34  C3  UNL     1      -5.469   2.438  -0.306  1.00  0.00     0.271 C 
ENDBRANCH  30  31
ENDBRANCH  29  30
ENDBRANCH  28  29
ENDBRANCH  26  28
ENDBRANCH   1  26
TORSDOF 12
