REMARK  11 active torsions:
REMARK  status: ('A' for Active; 'I' for Inactive)
REMARK    1  A    between atoms: C4_6  and  N2_7 
REMARK    2  A    between atoms: N2_7  and  C5_9 
REMARK    3  A    between atoms: C5_9  and  C6_10 
REMARK    4  A    between atoms: C6_10  and  C7_11 
REMARK    5  A    between atoms: N4_21  and  C14_23 
REMARK    6  A    between atoms: C14_23  and  C15_24 
REMARK    7  A    between atoms: C15_24  and  N5_25 
REMARK       I    between atoms: N5_25  and  C16_27 
REMARK       I    between atoms: C16_27  and  N6_29 
REMARK    8  A    between atoms: N6_29  and  C17_30 
REMARK    9  A    between atoms: N6_29  and  C19_33 
REMARK   10  A    between atoms: C17_30  and  C18_31 
REMARK   11  A    between atoms: C19_33  and  C20_34 
ROOT
HETATM    1  C1  UNL     1      -0.506  -1.424   1.756  1.00  0.00     0.054 C 
HETATM    2  C2  UNL     1       0.587  -0.650   1.107  1.00  0.00    -0.002 A 
HETATM    3  C3  UNL     1       1.898  -0.839   1.551  1.00  0.00     0.116 A 
HETATM    4  N1  UNL     1       2.950  -0.186   1.028  1.00  0.00    -0.201 N 
ATOM      5  H1  UNL     1       3.891  -0.354   1.383  1.00  0.00     0.183 HD
HETATM    6  C4  UNL     1       2.745   0.692   0.031  1.00  0.00     0.679 A 
HETATM    7  N3  UNL     1       1.513   0.890  -0.410  1.00  0.00    -0.176 N 
ATOM      8  H3  UNL     1       1.380   1.560  -1.168  1.00  0.00     0.186 HD
HETATM    9  C13 UNL     1       0.397   0.250   0.088  1.00  0.00     0.124 A 
HETATM   10  N4  UNL     1      -0.710   0.522  -0.413  1.00  0.00    -0.374 N 
ATOM     11  H4  UNL     1      -0.603   1.216  -1.153  1.00  0.00     0.161 HD
ENDROOT
BRANCH  10  12
HETATM   12  C14 UNL     1      -2.045   0.169  -0.272  1.00  0.00     0.141 C 
BRANCH  12  13
HETATM   13  C15 UNL     1      -2.903   0.572  -1.477  1.00  0.00     0.144 C 
BRANCH  13  14
HETATM   14  N5  UNL     1      -4.281   0.203  -1.334  1.00  0.00    -0.341 N 
HETATM   15  C16 UNL     1      -5.183   0.632  -0.354  1.00  0.00     0.318 C 
HETATM   16  O1  UNL     1      -4.778   1.444   0.531  1.00  0.00    -0.247 OA
HETATM   17  N6  UNL     1      -6.545   0.217  -0.273  1.00  0.00    -0.332 N 
ATOM     18  H5  UNL     1      -4.647  -0.449  -2.028  1.00  0.00     0.164 HD
BRANCH  17  19
HETATM   19  C17 UNL     1      -7.150  -0.698  -1.217  1.00  0.00     0.142 C 
BRANCH  19  20
HETATM   20  C18 UNL     1      -6.972  -2.145  -0.752  1.00  0.00     0.134 C 
HETATM   21 CL1  UNL     1      -7.723  -3.245  -1.929  1.00  0.00    -0.129 Cl
ENDBRANCH  19  20
ENDBRANCH  17  19
BRANCH  17  22
HETATM   22  C19 UNL     1      -7.384   0.699   0.792  1.00  0.00     0.142 C 
BRANCH  22  23
HETATM   23  C20 UNL     1      -8.101   1.977   0.513  1.00  0.00     0.134 C 
HETATM   24 CL2  UNL     1      -9.194   1.921  -0.872  1.00  0.00    -0.129 Cl
ENDBRANCH  22  23
ENDBRANCH  17  22
ENDBRANCH  13  14
ENDBRANCH  12  13
ENDBRANCH  10  12
BRANCH   6  25
HETATM   25  N2  UNL     1       3.735   1.354  -0.514  1.00  0.00    -0.226 N 
ATOM     26  H2  UNL     1       3.530   2.009  -1.268  1.00  0.00     0.177 HD
BRANCH  25  27
HETATM   27  C5  UNL     1       5.091   1.195  -0.094  1.00  0.00     0.142 C 
BRANCH  27  28
HETATM   28  C6  UNL     1       5.766   0.004  -0.785  1.00  0.00     0.058 C 
BRANCH  28  29
HETATM   29  C7  UNL     1       7.163  -0.083  -0.289  1.00  0.00    -0.057 A 
HETATM   30  C8  UNL     1       8.169   0.611  -0.968  1.00  0.00     0.010 A 
HETATM   31  C9  UNL     1       9.465   0.533  -0.512  1.00  0.00     0.043 A 
HETATM   32  C10 UNL     1       9.826  -0.205   0.594  1.00  0.00     0.116 A 
HETATM   33  F1  UNL     1      11.104  -0.278   1.039  1.00  0.00    -0.206 F 
HETATM   34  C11 UNL     1       8.828  -0.885   1.256  1.00  0.00     0.043 A 
HETATM   35  C12 UNL     1       7.525  -0.821   0.818  1.00  0.00     0.010 A 
ENDBRANCH  28  29
ENDBRANCH  27  28
ENDBRANCH  25  27
ENDBRANCH   6  25
TORSDOF 11
