REMARK  14 active torsions:
REMARK  status: ('A' for Active; 'I' for Inactive)
REMARK    1  A    between atoms: N1_2  and  C2_3 
REMARK    2  A    between atoms: N1_2  and  C16_25 
REMARK    3  A    between atoms: C2_3  and  C3_4 
REMARK    4  A    between atoms: C3_4  and  C4_5 
REMARK    5  A    between atoms: C4_5  and  C5_6 
REMARK    6  A    between atoms: C5_6  and  C6_7 
REMARK    7  A    between atoms: C6_7  and  N2_8 
REMARK    8  A    between atoms: N2_8  and  C7_10 
REMARK    9  A    between atoms: C7_10  and  N3_12 
REMARK   10  A    between atoms: N3_12  and  C8_14 
REMARK   11  A    between atoms: C8_14  and  C9_15 
REMARK   12  A    between atoms: C9_15  and  C10_16 
REMARK   13  A    between atoms: C16_25  and  C17_26 
REMARK       I    between atoms: C17_26  and  N4_28 
REMARK   14  A    between atoms: N4_28  and  C18_30 
ROOT
HETATM    1  C5  UNL     1       0.999   1.327   1.957  1.00  0.00     0.020 C 
ENDROOT
BRANCH   1   2
HETATM    2  C4  UNL     1      -0.211   2.133   2.089  1.00  0.00     0.003 C 
BRANCH   2   3
HETATM    3  C3  UNL     1      -1.551   1.670   1.756  1.00  0.00     0.030 C 
BRANCH   3   4
HETATM    4  C2  UNL     1      -1.856   1.336   0.366  1.00  0.00     0.272 C 
BRANCH   4   5
HETATM    5  N1  UNL     1      -3.272   0.920   0.146  1.00  0.00     0.092 N 
HETATM    6  C1  UNL     1      -3.369   0.621  -1.300  1.00  0.00     0.310 C 
BRANCH   5   7
HETATM    7  C16 UNL     1      -4.216   1.930   0.440  1.00  0.00     0.373 C 
BRANCH   7   8
HETATM    8  C17 UNL     1      -5.597   1.409   0.368  1.00  0.00     0.246 C 
HETATM    9  O1  UNL     1      -6.575   2.217   0.569  1.00  0.00    -0.272 OA
HETATM   10  N4  UNL     1      -5.915   0.071   0.092  1.00  0.00    -0.353 N 
ATOM     11  H4  UNL     1      -5.165  -0.602  -0.069  1.00  0.00     0.163 HD
BRANCH  10  12
HETATM   12  C18 UNL     1      -7.315  -0.374   0.032  1.00  0.00     0.111 C 
HETATM   13  C19 UNL     1      -7.707  -0.830  -1.345  1.00  0.00     0.148 C 
HETATM   14  N5  UNL     1      -7.919  -2.253  -1.255  1.00  0.00    -0.359 N 
HETATM   15  C20 UNL     1      -8.239  -2.565   0.088  1.00  0.00     0.219 C 
ATOM     16  H5  UNL     1      -7.850  -2.919  -2.025  1.00  0.00     0.162 HD
HETATM   17  O2  UNL     1      -8.964  -3.493   0.485  1.00  0.00    -0.274 OA
HETATM   18  C21 UNL     1      -7.541  -1.571   0.930  1.00  0.00     0.129 C 
ENDBRANCH  10  12
ENDBRANCH   7   8
ENDBRANCH   5   7
ENDBRANCH   4   5
ENDBRANCH   3   4
ENDBRANCH   2   3
ENDBRANCH   1   2
BRANCH   1  19
HETATM   19  C6  UNL     1       1.370   0.877   0.605  1.00  0.00     0.122 C 
BRANCH  19  20
HETATM   20  N2  UNL     1       2.668   0.139   0.657  1.00  0.00    -0.367 N 
ATOM     21  H2  UNL     1       3.139  -0.046   1.542  1.00  0.00     0.161 HD
BRANCH  20  22
HETATM   22  C7  UNL     1       3.208  -0.286  -0.557  1.00  0.00     0.167 C 
HETATM   23  S1  UNL     1       2.507  -0.001  -1.977  1.00  0.00    -0.041 SA
BRANCH  22  24
HETATM   24  N3  UNL     1       4.461  -1.012  -0.536  1.00  0.00    -0.367 N 
ATOM     25  H3  UNL     1       4.913  -1.203   0.358  1.00  0.00     0.161 HD
BRANCH  24  26
HETATM   26  C8  UNL     1       5.073  -1.464  -1.737  1.00  0.00     0.127 C 
BRANCH  26  27
HETATM   27  C9  UNL     1       6.363  -2.161  -1.563  1.00  0.00     0.063 C 
BRANCH  27  28
HETATM   28  C10 UNL     1       7.446  -1.399  -0.926  1.00  0.00     0.004 A 
HETATM   29  C11 UNL     1       7.777  -1.390   0.400  1.00  0.00     0.126 A 
HETATM   30  F1  UNL     1       7.189  -2.233   1.267  1.00  0.00    -0.205 F 
HETATM   31  C12 UNL     1       8.770  -0.558   0.892  1.00  0.00     0.066 A 
HETATM   32  C13 UNL     1       9.465   0.287   0.087  1.00  0.00     0.038 A 
HETATM   33 CL1  UNL     1      10.717   1.343   0.680  1.00  0.00    -0.084 Cl
HETATM   34  C14 UNL     1       9.156   0.297  -1.249  1.00  0.00     0.048 A 
HETATM   35  C15 UNL     1       8.177  -0.520  -1.739  1.00  0.00     0.045 A 
HETATM   36 CL2  UNL     1       7.761  -0.514  -3.455  1.00  0.00    -0.084 Cl
ENDBRANCH  27  28
ENDBRANCH  26  27
ENDBRANCH  24  26
ENDBRANCH  22  24
ENDBRANCH  20  22
ENDBRANCH  19  20
ENDBRANCH   1  19
TORSDOF 14
