REMARK  9 active torsions:
REMARK  status: ('A' for Active; 'I' for Inactive)
REMARK    1  A    between atoms: C2_2  and  C3_3 
REMARK    2  A    between atoms: C3_3  and  C4_4 
REMARK    3  A    between atoms: C3_3  and  N1_6 
REMARK    4  A    between atoms: C7_11  and  N3_12 
REMARK    5  A    between atoms: N3_12  and  C8_14 
REMARK    6  A    between atoms: C8_14  and  C9_15 
REMARK    7  A    between atoms: C9_15  and  C10_16 
REMARK    8  A    between atoms: C13_21  and  N5_22 
REMARK       I    between atoms: N5_22  and  C14_24 
REMARK    9  A    between atoms: C14_24  and  C15_26 
ROOT
HETATM    1  N1  UNL     1      -1.260  -2.501  -0.166  1.00  0.00    -0.221 N 
ATOM      2  H1  UNL     1      -0.625  -3.258  -0.420  1.00  0.00     0.178 HD
HETATM    3  C6  UNL     1      -0.575  -1.514   0.141  1.00  0.00     0.707 A 
HETATM    4  N2  UNL     1       0.794  -1.674   0.068  1.00  0.00    -0.022 N 
ATOM      5  H2  UNL     1       1.165  -2.577  -0.228  1.00  0.00     0.203 HD
HETATM    6  C7  UNL     1       1.653  -0.698   0.368  1.00  0.00     0.707 A 
HETATM    7  N4  UNL     1       1.148   0.486   0.756  1.00  0.00    -0.021 N 
ATOM      8  H4  UNL     1       1.785   1.248   0.991  1.00  0.00     0.203 HD
HETATM    9  C13 UNL     1      -0.175   0.687   0.841  1.00  0.00     0.714 A 
HETATM   10  N6  UNL     1      -1.040  -0.320   0.531  1.00  0.00    -0.021 N 
ATOM     11  H6  UNL     1      -2.046  -0.163   0.596  1.00  0.00     0.203 HD
ENDROOT
BRANCH   9  12
HETATM   12  N5  UNL     1      -0.654   1.846   1.220  1.00  0.00    -0.154 N 
HETATM   13  C14 UNL     1      -2.022   2.109   1.326  1.00  0.00     0.276 C 
HETATM   14  O1  UNL     1      -2.679   1.625   2.276  1.00  0.00    -0.267 OA
ATOM     15  H5  UNL     1       0.003   2.592   1.449  1.00  0.00     0.187 HD
BRANCH  13  16
HETATM   16  C15 UNL     1      -2.725   2.937   0.358  1.00  0.00     0.116 A 
HETATM   17  C16 UNL     1      -4.071   3.197   0.459  1.00  0.00     0.176 A 
HETATM   18  F1  UNL     1      -4.752   2.645   1.518  1.00  0.00    -0.202 F 
HETATM   19  C17 UNL     1      -4.791   3.973  -0.424  1.00  0.00     0.197 A 
HETATM   20  F2  UNL     1      -6.120   4.167  -0.233  1.00  0.00    -0.199 F 
HETATM   21  C18 UNL     1      -4.105   4.525  -1.486  1.00  0.00     0.199 A 
HETATM   22  F3  UNL     1      -4.818   5.286  -2.351  1.00  0.00    -0.199 F 
HETATM   23  C19 UNL     1      -2.750   4.291  -1.628  1.00  0.00     0.197 A 
HETATM   24  F4  UNL     1      -2.114   4.864  -2.701  1.00  0.00    -0.199 F 
HETATM   25  C20 UNL     1      -2.059   3.511  -0.728  1.00  0.00     0.176 A 
HETATM   26  F5  UNL     1      -0.754   3.315  -0.907  1.00  0.00    -0.202 F 
ENDBRANCH  13  16
ENDBRANCH   9  12
BRANCH   6  27
HETATM   27  N3  UNL     1       2.946  -0.889   0.287  1.00  0.00    -0.225 N 
ATOM     28  H3  UNL     1       3.329  -1.788  -0.007  1.00  0.00     0.177 HD
BRANCH  27  29
HETATM   29  C8  UNL     1       3.802   0.204   0.624  1.00  0.00     0.138 C 
BRANCH  29  30
HETATM   30  C9  UNL     1       5.249  -0.197   0.386  1.00  0.00     0.024 C 
BRANCH  30  31
HETATM   31  C10 UNL     1       6.091   1.023   0.770  1.00  0.00    -0.021 C 
HETATM   32  C11 UNL     1       5.668   2.168  -0.115  1.00  0.00     0.009 C 
HETATM   33  C12 UNL     1       7.538   0.662   0.526  1.00  0.00     0.009 C 
ENDBRANCH  30  31
ENDBRANCH  29  30
ENDBRANCH  27  29
ENDBRANCH   6  27
BRANCH   1  34
HETATM   34  C3  UNL     1      -2.548  -2.968  -0.296  1.00  0.00     0.098 C 
BRANCH  34  35
HETATM   35  C2  UNL     1      -3.621  -1.941  -0.442  1.00  0.00     0.021 C 
HETATM   36  C1  UNL     1      -4.938  -2.561  -0.907  1.00  0.00     0.007 C 
ENDBRANCH  34  35
BRANCH  34  37
HETATM   37  C4  UNL     1      -2.933  -4.028   0.744  1.00  0.00     0.021 C 
HETATM   38  C5  UNL     1      -1.851  -5.059   0.887  1.00  0.00     0.007 C 
ENDBRANCH  34  37
ENDBRANCH   1  34
TORSDOF 9
