REMARK  2 active torsions:
REMARK  status: ('A' for Active; 'I' for Inactive)
REMARK    1  A    between atoms: C2_2  and  N1_4 
REMARK    2  A    between atoms: C2_2  and  N2_8 
ROOT
HETATM    1  C1  UNL     1      -1.118  -1.223  -0.423  1.00  0.00     0.081 C 
HETATM    2  C2  UNL     1      -0.499  -0.122   0.462  1.00  0.00     0.311 C 
HETATM    3  C3  UNL     1      -0.771   1.183  -0.242  1.00  0.00     0.081 C 
ENDROOT
BRANCH   2   4
HETATM    4  N1  UNL     1      -1.304  -0.124   1.678  1.00  0.00    -0.043 N 
ATOM      5  H13 UNL     1      -2.304  -0.009   1.513  1.00  0.00     0.277 HD
ATOM      6  H12 UNL     1      -1.365  -1.035   2.133  1.00  0.00     0.277 HD
ATOM      7  H11 UNL     1      -0.895   0.604   2.263  1.00  0.00     0.277 HD
ENDBRANCH   2   4
BRANCH   2   8
HETATM    8  N2  UNL     1       0.843  -0.472   0.666  1.00  0.00     0.128 N 
HETATM    9  C4  UNL     1       1.824  -0.573  -0.348  1.00  0.00     0.306 A 
HETATM   10  C5  UNL     1       1.939   0.414   0.825  1.00  0.00     0.306 A 
ENDBRANCH   2   8
TORSDOF 2
