REMARK  3 active torsions:
REMARK  status: ('A' for Active; 'I' for Inactive)
REMARK    1  A    between atoms: O1_1  and  C1_3 
REMARK    2  A    between atoms: C6_8  and  O2_9 
REMARK    3  A    between atoms: C9_13  and  O3_14 
ROOT
HETATM    1  C1  UNL     1       1.700   0.488   0.309  1.00  0.00     0.147 C 
HETATM    2  C2  UNL     1       0.539   1.402   0.214  1.00  0.00     0.042 C 
HETATM    3  C3  UNL     1      -0.665   0.884  -0.454  1.00  0.00     0.027 C 
HETATM    4  C4  UNL     1      -0.635  -0.553  -0.857  1.00  0.00     0.002 C 
HETATM    5  C5  UNL     1      -2.136  -0.562  -0.530  1.00  0.00     0.043 C 
HETATM    6  C6  UNL     1      -1.690   0.400   0.582  1.00  0.00     0.063 C 
HETATM    7  C7  UNL     1      -0.856  -0.477   1.444  1.00  0.00     0.045 C 
HETATM    8  C8  UNL     1      -0.086  -1.252   0.361  1.00  0.00     0.024 C 
HETATM    9  C9  UNL     1       1.382  -0.959   0.412  1.00  0.00     0.151 C 
ENDROOT
BRANCH   1  10
HETATM   10  O1  UNL     1       2.601   0.748  -0.750  1.00  0.00    -0.393 OA
ATOM     11  H1  UNL     1       3.346   0.162  -0.689  1.00  0.00     0.210 HD
ENDBRANCH   1  10
BRANCH   9  12
HETATM   12  O3  UNL     1       1.994  -1.563   1.534  1.00  0.00    -0.393 OA
ATOM     13  H3  UNL     1       1.791  -2.489   1.600  1.00  0.00     0.210 HD
ENDBRANCH   9  12
BRANCH   6  14
HETATM   14  O2  UNL     1      -2.564   1.263   1.067  1.00  0.00    -0.389 OA
ATOM     15  H2  UNL     1      -3.198   0.964   1.708  1.00  0.00     0.210 HD
ENDBRANCH   6  14
TORSDOF 3
