REMARK  7 active torsions:
REMARK  status: ('A' for Active; 'I' for Inactive)
REMARK    1  A    between atoms: C4_4  and  C5_5 
REMARK    2  A    between atoms: C5_5  and  C6_6 
REMARK    3  A    between atoms: C6_6  and  C7_7 
REMARK    4  A    between atoms: C7_7  and  C8_8 
REMARK    5  A    between atoms: C8_8  and  C9_9 
REMARK    6  A    between atoms: C9_9  and  N1_10 
REMARK    7  A    between atoms: N1_10  and  C10_12 
ROOT
HETATM    1  C10 UNL     1      -2.080  -0.589   0.206  1.00  0.00     0.042 A 
HETATM    2  C11 UNL     1      -1.369  -1.102   1.300  1.00  0.00     0.047 A 
HETATM    3  C12 UNL     1      -1.963  -1.331   2.503  1.00  0.00     0.090 A 
HETATM    4  N2  UNL     1      -3.260  -1.060   2.648  1.00  0.00    -0.365 N 
ATOM      5  H2  UNL     1      -3.705  -1.232   3.549  1.00  0.00     0.165 HD
HETATM    6  C13 UNL     1      -3.996  -0.567   1.639  1.00  0.00     0.045 A 
HETATM    7  C14 UNL     1      -5.330  -0.295   1.808  1.00  0.00     0.031 A 
HETATM    8  C15 UNL     1      -6.121   0.206   0.818  1.00  0.00     0.014 A 
HETATM    9  C16 UNL     1      -5.526   0.438  -0.398  1.00  0.00    -0.025 A 
HETATM   10  C17 UNL     1      -6.318   0.951  -1.428  1.00  0.00     0.012 A 
HETATM   11  C18 UNL     1      -5.792   1.209  -2.669  1.00  0.00     0.001 A 
HETATM   12  C19 UNL     1      -4.460   0.956  -2.902  1.00  0.00     0.001 A 
HETATM   13  C20 UNL     1      -3.641   0.442  -1.887  1.00  0.00     0.013 A 
HETATM   14  C21 UNL     1      -4.181   0.193  -0.664  1.00  0.00    -0.011 A 
HETATM   15  C22 UNL     1      -3.402  -0.321   0.381  1.00  0.00     0.028 A 
ENDROOT
BRANCH   1  16
HETATM   16  N1  UNL     1      -1.451  -0.406  -0.877  1.00  0.00    -0.389 N 
ATOM     17  H1  UNL     1      -1.977  -0.033  -1.667  1.00  0.00     0.159 HD
BRANCH  16  18
HETATM   18  C9  UNL     1      -0.042  -0.684  -1.086  1.00  0.00     0.119 C 
BRANCH  18  19
HETATM   19  C8  UNL     1       0.848   0.405  -0.591  1.00  0.00     0.020 C 
BRANCH  19  20
HETATM   20  C7  UNL     1       2.308   0.127  -0.801  1.00  0.00     0.002 C 
BRANCH  20  21
HETATM   21  C6  UNL     1       2.783  -1.111  -0.107  1.00  0.00     0.005 C 
BRANCH  21  22
HETATM   22  C5  UNL     1       4.256  -1.349  -0.352  1.00  0.00     0.038 C 
BRANCH  22  23
HETATM   23  C4  UNL     1       5.111  -0.237   0.133  1.00  0.00    -0.058 A 
HETATM   24  C3  UNL     1       5.551  -0.315   1.445  1.00  0.00     0.007 A 
HETATM   25  C2  UNL     1       6.347   0.687   1.932  1.00  0.00     0.001 A 
HETATM   26  C1  UNL     1       6.706   1.752   1.139  1.00  0.00     0.000 A 
HETATM   27  C24 UNL     1       6.266   1.827  -0.173  1.00  0.00     0.001 A 
HETATM   28  C23 UNL     1       5.478   0.834  -0.651  1.00  0.00     0.007 A 
ENDBRANCH  22  23
ENDBRANCH  21  22
ENDBRANCH  20  21
ENDBRANCH  19  20
ENDBRANCH  18  19
ENDBRANCH  16  18
ENDBRANCH   1  16
TORSDOF 7
