REMARK  3 active torsions:
REMARK  status: ('A' for Active; 'I' for Inactive)
REMARK    1  A    between atoms: N1_1  and  C1_4 
REMARK    2  A    between atoms: C4_11  and  N4_12 
REMARK    3  A    between atoms: N4_12  and  N5_14 
ROOT
HETATM    1  C1  UNL     1      -0.702   1.128  -0.296  1.00  0.00     0.142 A 
HETATM    2  N2  UNL     1      -2.050   0.933  -0.306  1.00  0.00    -0.284 N 
ATOM      3  H2  UNL     1      -2.700   1.694  -0.501  1.00  0.00     0.188 HD
HETATM    4  N3  UNL     1      -2.470  -0.287  -0.051  1.00  0.00    -0.310 N 
ATOM      5  H3  UNL     1      -3.474  -0.468  -0.050  1.00  0.00     0.186 HD
HETATM    6  C2  UNL     1      -1.631  -1.306   0.208  1.00  0.00     0.109 A 
HETATM    7  C3  UNL     1      -0.267  -1.130   0.223  1.00  0.00     0.053 A 
HETATM    8  C4  UNL     1       0.208   0.141  -0.041  1.00  0.00     0.093 A 
ENDROOT
BRANCH   8   9
HETATM    9  N4  UNL     1       1.608   0.284  -0.018  1.00  0.00    -0.304 N 
ATOM     10  H4  UNL     1       2.001   1.206  -0.207  1.00  0.00     0.186 HD
BRANCH   9  11
HETATM   11  N5  UNL     1       2.482  -0.757   0.247  1.00  0.00    -0.345 N 
ATOM     12  H52 UNL     1       2.072  -1.672   0.434  1.00  0.00     0.176 HD
ATOM     13  H51 UNL     1       3.497  -0.653   0.264  1.00  0.00     0.176 HD
ENDBRANCH   9  11
ENDBRANCH   8   9
BRANCH   1  14
HETATM   14  N1  UNL     1      -0.308   2.321  -0.546  1.00  0.00    -0.383 N 
ATOM     15  H12 UNL     1      -0.987   3.058  -0.736  1.00  0.00     0.157 HD
ATOM     16  H11 UNL     1       0.701   2.467  -0.539  1.00  0.00     0.157 HD
ENDBRANCH   1  14
TORSDOF 3
