REMARK  9 active torsions:
REMARK  status: ('A' for Active; 'I' for Inactive)
REMARK    1  A    between atoms: C2_2  and  C3_3 
REMARK    2  A    between atoms: C2_2  and  C4_5 
REMARK    3  A    between atoms: C9_11  and  C11_13 
REMARK    4  A    between atoms: C11_13  and  C12_14 
REMARK    5  A    between atoms: C22_25  and  C23_26 
REMARK    6  A    between atoms: C23_26  and  O4_27 
REMARK    7  A    between atoms: C23_26  and  C24_29 
REMARK    8  A    between atoms: C24_29  and  O5_30 
REMARK    9  A    between atoms: C25_32  and  O6_33 
ROOT
HETATM    1  C12 UNL     1      -0.243  -0.013  -0.068  1.00  0.00     0.056 C 
HETATM    2  C13 UNL     1      -0.497  -0.497  -1.402  1.00  0.00     0.133 C 
HETATM    3  O3  UNL     1       0.260  -0.584  -2.463  1.00  0.00    -0.385 OA
HETATM    4  C14 UNL     1      -0.652  -1.364  -3.298  1.00  0.00     0.168 C 
HETATM    5  C15 UNL     1      -0.805  -2.597  -2.352  1.00  0.00     0.034 C 
HETATM    6  C16 UNL     1      -0.796  -1.976  -1.049  1.00  0.00     0.028 C 
HETATM    7  C17 UNL     1      -1.993  -1.726  -0.220  1.00  0.00    -0.002 C 
HETATM    8  C18 UNL     1      -2.068  -2.897   0.793  1.00  0.00     0.019 C 
HETATM    9  C19 UNL     1      -3.290  -1.763  -0.937  1.00  0.00     0.017 C 
HETATM   10  C20 UNL     1      -4.328  -1.112   0.014  1.00  0.00     0.028 C 
HETATM   11  C21 UNL     1      -3.887   0.336  -0.085  1.00  0.00    -0.018 C 
HETATM   12  C22 UNL     1      -2.622   0.634   0.118  1.00  0.00    -0.018 C 
HETATM   13  C25 UNL     1      -1.670  -0.412   0.497  1.00  0.00     0.097 C 
ENDROOT
BRANCH   1  14
HETATM   14  C11 UNL     1       0.784  -0.568   0.803  1.00  0.00     0.027 C 
BRANCH  14  15
HETATM   15  C9  UNL     1       2.159  -0.589   0.530  1.00  0.00     0.010 A 
HETATM   16  C4  UNL     1       2.852   0.923   0.408  1.00  0.00    -0.030 A 
HETATM   17  C5  UNL     1       3.560   0.876   1.629  1.00  0.00     0.051 A 
HETATM   18  C6  UNL     1       4.272   0.825   2.862  1.00  0.00     0.067 A 
HETATM   19  O2  UNL     1       3.118  -0.081   1.741  1.00  0.00    -0.349 OA
HETATM   20  C7  UNL     1       3.538  -0.820   3.111  1.00  0.00     0.040 A 
HETATM   21  C8  UNL     1       2.818  -0.937   2.000  1.00  0.00     0.141 A 
HETATM   22  C10 UNL     1       2.918  -1.430  -0.358  1.00  0.00     0.023 C 
BRANCH  16  23
HETATM   23  C2  UNL     1       2.798   1.950  -0.459  1.00  0.00     0.075 C 
HETATM   24  C1  UNL     1       3.429   3.311  -0.041  1.00  0.00     0.022 C 
BRANCH  23  25
HETATM   25  C3  UNL     1       3.345   1.723  -1.876  1.00  0.00     0.239 C 
HETATM   26  O1  UNL     1       4.250   2.012  -2.440  1.00  0.00    -0.306 OA
ENDBRANCH  23  25
ENDBRANCH  16  23
ENDBRANCH  14  15
ENDBRANCH   1  14
BRANCH  13  27
HETATM   27  O6  UNL     1      -1.622  -0.534   1.867  1.00  0.00    -0.384 OA
ATOM     28  H6  UNL     1      -2.477  -0.773   2.205  1.00  0.00     0.211 HD
ENDBRANCH  13  27
BRANCH  12  29
HETATM   29  C23 UNL     1      -2.281   2.101  -0.015  1.00  0.00     0.173 C 
BRANCH  29  30
HETATM   30  O4  UNL     1      -3.353   2.795  -0.600  1.00  0.00    -0.389 OA
ATOM     31  H4  UNL     1      -3.139   3.717  -0.684  1.00  0.00     0.210 HD
ENDBRANCH  29  30
BRANCH  29  32
HETATM   32  C24 UNL     1      -1.927   2.766   1.273  1.00  0.00     0.200 C 
BRANCH  32  33
HETATM   33  O5  UNL     1      -1.527   4.072   1.122  1.00  0.00    -0.398 OA
ATOM     34  H5  UNL     1      -1.302   4.495   1.942  1.00  0.00     0.209 HD
ENDBRANCH  32  33
ENDBRANCH  29  32
ENDBRANCH  12  29
TORSDOF 9
