REMARK  11 active torsions:
REMARK  status: ('A' for Active; 'I' for Inactive)
REMARK    1  A    between atoms: C2_2  and  C3_3 
REMARK    2  A    between atoms: C3_3  and  C4_4 
REMARK    3  A    between atoms: C5_5  and  C6_6 
REMARK    4  A    between atoms: C6_6  and  C7_7 
REMARK    5  A    between atoms: C7_7  and  C8_8 
REMARK    6  A    between atoms: C8_8  and  C9_9 
REMARK    7  A    between atoms: C13_18  and  O2_19 
REMARK    8  A    between atoms: C18_28  and  C19_29 
REMARK    9  A    between atoms: C19_29  and  C20_30 
REMARK   10  A    between atoms: C20_30  and  C21_31 
REMARK   11  A    between atoms: C21_31  and  N5_32 
ROOT
HETATM    1  C9  UNL     1       1.499  -1.035  -1.271  1.00  0.00     0.042 C 
HETATM    2  C10 UNL     1       1.097  -2.494  -1.659  1.00  0.00     0.132 C 
HETATM    3  N1  UNL     1       1.145  -3.411  -0.584  1.00  0.00    -0.359 N 
ATOM      4  H1  UNL     1       2.071  -3.643  -0.224  1.00  0.00     0.162 HD
HETATM    5  C11 UNL     1       0.035  -4.047   0.051  1.00  0.00     0.235 C 
HETATM    6  O1  UNL     1       0.183  -5.202   0.518  1.00  0.00    -0.272 OA
HETATM    7  C12 UNL     1      -1.306  -3.412   0.192  1.00  0.00     0.224 C 
HETATM    8  N2  UNL     1      -2.042  -3.408  -1.042  1.00  0.00    -0.362 N 
ATOM      9  H2  UNL     1      -1.726  -4.088  -1.734  1.00  0.00     0.162 HD
HETATM   10  C13 UNL     1      -3.125  -2.616  -1.443  1.00  0.00     0.136 C 
HETATM   11  C14 UNL     1      -4.261  -2.119  -0.711  1.00  0.00     0.060 C 
HETATM   12  C15 UNL     1      -4.396  -1.309   0.308  1.00  0.00     0.068 C 
HETATM   13  C16 UNL     1      -3.461  -0.584   1.108  1.00  0.00     0.173 C 
HETATM   14  N3  UNL     1      -3.598  -0.741   2.374  1.00  0.00    -0.411 NA
HETATM   15  C17 UNL     1      -3.780  -0.887   3.619  1.00  0.00     0.231 C 
HETATM   16  N4  UNL     1      -2.416   0.292   0.790  1.00  0.00    -0.352 N 
ATOM     17  H4  UNL     1      -1.679   0.382   1.489  1.00  0.00     0.163 HD
HETATM   18  C18 UNL     1      -2.254   1.085  -0.409  1.00  0.00     0.177 C 
HETATM   19  C22 UNL     1      -0.861   1.593  -0.545  1.00  0.00     0.245 C 
HETATM   20  O3  UNL     1      -0.520   2.557   0.204  1.00  0.00    -0.271 OA
HETATM   21  N6  UNL     1       0.140   1.106  -1.442  1.00  0.00    -0.334 N 
HETATM   22  C23 UNL     1       1.004   2.084  -2.144  1.00  0.00     0.158 C 
HETATM   23  C24 UNL     1       0.316  -0.262  -1.708  1.00  0.00     0.072 C 
ENDROOT
BRANCH  18  24
HETATM   24  C19 UNL     1      -3.088   2.341  -0.249  1.00  0.00     0.036 C 
BRANCH  24  25
HETATM   25  C20 UNL     1      -4.541   2.139  -0.056  1.00  0.00     0.030 C 
BRANCH  25  26
HETATM   26  C21 UNL     1      -5.149   3.553   0.055  1.00  0.00     0.230 C 
BRANCH  26  27
HETATM   27  N5  UNL     1      -6.573   3.396   0.243  1.00  0.00    -0.079 N 
ATOM     28  H53 UNL     1      -7.011   2.830  -0.484  1.00  0.00     0.274 HD
ATOM     29  H52 UNL     1      -6.807   2.798   1.036  1.00  0.00     0.274 HD
ATOM     30  H51 UNL     1      -6.975   4.331   0.316  1.00  0.00     0.274 HD
ENDBRANCH  26  27
ENDBRANCH  25  26
ENDBRANCH  24  25
ENDBRANCH  18  24
BRANCH  10  31
HETATM   31  O2  UNL     1      -3.043  -2.299  -2.725  1.00  0.00    -0.346 OA
ATOM     32  H2  UNL     1      -3.778  -1.762  -2.997  1.00  0.00     0.219 HD
ENDBRANCH  10  31
BRANCH   1  33
HETATM   33  C8  UNL     1       1.925  -1.022   0.125  1.00  0.00     0.012 C 
BRANCH  33  34
HETATM   34  C7  UNL     1       2.432   0.163   0.799  1.00  0.00     0.004 C 
BRANCH  34  35
HETATM   35  C6  UNL     1       3.716   0.736   0.221  1.00  0.00     0.027 C 
BRANCH  35  36
HETATM   36  C5  UNL     1       4.819  -0.275   0.289  1.00  0.00    -0.030 C 
HETATM   37  C4  UNL     1       5.945  -0.118   0.909  1.00  0.00    -0.027 C 
BRANCH  37  38
HETATM   38  C3  UNL     1       6.379   1.064   1.664  1.00  0.00     0.053 C 
BRANCH  38  39
HETATM   39  C2  UNL     1       7.634   1.628   1.062  1.00  0.00    -0.033 C 
HETATM   40  C1  UNL     1       8.184   1.072   0.006  1.00  0.00     0.007 C 
ENDBRANCH  38  39
ENDBRANCH  37  38
ENDBRANCH  35  36
ENDBRANCH  34  35
ENDBRANCH  33  34
ENDBRANCH   1  33
TORSDOF 11
