REMARK  4 active torsions:
REMARK  status: ('A' for Active; 'I' for Inactive)
REMARK    1  A    between atoms: C2_2  and  N1_3 
REMARK    2  A    between atoms: N1_3  and  C5_6 
REMARK    3  A    between atoms: C5_6  and  C6_7 
REMARK       I    between atoms: C6_7  and  N2_9 
REMARK    4  A    between atoms: C9_13  and  C10_14 
ROOT
HETATM    1  C6  UNL     1       1.291  -0.629   1.170  1.00  0.00     0.249 C 
HETATM    2  O1  UNL     1       1.392  -1.873   1.219  1.00  0.00    -0.271 OA
HETATM    3  N2  UNL     1       0.002  -0.079   1.362  1.00  0.00    -0.304 N 
ATOM      4  H2  UNL     1      -0.155   0.451   2.219  1.00  0.00     0.171 HD
HETATM    5  C7  UNL     1      -0.987  -0.189   0.551  1.00  0.00     0.174 A 
HETATM    6  C8  UNL     1      -2.247   0.361   0.761  1.00  0.00     0.086 A 
HETATM    7  C9  UNL     1      -2.986   0.008  -0.332  1.00  0.00     0.044 A 
HETATM    8  N3  UNL     1      -2.187  -0.716  -1.143  1.00  0.00    -0.263 N 
ATOM      9  H3  UNL     1      -2.453  -1.122  -2.040  1.00  0.00     0.194 HD
HETATM   10  O2  UNL     1      -1.012  -0.806  -0.577  1.00  0.00    -0.220 OA
ENDROOT
BRANCH   1  11
HETATM   11  C5  UNL     1       2.473   0.206   0.923  1.00  0.00     0.339 C 
BRANCH  11  12
HETATM   12  N1  UNL     1       3.707  -0.489   0.755  1.00  0.00    -0.067 N 
HETATM   13  C3  UNL     1       3.884  -1.480   1.794  1.00  0.00     0.272 C 
HETATM   14  C4  UNL     1       3.763  -1.127  -0.542  1.00  0.00     0.272 C 
BRANCH  12  15
HETATM   15  C2  UNL     1       4.831   0.454   0.885  1.00  0.00     0.232 C 
HETATM   16  C1  UNL     1       4.616   1.686   0.069  1.00  0.00     0.035 C 
ENDBRANCH  12  15
ENDBRANCH  11  12
ENDBRANCH   1  11
BRANCH   7  17
HETATM   17  C10 UNL     1      -4.399   0.304  -0.673  1.00  0.00    -0.007 C 
HETATM   18  C11 UNL     1      -5.084   1.088   0.421  1.00  0.00     0.021 C 
HETATM   19  C12 UNL     1      -4.382   1.147  -1.940  1.00  0.00     0.021 C 
HETATM   20  C13 UNL     1      -5.101  -0.994  -0.955  1.00  0.00     0.021 C 
ENDBRANCH   7  17
TORSDOF 4
