REMARK  8 active torsions:
REMARK  status: ('A' for Active; 'I' for Inactive)
REMARK    1  A    between atoms: C2_2  and  C3_3 
REMARK    2  A    between atoms: C2_2  and  C6_11 
REMARK    3  A    between atoms: C3_3  and  N1_4 
REMARK    4  A    between atoms: C7_12  and  C8_13 
REMARK    5  A    between atoms: C9_17  and  N6_18 
REMARK    6  A    between atoms: N6_18  and  C10_20 
REMARK    7  A    between atoms: C10_20  and  C11_21 
REMARK    8  A    between atoms: C11_21  and  N7_22 
ROOT
HETATM    1  C6  UNL     1      -0.596  -0.038   0.697  1.00  0.00     0.064 A 
HETATM    2  C7  UNL     1       0.324  -0.942   0.112  1.00  0.00     0.078 A 
HETATM    3  N5  UNL     1       1.587  -0.572  -0.047  1.00  0.00    -0.190 N 
ATOM      4  H5  UNL     1       2.233  -1.240  -0.468  1.00  0.00     0.184 HD
HETATM    5  C9  UNL     1       2.076   0.651   0.319  1.00  0.00     0.681 A 
HETATM    6  N8  UNL     1       1.239   1.515   0.865  1.00  0.00    -0.155 N 
ATOM      7  H8  UNL     1       1.574   2.437   1.145  1.00  0.00     0.187 HD
HETATM    8  C12 UNL     1      -0.047   1.188   1.054  1.00  0.00     0.272 A 
HETATM    9  O1  UNL     1      -0.846   2.042   1.596  1.00  0.00    -0.267 OA
ENDROOT
BRANCH   1  10
HETATM   10  C2  UNL     1      -2.055  -0.309   0.709  1.00  0.00    -0.046 C 
HETATM   11  C1  UNL     1      -2.735  -0.520   1.991  1.00  0.00     0.046 C 
BRANCH  10  12
HETATM   12  C3  UNL     1      -2.707  -0.643  -0.586  1.00  0.00     0.184 C 
BRANCH  12  13
HETATM   13  N1  UNL     1      -3.962   0.116  -0.774  1.00  0.00    -0.283 N 
HETATM   14  C4  UNL     1      -4.046   1.401  -1.205  1.00  0.00     0.201 A 
HETATM   15  N2  UNL     1      -5.392   1.639  -1.279  1.00  0.00    -0.346 N 
HETATM   16  C5  UNL     1      -6.070   0.565  -0.911  1.00  0.00     0.198 A 
ATOM     17  H2  UNL     1      -5.812   2.520  -1.576  1.00  0.00     0.167 HD
HETATM   18  N3  UNL     1      -5.160  -0.394  -0.595  1.00  0.00    -0.293 N 
ATOM     19  H3  UNL     1      -5.369  -1.340  -0.276  1.00  0.00     0.188 HD
ENDBRANCH  12  13
ENDBRANCH  10  12
ENDBRANCH   1  10
BRANCH   2  20
HETATM   20  C8  UNL     1      -0.116  -2.267  -0.227  1.00  0.00     0.131 C 
HETATM   21  N4  UNL     1       0.862  -3.194  -0.718  1.00  0.00    -0.113 NA
ENDBRANCH   2  20
BRANCH   5  22
HETATM   22  N6  UNL     1       3.289   0.974   0.206  1.00  0.00    -0.224 N 
ATOM     23  H6  UNL     1       3.515   1.920   0.515  1.00  0.00     0.177 HD
BRANCH  22  24
HETATM   24  C10 UNL     1       4.386   0.225  -0.284  1.00  0.00     0.165 C 
BRANCH  24  25
HETATM   25  C11 UNL     1       5.597   1.139  -0.332  1.00  0.00     0.249 C 
BRANCH  25  26
HETATM   26  N7  UNL     1       5.371   2.250  -1.215  1.00  0.00    -0.078 N 
ATOM     27  H73 UNL     1       5.097   1.939  -2.147  1.00  0.00     0.274 HD
ATOM     28  H72 UNL     1       4.524   2.761  -0.967  1.00  0.00     0.274 HD
ATOM     29  H71 UNL     1       6.185   2.864  -1.247  1.00  0.00     0.274 HD
ENDBRANCH  25  26
ENDBRANCH  24  25
ENDBRANCH  22  24
ENDBRANCH   5  22
TORSDOF 8
