REMARK  4 active torsions:
REMARK  status: ('A' for Active; 'I' for Inactive)
REMARK    1  A    between atoms: O1_1  and  C1_3 
REMARK    2  A    between atoms: C2_5  and  O3_6 
REMARK    3  A    between atoms: C3_8  and  O4_9 
REMARK    4  A    between atoms: C5_13  and  O5_14 
ROOT
HETATM    1  C1  UNL     1      -1.378   0.300   0.056  1.00  0.00     0.289 C 
HETATM    2  O2  UNL     1      -0.508   1.254   0.589  1.00  0.00    -0.327 OA
HETATM    3  C2  UNL     1       0.623   1.223  -0.261  1.00  0.00     0.289 C 
HETATM    4  C3  UNL     1       1.390  -0.019   0.109  1.00  0.00     0.190 C 
HETATM    5  C4  UNL     1       0.587  -1.267   0.083  1.00  0.00     0.125 C 
HETATM    6 BR1  UNL     1       1.196  -2.389   1.560  1.00  0.00    -0.086 Br
HETATM    7  C5  UNL     1      -0.877  -1.100   0.195  1.00  0.00     0.190 C 
ENDROOT
BRANCH   1   8
HETATM    8  O1  UNL     1      -2.599   0.474   0.738  1.00  0.00    -0.368 OA
ATOM      9  H1  UNL     1      -3.191  -0.175   0.375  1.00  0.00     0.212 HD
ENDBRANCH   1   8
BRANCH   7  10
HETATM   10  O5  UNL     1      -1.365  -1.596   1.421  1.00  0.00    -0.389 OA
ATOM     11  H5  UNL     1      -1.046  -2.487   1.509  1.00  0.00     0.210 HD
ENDBRANCH   7  10
BRANCH   3  12
HETATM   12  O3  UNL     1       1.411   2.318   0.068  1.00  0.00    -0.368 OA
ATOM     13  H3  UNL     1       2.170   2.297  -0.503  1.00  0.00     0.212 HD
ENDBRANCH   3  12
BRANCH   4  14
HETATM   14  O4  UNL     1       2.516  -0.153  -0.716  1.00  0.00    -0.389 OA
ATOM     15  H4  UNL     1       3.000  -0.937  -0.483  1.00  0.00     0.210 HD
ENDBRANCH   4  14
TORSDOF 4
