REMARK  14 active torsions:
REMARK  status: ('A' for Active; 'I' for Inactive)
REMARK    1  A    between atoms: C2_2  and  C3_3 
REMARK    2  A    between atoms: C3_3  and  C4_4 
REMARK    3  A    between atoms: C4_4  and  N1_5 
REMARK    4  A    between atoms: N1_5  and  C5_7 
REMARK    5  A    between atoms: C6_10  and  N3_11 
REMARK    6  A    between atoms: C7_16  and  N5_17 
REMARK    7  A    between atoms: N5_17  and  C8_19 
REMARK    8  A    between atoms: C8_19  and  C9_20 
REMARK    9  A    between atoms: C9_20  and  O1_21 
REMARK   10  A    between atoms: N7_26  and  N8_28 
REMARK   11  A    between atoms: N8_28  and  C11_30 
REMARK   12  A    between atoms: C11_30  and  C12_31 
REMARK   13  A    between atoms: C12_31  and  N9_32 
REMARK   14  A    between atoms: N9_32  and  N10_34 
ROOT
HETATM    1  C5  UNL     1       1.182  -0.348  -0.995  1.00  0.00     0.167 C 
HETATM    2  N2  UNL     1       1.902   0.764  -1.226  1.00  0.00    -0.173 N 
ATOM      3  H2  UNL     1       2.711   0.639  -1.834  1.00  0.00     0.186 HD
HETATM    4  C6  UNL     1       1.711   2.036  -0.767  1.00  0.00     0.692 C 
HETATM    5  N4  UNL     1       0.587   2.614  -0.324  1.00  0.00    -0.023 N 
ATOM      6  H4  UNL     1       0.546   3.631  -0.386  1.00  0.00     0.203 HD
HETATM    7  C7  UNL     1      -0.480   2.011   0.187  1.00  0.00     0.694 C 
HETATM    8  N6  UNL     1      -0.834   0.722  -0.042  1.00  0.00    -0.171 N 
ATOM      9  H6  UNL     1      -1.830   0.528   0.063  1.00  0.00     0.186 HD
HETATM   10  C10 UNL     1      -0.091  -0.338  -0.383  1.00  0.00     0.180 C 
HETATM   11  N7  UNL     1      -0.553  -1.518  -0.141  1.00  0.00    -0.286 N 
ATOM     12  H7  UNL     1      -0.008  -2.344  -0.389  1.00  0.00     0.188 HD
ENDROOT
BRANCH   1  13
HETATM   13  N1  UNL     1       1.628  -1.492  -1.326  1.00  0.00    -0.352 N 
ATOM     14  H1  UNL     1       1.015  -2.279  -1.114  1.00  0.00     0.166 HD
BRANCH  13  15
HETATM   15  C4  UNL     1       2.842  -1.826  -1.941  1.00  0.00     0.062 C 
BRANCH  15  16
HETATM   16  C3  UNL     1       3.912  -2.300  -0.977  1.00  0.00     0.044 C 
BRANCH  16  17
HETATM   17  C2  UNL     1       4.265  -1.277   0.060  1.00  0.00     0.001 C 
HETATM   18  C1  UNL     1       5.329  -1.805   0.982  1.00  0.00     0.005 C 
ENDBRANCH  16  17
ENDBRANCH  15  16
ENDBRANCH  13  15
ENDBRANCH   1  13
BRANCH  11  19
HETATM   19  N8  UNL     1      -1.806  -1.658   0.464  1.00  0.00    -0.333 N 
ATOM     20  H8  UNL     1      -2.019  -1.089   1.283  1.00  0.00     0.180 HD
BRANCH  19  21
HETATM   21  C11 UNL     1      -2.811  -2.575  -0.023  1.00  0.00     0.160 C 
BRANCH  21  22
HETATM   22  C12 UNL     1      -4.052  -2.511   0.825  1.00  0.00     0.160 C 
BRANCH  22  23
HETATM   23  N9  UNL     1      -5.083  -3.384   0.407  1.00  0.00    -0.341 N 
ATOM     24  H9  UNL     1      -4.956  -3.988  -0.405  1.00  0.00     0.179 HD
BRANCH  23  25
HETATM   25  N10 UNL     1      -6.231  -3.401   1.100  1.00  0.00    -0.349 N 
ATOM     26 2H10 UNL     1      -6.342  -2.791   1.910  1.00  0.00     0.176 HD
ATOM     27 1H10 UNL     1      -6.975  -4.031   0.799  1.00  0.00     0.176 HD
ENDBRANCH  23  25
ENDBRANCH  22  23
ENDBRANCH  21  22
ENDBRANCH  19  21
ENDBRANCH  11  19
BRANCH   7  28
HETATM   28  N5  UNL     1      -1.219   2.707   0.948  1.00  0.00    -0.223 N 
ATOM     29  H5  UNL     1      -2.038   2.241   1.338  1.00  0.00     0.177 HD
BRANCH  28  30
HETATM   30  C8  UNL     1      -1.026   4.077   1.318  1.00  0.00     0.164 C 
BRANCH  30  31
HETATM   31  C9  UNL     1      -1.820   4.977   0.389  1.00  0.00     0.184 C 
BRANCH  31  32
HETATM   32  O1  UNL     1      -1.657   6.316   0.717  1.00  0.00    -0.399 OA
ATOM     33  H1  UNL     1      -2.154   6.879   0.136  1.00  0.00     0.209 HD
ENDBRANCH  31  32
ENDBRANCH  30  31
ENDBRANCH  28  30
ENDBRANCH   7  28
BRANCH   4  34
HETATM   34  N3  UNL     1       2.777   2.755  -0.774  1.00  0.00    -0.234 N 
ATOM     35  H32 UNL     1       3.633   2.315  -1.111  1.00  0.00     0.174 HD
ATOM     36  H31 UNL     1       2.634   3.705  -0.431  1.00  0.00     0.174 HD
ENDBRANCH   4  34
TORSDOF 14
