REMARK  12 active torsions:
REMARK  status: ('A' for Active; 'I' for Inactive)
REMARK    1  A    between atoms: N1_2  and  C2_5 
REMARK    2  A    between atoms: C2_5  and  C3_6 
REMARK    3  A    between atoms: C3_6  and  C4_7 
REMARK    4  A    between atoms: C4_7  and  N2_8 
REMARK    5  A    between atoms: N2_8  and  C5_11 
REMARK    6  A    between atoms: C5_11  and  C6_12 
REMARK    7  A    between atoms: C6_12  and  N3_13 
REMARK    8  A    between atoms: N3_13  and  C7_14 
REMARK    9  A    between atoms: N3_13  and  C9_20 
REMARK   10  A    between atoms: C7_14  and  C8_15 
REMARK   11  A    between atoms: C8_15  and  N4_16 
REMARK   12  A    between atoms: C13_28  and  O2_29 
ROOT
HETATM    1  N3  UNL     1      -1.306  -0.560   0.142  1.00  0.00    -0.340 N 
ENDROOT
BRANCH   1   2
HETATM    2  C6  UNL     1      -0.909   0.572  -0.530  1.00  0.00     0.092 C 
BRANCH   2   3
HETATM    3  C5  UNL     1       0.121   1.441   0.079  1.00  0.00     0.277 C 
BRANCH   3   4
HETATM    4  N2  UNL     1       1.396   0.763   0.195  1.00  0.00    -0.071 N 
ATOM      5  H22 UNL     1       1.684   0.318  -0.676  1.00  0.00     0.277 HD
ATOM      6  H21 UNL     1       1.342  -0.078   0.770  1.00  0.00     0.277 HD
BRANCH   4   7
HETATM    7  C4  UNL     1       2.356   1.691   0.676  1.00  0.00     0.234 C 
BRANCH   7   8
HETATM    8  C3  UNL     1       3.748   1.155   0.678  1.00  0.00     0.055 C 
BRANCH   8   9
HETATM    9  C2  UNL     1       4.170   0.795  -0.735  1.00  0.00     0.233 C 
BRANCH   9  10
HETATM   10  N1  UNL     1       5.543   0.340  -0.793  1.00  0.00    -0.079 N 
HETATM   11  C1  UNL     1       5.757  -0.916  -0.151  1.00  0.00     0.266 C 
ATOM     12  H12 UNL     1       6.173   1.049  -0.418  1.00  0.00     0.276 HD
ATOM     13  H11 UNL     1       5.873   0.312  -1.758  1.00  0.00     0.276 HD
ENDBRANCH   9  10
ENDBRANCH   8   9
ENDBRANCH   7   8
ENDBRANCH   4   7
ENDBRANCH   3   4
ENDBRANCH   2   3
ENDBRANCH   1   2
BRANCH   1  14
HETATM   14  C7  UNL     1      -0.468  -1.675   0.313  1.00  0.00     0.092 C 
BRANCH  14  15
HETATM   15  C8  UNL     1      -0.147  -2.452  -0.959  1.00  0.00     0.274 C 
BRANCH  15  16
HETATM   16  N4  UNL     1       0.722  -3.579  -0.673  1.00  0.00    -0.075 N 
ATOM     17  H43 UNL     1       1.569  -3.287  -0.186  1.00  0.00     0.274 HD
ATOM     18  H42 UNL     1       0.329  -4.184   0.049  1.00  0.00     0.274 HD
ATOM     19  H41 UNL     1       0.937  -4.099  -1.524  1.00  0.00     0.274 HD
ENDBRANCH  15  16
ENDBRANCH  14  15
ENDBRANCH   1  14
BRANCH   1  20
HETATM   20  C9  UNL     1      -2.636  -0.783   0.529  1.00  0.00     0.322 C 
HETATM   21  N5  UNL     1      -3.564  -0.513  -0.626  1.00  0.00    -0.022 N 
HETATM   22  C10 UNL     1      -4.763  -0.104   0.021  1.00  0.00     0.353 C 
ATOM     23  H52 UNL     1      -3.205   0.147  -1.316  1.00  0.00     0.282 HD
ATOM     24  H51 UNL     1      -3.674  -1.291  -1.276  1.00  0.00     0.282 HD
HETATM   25  O1  UNL     1      -4.649  -0.539   1.375  1.00  0.00    -0.348 OA
HETATM   26  C13 UNL     1      -4.709   1.395   0.261  1.00  0.00     0.177 C 
HETATM   27  C11 UNL     1      -3.311   0.002   1.561  1.00  0.00     0.177 C 
HETATM   28  C12 UNL     1      -3.588   1.423   1.316  1.00  0.00     0.072 C 
BRANCH  26  29
HETATM   29  O2  UNL     1      -4.412   2.145  -0.843  1.00  0.00    -0.391 OA
ATOM     30  H2  UNL     1      -4.378   3.082  -0.693  1.00  0.00     0.210 HD
ENDBRANCH  26  29
ENDBRANCH   1  20
TORSDOF 12
