REMARK  6 active torsions:
REMARK  status: ('A' for Active; 'I' for Inactive)
REMARK    1  A    between atoms: N1_1  and  N2_4 
REMARK    2  A    between atoms: N2_4  and  C1_6 
REMARK    3  A    between atoms: N4_11  and  C4_13 
REMARK    4  A    between atoms: C4_13  and  C5_14 
REMARK    5  A    between atoms: C5_14  and  N5_15 
REMARK    6  A    between atoms: C7_22  and  N9_23 
ROOT
HETATM    1  C1  UNL     1      -1.994   2.893  -1.165  1.00  0.00     0.156 C 
HETATM    2  C2  UNL     1      -1.458   1.765  -0.737  1.00  0.00     0.153 A 
HETATM    3  N3  UNL     1      -0.050   1.569  -0.727  1.00  0.00    -0.174 N 
ATOM      4  H3  UNL     1       0.588   2.296  -1.051  1.00  0.00     0.186 HD
HETATM    5  C3  UNL     1       0.436   0.322  -0.249  1.00  0.00     0.694 A 
HETATM    6  N4  UNL     1       1.696   0.121  -0.230  1.00  0.00    -0.224 N 
ATOM      7  H4  UNL     1       2.058  -0.770   0.111  1.00  0.00     0.177 HD
HETATM    8  N8  UNL     1      -0.474  -0.700   0.206  1.00  0.00    -0.022 N 
ATOM      9  H8  UNL     1      -0.092  -1.584   0.542  1.00  0.00     0.203 HD
HETATM   10  C7  UNL     1      -1.742  -0.539   0.204  1.00  0.00     0.696 A 
HETATM   11  N10 UNL     1      -2.262   0.696  -0.268  1.00  0.00    -0.174 N 
ATOM     12  H10 UNL     1      -3.274   0.821  -0.269  1.00  0.00     0.186 HD
ENDROOT
BRANCH   6  13
HETATM   13  C4  UNL     1       2.612   1.130  -0.681  1.00  0.00     0.157 C 
BRANCH  13  14
HETATM   14  C5  UNL     1       4.007   0.525  -0.707  1.00  0.00     0.142 C 
BRANCH  14  15
HETATM   15  N5  UNL     1       4.351   0.089   0.631  1.00  0.00    -0.365 N 
HETATM   16  C6  UNL     1       5.345  -0.703   0.839  1.00  0.00     0.197 C 
HETATM   17  N6  UNL     1       6.109  -1.150  -0.257  1.00  0.00    -0.067 NA
HETATM   18  N7  UNL     1       5.673  -1.123   2.153  1.00  0.00    -0.067 NA
ATOM     19  H5  UNL     1       3.796   0.415   1.422  1.00  0.00     0.161 HD
ENDBRANCH  14  15
ENDBRANCH  13  14
ENDBRANCH   6  13
BRANCH  10  20
HETATM   20  N9  UNL     1      -2.601  -1.581   0.665  1.00  0.00    -0.217 N 
HETATM   21  C8  UNL     1      -2.359  -3.006   0.546  1.00  0.00     0.141 C 
HETATM   22  C9  UNL     1      -3.764  -3.491   0.163  1.00  0.00     0.022 C 
HETATM   23  C10 UNL     1      -4.597  -2.745   1.183  1.00  0.00     0.022 C 
HETATM   24  C11 UNL     1      -3.880  -1.444   1.342  1.00  0.00     0.141 C 
ENDBRANCH  10  20
BRANCH   1  25
HETATM   25  N2  UNL     1      -1.234   3.986  -1.642  1.00  0.00    -0.315 N 
ATOM     26  H2  UNL     1      -0.360   3.804  -2.136  1.00  0.00     0.185 HD
BRANCH  25  27
HETATM   27  N1  UNL     1      -1.644   5.300  -1.456  1.00  0.00    -0.345 N 
ATOM     28  H12 UNL     1      -2.520   5.464  -0.960  1.00  0.00     0.176 HD
ATOM     29  H11 UNL     1      -1.096   6.088  -1.800  1.00  0.00     0.176 HD
ENDBRANCH  25  27
ENDBRANCH   1  25
TORSDOF 6
