REMARK  5 active torsions:
REMARK  status: ('A' for Active; 'I' for Inactive)
REMARK    1  A    between atoms: C2_2  and  C3_3 
REMARK    2  A    between atoms: C3_3  and  C4_4 
REMARK    3  A    between atoms: C5_6  and  C7_8 
REMARK    4  A    between atoms: C16_20  and  C17_21 
REMARK    5  A    between atoms: C26_30  and  O2_31 
ROOT
HETATM    1  C7  UNL     1       0.393  -0.842  -1.202  1.00  0.00     0.026 C 
HETATM    2  C8  UNL     1       0.104  -2.151  -1.932  1.00  0.00     0.009 C 
HETATM    3  C9  UNL     1      -1.057  -2.771  -1.276  1.00  0.00     0.017 C 
HETATM    4  C10 UNL     1      -1.512  -1.818  -0.169  1.00  0.00     0.016 A 
HETATM    5  C11 UNL     1      -1.672  -2.600   1.148  1.00  0.00    -0.000 A 
HETATM    6  N1  UNL     1      -1.215  -3.229   2.139  1.00  0.00    -0.404 N 
ATOM      7  H11 UNL     1      -1.321  -3.747   3.011  1.00  0.00     0.155 HD
ATOM      8  H12 UNL     1      -0.463  -3.623   2.705  1.00  0.00     0.155 HD
HETATM    9  C12 UNL     1      -2.794  -2.012   0.304  1.00  0.00     0.008 A 
HETATM   10  C13 UNL     1      -3.707  -3.068  -0.340  1.00  0.00     0.023 C 
HETATM   11  C14 UNL     1      -3.565  -1.027   1.110  1.00  0.00     0.017 C 
HETATM   12  C15 UNL     1      -2.627  -0.048   1.665  1.00  0.00     0.007 C 
HETATM   13  C16 UNL     1      -2.276   1.110   0.743  1.00  0.00    -0.003 C 
HETATM   14  C20 UNL     1      -1.416   0.709  -0.404  1.00  0.00    -0.039 C 
HETATM   15  C21 UNL     1      -0.357   1.809  -0.501  1.00  0.00     0.015 C 
HETATM   16  C22 UNL     1      -2.129   0.590  -1.722  1.00  0.00     0.015 C 
HETATM   17  C23 UNL     1      -0.702  -0.619  -0.193  1.00  0.00     0.016 C 
ENDROOT
BRANCH   1  18
HETATM   18  C5  UNL     1       1.771  -1.001  -0.657  1.00  0.00     0.062 C 
HETATM   19  O1  UNL     1       2.262   0.070   0.045  1.00  0.00    -0.372 OA
HETATM   20  C4  UNL     1       3.602   0.014   0.262  1.00  0.00     0.151 C 
HETATM   21  C26 UNL     1       4.438   0.253  -0.982  1.00  0.00     0.147 C 
HETATM   22  C25 UNL     1       3.453   0.122  -2.151  1.00  0.00     0.037 C 
HETATM   23  C24 UNL     1       2.685  -1.169  -1.880  1.00  0.00     0.040 C 
HETATM   24  C6  UNL     1       1.982  -2.232   0.190  1.00  0.00     0.046 C 
BRANCH  20  25
HETATM   25  C3  UNL     1       4.060   0.972   1.336  1.00  0.00     0.034 C 
BRANCH  25  26
HETATM   26  C2  UNL     1       3.754   2.408   1.009  1.00  0.00    -0.002 C 
HETATM   27  C1  UNL     1       4.266   3.248   2.167  1.00  0.00     0.005 C 
ENDBRANCH  25  26
ENDBRANCH  20  25
BRANCH  21  28
HETATM   28  O2  UNL     1       5.408  -0.746  -1.153  1.00  0.00    -0.393 OA
ATOM     29  H2  UNL     1       5.931  -0.596  -1.932  1.00  0.00     0.210 HD
ENDBRANCH  21  28
ENDBRANCH   1  18
BRANCH  13  30
HETATM   30  C17 UNL     1      -3.482   1.891   0.514  1.00  0.00    -0.018 C 
HETATM   31  C18 UNL     1      -3.485   3.098  -0.337  1.00  0.00     0.010 C 
HETATM   32  C19 UNL     1      -4.108   2.278   1.841  1.00  0.00     0.010 C 
ENDBRANCH  13  30
TORSDOF 5
