REMARK  4 active torsions:
REMARK  status: ('A' for Active; 'I' for Inactive)
REMARK    1  A    between atoms: N1_1  and  C1_4 
REMARK    2  A    between atoms: C4_9  and  C5_10 
REMARK    3  A    between atoms: N3_21  and  C16_22 
REMARK    4  A    between atoms: N4_25  and  C19_26 
ROOT
HETATM    1  C1  UNL     1       0.220   0.684   2.649  1.00  0.00     0.679 A 
HETATM    2  N2  UNL     1      -1.123   0.683   2.778  1.00  0.00    -0.190 N 
ATOM      3  H2  UNL     1      -1.644   0.882   3.632  1.00  0.00     0.184 HD
HETATM    4  C2  UNL     1      -1.646   0.377   1.595  1.00  0.00     0.077 A 
HETATM    5  C3  UNL     1      -2.969   0.244   1.184  1.00  0.00     0.040 A 
HETATM    6  C4  UNL     1      -3.248  -0.082  -0.112  1.00  0.00    -0.052 A 
HETATM    7  C13 UNL     1      -2.191  -0.273  -0.984  1.00  0.00     0.010 A 
HETATM    8  C14 UNL     1      -0.882  -0.140  -0.568  1.00  0.00     0.033 A 
HETATM    9  C15 UNL     1      -0.584   0.190   0.738  1.00  0.00     0.079 A 
HETATM   10  N3  UNL     1       0.601   0.383   1.399  1.00  0.00    -0.176 N 
ENDROOT
BRANCH  10  11
HETATM   11  C16 UNL     1       1.867   0.263   0.782  1.00  0.00     0.111 C 
HETATM   12  C17 UNL     1       2.931  -0.488   1.476  1.00  0.00     0.045 C 
HETATM   13  C18 UNL     1       4.243   0.261   1.630  1.00  0.00     0.119 C 
HETATM   14  N4  UNL     1       4.682   0.777   0.390  1.00  0.00    -0.408 N 
HETATM   15  C25 UNL     1       3.667   1.246  -0.477  1.00  0.00     0.119 C 
HETATM   16  C26 UNL     1       2.465   1.633   0.403  1.00  0.00     0.045 C 
BRANCH  14  17
HETATM   17  C19 UNL     1       5.863   0.257  -0.179  1.00  0.00     0.079 C 
HETATM   18  C20 UNL     1       7.093   0.495   0.664  1.00  0.00     0.025 C 
HETATM   19  C21 UNL     1       8.313   0.309  -0.228  1.00  0.00     0.002 C 
HETATM   20  C22 UNL     1       7.978  -0.480  -1.473  1.00  0.00     0.000 C 
HETATM   21  C23 UNL     1       7.068  -1.637  -1.175  1.00  0.00     0.002 C 
HETATM   22  C24 UNL     1       5.798  -1.228  -0.483  1.00  0.00     0.025 C 
ENDBRANCH  14  17
ENDBRANCH  10  11
BRANCH   1  23
HETATM   23  N1  UNL     1       0.998   0.943   3.607  1.00  0.00    -0.234 N 
ATOM     24  H12 UNL     1       0.708   1.172   4.558  1.00  0.00     0.174 HD
ATOM     25  H11 UNL     1       2.013   0.944   3.509  1.00  0.00     0.174 HD
ENDBRANCH   1  23
BRANCH   6  26
HETATM   26  C5  UNL     1      -4.677  -0.223  -0.569  1.00  0.00     0.018 C 
HETATM   27  C6  UNL     1      -5.282   1.168  -0.502  1.00  0.00     0.009 C 
HETATM   28  C7  UNL     1      -6.566   1.303  -1.249  1.00  0.00     0.001 C 
HETATM   29  C8  UNL     1      -7.781   0.916  -0.436  1.00  0.00     0.000 C 
HETATM   30  C9  UNL     1      -8.387  -0.396  -0.952  1.00  0.00     0.000 C 
HETATM   31  C10 UNL     1      -7.858  -1.556  -0.147  1.00  0.00     0.000 C 
HETATM   32  C11 UNL     1      -6.474  -1.967  -0.553  1.00  0.00     0.001 C 
HETATM   33  C12 UNL     1      -5.411  -1.229   0.254  1.00  0.00     0.009 C 
ENDBRANCH   6  26
TORSDOF 4
