REMARK  5 active torsions:
REMARK  status: ('A' for Active; 'I' for Inactive)
REMARK    1  A    between atoms: N1_1  and  C1_4 
REMARK    2  A    between atoms: C2_7  and  S1_8 
REMARK    3  A    between atoms: S1_8  and  N3_9 
REMARK    4  A    between atoms: C3_14  and  S2_15 
REMARK    5  A    between atoms: S2_15  and  N4_16 
ROOT
HETATM    1  C1  UNL     1      -0.396   2.554  -0.421  1.00  0.00     0.679 A 
HETATM    2  N2  UNL     1       0.684   1.794  -0.227  1.00  0.00    -0.178 N 
ATOM      3  H2  UNL     1       1.577   2.259  -0.061  1.00  0.00     0.185 HD
HETATM    4  C2  UNL     1       0.659   0.424  -0.238  1.00  0.00     0.193 A 
HETATM    5  C3  UNL     1      -0.540  -0.177  -0.460  1.00  0.00     0.188 A 
HETATM    6  C4  UNL     1      -1.674   0.620  -0.664  1.00  0.00     0.286 A 
HETATM    7  O5  UNL     1      -2.785   0.072  -0.869  1.00  0.00    -0.266 OA
HETATM    8  N5  UNL     1      -1.579   1.952  -0.641  1.00  0.00    -0.155 N 
ATOM      9  H5  UNL     1      -2.413   2.520  -0.792  1.00  0.00     0.187 HD
ENDROOT
BRANCH   4  10
HETATM   10  S1  UNL     1       2.091  -0.509   0.012  1.00  0.00     0.274 S 
HETATM   11  O1  UNL     1       2.684  -1.106  -1.206  1.00  0.00    -0.199 OA
HETATM   12  O2  UNL     1       3.156   0.503   0.485  1.00  0.00    -0.199 OA
BRANCH  10  13
HETATM   13  N3  UNL     1       1.976  -1.610   1.350  1.00  0.00    -0.323 N 
ATOM     14  H32 UNL     1       1.136  -1.687   1.924  1.00  0.00     0.169 HD
ATOM     15  H31 UNL     1       2.822  -2.161   1.498  1.00  0.00     0.169 HD
ENDBRANCH  10  13
ENDBRANCH   4  10
BRANCH   5  16
HETATM   16  S2  UNL     1      -0.737  -1.875  -0.494  1.00  0.00     0.265 S 
HETATM   17  O3  UNL     1      -2.004  -2.204  -1.263  1.00  0.00    -0.200 OA
HETATM   18  O4  UNL     1       0.391  -2.700  -0.939  1.00  0.00    -0.200 OA
BRANCH  16  19
HETATM   19  N4  UNL     1      -1.062  -2.388   1.153  1.00  0.00    -0.324 N 
ATOM     20  H42 UNL     1      -1.119  -1.776   1.967  1.00  0.00     0.169 HD
ATOM     21  H41 UNL     1      -1.180  -3.401   1.133  1.00  0.00     0.169 HD
ENDBRANCH  16  19
ENDBRANCH   5  16
BRANCH   1  22
HETATM   22  N1  UNL     1      -0.346   3.845  -0.407  1.00  0.00    -0.234 N 
ATOM     23  H12 UNL     1       0.551   4.301  -0.240  1.00  0.00     0.174 HD
ATOM     24  H11 UNL     1      -1.171   4.426  -0.555  1.00  0.00     0.174 HD
ENDBRANCH   1  22
TORSDOF 5
