REMARK  8 active torsions:
REMARK  status: ('A' for Active; 'I' for Inactive)
REMARK    1  A    between atoms: C2_2  and  S1_3 
REMARK    2  A    between atoms: S1_3  and  N1_6 
REMARK    3  A    between atoms: C5_9  and  C6_10 
REMARK    4  A    between atoms: C6_10  and  C7_11 
REMARK    5  A    between atoms: C7_11  and  C8_12 
REMARK    6  A    between atoms: C8_12  and  C9_13 
REMARK    7  A    between atoms: C9_13  and  C10_14 
REMARK    8  A    between atoms: C10_14  and  C11_15 
ROOT
HETATM    1  N1  UNL     1      -1.610  -0.599   0.778  1.00  0.00    -0.310 N 
HETATM    2  C3  UNL     1      -1.242  -1.662   1.585  1.00  0.00     0.135 C 
HETATM    3  C4  UNL     1       0.275  -1.617   1.912  1.00  0.00     0.025 C 
HETATM    4  C5  UNL     1       1.049  -1.697   0.623  1.00  0.00    -0.012 C 
HETATM    5  C16 UNL     1       0.431  -0.814  -0.438  1.00  0.00     0.025 C 
HETATM    6  C17 UNL     1      -0.517   0.153   0.280  1.00  0.00     0.135 C 
ENDROOT
BRANCH   1   7
HETATM    7  S1  UNL     1      -3.121   0.133   0.852  1.00  0.00     0.236 S 
HETATM    8  O1  UNL     1      -3.298   0.626   2.293  1.00  0.00    -0.205 OA
HETATM    9  O2  UNL     1      -3.001   1.329  -0.065  1.00  0.00    -0.205 OA
BRANCH   7  10
HETATM   10  C2  UNL     1      -4.504  -0.913   0.454  1.00  0.00     0.080 C 
HETATM   11  C1  UNL     1      -4.370  -2.040   1.540  1.00  0.00     0.034 C 
HETATM   12  C18 UNL     1      -4.286  -1.706  -0.791  1.00  0.00     0.029 C 
HETATM   13  C19 UNL     1      -4.027  -0.969  -2.042  1.00  0.00     0.034 C 
HETATM   14  C20 UNL     1      -5.326  -0.527  -2.720  1.00  0.00     0.122 C 
HETATM   15  C21 UNL     1      -5.463   0.955  -2.773  1.00  0.00     0.039 C 
HETATM   16  O3  UNL     1      -6.342  -1.058  -1.952  1.00  0.00    -0.380 OA
HETATM   17  C22 UNL     1      -6.692   1.248  -1.986  1.00  0.00     0.018 C 
HETATM   18  C23 UNL     1      -6.477   1.766  -0.557  1.00  0.00     0.014 C 
HETATM   19  C26 UNL     1      -7.103  -0.081  -1.414  1.00  0.00     0.130 C 
HETATM   20  C24 UNL     1      -6.694   0.422  -0.052  1.00  0.00     0.017 C 
HETATM   21  C25 UNL     1      -5.834  -0.399   0.750  1.00  0.00     0.034 C 
ENDBRANCH   7  10
ENDBRANCH   1   7
BRANCH   4  22
HETATM   22  C6  UNL     1       2.497  -1.439   0.832  1.00  0.00     0.005 C 
BRANCH  22  23
HETATM   23  C7  UNL     1       2.847  -0.092   1.384  1.00  0.00     0.000 C 
BRANCH  23  24
HETATM   24  C8  UNL     1       4.333   0.093   1.581  1.00  0.00     0.000 C 
BRANCH  24  25
HETATM   25  C9  UNL     1       5.088  -0.067   0.296  1.00  0.00     0.000 C 
BRANCH  25  26
HETATM   26  C10 UNL     1       6.572   0.128   0.461  1.00  0.00     0.004 C 
BRANCH  26  27
HETATM   27  C11 UNL     1       6.954   1.491   0.968  1.00  0.00    -0.014 C 
HETATM   28  C12 UNL     1       6.507   2.602   0.050  1.00  0.00     0.004 C 
HETATM   29  C13 UNL     1       7.269   2.324  -1.197  1.00  0.00     0.000 C 
HETATM   30  C14 UNL     1       8.626   1.894  -0.692  1.00  0.00     0.000 C 
HETATM   31  C15 UNL     1       8.462   1.601   0.795  1.00  0.00     0.004 C 
ENDBRANCH  26  27
ENDBRANCH  25  26
ENDBRANCH  24  25
ENDBRANCH  23  24
ENDBRANCH  22  23
ENDBRANCH   4  22
TORSDOF 8
