REMARK  9 active torsions:
REMARK  status: ('A' for Active; 'I' for Inactive)
REMARK    1  A    between atoms: O1_2  and  C2_3 
REMARK    2  A    between atoms: C7_8  and  C8_9 
REMARK    3  A    between atoms: C8_9  and  N1_10 
REMARK    4  A    between atoms: N3_19  and  C15_20 
REMARK    5  A    between atoms: C15_20  and  C16_21 
REMARK    6  A    between atoms: C16_21  and  C17_22 
REMARK    7  A    between atoms: C17_22  and  C18_23 
REMARK    8  A    between atoms: C18_23  and  C19_24 
REMARK    9  A    between atoms: C19_24  and  C20_25 
ROOT
HETATM    1  C20 UNL     1      -4.267   1.717  -0.284  1.00  0.00    -0.047 A 
HETATM    2  C21 UNL     1      -5.121   2.820  -0.240  1.00  0.00     0.008 A 
HETATM    3  C22 UNL     1      -6.410   2.764  -0.726  1.00  0.00     0.001 A 
HETATM    4  C23 UNL     1      -6.897   1.589  -1.280  1.00  0.00     0.012 A 
HETATM    5  C24 UNL     1      -6.064   0.486  -1.331  1.00  0.00    -0.025 A 
HETATM    6  C25 UNL     1      -6.583  -0.670  -1.882  1.00  0.00     0.014 A 
HETATM    7  C26 UNL     1      -5.788  -1.781  -1.940  1.00  0.00     0.023 A 
HETATM    8  C27 UNL     1      -4.506  -1.771  -1.469  1.00  0.00     0.045 A 
HETATM    9  C28 UNL     1      -3.680  -2.960  -1.540  1.00  0.00     0.099 C 
HETATM   10  N4  UNL     1      -3.010  -3.904  -1.589  1.00  0.00    -0.191 NA
HETATM   11  C29 UNL     1      -4.012  -0.582  -0.918  1.00  0.00     0.035 A 
HETATM   12  C30 UNL     1      -4.761   0.562  -0.833  1.00  0.00    -0.018 A 
ENDROOT
BRANCH   1  13
HETATM   13  C19 UNL     1      -2.885   1.800   0.214  1.00  0.00     0.039 C 
BRANCH  13  14
HETATM   14  C18 UNL     1      -1.880   1.989  -0.896  1.00  0.00     0.005 C 
BRANCH  14  15
HETATM   15  C17 UNL     1      -0.466   2.075  -0.366  1.00  0.00     0.002 C 
BRANCH  15  16
HETATM   16  C16 UNL     1      -0.041   0.844   0.372  1.00  0.00     0.022 C 
BRANCH  16  17
HETATM   17  C15 UNL     1       1.381   0.957   0.886  1.00  0.00     0.149 C 
BRANCH  17  18
HETATM   18  N3  UNL     1       1.803  -0.220   1.595  1.00  0.00    -0.288 N 
HETATM   19  N1  UNL     1       2.395  -1.245   1.001  1.00  0.00    -0.294 N 
HETATM   20  C9  UNL     1       2.657  -2.169   1.940  1.00  0.00     0.142 A 
HETATM   21  C10 UNL     1       2.205  -1.682   3.152  1.00  0.00     0.077 A 
HETATM   22  N2  UNL     1       2.200  -2.164   4.414  1.00  0.00    -0.363 N 
HETATM   23  C14 UNL     1       1.661  -0.438   2.922  1.00  0.00     0.079 A 
HETATM   24  C11 UNL     1       1.677  -1.445   5.421  1.00  0.00     0.088 A 
ATOM     25  H2  UNL     1       2.598  -3.084   4.604  1.00  0.00     0.165 HD
HETATM   26  C12 UNL     1       1.129  -0.198   5.204  1.00  0.00     0.019 A 
HETATM   27  C13 UNL     1       1.109   0.334   3.950  1.00  0.00     0.035 A 
BRANCH  19  28
HETATM   28  C8  UNL     1       2.732  -1.413  -0.401  1.00  0.00     0.189 C 
BRANCH  28  29
HETATM   29  C7  UNL     1       4.104  -0.880  -0.675  1.00  0.00    -0.005 A 
HETATM   30  C2  UNL     1       4.594  -0.955  -1.959  1.00  0.00     0.076 A 
HETATM   31  C3  UNL     1       5.849  -0.473  -2.246  1.00  0.00     0.037 A 
HETATM   32  C4  UNL     1       6.602   0.083  -1.230  1.00  0.00     0.003 A 
HETATM   33  C5  UNL     1       6.113   0.158   0.057  1.00  0.00     0.001 A 
HETATM   34  C6  UNL     1       4.853  -0.321   0.363  1.00  0.00     0.012 A 
BRANCH  30  35
HETATM   35  O1  UNL     1       3.793  -1.523  -2.936  1.00  0.00    -0.355 OA
HETATM   36  C1  UNL     1       4.239  -1.628  -4.270  1.00  0.00     0.210 C 
ENDBRANCH  30  35
ENDBRANCH  28  29
ENDBRANCH  19  28
ENDBRANCH  17  18
ENDBRANCH  16  17
ENDBRANCH  15  16
ENDBRANCH  14  15
ENDBRANCH  13  14
ENDBRANCH   1  13
TORSDOF 9
