REMARK  6 active torsions:
REMARK  status: ('A' for Active; 'I' for Inactive)
REMARK    1  A    between atoms: O1_2  and  C2_3 
REMARK    2  A    between atoms: C2_3  and  C3_5 
REMARK    3  A    between atoms: N1_6  and  N2_8 
REMARK    4  A    between atoms: N2_8  and  C5_11 
REMARK    5  A    between atoms: C7_15  and  N5_16 
REMARK    6  A    between atoms: N5_16  and  C8_18 
ROOT
HETATM    1  N2  UNL     1       0.890   1.029  -0.590  1.00  0.00    -0.202 N 
HETATM    2  C4  UNL     1       0.483   1.828  -1.653  1.00  0.00     0.202 C 
HETATM    3  N3  UNL     1       0.135   2.491  -2.560  1.00  0.00    -0.170 NA
ENDROOT
BRANCH   1   4
HETATM    4  N1  UNL     1       2.255   0.861  -0.385  1.00  0.00    -0.293 N 
HETATM    5  C3  UNL     1       2.681  -0.301  -0.035  1.00  0.00     0.190 C 
ATOM      6  H1  UNL     1       2.902   1.640  -0.509  1.00  0.00     0.187 HD
BRANCH   5   7
HETATM    7  C2  UNL     1       4.123  -0.465   0.178  1.00  0.00     0.299 C 
HETATM    8  O2  UNL     1       4.602  -1.582   0.523  1.00  0.00    -0.259 OA
BRANCH   7   9
HETATM    9  O1  UNL     1       5.010   0.573   0.016  1.00  0.00    -0.322 OA
HETATM   10  C1  UNL     1       6.397   0.461   0.209  1.00  0.00     0.213 C 
ENDBRANCH   7   9
ENDBRANCH   5   7
ENDBRANCH   1   4
BRANCH   1  11
HETATM   11  C5  UNL     1      -0.039   0.396   0.269  1.00  0.00     0.237 C 
HETATM   12  C6  UNL     1      -0.953   1.356   0.999  1.00  0.00     0.172 C 
HETATM   13  N4  UNL     1      -2.077   0.491   1.301  1.00  0.00    -0.358 N 
HETATM   14  C7  UNL     1      -2.111  -0.507   0.473  1.00  0.00     0.178 C 
ATOM     15  H4  UNL     1      -2.745   0.645   2.056  1.00  0.00     0.162 HD
HETATM   16  N7  UNL     1      -1.029  -0.406  -0.446  1.00  0.00    -0.337 N 
ATOM     17  H7  UNL     1      -0.961  -0.801  -1.384  1.00  0.00     0.164 HD
BRANCH  14  18
HETATM   18  N5  UNL     1      -3.093  -1.550   0.488  1.00  0.00    -0.319 N 
ATOM     19  H5  UNL     1      -2.890  -2.465   0.891  1.00  0.00     0.170 HD
BRANCH  18  20
HETATM   20  C8  UNL     1      -4.351  -1.261  -0.077  1.00  0.00     0.073 C 
HETATM   21  C9  UNL     1      -5.016   0.017   0.233  1.00  0.00     0.088 C 
HETATM   22  N6  UNL     1      -4.912  -2.101  -0.852  1.00  0.00    -0.389 N 
ATOM     23  H62 UNL     1      -4.452  -2.986  -1.067  1.00  0.00     0.157 HD
ATOM     24  H61 UNL     1      -5.823  -1.892  -1.261  1.00  0.00     0.157 HD
ENDBRANCH  18  20
ENDBRANCH  14  18
ENDBRANCH   1  11
TORSDOF 6
