REMARK  8 active torsions:
REMARK  status: ('A' for Active; 'I' for Inactive)
REMARK    1  A    between atoms: O1_1  and  C1_3 
REMARK    2  A    between atoms: C1_3  and  C2_4 
REMARK    3  A    between atoms: C2_4  and  C3_5 
REMARK    4  A    between atoms: C3_5  and  N1_6 
REMARK    5  A    between atoms: N1_6  and  C4_9 
REMARK    6  A    between atoms: C4_9  and  C5_10 
REMARK    7  A    between atoms: C5_10  and  C6_11 
REMARK    8  A    between atoms: C6_11  and  C7_12 
ROOT
HETATM    1  C4  UNL     1       0.250   0.316  -0.991  1.00  0.00     0.232 C 
ENDROOT
BRANCH   1   2
HETATM    2  N1  UNL     1       1.659  -0.145  -1.156  1.00  0.00    -0.075 N 
ATOM      3  H12 UNL     1       1.811  -0.610  -2.051  1.00  0.00     0.277 HD
ATOM      4  H11 UNL     1       1.883  -0.930  -0.545  1.00  0.00     0.277 HD
BRANCH   2   5
HETATM    5  C3  UNL     1       2.535   0.950  -0.965  1.00  0.00     0.235 C 
BRANCH   5   6
HETATM    6  C2  UNL     1       3.943   0.628  -1.345  1.00  0.00     0.065 C 
BRANCH   6   7
HETATM    7  C1  UNL     1       4.538  -0.476  -0.552  1.00  0.00     0.059 C 
HETATM    8  C17 UNL     1       4.584  -0.144   0.939  1.00  0.00     0.038 C 
HETATM    9  C18 UNL     1       5.885  -0.777   1.363  1.00  0.00     0.003 C 
HETATM   10  C19 UNL     1       6.814  -0.259   0.251  1.00  0.00     0.003 C 
HETATM   11  C20 UNL     1       6.010  -0.701  -0.957  1.00  0.00     0.038 C 
BRANCH   7  12
HETATM   12  O1  UNL     1       3.884  -1.699  -0.656  1.00  0.00    -0.390 OA
ATOM     13  H1  UNL     1       4.265  -2.406  -0.148  1.00  0.00     0.210 HD
ENDBRANCH   7  12
ENDBRANCH   6   7
ENDBRANCH   5   6
ENDBRANCH   2   5
ENDBRANCH   1   2
BRANCH   1  14
HETATM   14  C5  UNL     1      -0.010   0.642   0.428  1.00  0.00     0.028 C 
BRANCH  14  15
HETATM   15  C6  UNL     1      -1.337   1.179   0.732  1.00  0.00     0.011 C 
BRANCH  15  16
HETATM   16  C7  UNL     1      -2.581   0.450   0.413  1.00  0.00    -0.039 C 
HETATM   17  C8  UNL     1      -3.693   1.378   1.011  1.00  0.00     0.014 C 
HETATM   18  C9  UNL     1      -5.049   0.801   0.850  1.00  0.00    -0.013 C 
HETATM   19  C10 UNL     1      -5.380   0.663  -0.627  1.00  0.00     0.009 C 
HETATM   20  C14 UNL     1      -5.107  -0.544   1.523  1.00  0.00     0.009 C 
HETATM   21  C11 UNL     1      -4.323  -0.211  -1.222  1.00  0.00    -0.013 C 
HETATM   22  C12 UNL     1      -4.392  -1.566  -0.600  1.00  0.00     0.009 C 
HETATM   23  C16 UNL     1      -2.966   0.448  -1.065  1.00  0.00     0.014 C 
HETATM   24  C13 UNL     1      -4.097  -1.439   0.875  1.00  0.00    -0.013 C 
HETATM   25  C15 UNL     1      -2.691  -0.907   0.997  1.00  0.00     0.014 C 
ENDBRANCH  15  16
ENDBRANCH  14  15
ENDBRANCH   1  14
TORSDOF 8
