REMARK  12 active torsions:
REMARK  status: ('A' for Active; 'I' for Inactive)
REMARK    1  A    between atoms: C2_2  and  C4_4 
REMARK    2  A    between atoms: C5_5  and  O1_6 
REMARK    3  A    between atoms: C6_8  and  O2_9 
REMARK    4  A    between atoms: O2_9  and  C7_10 
REMARK    5  A    between atoms: C9_13  and  O4_14 
REMARK    6  A    between atoms: O4_14  and  C10_15 
REMARK    7  A    between atoms: C12_17  and  C13_18 
REMARK    8  A    between atoms: C16_23  and  N1_24 
REMARK    9  A    between atoms: C17_28  and  N2_29 
REMARK   10  A    between atoms: C18_33  and  O7_34 
REMARK   11  A    between atoms: C19_36  and  O8_37 
REMARK   12  A    between atoms: C20_39  and  O9_40 
ROOT
HETATM    1  C7  UNL     1      -0.900   0.489  -0.132  1.00  0.00     0.291 C 
HETATM    2  O3  UNL     1      -0.344   0.720   1.150  1.00  0.00    -0.356 OA
HETATM    3  C8  UNL     1       0.854   1.441   0.929  1.00  0.00     0.205 C 
HETATM    4  C9  UNL     1       1.952   0.532   0.424  1.00  0.00     0.179 C 
HETATM    5  C17 UNL     1       1.243  -0.712  -0.125  1.00  0.00     0.247 C 
HETATM    6  C18 UNL     1       0.141  -0.140  -1.030  1.00  0.00     0.206 C 
ENDROOT
BRANCH   1   7
HETATM    7  O2  UNL     1      -1.975  -0.369  -0.101  1.00  0.00    -0.348 OA
BRANCH   7   8
HETATM    8  C6  UNL     1      -3.162   0.197  -0.513  1.00  0.00     0.185 C 
HETATM    9  C5  UNL     1      -4.221  -0.073   0.522  1.00  0.00     0.160 C 
HETATM   10  C4  UNL     1      -5.511  -0.111  -0.217  1.00  0.00     0.076 C 
HETATM   11  C20 UNL     1      -5.155  -0.004  -1.688  1.00  0.00     0.162 C 
HETATM   12  C19 UNL     1      -3.711  -0.465  -1.763  1.00  0.00     0.179 C 
BRANCH   9  13
HETATM   13  O1  UNL     1      -3.926  -1.240   1.233  1.00  0.00    -0.392 OA
ATOM     14  H1  UNL     1      -3.102  -1.216   1.705  1.00  0.00     0.210 HD
ENDBRANCH   9  13
BRANCH  10  15
HETATM   15  C2  UNL     1      -6.415  -1.234   0.074  1.00  0.00    -0.084 C 
HETATM   16  C1  UNL     1      -7.583  -1.008   0.624  1.00  0.00     0.014 C 
HETATM   17  C3  UNL     1      -6.090  -2.666  -0.251  1.00  0.00     0.043 C 
ENDBRANCH  10  15
BRANCH  11  18
HETATM   18  O9  UNL     1      -6.010  -0.633  -2.539  1.00  0.00    -0.387 OA
HETATM   19  C21 UNL     1      -6.548   0.288  -3.472  1.00  0.00     0.202 C 
ENDBRANCH  11  18
BRANCH  12  20
HETATM   20  O8  UNL     1      -3.528  -1.816  -1.750  1.00  0.00    -0.390 OA
ATOM     21  H8  UNL     1      -3.872  -2.230  -2.533  1.00  0.00     0.210 HD
ENDBRANCH  12  20
ENDBRANCH   7   8
ENDBRANCH   1   7
BRANCH   6  22
HETATM   22  O7  UNL     1       0.768   0.851  -1.814  1.00  0.00    -0.388 OA
ATOM     23  H7  UNL     1       1.422   0.456  -2.378  1.00  0.00     0.210 HD
ENDBRANCH   6  22
BRANCH   5  24
HETATM   24  N2  UNL     1       0.709  -1.491   0.967  1.00  0.00    -0.070 N 
ATOM     25  H23 UNL     1       1.424  -1.729   1.654  1.00  0.00     0.274 HD
ATOM     26  H22 UNL     1       0.101  -0.938   1.572  1.00  0.00     0.274 HD
ATOM     27  H21 UNL     1       0.237  -2.318   0.602  1.00  0.00     0.274 HD
ENDBRANCH   5  24
BRANCH   4  28
HETATM   28  O4  UNL     1       2.883   0.232   1.382  1.00  0.00    -0.374 OA
BRANCH  28  29
HETATM   29  C10 UNL     1       4.188   0.510   0.994  1.00  0.00     0.153 C 
HETATM   30  C11 UNL     1       5.126  -0.644   1.095  1.00  0.00     0.049 C 
HETATM   31  C12 UNL     1       6.466  -0.198   0.531  1.00  0.00     0.089 C 
HETATM   32  C14 UNL     1       7.011   0.833   1.524  1.00  0.00     0.017 C 
HETATM   33  C15 UNL     1       6.110   2.021   1.582  1.00  0.00     0.036 C 
HETATM   34  C16 UNL     1       4.665   1.721   1.781  1.00  0.00     0.212 C 
BRANCH  31  35
HETATM   35  C13 UNL     1       7.399  -1.300   0.359  1.00  0.00     0.177 C 
HETATM   36  O5  UNL     1       7.103  -2.465   0.673  1.00  0.00    -0.648 OA
HETATM   37  O6  UNL     1       8.655  -1.063  -0.167  1.00  0.00    -0.648 OA
ENDBRANCH  31  35
BRANCH  34  38
HETATM   38  N1  UNL     1       3.921   2.862   1.233  1.00  0.00    -0.073 N 
ATOM     39  H13 UNL     1       4.015   2.966   0.223  1.00  0.00     0.274 HD
ATOM     40  H12 UNL     1       2.909   2.737   1.247  1.00  0.00     0.274 HD
ATOM     41  H11 UNL     1       4.241   3.674   1.761  1.00  0.00     0.274 HD
ENDBRANCH  34  38
ENDBRANCH  28  29
ENDBRANCH   4  28
TORSDOF 12
