REMARK  2 active torsions:
REMARK  status: ('A' for Active; 'I' for Inactive)
REMARK    1  A    between atoms: N1_2  and  C2_4 
REMARK    2  A    between atoms: C3_8  and  C4_9 
ROOT
HETATM    1  C4  UNL     1      -0.138   1.185   0.930  1.00  0.00     0.071 C 
HETATM    2  C5  UNL     1       0.272   0.747   2.266  1.00  0.00     0.187 C 
HETATM    3  O1  UNL     1       1.677   0.903   2.519  1.00  0.00    -0.329 OA
HETATM    4  C6  UNL     1       2.651   0.172   1.831  1.00  0.00     0.192 A 
HETATM    5  O2  UNL     1       3.670  -0.500   2.318  1.00  0.00    -0.299 OA
HETATM    6  C7  UNL     1       4.374  -1.073   1.347  1.00  0.00     0.152 A 
HETATM    7  C8  UNL     1       3.814  -0.785   0.118  1.00  0.00    -0.024 A 
HETATM    8  C9  UNL     1       2.740  -0.002   0.467  1.00  0.00     0.017 A 
HETATM    9  C10 UNL     1       1.863   0.544  -0.606  1.00  0.00    -0.008 C 
HETATM   10  C11 UNL     1       2.809   1.396  -1.482  1.00  0.00     0.021 C 
HETATM   11  C12 UNL     1       1.557  -0.650  -1.475  1.00  0.00     0.015 C 
HETATM   12  C13 UNL     1       2.804  -1.272  -2.048  1.00  0.00     0.006 C 
HETATM   13  C14 UNL     1       4.068  -1.109  -1.303  1.00  0.00     0.041 C 
HETATM   14  C15 UNL     1       0.810   1.420  -0.155  1.00  0.00     0.005 C 
HETATM   15  C16 UNL     1       1.498   2.786   0.144  1.00  0.00     0.011 C 
ENDROOT
BRANCH   1  16
HETATM   16  C3  UNL     1      -1.380   0.425   0.509  1.00  0.00     0.330 C 
HETATM   17  N2  UNL     1      -2.484   0.682   1.431  1.00  0.00    -0.025 N 
HETATM   18  C2  UNL     1      -3.474  -0.368   1.085  1.00  0.00     0.316 C 
ATOM     19  H22 UNL     1      -2.849   1.634   1.399  1.00  0.00     0.282 HD
ATOM     20  H21 UNL     1      -2.217   0.703   2.415  1.00  0.00     0.282 HD
HETATM   21  C17 UNL     1      -2.623  -1.325   0.364  1.00  0.00     0.102 C 
HETATM   22  O3  UNL     1      -1.284  -0.937   0.578  1.00  0.00    -0.344 OA
HETATM   23  C18 UNL     1      -2.947  -1.552  -1.066  1.00  0.00     0.050 C 
HETATM   24  C19 UNL     1      -2.830  -2.700   1.053  1.00  0.00     0.050 C 
BRANCH  18  25
HETATM   25  N1  UNL     1      -4.578   0.254   0.490  1.00  0.00    -0.397 N 
HETATM   26  C1  UNL     1      -4.373   1.207  -0.535  1.00  0.00     0.142 C 
ATOM     27  H1  UNL     1      -5.524   0.022   0.793  1.00  0.00     0.154 HD
ENDBRANCH  18  25
ENDBRANCH   1  16
TORSDOF 2
