REMARK  12 active torsions:
REMARK  status: ('A' for Active; 'I' for Inactive)
REMARK    1  A    between atoms: C2_2  and  C4_4 
REMARK    2  A    between atoms: C6_6  and  C7_7 
REMARK    3  A    between atoms: C7_7  and  C8_8 
REMARK    4  A    between atoms: C8_8  and  C10_10 
REMARK    5  A    between atoms: C10_10  and  O1_11 
REMARK    6  A    between atoms: C12_14  and  C13_15 
REMARK    7  A    between atoms: C17_19  and  C18_20 
REMARK    8  A    between atoms: C18_20  and  C19_21 
REMARK    9  A    between atoms: C19_21  and  C20_22 
REMARK   10  A    between atoms: C20_22  and  C21_23 
REMARK   11  A    between atoms: C21_23  and  C22_24 
REMARK   12  A    between atoms: C24_26  and  C25_27 
ROOT
HETATM    1  C10 UNL     1       3.178   0.017  -0.384  1.00  0.00     0.100 C 
HETATM    2  C11 UNL     1       1.825   0.448  -0.911  1.00  0.00     0.076 C 
HETATM    3  C12 UNL     1       0.933  -0.320   0.037  1.00  0.00     0.155 C 
HETATM    4  O5  UNL     1       1.649  -1.314   0.616  1.00  0.00    -0.364 OA
HETATM    5  C26 UNL     1       2.895  -1.398  -0.001  1.00  0.00     0.142 C 
HETATM    6  C27 UNL     1       2.781  -2.359  -1.124  1.00  0.00     0.047 C 
HETATM    7  C28 UNL     1       2.068  -3.628  -0.803  1.00  0.00     0.009 C 
HETATM    8  C29 UNL     1       2.035  -4.025   0.621  1.00  0.00     0.068 C 
HETATM    9  C30 UNL     1       3.253  -3.701   1.417  1.00  0.00     0.166 C 
HETATM   10  C31 UNL     1       3.650  -4.801   2.386  1.00  0.00     0.079 C 
HETATM   11  O6  UNL     1       4.315  -3.242   0.655  1.00  0.00    -0.322 OA
HETATM   12  C32 UNL     1       3.922  -1.941   0.982  1.00  0.00     0.304 C 
HETATM   13  O7  UNL     1       3.230  -2.488   2.059  1.00  0.00    -0.322 OA
ENDROOT
BRANCH   3  14
HETATM   14  C13 UNL     1      -0.344  -0.766  -0.627  1.00  0.00     0.158 C 
HETATM   15  C14 UNL     1      -1.076   0.447  -1.127  1.00  0.00     0.041 C 
HETATM   16  C15 UNL     1      -2.172   0.646  -0.118  1.00  0.00     0.067 C 
HETATM   17  C16 UNL     1      -2.411  -0.722   0.369  1.00  0.00     0.043 C 
HETATM   18  C17 UNL     1      -3.525  -1.266   0.766  1.00  0.00     0.005 C 
HETATM   19  O4  UNL     1      -1.167  -1.359   0.327  1.00  0.00    -0.348 OA
BRANCH  18  20
HETATM   20  C18 UNL     1      -4.821  -0.534   0.787  1.00  0.00     0.029 C 
BRANCH  20  21
HETATM   21  C19 UNL     1      -5.824  -1.219  -0.101  1.00  0.00     0.004 C 
BRANCH  21  22
HETATM   22  C20 UNL     1      -7.160  -0.508  -0.118  1.00  0.00     0.005 C 
BRANCH  22  23
HETATM   23  C21 UNL     1      -7.781  -0.435   1.238  1.00  0.00     0.034 C 
BRANCH  23  24
HETATM   24  C22 UNL     1      -9.103   0.279   1.196  1.00  0.00    -0.077 C 
HETATM   25  C23 UNL     1      -9.844   0.427   2.462  1.00  0.00     0.043 C 
HETATM   26  C24 UNL     1      -9.586   0.758   0.069  1.00  0.00     0.086 C 
BRANCH  26  27
HETATM   27  C25 UNL     1     -10.848   1.451  -0.033  1.00  0.00     0.198 C 
HETATM   28  O2  UNL     1     -11.233   1.880  -1.172  1.00  0.00    -0.644 OA
HETATM   29  O3  UNL     1     -11.699   1.698   1.025  1.00  0.00    -0.644 OA
ENDBRANCH  26  27
ENDBRANCH  23  24
ENDBRANCH  22  23
ENDBRANCH  21  22
ENDBRANCH  20  21
ENDBRANCH  18  20
ENDBRANCH   3  14
BRANCH   1  30
HETATM   30  C8  UNL     1       4.202   0.254  -1.387  1.00  0.00     0.023 C 
HETATM   31  C9  UNL     1       5.599  -0.199  -1.114  1.00  0.00     0.013 C 
BRANCH  30  32
HETATM   32  C7  UNL     1       4.257   1.706  -1.781  1.00  0.00     0.035 C 
BRANCH  32  33
HETATM   33  C6  UNL     1       4.841   2.612  -0.782  1.00  0.00    -0.019 C 
HETATM   34  C4  UNL     1       5.882   3.356  -1.075  1.00  0.00    -0.061 C 
HETATM   35  C5  UNL     1       6.461   3.298  -2.419  1.00  0.00     0.048 C 
BRANCH  34  36
HETATM   36  C2  UNL     1       6.423   4.229  -0.064  1.00  0.00    -0.066 C 
HETATM   37  C1  UNL     1       7.446   5.001  -0.254  1.00  0.00     0.019 C 
HETATM   38  C3  UNL     1       5.783   4.268   1.308  1.00  0.00     0.048 C 
ENDBRANCH  34  36
ENDBRANCH  32  33
ENDBRANCH  30  32
ENDBRANCH   1  30
BRANCH   1  39
HETATM   39  O1  UNL     1       3.343   0.711   0.811  1.00  0.00    -0.386 OA
ATOM     40  H1  UNL     1       2.673   0.556   1.467  1.00  0.00     0.210 HD
ENDBRANCH   1  39
TORSDOF 12
