REMARK  13 active torsions:
REMARK  status: ('A' for Active; 'I' for Inactive)
REMARK    1  A    between atoms: C2_2  and  C4_4 
REMARK    2  A    between atoms: C4_4  and  O1_5 
REMARK    3  A    between atoms: C4_4  and  C5_10 
REMARK    4  A    between atoms: O1_5  and  S1_6 
REMARK    5  A    between atoms: C5_10  and  C6_11 
REMARK    6  A    between atoms: C5_10  and  C26_33 
REMARK    7  A    between atoms: C7_12  and  C8_13 
REMARK    8  A    between atoms: C8_13  and  C9_14 
REMARK    9  A    between atoms: C8_13  and  C13_18 
REMARK   10  A    between atoms: C9_14  and  C10_15 
REMARK   11  A    between atoms: C16_21  and  C17_22 
REMARK   12  A    between atoms: C26_33  and  C27_34 
REMARK   13  A    between atoms: C27_34  and  C28_35 
ROOT
HETATM    1  C8  UNL     1      -0.213  -1.664   0.616  1.00  0.00    -0.076 C 
ENDROOT
BRANCH   1   2
HETATM    2  C7  UNL     1       1.147  -1.064   0.385  1.00  0.00    -0.001 C 
HETATM    3  C6  UNL     1       1.736  -0.867  -0.751  1.00  0.00    -0.019 C 
BRANCH   3   4
HETATM    4  C5  UNL     1       3.090  -0.251  -0.850  1.00  0.00     0.043 C 
BRANCH   4   5
HETATM    5  C4  UNL     1       3.970  -1.400  -1.394  1.00  0.00     0.180 C 
BRANCH   5   6
HETATM    6  C2  UNL     1       3.502  -1.810  -2.723  1.00  0.00    -0.062 C 
HETATM    7  C1  UNL     1       3.175  -3.025  -3.084  1.00  0.00     0.016 C 
HETATM    8  C3  UNL     1       3.414  -0.749  -3.791  1.00  0.00     0.045 C 
ENDBRANCH   5   6
BRANCH   5   9
HETATM    9  O1  UNL     1       5.305  -1.069  -1.427  1.00  0.00    -0.246 OA
BRANCH   9  10
HETATM   10  S1  UNL     1       6.230  -2.181  -0.590  1.00  0.00     0.252 S 
HETATM   11  O2  UNL     1       5.621  -3.561  -0.774  1.00  0.00    -0.572 OA
HETATM   12  O3  UNL     1       6.280  -1.940   0.882  1.00  0.00    -0.572 OA
HETATM   13  O4  UNL     1       7.791  -2.203  -1.239  1.00  0.00    -0.572 OA
ENDBRANCH   9  10
ENDBRANCH   5   9
ENDBRANCH   4   5
BRANCH   4  14
HETATM   14  C26 UNL     1       3.698   0.206   0.412  1.00  0.00     0.015 C 
BRANCH  14  15
HETATM   15  C27 UNL     1       3.089   1.389   1.081  1.00  0.00     0.028 C 
BRANCH  15  16
HETATM   16  C28 UNL     1       3.141   2.611   0.223  1.00  0.00    -0.025 C 
HETATM   17  C29 UNL     1       3.762   3.729   0.560  1.00  0.00    -0.091 C 
HETATM   18  C30 UNL     1       4.485   3.863   1.875  1.00  0.00     0.042 C 
HETATM   19  C31 UNL     1       3.781   4.916  -0.338  1.00  0.00     0.042 C 
ENDBRANCH  15  16
ENDBRANCH  14  15
ENDBRANCH   4  14
ENDBRANCH   3   4
ENDBRANCH   1   2
BRANCH   1  20
HETATM   20  C9  UNL     1      -0.736  -2.477  -0.497  1.00  0.00     0.038 C 
BRANCH  20  21
HETATM   21  C10 UNL     1       0.178  -3.674  -0.720  1.00  0.00    -0.019 C 
HETATM   22  C11 UNL     1      -0.369  -4.483  -1.877  1.00  0.00     0.010 C 
HETATM   23  C12 UNL     1       0.058  -4.631   0.491  1.00  0.00     0.010 C 
ENDBRANCH  20  21
ENDBRANCH   1  20
BRANCH   1  24
HETATM   24  C13 UNL     1      -1.129  -0.685   1.270  1.00  0.00     0.015 C 
HETATM   25  C14 UNL     1      -1.370   0.558   0.446  1.00  0.00     0.010 C 
HETATM   26  C15 UNL     1      -2.627   0.433  -0.394  1.00  0.00     0.013 C 
HETATM   27  C16 UNL     1      -3.848   0.220   0.469  1.00  0.00    -0.008 C 
HETATM   28  C22 UNL     1      -4.685  -0.963   0.028  1.00  0.00     0.013 C 
HETATM   29  C24 UNL     1      -3.606  -0.472   1.753  1.00  0.00    -0.003 C 
HETATM   30  C23 UNL     1      -4.781  -1.397   1.460  1.00  0.00     0.006 C 
HETATM   31  C25 UNL     1      -2.344  -1.292   1.837  1.00  0.00     0.014 C 
BRANCH  27  32
HETATM   32  C17 UNL     1      -4.671   1.469   0.502  1.00  0.00     0.158 C 
HETATM   33  C18 UNL     1      -5.911   1.396   1.338  1.00  0.00     0.204 C 
HETATM   34  O5  UNL     1      -6.263   2.767   1.380  1.00  0.00    -0.353 OA
HETATM   35  C19 UNL     1      -5.130   3.485   1.109  1.00  0.00     0.157 C 
HETATM   36  C20 UNL     1      -4.920   4.491   2.202  1.00  0.00     0.078 C 
HETATM   37  C21 UNL     1      -5.313   4.230  -0.196  1.00  0.00     0.078 C 
HETATM   38  O6  UNL     1      -4.050   2.584   1.003  1.00  0.00    -0.348 OA
ENDBRANCH  27  32
ENDBRANCH   1  24
TORSDOF 13
