REMARK  9 active torsions:
REMARK  status: ('A' for Active; 'I' for Inactive)
REMARK    1  A    between atoms: C4_6  and  C5_7 
REMARK    2  A    between atoms: C5_7  and  C6_8 
REMARK    3  A    between atoms: C6_8  and  C7_9 
REMARK    4  A    between atoms: C7_9  and  C8_10 
REMARK    5  A    between atoms: C8_10  and  C9_11 
REMARK    6  A    between atoms: C9_11  and  N2_12 
REMARK    7  A    between atoms: C13_16  and  C14_17 
REMARK    8  A    between atoms: C14_17  and  C15_18 
REMARK    9  A    between atoms: C20_29  and  C21_30 
ROOT
HETATM    1  C15 UNL     1      -1.550   0.884   0.414  1.00  0.00     0.085 C 
HETATM    2  N3  UNL     1      -2.021   2.247   0.321  1.00  0.00    -0.324 N 
ATOM      3  H3  UNL     1      -1.693   2.875   1.054  1.00  0.00     0.169 HD
HETATM    4  C16 UNL     1      -2.873   2.832  -0.644  1.00  0.00     0.244 C 
HETATM    5  O1  UNL     1      -2.525   3.951  -1.114  1.00  0.00    -0.271 OA
HETATM    6  C17 UNL     1      -4.128   2.301  -1.177  1.00  0.00     0.173 C 
HETATM    7  C18 UNL     1      -5.004   3.356  -1.824  1.00  0.00     0.042 C 
HETATM    8  N4  UNL     1      -3.972   1.251  -2.160  1.00  0.00    -0.346 N 
ATOM      9  H4  UNL     1      -3.295   1.400  -2.909  1.00  0.00     0.163 HD
HETATM   10  C19 UNL     1      -4.686   0.041  -2.157  1.00  0.00     0.248 C 
HETATM   11  O2  UNL     1      -4.930  -0.495  -3.267  1.00  0.00    -0.271 OA
HETATM   12  C20 UNL     1      -5.184  -0.673  -0.959  1.00  0.00     0.238 C 
HETATM   13  N5  UNL     1      -5.034  -2.120  -1.072  1.00  0.00    -0.339 N 
ATOM     14  H5  UNL     1      -4.638  -2.512  -1.926  1.00  0.00     0.164 HD
HETATM   15  C22 UNL     1      -5.423  -2.994  -0.029  1.00  0.00     0.242 C 
HETATM   16  O4  UNL     1      -5.983  -4.089  -0.436  1.00  0.00    -0.269 OA
HETATM   17  C23 UNL     1      -5.269  -2.809   1.408  1.00  0.00     0.075 C 
HETATM   18  C24 UNL     1      -4.241  -2.517   2.146  1.00  0.00     0.022 C 
HETATM   19  C25 UNL     1      -2.833  -2.246   1.921  1.00  0.00     0.091 C 
HETATM   20  N6  UNL     1      -2.145  -1.222   1.734  1.00  0.00    -0.332 N 
ATOM     21  H6  UNL     1      -1.181  -1.535   1.622  1.00  0.00     0.168 HD
HETATM   22  C26 UNL     1      -2.130   0.154   1.614  1.00  0.00     0.268 C 
HETATM   23  O5  UNL     1      -2.596   0.987   2.484  1.00  0.00    -0.266 OA
ENDROOT
BRANCH   1  24
HETATM   24  C14 UNL     1      -0.139   0.612   0.136  1.00  0.00     0.104 C 
BRANCH  24  25
HETATM   25  C13 UNL     1       0.924   1.238   0.897  1.00  0.00    -0.023 A 
HETATM   26  C2  UNL     1       1.372   2.536   0.675  1.00  0.00     0.012 A 
HETATM   27  C1  UNL     1       0.952   3.543  -0.350  1.00  0.00     0.068 C 
HETATM   28  N1  UNL     1       2.335   2.768   1.565  1.00  0.00    -0.368 N 
HETATM   29  C3  UNL     1       2.545   1.724   2.341  1.00  0.00     0.095 A 
ATOM     30  H1  UNL     1       2.848   3.647   1.637  1.00  0.00     0.165 HD
HETATM   31  C4  UNL     1       1.646   0.705   1.938  1.00  0.00    -0.034 A 
BRANCH  31  32
HETATM   32  C5  UNL     1       1.554  -0.605   2.618  1.00  0.00     0.040 C 
BRANCH  32  33
HETATM   33  C6  UNL     1       1.971  -1.822   1.919  1.00  0.00     0.005 C 
BRANCH  33  34
HETATM   34  C7  UNL     1       3.319  -2.026   1.387  1.00  0.00     0.002 C 
BRANCH  34  35
HETATM   35  C8  UNL     1       3.797  -1.144   0.288  1.00  0.00     0.028 C 
BRANCH  35  36
HETATM   36  C9  UNL     1       5.211  -1.620  -0.079  1.00  0.00     0.236 C 
BRANCH  36  37
HETATM   37  N2  UNL     1       5.759  -0.824  -1.135  1.00  0.00    -0.079 N 
HETATM   38  C10 UNL     1       6.459   0.322  -0.562  1.00  0.00     0.271 C 
HETATM   39  C11 UNL     1       6.687  -1.645  -1.880  1.00  0.00     0.271 C 
HETATM   40  C12 UNL     1       4.789  -0.297  -2.056  1.00  0.00     0.271 C 
ENDBRANCH  36  37
ENDBRANCH  35  36
ENDBRANCH  34  35
ENDBRANCH  33  34
ENDBRANCH  32  33
ENDBRANCH  31  32
ENDBRANCH  24  25
ENDBRANCH   1  24
BRANCH  12  41
HETATM   41  C21 UNL     1      -6.656  -0.408  -0.941  1.00  0.00     0.266 C 
HETATM   42  O3  UNL     1      -7.495  -1.289  -1.013  1.00  0.00    -0.304 OA
ENDBRANCH  12  41
TORSDOF 9
