REMARK  9 active torsions:
REMARK  status: ('A' for Active; 'I' for Inactive)
REMARK    1  A    between atoms: N1_1  and  C1_4 
REMARK    2  A    between atoms: C2_7  and  N3_8 
REMARK    3  A    between atoms: C3_12  and  C4_13 
REMARK    4  A    between atoms: C7_21  and  N9_22 
REMARK    5  A    between atoms: C8_27  and  C9_28 
REMARK    6  A    between atoms: C9_28  and  O1_29 
REMARK    7  A    between atoms: C9_28  and  C10_31 
REMARK    8  A    between atoms: C10_31  and  O2_32 
REMARK    9  A    between atoms: C10_31  and  N11_34 
ROOT
HETATM    1  C1  UNL     1      -0.570   4.341   0.635  1.00  0.00     0.144 A 
HETATM    2  N2  UNL     1      -1.323   3.270   0.424  1.00  0.00    -0.320 N 
ATOM      3  H2  UNL     1      -2.340   3.342   0.417  1.00  0.00     0.169 HD
HETATM    4  C2  UNL     1      -0.729   2.111   0.224  1.00  0.00     0.161 A 
HETATM    5  C8  UNL     1       0.636   2.095   0.249  1.00  0.00     0.066 A 
HETATM    6  S1  UNL     1       1.014   3.731   0.555  1.00  0.00    -0.052 SA
ENDROOT
BRANCH   4   7
HETATM    7  N3  UNL     1      -1.493   0.887  -0.026  1.00  0.00    -0.161 N 
HETATM    8  N4  UNL     1      -1.202  -0.067  -0.894  1.00  0.00     0.004 NA
HETATM    9  N5  UNL     1      -2.127  -1.012  -0.846  1.00  0.00    -0.266 N 
HETATM   10  C3  UNL     1      -3.057  -0.666   0.085  1.00  0.00     0.152 A 
ATOM     11  H5  UNL     1      -2.141  -1.860  -1.413  1.00  0.00     0.186 HD
HETATM   12  N10 UNL     1      -2.611   0.522   0.561  1.00  0.00    -0.262 N 
ATOM     13  H10 UNL     1      -3.084   1.065   1.284  1.00  0.00     0.190 HD
BRANCH  10  14
HETATM   14  C4  UNL     1      -4.246  -1.429   0.444  1.00  0.00     0.095 A 
HETATM   15  C5  UNL     1      -5.437  -1.203  -0.255  1.00  0.00     0.135 A 
HETATM   16  N6  UNL     1      -5.416  -0.238  -1.288  1.00  0.00    -0.082 NA
HETATM   17  N7  UNL     1      -6.545  -1.896   0.066  1.00  0.00    -0.340 N 
HETATM   18  C6  UNL     1      -6.578  -2.820   1.045  1.00  0.00     0.183 A 
ATOM     19  H7  UNL     1      -7.401  -1.713  -0.457  1.00  0.00     0.167 HD
HETATM   20  N8  UNL     1      -5.447  -3.050   1.723  1.00  0.00    -0.338 N 
HETATM   21  C7  UNL     1      -4.291  -2.374   1.439  1.00  0.00     0.117 A 
ATOM     22  H8  UNL     1      -5.446  -3.746   2.469  1.00  0.00     0.168 HD
BRANCH  21  23
HETATM   23  N9  UNL     1      -3.216  -2.612   2.102  1.00  0.00    -0.385 N 
ATOM     24  H92 UNL     1      -2.355  -2.108   1.890  1.00  0.00     0.157 HD
ATOM     25  H91 UNL     1      -3.249  -3.314   2.841  1.00  0.00     0.157 HD
ENDBRANCH  21  23
ENDBRANCH  10  14
ENDBRANCH   4   7
BRANCH   5  26
HETATM   26  C9  UNL     1       1.565   0.921   0.060  1.00  0.00     0.211 C 
BRANCH  26  27
HETATM   27  O1  UNL     1       1.392   0.108   1.167  1.00  0.00    -0.386 OA
ATOM     28  H1  UNL     1       1.977  -0.631   1.048  1.00  0.00     0.210 HD
ENDBRANCH  26  27
BRANCH  26  29
HETATM   29  C10 UNL     1       2.979   1.373  -0.045  1.00  0.00     0.263 C 
BRANCH  29  30
HETATM   30  O2  UNL     1       3.475   2.022   1.061  1.00  0.00    -0.373 OA
ATOM     31  H2  UNL     1       4.378   2.311   0.994  1.00  0.00     0.212 HD
ENDBRANCH  29  30
BRANCH  29  32
HETATM   32  N11 UNL     1       3.842   0.346  -0.544  1.00  0.00    -0.278 N 
HETATM   33  C11 UNL     1       3.692  -0.967  -0.353  1.00  0.00     0.130 A 
HETATM   34  C12 UNL     1       4.576  -1.911  -0.875  1.00  0.00     0.130 A 
HETATM   35  N12 UNL     1       4.381  -3.296  -0.652  1.00  0.00    -0.095 NA
HETATM   36  C13 UNL     1       5.649  -1.494  -1.618  1.00  0.00     0.275 A 
HETATM   37  O3  UNL     1       6.480  -2.304  -2.114  1.00  0.00    -0.266 OA
HETATM   38  N13 UNL     1       5.793  -0.162  -1.808  1.00  0.00    -0.274 N 
HETATM   39  C14 UNL     1       4.925   0.714  -1.292  1.00  0.00     0.331 A 
ATOM     40  H13 UNL     1       6.581   0.181  -2.357  1.00  0.00     0.173 HD
HETATM   41  O4  UNL     1       5.078   1.963  -1.482  1.00  0.00    -0.246 OA
ENDBRANCH  29  32
ENDBRANCH  26  29
ENDBRANCH   5  26
BRANCH   1  42
HETATM   42  N1  UNL     1      -0.984   5.571   0.850  1.00  0.00    -0.380 N 
ATOM     43  H12 UNL     1      -1.935   5.937   0.898  1.00  0.00     0.158 HD
ATOM     44  H11 UNL     1      -0.405   6.395   1.012  1.00  0.00     0.158 HD
ENDBRANCH   1  42
TORSDOF 9
