REMARK  5 active torsions:
REMARK  status: ('A' for Active; 'I' for Inactive)
REMARK    1  A    between atoms: C7_7  and  N1_8 
REMARK       I    between atoms: N1_8  and  C8_10 
REMARK    2  A    between atoms: C8_10  and  C9_12 
REMARK    3  A    between atoms: C9_12  and  C10_13 
REMARK    4  A    between atoms: C10_13  and  C11_14 
REMARK       I    between atoms: C11_14  and  N2_16 
REMARK    5  A    between atoms: C14_19  and  O3_20 
ROOT
HETATM    1  C9  UNL     1       0.452  -0.576  -0.542  1.00  0.00     0.112 C 
ENDROOT
BRANCH   1   2
HETATM    2  C8  UNL     1      -0.942  -0.255  -0.178  1.00  0.00     0.218 C 
HETATM    3  N1  UNL     1      -2.035  -0.470  -1.055  1.00  0.00    -0.356 N 
ATOM      4  H1  UNL     1      -1.853  -0.864  -1.978  1.00  0.00     0.162 HD
HETATM    5  O1  UNL     1      -1.194   0.231   0.954  1.00  0.00    -0.274 OA
BRANCH   3   6
HETATM    6  C7  UNL     1      -3.394  -0.153  -0.691  1.00  0.00     0.088 C 
HETATM    7  C2  UNL     1      -3.997   0.889  -1.615  1.00  0.00     0.004 C 
HETATM    8  C1  UNL     1      -4.339   0.281  -2.965  1.00  0.00     0.012 C 
HETATM    9  C3  UNL     1      -5.296   1.329  -0.979  1.00  0.00     0.006 C 
HETATM   10  C4  UNL     1      -5.762   0.377   0.082  1.00  0.00     0.001 C 
HETATM   11  C5  UNL     1      -5.623  -1.073  -0.293  1.00  0.00     0.002 C 
HETATM   12  C6  UNL     1      -4.256  -1.392  -0.792  1.00  0.00     0.025 C 
ENDBRANCH   3   6
ENDBRANCH   1   2
BRANCH   1  13
HETATM   13  C10 UNL     1       1.429  -0.263   0.542  1.00  0.00     0.112 C 
BRANCH  13  14
HETATM   14  C11 UNL     1       2.795  -0.615   0.089  1.00  0.00     0.220 C 
HETATM   15  O2  UNL     1       2.932  -1.089  -1.079  1.00  0.00    -0.273 OA
HETATM   16  N2  UNL     1       3.941  -0.433   0.936  1.00  0.00    -0.352 N 
HETATM   17  C12 UNL     1       3.708   0.108   2.245  1.00  0.00     0.128 C 
HETATM   18  C16 UNL     1       5.220  -0.802   0.409  1.00  0.00     0.128 C 
HETATM   19  C13 UNL     1       4.943   0.732   2.851  1.00  0.00     0.051 C 
HETATM   20  C14 UNL     1       5.842   1.180   1.707  1.00  0.00     0.121 C 
HETATM   21  C15 UNL     1       6.370  -0.077   1.055  1.00  0.00     0.051 C 
BRANCH  20  22
HETATM   22  O3  UNL     1       6.843   1.961   2.246  1.00  0.00    -0.395 OA
ATOM     23  H3  UNL     1       7.404   2.241   1.532  1.00  0.00     0.210 HD
ENDBRANCH  20  22
ENDBRANCH  13  14
ENDBRANCH   1  13
TORSDOF 5
