REMARK  14 active torsions:
REMARK  status: ('A' for Active; 'I' for Inactive)
REMARK    1  A    between atoms: C2_2  and  C3_3 
REMARK    2  A    between atoms: C10_10  and  O1_11 
REMARK    3  A    between atoms: O1_11  and  C11_12 
REMARK       I    between atoms: C11_12  and  N1_14 
REMARK    4  A    between atoms: N1_14  and  C12_16 
REMARK    5  A    between atoms: C12_16  and  C14_18 
REMARK    6  A    between atoms: C14_18  and  C15_19 
REMARK    7  A    between atoms: C15_19  and  O3_20 
REMARK    8  A    between atoms: C15_19  and  C16_22 
REMARK       I    between atoms: C16_22  and  N2_24 
REMARK    9  A    between atoms: N2_24  and  C18_26 
REMARK   10  A    between atoms: C18_26  and  C20_28 
REMARK   11  A    between atoms: C20_28  and  N3_30 
REMARK       I    between atoms: N3_30  and  C22_32 
REMARK   12  A    between atoms: C22_32  and  C23_34 
REMARK   13  A    between atoms: C23_34  and  N4_35 
REMARK   14  A    between atoms: C23_34  and  C29_45 
REMARK       I    between atoms: N4_35  and  C24_37 
REMARK       I    between atoms: C24_37  and  N5_39 
ROOT
HETATM    1  C16 UNL     1       0.250   1.100  -2.366  1.00  0.00     0.248 C 
HETATM    2  O4  UNL     1       1.055   2.107  -2.351  1.00  0.00    -0.270 OA
HETATM    3  N2  UNL     1      -0.942   1.234  -1.696  1.00  0.00    -0.348 N 
HETATM    4  C17 UNL     1      -1.172   2.527  -0.995  1.00  0.00     0.153 C 
ENDROOT
BRANCH   3   5
HETATM    5  C18 UNL     1      -2.058   0.318  -1.560  1.00  0.00     0.105 C 
HETATM    6  C19 UNL     1      -3.287   0.979  -2.203  1.00  0.00     0.034 C 
BRANCH   5   7
HETATM    7  C20 UNL     1      -2.266   0.128  -0.085  1.00  0.00     0.103 C 
HETATM    8  C21 UNL     1      -1.007  -0.466   0.522  1.00  0.00     0.034 C 
BRANCH   7   9
HETATM    9  N3  UNL     1      -3.370  -0.706   0.300  1.00  0.00    -0.350 N 
HETATM   10  C22 UNL     1      -4.455  -0.117   1.021  1.00  0.00     0.265 C 
HETATM   11  O5  UNL     1      -4.316   1.123   1.223  1.00  0.00    -0.266 OA
ATOM     12  H3  UNL     1      -3.380  -1.698   0.064  1.00  0.00     0.163 HD
BRANCH  10  13
HETATM   13  C23 UNL     1      -5.651  -0.801   1.520  1.00  0.00     0.089 C 
BRANCH  13  14
HETATM   14  N4  UNL     1      -6.900  -0.196   1.275  1.00  0.00    -0.307 N 
HETATM   15  C24 UNL     1      -7.337   1.097   1.098  1.00  0.00     0.322 C 
HETATM   16  O6  UNL     1      -6.633   2.123   1.131  1.00  0.00    -0.247 OA
HETATM   17  N5  UNL     1      -8.746   1.371   0.837  1.00  0.00    -0.330 N 
HETATM   18  C25 UNL     1      -9.229   2.687   0.587  1.00  0.00     0.153 C 
HETATM   19  C28 UNL     1      -9.655   0.258   0.845  1.00  0.00     0.153 C 
HETATM   20  C26 UNL     1     -10.309   2.546  -0.475  1.00  0.00     0.187 C 
HETATM   21  O7  UNL     1     -11.319   1.687  -0.140  1.00  0.00    -0.388 OA
HETATM   22  C27 UNL     1     -11.074   0.800   0.877  1.00  0.00     0.187 C 
ATOM     23  H4  UNL     1      -7.658  -0.876   1.215  1.00  0.00     0.170 HD
ENDBRANCH  13  14
BRANCH  13  24
HETATM   24  C29 UNL     1      -5.670  -2.295   1.350  1.00  0.00    -0.003 C 
HETATM   25  C30 UNL     1      -4.540  -2.956   2.055  1.00  0.00     0.021 C 
HETATM   26  C31 UNL     1      -6.955  -2.830   2.015  1.00  0.00     0.021 C 
HETATM   27  C32 UNL     1      -5.772  -2.696  -0.100  1.00  0.00     0.021 C 
ENDBRANCH  13  24
ENDBRANCH  10  13
ENDBRANCH   7   9
ENDBRANCH   5   7
ENDBRANCH   3   5
BRANCH   1  28
HETATM   28  C15 UNL     1       0.788  -0.051  -3.131  1.00  0.00     0.212 C 
BRANCH  28  29
HETATM   29  C14 UNL     1       2.253  -0.254  -2.912  1.00  0.00     0.066 C 
BRANCH  29  30
HETATM   30  C12 UNL     1       2.657  -0.796  -1.592  1.00  0.00     0.085 C 
HETATM   31  C13 UNL     1       2.148  -2.180  -1.298  1.00  0.00     0.032 C 
BRANCH  30  32
HETATM   32  N1  UNL     1       4.121  -0.902  -1.606  1.00  0.00    -0.333 N 
HETATM   33  C11 UNL     1       4.958  -0.183  -0.724  1.00  0.00     0.361 C 
HETATM   34  O2  UNL     1       4.535   0.614   0.148  1.00  0.00    -0.238 OA
ATOM     35  H1  UNL     1       4.555  -1.526  -2.286  1.00  0.00     0.165 HD
BRANCH  33  36
HETATM   36  O1  UNL     1       6.312  -0.364  -0.820  1.00  0.00    -0.298 OA
BRANCH  36  37
HETATM   37  C10 UNL     1       7.299   0.268  -0.031  1.00  0.00     0.138 C 
HETATM   38  C3  UNL     1       8.095  -0.711   0.822  1.00  0.00     0.015 C 
HETATM   39  C4  UNL     1       8.953   0.146   1.721  1.00  0.00     0.008 C 
HETATM   40  C5  UNL     1       9.935   0.954   0.970  1.00  0.00     0.009 C 
HETATM   41  C6  UNL     1       9.408   1.673  -0.238  1.00  0.00    -0.045 C 
HETATM   42  C7  UNL     1       9.047   3.078   0.267  1.00  0.00     0.015 C 
HETATM   43  C8  UNL     1      10.547   1.884  -1.225  1.00  0.00     0.015 C 
HETATM   44  C9  UNL     1       8.208   1.124  -0.869  1.00  0.00     0.041 C 
BRANCH  38  45
HETATM   45  C2  UNL     1       7.132  -1.525   1.659  1.00  0.00     0.002 C 
HETATM   46  C1  UNL     1       7.967  -2.403   2.585  1.00  0.00     0.005 C 
ENDBRANCH  38  45
ENDBRANCH  36  37
ENDBRANCH  33  36
ENDBRANCH  30  32
ENDBRANCH  29  30
ENDBRANCH  28  29
BRANCH  28  47
HETATM   47  O3  UNL     1       0.086  -1.211  -3.030  1.00  0.00    -0.386 OA
ATOM     48  H3  UNL     1      -0.845  -1.082  -3.169  1.00  0.00     0.210 HD
ENDBRANCH  28  47
ENDBRANCH   1  28
TORSDOF 14
