REMARK  16 active torsions:
REMARK  status: ('A' for Active; 'I' for Inactive)
REMARK    1  A    between atoms: O1_2  and  C2_3 
REMARK    2  A    between atoms: C2_3  and  C3_4 
REMARK    3  A    between atoms: C3_4  and  C4_5 
REMARK       I    between atoms: N1_9  and  C8_10 
REMARK    4  A    between atoms: C8_10  and  C9_12 
REMARK    5  A    between atoms: C9_12  and  N2_13 
REMARK    6  A    between atoms: C9_12  and  C28_43 
REMARK       I    between atoms: N2_13  and  C10_15 
REMARK    7  A    between atoms: C10_15  and  C11_17 
REMARK    8  A    between atoms: C11_17  and  C12_18 
REMARK    9  A    between atoms: N3_21  and  C15_22 
REMARK   10  A    between atoms: C15_22  and  O4_23 
REMARK   11  A    between atoms: C15_22  and  C16_25 
REMARK   12  A    between atoms: C16_25  and  N4_27 
REMARK       I    between atoms: N4_27  and  C18_29 
REMARK   13  A    between atoms: C18_29  and  C19_31 
REMARK   14  A    between atoms: C19_31  and  N5_33 
REMARK       I    between atoms: N5_33  and  C21_34 
REMARK   15  A    between atoms: C21_34  and  O7_36 
REMARK   16  A    between atoms: O7_36  and  C22_37 
ROOT
HETATM    1  C12 UNL     1       0.302  -1.023   1.302  1.00  0.00    -0.003 C 
HETATM    2  C13 UNL     1       1.253  -1.114   2.501  1.00  0.00     0.025 C 
HETATM    3  C14 UNL     1       2.623  -1.304   1.924  1.00  0.00     0.125 C 
HETATM    4  N3  UNL     1       2.955  -0.184   1.064  1.00  0.00    -0.364 N 
HETATM    5  C26 UNL     1       1.910   0.727   0.651  1.00  0.00     0.125 C 
HETATM    6  C27 UNL     1       0.525   0.230   0.574  1.00  0.00     0.025 C 
ENDROOT
BRANCH   1   7
HETATM    7  C11 UNL     1      -1.092  -1.340   1.755  1.00  0.00     0.107 C 
BRANCH   7   8
HETATM    8  C10 UNL     1      -2.141  -1.227   0.748  1.00  0.00     0.218 C 
HETATM    9  N2  UNL     1      -3.329  -1.989   0.799  1.00  0.00    -0.347 N 
ATOM     10  H2  UNL     1      -3.461  -2.704   1.514  1.00  0.00     0.163 HD
HETATM   11  O3  UNL     1      -1.998  -0.395  -0.218  1.00  0.00    -0.274 OA
BRANCH   9  12
HETATM   12  C9  UNL     1      -4.381  -1.723  -0.216  1.00  0.00     0.184 C 
BRANCH  12  13
HETATM   13  C8  UNL     1      -5.486  -1.171   0.614  1.00  0.00     0.243 C 
HETATM   14  N1  UNL     1      -6.288  -0.076   0.302  1.00  0.00    -0.350 N 
HETATM   15  C7  UNL     1      -6.243   0.762  -0.848  1.00  0.00     0.126 C 
HETATM   16  C32 UNL     1      -7.320   0.283   1.310  1.00  0.00     0.126 C 
HETATM   17  C6  UNL     1      -7.659   1.006  -1.343  1.00  0.00     0.029 C 
HETATM   18  C4  UNL     1      -8.419   1.789  -0.331  1.00  0.00    -0.039 C 
HETATM   19  C5  UNL     1      -8.333   3.262  -0.640  1.00  0.00     0.015 C 
HETATM   20  C33 UNL     1      -7.674   1.708   1.059  1.00  0.00     0.029 C 
HETATM   21  O2  UNL     1      -5.688  -1.792   1.712  1.00  0.00    -0.271 OA
BRANCH  18  22
HETATM   22  C3  UNL     1      -9.799   1.307  -0.005  1.00  0.00     0.035 C 
BRANCH  22  23
HETATM   23  C2  UNL     1     -10.834   1.567  -1.022  1.00  0.00     0.167 C 
BRANCH  23  24
HETATM   24  O1  UNL     1     -12.049   1.054  -0.566  1.00  0.00    -0.396 OA
HETATM   25  C1  UNL     1     -12.484   1.620   0.601  1.00  0.00     0.201 C 
ENDBRANCH  23  24
ENDBRANCH  22  23
ENDBRANCH  18  22
ENDBRANCH  12  13
BRANCH  12  26
HETATM   26  C28 UNL     1      -4.734  -2.939  -0.943  1.00  0.00    -0.022 C 
HETATM   27  C29 UNL     1      -3.553  -3.445  -1.793  1.00  0.00     0.017 C 
HETATM   28  C30 UNL     1      -5.147  -4.106  -0.058  1.00  0.00     0.017 C 
HETATM   29  C31 UNL     1      -5.866  -2.714  -1.973  1.00  0.00     0.017 C 
ENDBRANCH  12  26
ENDBRANCH   9  12
ENDBRANCH   7   8
ENDBRANCH   1   7
BRANCH   4  30
HETATM   30  C15 UNL     1       4.281   0.053   0.740  1.00  0.00     0.136 C 
BRANCH  30  31
HETATM   31  O4  UNL     1       4.479   0.960  -0.222  1.00  0.00    -0.348 OA
ATOM     32  H4  UNL     1       5.388   1.123  -0.444  1.00  0.00     0.219 HD
ENDBRANCH  30  31
BRANCH  30  33
HETATM   33  C16 UNL     1       5.491  -0.509   1.284  1.00  0.00     0.155 C 
HETATM   34  C17 UNL     1       6.056   0.649   2.180  1.00  0.00     0.041 C 
BRANCH  33  35
HETATM   35  N4  UNL     1       6.485  -0.836   0.305  1.00  0.00    -0.343 N 
HETATM   36  C18 UNL     1       7.811  -1.124   0.594  1.00  0.00     0.278 C 
HETATM   37  O5  UNL     1       8.312  -1.103   1.738  1.00  0.00    -0.265 OA
ATOM     38  H4  UNL     1       6.197  -0.859  -0.673  1.00  0.00     0.163 HD
BRANCH  36  39
HETATM   39  C19 UNL     1       8.739  -1.482  -0.572  1.00  0.00     0.154 C 
HETATM   40  C20 UNL     1       7.837  -1.860  -1.772  1.00  0.00     0.091 C 
BRANCH  39  41
HETATM   41  N5  UNL     1       9.786  -0.725  -0.703  1.00  0.00    -0.345 NA
HETATM   42  C21 UNL     1      10.929   0.100  -0.846  1.00  0.00     0.441 C 
HETATM   43  O6  UNL     1      12.120  -0.267  -1.109  1.00  0.00    -0.221 OA
BRANCH  42  44
HETATM   44  O7  UNL     1      10.782   1.485  -0.681  1.00  0.00    -0.282 OA
BRANCH  44  45
HETATM   45  C22 UNL     1      11.773   2.453  -0.751  1.00  0.00     0.062 C 
HETATM   46  C23 UNL     1      12.499   2.487  -2.083  1.00  0.00     0.046 C 
HETATM   47  C24 UNL     1      11.036   3.817  -0.655  1.00  0.00     0.046 C 
HETATM   48  C25 UNL     1      12.778   2.453   0.377  1.00  0.00     0.046 C 
ENDBRANCH  44  45
ENDBRANCH  42  44
ENDBRANCH  39  41
ENDBRANCH  36  39
ENDBRANCH  33  35
ENDBRANCH  30  33
ENDBRANCH   4  30
TORSDOF 16
