REMARK  8 active torsions:
REMARK  status: ('A' for Active; 'I' for Inactive)
REMARK    1  A    between atoms: C2_2  and  C3_3 
REMARK    2  A    between atoms: C2_2  and  C8_11 
REMARK       I    between atoms: C3_3  and  N1_5 
REMARK    3  A    between atoms: N1_5  and  C4_7 
REMARK    4  A    between atoms: C8_11  and  N2_12 
REMARK    5  A    between atoms: C8_11  and  C22_31 
REMARK       I    between atoms: N2_12  and  C9_14 
REMARK    6  A    between atoms: C9_14  and  C10_16 
REMARK    7  A    between atoms: C10_16  and  N3_17 
REMARK    8  A    between atoms: C13_20  and  O3_21 
ROOT
HETATM    1  N2  UNL     1      -0.067   0.325  -0.436  1.00  0.00    -0.353 N 
ATOM      2  H2  UNL     1      -0.579   0.637  -1.261  1.00  0.00     0.163 HD
HETATM    3  C9  UNL     1      -0.826   0.065   0.700  1.00  0.00     0.247 C 
HETATM    4  O2  UNL     1      -0.171  -0.327   1.716  1.00  0.00    -0.271 OA
ENDROOT
BRANCH   3   5
HETATM    5  C10 UNL     1      -2.293   0.186   0.877  1.00  0.00     0.125 A 
HETATM    6  C16 UNL     1      -2.948  -0.821   1.825  1.00  0.00    -0.003 A 
HETATM    7  C17 UNL     1      -4.331  -1.334   1.413  1.00  0.00     0.019 C 
HETATM    8  C18 UNL     1      -2.138  -1.883   2.490  1.00  0.00     0.019 C 
HETATM    9  C19 UNL     1      -2.801   0.574   2.254  1.00  0.00    -0.003 A 
HETATM   10  C20 UNL     1      -1.839   1.053   3.281  1.00  0.00     0.019 C 
HETATM   11  C21 UNL     1      -4.162   1.293   2.369  1.00  0.00     0.019 C 
BRANCH   5  12
HETATM   12  N3  UNL     1      -3.099   0.659  -0.203  1.00  0.00    -0.394 N 
HETATM   13  C11 UNL     1      -3.138  -0.159  -1.377  1.00  0.00     0.120 C 
HETATM   14  C12 UNL     1      -3.387   0.674  -2.633  1.00  0.00     0.051 C 
HETATM   15  C13 UNL     1      -4.570   1.571  -2.292  1.00  0.00     0.121 C 
HETATM   16  C14 UNL     1      -4.041   2.616  -1.330  1.00  0.00     0.051 C 
HETATM   17  C15 UNL     1      -2.942   2.048  -0.453  1.00  0.00     0.120 C 
BRANCH  15  18
HETATM   18  O3  UNL     1      -5.531   0.820  -1.586  1.00  0.00    -0.395 OA
ATOM     19  H3  UNL     1      -6.269   1.379  -1.373  1.00  0.00     0.210 HD
ENDBRANCH  15  18
ENDBRANCH   5  12
ENDBRANCH   3   5
BRANCH   1  20
HETATM   20  C8  UNL     1       1.360   0.203  -0.578  1.00  0.00     0.101 C 
BRANCH  20  21
HETATM   21  C2  UNL     1       1.746  -0.916  -1.557  1.00  0.00     0.097 C 
HETATM   22  C1  UNL     1       1.189  -0.636  -2.932  1.00  0.00     0.022 C 
BRANCH  21  23
HETATM   23  C3  UNL     1       3.207  -1.089  -1.675  1.00  0.00     0.224 C 
HETATM   24  O1  UNL     1       3.766  -0.644  -2.731  1.00  0.00    -0.273 OA
HETATM   25  N1  UNL     1       3.998  -1.715  -0.678  1.00  0.00    -0.353 N 
ATOM     26  H1  UNL     1       3.546  -2.065   0.167  1.00  0.00     0.163 HD
BRANCH  25  27
HETATM   27  C4  UNL     1       5.408  -1.868  -0.824  1.00  0.00     0.022 C 
HETATM   28  C5  UNL     1       5.937  -2.656   0.389  1.00  0.00     0.037 C 
HETATM   29  C6  UNL     1       5.816  -2.605  -2.067  1.00  0.00     0.037 C 
HETATM   30  C7  UNL     1       6.175  -0.544  -0.765  1.00  0.00     0.037 C 
ENDBRANCH  25  27
ENDBRANCH  21  23
ENDBRANCH  20  21
BRANCH  20  31
HETATM   31  C22 UNL     1       2.098   1.409  -0.942  1.00  0.00     0.009 A 
HETATM   32  C23 UNL     1       2.064   2.722  -0.335  1.00  0.00     0.007 A 
HETATM   33  C24 UNL     1       3.232   1.828  -0.015  1.00  0.00     0.007 A 
ENDBRANCH  20  31
ENDBRANCH   1  20
TORSDOF 8
