REMARK  4 active torsions:
REMARK  status: ('A' for Active; 'I' for Inactive)
REMARK       I    between atoms: C1_4  and  N3_6 
REMARK    1  A    between atoms: N3_6  and  C2_8 
REMARK    2  A    between atoms: C2_8  and  C3_9 
REMARK    3  A    between atoms: C3_9  and  C4_10 
REMARK    4  A    between atoms: C4_10  and  N4_11 
ROOT
HETATM    1  C3  UNL     1      -1.150  -0.008  -0.659  1.00  0.00     0.064 C 
ENDROOT
BRANCH   1   2
HETATM    2  C2  UNL     1      -2.507  -0.197  -0.060  1.00  0.00     0.127 C 
BRANCH   2   3
HETATM    3  N3  UNL     1      -3.532  -0.603  -0.997  1.00  0.00    -0.365 N 
HETATM    4  C1  UNL     1      -4.774  -0.997  -0.379  1.00  0.00     0.181 C 
HETATM    5  N1  UNL     1      -5.627  -1.703  -1.023  1.00  0.00    -0.374 N 
HETATM    6  N2  UNL     1      -5.064  -0.641   0.982  1.00  0.00    -0.064 NA
ATOM      7  H12 UNL     1      -6.505  -1.982  -0.586  1.00  0.00     0.158 HD
ATOM      8  H11 UNL     1      -5.421  -1.956  -1.989  1.00  0.00     0.158 HD
ATOM      9  H3  UNL     1      -3.389  -0.610  -2.007  1.00  0.00     0.162 HD
ENDBRANCH   2   3
ENDBRANCH   1   2
BRANCH   1  10
HETATM   10  C4  UNL     1      -0.146   0.455   0.399  1.00  0.00     0.064 C 
BRANCH  10  11
HETATM   11  N4  UNL     1       1.166   0.587  -0.029  1.00  0.00    -0.373 N 
HETATM   12  C5  UNL     1       1.909  -0.586  -0.323  1.00  0.00     0.128 C 
HETATM   13  C6  UNL     1       2.684  -1.079   0.900  1.00  0.00     0.033 C 
HETATM   14  C7  UNL     1       3.910  -0.255   1.108  1.00  0.00     0.110 C 
HETATM   15  S1  UNL     1       4.356   0.779  -0.234  1.00  0.00     0.019 S 
HETATM   16  O1  UNL     1       5.114  -0.154  -1.397  1.00  0.00    -0.258 OA
HETATM   17  C8  UNL     1       3.089   1.801  -0.857  1.00  0.00     0.153 C 
HETATM   18  C9  UNL     1       1.838   1.806  -0.033  1.00  0.00     0.075 C 
ENDBRANCH  10  11
ENDBRANCH   1  10
TORSDOF 4
