REMARK  4 active torsions:
REMARK  status: ('A' for Active; 'I' for Inactive)
REMARK    1  A    between atoms: C4_8  and  C5_9 
REMARK    2  A    between atoms: C6_12  and  C7_13 
REMARK    3  A    between atoms: C7_13  and  C8_14 
REMARK    4  A    between atoms: C8_14  and  O2_15 
ROOT
HETATM    1  O1  UNL     1       1.839  -1.921   0.386  1.00  0.00    -0.296 OA
HETATM    2  C1  UNL     1       0.859  -1.440  -0.049  1.00  0.00     0.153 C 
HETATM    3  C2  UNL     1      -0.148  -2.376  -0.628  1.00  0.00     0.101 C 
HETATM    4  C3  UNL     1      -1.371  -2.227   0.283  1.00  0.00     0.147 C 
HETATM    5  N1  UNL     1      -1.167  -1.126   1.168  1.00  0.00    -0.334 N 
ATOM      6  H1  UNL     1      -1.328  -1.206   2.172  1.00  0.00     0.180 HD
HETATM    7  N2  UNL     1      -0.740   0.053   0.591  1.00  0.00    -0.297 N 
HETATM    8  C4  UNL     1      -1.551   1.150   0.635  1.00  0.00     0.110 C 
HETATM    9  C6  UNL     1       0.504  -0.021  -0.087  1.00  0.00     0.178 C 
ENDROOT
BRANCH   8  10
HETATM   10  C5  UNL     1      -2.308   1.609  -0.579  1.00  0.00     0.169 C 
HETATM   11 BR1  UNL     1      -3.356   3.193  -0.040  1.00  0.00    -0.073 Br
HETATM   12 BR2  UNL     1      -1.250   2.187  -2.055  1.00  0.00    -0.073 Br
ENDBRANCH   8  10
BRANCH   9  13
HETATM   13  C7  UNL     1       1.503   0.988   0.279  1.00  0.00     0.061 C 
BRANCH  13  14
HETATM   14  C8  UNL     1       2.755   1.135  -0.483  1.00  0.00     0.166 C 
BRANCH  14  15
HETATM   15  O2  UNL     1       3.556   0.019  -0.495  1.00  0.00    -0.401 OA
ATOM     16  H2  UNL     1       4.363   0.114  -0.986  1.00  0.00     0.209 HD
ENDBRANCH  14  15
ENDBRANCH  13  14
ENDBRANCH   9  13
TORSDOF 4
