REMARK  5 active torsions:
REMARK  status: ('A' for Active; 'I' for Inactive)
REMARK    1  A    between atoms: C2_2  and  C3_3 
REMARK       I    between atoms: C3_3  and  N1_5 
REMARK    2  A    between atoms: N1_5  and  C4_7 
REMARK    3  A    between atoms: C4_7  and  C8_13 
REMARK    4  A    between atoms: N2_8  and  C5_10 
REMARK    5  A    between atoms: C8_13  and  O2_14 
ROOT
HETATM    1  C4  UNL     1      -0.086  -0.241  -0.110  1.00  0.00     0.118 C 
HETATM    2  N2  UNL     1      -0.786  -1.259  -0.325  1.00  0.00    -0.373 N 
ATOM      3  H2  UNL     1      -0.199  -2.069  -0.126  1.00  0.00     0.161 HD
ENDROOT
BRANCH   1   4
HETATM    4  N1  UNL     1       1.246  -0.531   0.321  1.00  0.00    -0.314 N 
HETATM    5  C3  UNL     1       2.333   0.246   0.629  1.00  0.00     0.222 C 
HETATM    6  O1  UNL     1       2.373   1.471   0.581  1.00  0.00    -0.273 OA
ATOM      7  H1  UNL     1       1.426  -1.530   0.421  1.00  0.00     0.170 HD
BRANCH   5   8
HETATM    8  C2  UNL     1       3.619  -0.422   1.074  1.00  0.00     0.098 C 
HETATM    9  C1  UNL     1       4.688   0.600   1.366  1.00  0.00     0.014 C 
ENDBRANCH   5   8
ENDBRANCH   1   4
BRANCH   1  10
HETATM   10  C8  UNL     1      -0.470   1.151  -0.245  1.00  0.00     0.152 A 
HETATM   11  C9  UNL     1      -0.503   1.915   1.085  1.00  0.00     0.128 A 
HETATM   12 BR1  UNL     1      -0.654   0.919   2.736  1.00  0.00    -0.085 Br
HETATM   13  C10 UNL     1      -1.684   1.839   0.121  1.00  0.00     0.089 A 
HETATM   14  C11 UNL     1      -1.915   3.193  -0.584  1.00  0.00     0.037 C 
HETATM   15 CL1  UNL     1      -3.123   1.251   0.890  1.00  0.00    -0.115 Cl
BRANCH  10  16
HETATM   16  O2  UNL     1       0.315   1.806  -1.234  1.00  0.00    -0.379 OA
ATOM     17  H2  UNL     1       0.063   2.718  -1.322  1.00  0.00     0.211 HD
ENDBRANCH  10  16
ENDBRANCH   1  10
BRANCH   2  18
HETATM   18  C5  UNL     1      -1.999  -1.736  -0.712  1.00  0.00     0.074 C 
HETATM   19  C6  UNL     1      -2.708  -2.550   0.395  1.00  0.00     0.031 C 
HETATM   20  C7  UNL     1      -1.916  -2.806  -1.843  1.00  0.00     0.031 C 
ENDBRANCH   2  18
TORSDOF 5
