REMARK  6 active torsions:
REMARK  status: ('A' for Active; 'I' for Inactive)
REMARK    1  A    between atoms: O1_1  and  C1_3 
REMARK    2  A    between atoms: C1_3  and  C2_4 
REMARK    3  A    between atoms: C2_4  and  N1_5 
REMARK    4  A    between atoms: N1_5  and  C3_7 
REMARK    5  A    between atoms: C4_10  and  C5_11 
REMARK    6  A    between atoms: C5_11  and  C6_12 
ROOT
HETATM    1  C3  UNL     1      -0.537   0.413   0.033  1.00  0.00     0.146 A 
HETATM    2  N2  UNL     1       0.656   0.201   0.577  1.00  0.00    -0.339 N 
ATOM      3  H2  UNL     1       0.918   0.663   1.448  1.00  0.00     0.168 HD
HETATM    4  C4  UNL     1       1.489  -0.608  -0.021  1.00  0.00     0.036 A 
HETATM    5  C7  UNL     1       1.066  -1.192  -1.189  1.00  0.00     0.077 A 
HETATM    6 BR2  UNL     1       2.030  -2.424  -2.318  1.00  0.00    -0.041 Br
HETATM    7  S1  UNL     1      -0.506  -0.552  -1.373  1.00  0.00    -0.045 SA
ENDROOT
BRANCH   1   8
HETATM    8  N1  UNL     1      -1.501   1.190   0.496  1.00  0.00    -0.368 N 
ATOM      9  H1  UNL     1      -1.366   1.707   1.365  1.00  0.00     0.161 HD
BRANCH   8  10
HETATM   10  C2  UNL     1      -2.745   1.308  -0.228  1.00  0.00     0.147 C 
BRANCH  10  11
HETATM   11  C1  UNL     1      -3.589   0.106   0.067  1.00  0.00     0.183 C 
BRANCH  11  12
HETATM   12  O1  UNL     1      -4.812   0.159  -0.607  1.00  0.00    -0.399 OA
ATOM     13  H1  UNL     1      -5.347  -0.603  -0.420  1.00  0.00     0.209 HD
ENDBRANCH  11  12
ENDBRANCH  10  11
ENDBRANCH   8  10
ENDBRANCH   1   8
BRANCH   4  14
HETATM   14  C5  UNL     1       2.889  -0.935   0.501  1.00  0.00     0.070 C 
BRANCH  14  15
HETATM   15  C6  UNL     1       3.930  -0.215  -0.288  1.00  0.00     0.091 C 
HETATM   16 BR1  UNL     1       3.747   1.694  -0.224  1.00  0.00    -0.096 Br
ENDBRANCH  14  15
ENDBRANCH   4  14
TORSDOF 6
