REMARK  10 active torsions:
REMARK  status: ('A' for Active; 'I' for Inactive)
REMARK    1  A    between atoms: C2_2  and  O1_3 
REMARK    2  A    between atoms: C2_2  and  C3_5 
REMARK    3  A    between atoms: C3_5  and  C4_6 
REMARK    4  A    between atoms: C4_6  and  N1_7 
REMARK    5  A    between atoms: C4_6  and  C8_13 
REMARK    6  A    between atoms: N1_7  and  C5_10 
REMARK    7  A    between atoms: C9_17  and  C10_18 
REMARK    8  A    between atoms: C10_18  and  C12_20 
REMARK    9  A    between atoms: C12_20  and  O3_21 
REMARK   10  A    between atoms: C12_20  and  C13_23 
ROOT
HETATM    1  C8  UNL     1      -0.812   0.512  -0.211  1.00  0.00     0.135 A 
HETATM    2  N2  UNL     1      -0.176   0.673  -1.372  1.00  0.00    -0.245 N 
ATOM      3  H2  UNL     1      -0.636   0.663  -2.282  1.00  0.00     0.196 HD
HETATM    4  O2  UNL     1       1.114   0.846  -1.202  1.00  0.00    -0.222 OA
HETATM    5  C9  UNL     1       1.378   0.810   0.072  1.00  0.00     0.154 A 
HETATM    6  N3  UNL     1       0.203   0.602   0.703  1.00  0.00    -0.325 N 
ATOM      7  H3  UNL     1       0.088   0.523   1.713  1.00  0.00     0.169 HD
ENDROOT
BRANCH   1   8
HETATM    8  C4  UNL     1      -2.243   0.227   0.105  1.00  0.00     0.257 C 
BRANCH   8   9
HETATM    9  C3  UNL     1      -3.175   1.353  -0.083  1.00  0.00     0.072 C 
BRANCH   9  10
HETATM   10  C2  UNL     1      -3.561   1.756  -1.448  1.00  0.00     0.116 C 
HETATM   11  C1  UNL     1      -4.513   2.949  -1.361  1.00  0.00     0.039 C 
BRANCH  10  12
HETATM   12  O1  UNL     1      -2.554   2.097  -2.321  1.00  0.00    -0.396 OA
ATOM     13  H1  UNL     1      -1.962   1.356  -2.375  1.00  0.00     0.210 HD
ENDBRANCH  10  12
ENDBRANCH   9  10
ENDBRANCH   8   9
BRANCH   8  14
HETATM   14  N1  UNL     1      -2.640  -1.048  -0.439  1.00  0.00    -0.060 N 
ATOM     15  H12 UNL     1      -3.595  -1.030  -0.796  1.00  0.00     0.278 HD
ATOM     16  H11 UNL     1      -2.158  -1.257  -1.313  1.00  0.00     0.278 HD
BRANCH  14  17
HETATM   17  C5  UNL     1      -2.451  -2.087   0.542  1.00  0.00     0.187 A 
HETATM   18  C6  UNL     1      -3.227  -2.165   1.801  1.00  0.00     0.035 A 
HETATM   19  C7  UNL     1      -3.502  -3.150   0.718  1.00  0.00     0.035 A 
ENDBRANCH  14  17
ENDBRANCH   8  14
ENDBRANCH   1   8
BRANCH   5  20
HETATM   20  C10 UNL     1       2.672   0.957   0.802  1.00  0.00     0.088 C 
HETATM   21  C11 UNL     1       2.417   1.170   2.272  1.00  0.00     0.021 C 
BRANCH  20  22
HETATM   22  C12 UNL     1       3.394  -0.364   0.626  1.00  0.00     0.133 C 
BRANCH  22  23
HETATM   23  O3  UNL     1       2.631  -1.414   1.123  1.00  0.00    -0.394 OA
ATOM     24  H3  UNL     1       3.084  -2.242   1.013  1.00  0.00     0.210 HD
ENDBRANCH  22  23
BRANCH  22  25
HETATM   25  C13 UNL     1       3.879  -0.621  -0.765  1.00  0.00     0.007 C 
HETATM   26  C14 UNL     1       4.875   0.456  -1.169  1.00  0.00     0.012 C 
HETATM   27  C15 UNL     1       4.639  -1.953  -0.709  1.00  0.00     0.012 C 
ENDBRANCH  22  25
ENDBRANCH  20  22
ENDBRANCH   5  20
TORSDOF 10
