REMARK  8 active torsions:
REMARK  status: ('A' for Active; 'I' for Inactive)
REMARK    1  A    between atoms: C2_2  and  C4_4 
REMARK    2  A    between atoms: C5_9  and  C6_10 
REMARK    3  A    between atoms: C6_10  and  N3_11 
REMARK    4  A    between atoms: N3_11  and  C7_13 
REMARK    5  A    between atoms: C7_13  and  C8_17 
REMARK    6  A    between atoms: C8_17  and  N5_18 
REMARK    7  A    between atoms: N5_18  and  C9_21 
REMARK    8  A    between atoms: C9_21  and  C10_22 
ROOT
HETATM    1  C7  UNL     1      -0.124   0.826   0.880  1.00  0.00     0.097 C 
HETATM    2  N4  UNL     1      -0.645   1.140   2.005  1.00  0.00    -0.388 N 
ATOM      3  H41 UNL     1      -1.654   1.085   2.143  1.00  0.00     0.157 HD
ATOM      4  H42 UNL     1      -0.042   1.447   2.768  1.00  0.00     0.157 HD
ENDROOT
BRANCH   1   5
HETATM    5  N3  UNL     1       1.262   0.902   0.691  1.00  0.00    -0.371 N 
ATOM      6  H3  UNL     1       1.850   1.344   1.397  1.00  0.00     0.161 HD
BRANCH   5   7
HETATM    7  C6  UNL     1       1.856   0.354  -0.503  1.00  0.00     0.207 C 
BRANCH   7   8
HETATM    8  C5  UNL     1       3.343   0.550  -0.484  1.00  0.00     0.158 A 
HETATM    9  N2  UNL     1       4.008   1.636  -0.968  1.00  0.00    -0.280 N 
HETATM   10  N1  UNL     1       5.315   1.432  -0.765  1.00  0.00    -0.281 N 
ATOM     11  H2  UNL     1       3.587   2.455  -1.405  1.00  0.00     0.189 HD
HETATM   12  C4  UNL     1       5.462   0.242  -0.166  1.00  0.00     0.143 A 
ATOM     13  H1  UNL     1       6.068   2.071  -1.021  1.00  0.00     0.189 HD
HETATM   14  O1  UNL     1       4.254  -0.239  -0.023  1.00  0.00    -0.280 OA
BRANCH  12  15
HETATM   15  C2  UNL     1       6.746  -0.417   0.259  1.00  0.00     0.054 C 
HETATM   16  C1  UNL     1       7.493   0.437   1.229  1.00  0.00     0.018 C 
HETATM   17  C3  UNL     1       7.529  -0.681  -1.015  1.00  0.00     0.018 C 
ENDBRANCH  12  15
ENDBRANCH   7   8
ENDBRANCH   5   7
ENDBRANCH   1   5
BRANCH   1  18
HETATM   18  C8  UNL     1      -0.996   0.382  -0.224  1.00  0.00     0.307 C 
BRANCH  18  19
HETATM   19  N5  UNL     1      -2.385   0.384   0.197  1.00  0.00    -0.068 N 
ATOM     20  H52 UNL     1      -2.522  -0.173   1.041  1.00  0.00     0.277 HD
ATOM     21  H51 UNL     1      -2.665   1.294   0.563  1.00  0.00     0.277 HD
BRANCH  19  22
HETATM   22  C9  UNL     1      -3.260  -0.051  -0.878  1.00  0.00     0.237 C 
BRANCH  22  23
HETATM   23  C10 UNL     1      -4.708  -0.049  -0.448  1.00  0.00     0.012 C 
HETATM   24  C11 UNL     1      -5.538  -0.513  -1.623  1.00  0.00     0.016 C 
HETATM   25  C12 UNL     1      -6.922  -0.951  -1.195  1.00  0.00     0.074 C 
HETATM   26  S1  UNL     1      -7.394  -0.112   0.362  1.00  0.00    -0.169 SA
HETATM   27  C13 UNL     1      -6.073  -0.461   1.556  1.00  0.00     0.074 C 
HETATM   28  C14 UNL     1      -4.870  -0.926   0.754  1.00  0.00     0.016 C 
ENDBRANCH  22  23
ENDBRANCH  19  22
ENDBRANCH  18  19
ENDBRANCH   1  18
TORSDOF 8
