REMARK  3 active torsions:
REMARK  status: ('A' for Active; 'I' for Inactive)
REMARK       I    between atoms: C1_2  and  N2_4 
REMARK       I    between atoms: N2_4  and  C2_6 
REMARK    1  A    between atoms: N4_8  and  C3_10 
REMARK    2  A    between atoms: C4_11  and  C5_12 
REMARK    3  A    between atoms: C11_18  and  N5_19 
ROOT
HETATM    1  C5  UNL     1      -0.926  -0.417  -0.433  1.00  0.00    -0.018 C 
HETATM    2  C6  UNL     1      -1.609  -1.664  -0.892  1.00  0.00     0.018 C 
HETATM    3  C7  UNL     1      -3.088  -1.612  -0.724  1.00  0.00    -0.011 C 
HETATM    4  C8  UNL     1      -3.409  -1.348   0.754  1.00  0.00     0.012 C 
HETATM    5  C9  UNL     1      -2.785   0.038   0.910  1.00  0.00     0.023 C 
HETATM    6  C10 UNL     1      -1.278  -0.223   1.048  1.00  0.00     0.020 C 
HETATM    7  C11 UNL     1      -2.976   0.704  -0.414  1.00  0.00     0.128 C 
HETATM    8  C12 UNL     1      -3.661  -0.321  -1.327  1.00  0.00     0.043 C 
HETATM    9  C13 UNL     1      -1.570   0.837  -1.017  1.00  0.00     0.052 C 
ENDROOT
BRANCH   1  10
HETATM   10  C4  UNL     1       0.513  -0.440  -0.648  1.00  0.00     0.000 C 
HETATM   11  C3  UNL     1       1.262   0.623  -0.409  1.00  0.00     0.087 C 
BRANCH  11  12
HETATM   12  N4  UNL     1       2.666   0.620  -0.611  1.00  0.00    -0.341 N 
HETATM   13  C2  UNL     1       3.457   0.515   0.393  1.00  0.00     0.195 C 
HETATM   14  N2  UNL     1       4.884   0.508   0.224  1.00  0.00    -0.285 N 
HETATM   15  N3  UNL     1       2.919   0.403   1.689  1.00  0.00    -0.063 NA
HETATM   16  C1  UNL     1       5.761   0.393   1.324  1.00  0.00     0.335 C 
ATOM     17  H2  UNL     1       5.273   0.588  -0.715  1.00  0.00     0.172 HD
HETATM   18  N1  UNL     1       7.157   0.391   1.113  1.00  0.00    -0.040 NA
HETATM   19  O1  UNL     1       5.324   0.292   2.488  1.00  0.00    -0.251 OA
ATOM     20  H4  UNL     1       3.046   0.701  -1.554  1.00  0.00     0.167 HD
ENDBRANCH  11  12
ENDBRANCH   1  10
BRANCH   7  21
HETATM   21  N5  UNL     1      -3.667   1.943  -0.361  1.00  0.00    -0.070 N 
ATOM     22  H53 UNL     1      -4.564   1.828   0.110  1.00  0.00     0.275 HD
ATOM     23  H52 UNL     1      -3.206   2.578   0.291  1.00  0.00     0.275 HD
ATOM     24  H51 UNL     1      -3.797   2.398  -1.265  1.00  0.00     0.275 HD
ENDBRANCH   7  21
TORSDOF 3
