REMARK  2 active torsions:
REMARK  status: ('A' for Active; 'I' for Inactive)
REMARK       I    between atoms: N1_2  and  C2_4 
REMARK       I    between atoms: C2_4  and  N2_6 
REMARK    1  A    between atoms: N2_6  and  C3_8 
REMARK    2  A    between atoms: C6_11  and  N3_12 
REMARK       I    between atoms: N3_12  and  C7_14 
ROOT
HETATM    1  C3  UNL     1      -1.250  -0.616  -0.149  1.00  0.00     0.329 C 
HETATM    2  C4  UNL     1       0.071   0.066   0.121  1.00  0.00     0.046 C 
HETATM    3  C5  UNL     1       1.255  -0.713  -0.334  1.00  0.00     0.034 C 
HETATM    4  C6  UNL     1       2.320  -0.346   0.678  1.00  0.00     0.085 C 
HETATM    5  C9  UNL     1       1.625   0.035   1.944  1.00  0.00     0.032 C 
HETATM    6  C10 UNL     1       0.158  -0.067   1.645  1.00  0.00     0.024 C 
HETATM    7  C11 UNL     1      -0.369  -1.474   1.832  1.00  0.00     0.279 C 
HETATM    8  N4  UNL     1      -1.333  -1.708   0.804  1.00  0.00     0.107 N 
HETATM    9  C12 UNL     1      -1.277  -3.000   0.202  1.00  0.00     0.312 C 
ENDROOT
BRANCH   1  10
HETATM   10  N2  UNL     1      -2.290   0.325   0.204  1.00  0.00    -0.312 N 
HETATM   11  C2  UNL     1      -3.251   0.656  -0.785  1.00  0.00     0.317 C 
HETATM   12  N1  UNL     1      -4.281   1.559  -0.504  1.00  0.00    -0.347 N 
HETATM   13  O1  UNL     1      -3.199   0.138  -1.953  1.00  0.00    -0.247 OA
HETATM   14  C1  UNL     1      -5.254   1.893  -1.508  1.00  0.00     0.151 C 
ATOM     15  H1  UNL     1      -4.342   1.984   0.421  1.00  0.00     0.163 HD
ATOM     16  H2  UNL     1      -2.331   0.738   1.136  1.00  0.00     0.166 HD
ENDBRANCH   1  10
BRANCH   4  17
HETATM   17  N3  UNL     1       3.118   0.736   0.128  1.00  0.00    -0.357 N 
HETATM   18  C7  UNL     1       4.493   0.617  -0.148  1.00  0.00     0.213 C 
HETATM   19  C8  UNL     1       5.232   1.764  -0.706  1.00  0.00     0.117 C 
HETATM   20  O2  UNL     1       5.079  -0.458   0.081  1.00  0.00    -0.274 OA
ATOM     21  H3  UNL     1       2.659   1.626  -0.068  1.00  0.00     0.162 HD
ENDBRANCH   4  17
TORSDOF 2
