REMARK  4 active torsions:
REMARK  status: ('A' for Active; 'I' for Inactive)
REMARK       I    between atoms: C2_2  and  N1_4 
REMARK       I    between atoms: N1_4  and  C3_6 
REMARK       I    between atoms: C3_6  and  N3_13 
REMARK    1  A    between atoms: N2_7  and  C4_9 
REMARK    2  A    between atoms: N3_13  and  N4_15 
REMARK       I    between atoms: N4_15  and  C8_17 
REMARK       I    between atoms: C8_17  and  N5_19 
REMARK    3  A    between atoms: N5_19  and  C9_21 
REMARK    4  A    between atoms: C9_21  and  C10_22 
ROOT
HETATM    1  C1  UNL     1      -2.210  -4.468  -0.393  1.00  0.00     0.118 C 
HETATM    2  C2  UNL     1      -1.740  -3.082  -0.096  1.00  0.00     0.232 C 
HETATM    3  O1  UNL     1      -0.547  -2.934   0.217  1.00  0.00    -0.273 OA
HETATM    4  N1  UNL     1      -2.652  -2.022  -0.181  1.00  0.00    -0.159 N 
ATOM      5  H1  UNL     1      -3.619  -2.217  -0.442  1.00  0.00     0.187 HD
HETATM    6  C3  UNL     1      -2.262  -0.680   0.088  1.00  0.00     0.696 C 
HETATM    7  N2  UNL     1      -3.109   0.272   0.011  1.00  0.00    -0.217 N 
ATOM      8  H2  UNL     1      -4.056   0.001  -0.252  1.00  0.00     0.178 HD
HETATM    9  N3  UNL     1      -0.905  -0.439   0.437  1.00  0.00    -0.128 N 
ATOM     10  H3  UNL     1      -0.630  -0.503   1.417  1.00  0.00     0.205 HD
ENDROOT
BRANCH   7  11
HETATM   11  C4  UNL     1      -2.908   1.659   0.243  1.00  0.00     0.036 C 
HETATM   12  C5  UNL     1      -2.188   2.307  -0.918  1.00  0.00     0.038 C 
HETATM   13  C6  UNL     1      -2.116   1.930   1.509  1.00  0.00     0.038 C 
HETATM   14  C7  UNL     1      -4.251   2.387   0.412  1.00  0.00     0.038 C 
ENDBRANCH   7  11
BRANCH   9  15
HETATM   15  N4  UNL     1       0.077  -0.114  -0.527  1.00  0.00    -0.237 N 
HETATM   16  C8  UNL     1       1.412   0.134  -0.148  1.00  0.00     0.335 C 
HETATM   17  O2  UNL     1       1.714   0.056   1.084  1.00  0.00    -0.246 OA
HETATM   18  N5  UNL     1       2.421   0.464  -1.092  1.00  0.00    -0.341 N 
ATOM     19  H5  UNL     1       2.150   0.520  -2.074  1.00  0.00     0.164 HD
ATOM     20  H4  UNL     1      -0.184  -0.058  -1.511  1.00  0.00     0.192 HD
BRANCH  18  21
HETATM   21  C9  UNL     1       3.781   0.722  -0.767  1.00  0.00     0.129 C 
BRANCH  21  22
HETATM   22  C10 UNL     1       4.479  -0.435  -0.099  1.00  0.00     0.003 A 
HETATM   23  C11 UNL     1       5.943  -0.129   0.241  1.00  0.00     0.007 A 
HETATM   24  C12 UNL     1       4.934  -0.390   1.294  1.00  0.00     0.007 A 
ENDBRANCH  21  22
ENDBRANCH  18  21
ENDBRANCH   9  15
TORSDOF 4
