REMARK  8 active torsions:
REMARK  status: ('A' for Active; 'I' for Inactive)
REMARK    1  A    between atoms: C1_2  and  N1_3 
REMARK    2  A    between atoms: C1_2  and  N2_12 
REMARK    3  A    between atoms: N1_3  and  C2_5 
REMARK    4  A    between atoms: C2_5  and  C3_6 
REMARK    5  A    between atoms: N2_12  and  N3_14 
REMARK    6  A    between atoms: N3_14  and  C9_16 
REMARK    7  A    between atoms: C9_16  and  N4_18 
REMARK    8  A    between atoms: N4_18  and  C10_20 
ROOT
HETATM    1  N2  UNL     1      -0.040  -0.773   0.681  1.00  0.00    -0.274 N 
ATOM      2  H2  UNL     1       0.175  -0.214   1.507  1.00  0.00     0.189 HD
ENDROOT
BRANCH   1   3
HETATM    3  C1  UNL     1      -1.048  -0.329  -0.250  1.00  0.00     0.186 C 
HETATM    4  S1  UNL     1      -1.353  -1.221  -1.577  1.00  0.00    -0.040 SA
BRANCH   3   5
HETATM    5  N1  UNL     1      -1.736   0.879  -0.016  1.00  0.00    -0.366 N 
ATOM      6  H1  UNL     1      -1.508   1.436   0.807  1.00  0.00     0.161 HD
BRANCH   5   7
HETATM    7  C2  UNL     1      -2.750   1.334  -0.918  1.00  0.00     0.126 C 
BRANCH   7   8
HETATM    8  C3  UNL     1      -3.975   0.455  -0.790  1.00  0.00     0.003 C 
HETATM    9  C4  UNL     1      -4.419   0.593   0.673  1.00  0.00     0.006 C 
HETATM   10  C5  UNL     1      -5.672  -0.190   0.953  1.00  0.00     0.000 C 
HETATM   11  C6  UNL     1      -6.636  -0.047  -0.215  1.00  0.00     0.000 C 
HETATM   12  C7  UNL     1      -6.298   1.216  -1.008  1.00  0.00     0.000 C 
HETATM   13  C8  UNL     1      -5.021   0.985  -1.748  1.00  0.00     0.006 C 
ENDBRANCH   7   8
ENDBRANCH   5   7
ENDBRANCH   3   5
ENDBRANCH   1   3
BRANCH   1  14
HETATM   14  N3  UNL     1       0.648  -1.983   0.447  1.00  0.00    -0.274 N 
ATOM     15  H3  UNL     1       0.152  -2.870   0.365  1.00  0.00     0.189 HD
BRANCH  14  16
HETATM   16  C9  UNL     1       2.062  -1.911   0.331  1.00  0.00     0.186 C 
HETATM   17  S2  UNL     1       2.842  -3.322   0.039  1.00  0.00    -0.040 SA
BRANCH  16  18
HETATM   18  N4  UNL     1       2.787  -0.698   0.448  1.00  0.00    -0.361 N 
ATOM     19  H4  UNL     1       2.255   0.155   0.622  1.00  0.00     0.162 HD
BRANCH  18  20
HETATM   20  C10 UNL     1       4.207  -0.581   0.340  1.00  0.00     0.083 C 
HETATM   21  C11 UNL     1       4.590   0.903   0.466  1.00  0.00     0.025 C 
HETATM   22  C12 UNL     1       5.911   1.064  -0.244  1.00  0.00     0.002 C 
HETATM   23  C13 UNL     1       6.698  -0.195  -0.089  1.00  0.00     0.000 C 
HETATM   24  C14 UNL     1       6.454  -0.935   1.197  1.00  0.00     0.002 C 
HETATM   25  C15 UNL     1       4.991  -1.270   1.423  1.00  0.00     0.025 C 
ENDBRANCH  18  20
ENDBRANCH  16  18
ENDBRANCH  14  16
ENDBRANCH   1  14
TORSDOF 8
