REMARK  21 active torsions:
REMARK  status: ('A' for Active; 'I' for Inactive)
REMARK       I    between atoms: C1_2  and  N8_32 
REMARK       I    between atoms: N2_3  and  C2_5 
REMARK    1  A    between atoms: C2_5  and  C3_7 
REMARK    2  A    between atoms: C3_7  and  N3_8 
REMARK    3  A    between atoms: N3_8  and  O2_9 
REMARK    4  A    between atoms: N3_8  and  C4_11 
REMARK    5  A    between atoms: C4_11  and  C5_12 
REMARK    6  A    between atoms: C5_12  and  C6_13 
REMARK    7  A    between atoms: C6_13  and  N4_14 
REMARK    8  A    between atoms: N4_14  and  C7_17 
REMARK    9  A    between atoms: C7_17  and  C8_18 
REMARK   10  A    between atoms: C8_18  and  N5_19 
REMARK       I    between atoms: N5_19  and  C9_21 
REMARK   11  A    between atoms: C9_21  and  C10_23 
REMARK   12  A    between atoms: C10_23  and  C11_24 
REMARK   13  A    between atoms: N8_32  and  C14_34 
REMARK   14  A    between atoms: C14_34  and  C15_35 
REMARK   15  A    between atoms: C15_35  and  C16_36 
REMARK   16  A    between atoms: C16_36  and  C17_37 
REMARK   17  A    between atoms: C17_37  and  N9_38 
REMARK       I    between atoms: N9_38  and  C18_40 
REMARK   18  A    between atoms: C18_40  and  C19_42 
REMARK   19  A    between atoms: C19_42  and  N10_43 
REMARK       I    between atoms: N10_43  and  C20_45 
REMARK   20  A    between atoms: C20_45  and  C21_47 
REMARK   21  A    between atoms: C21_47  and  C22_48 
ROOT
HETATM    1  N1  UNL     1       0.016   1.484   1.559  1.00  0.00    -0.063 NA
HETATM    2  C1  UNL     1      -0.037   0.337   0.740  1.00  0.00     0.191 C 
HETATM    3  N2  UNL     1      -0.587  -0.741   1.075  1.00  0.00    -0.297 N 
ATOM      4  H2  UNL     1      -0.550  -1.490   0.383  1.00  0.00     0.171 HD
HETATM    5  C2  UNL     1      -1.226  -1.043   2.238  1.00  0.00     0.265 C 
HETATM    6  O1  UNL     1      -0.622  -1.806   3.077  1.00  0.00    -0.267 OA
HETATM    7  N8  UNL     1       0.585   0.373  -0.557  1.00  0.00    -0.364 N 
ATOM      8  H8  UNL     1       0.076   0.714  -1.373  1.00  0.00     0.162 HD
ENDROOT
BRANCH   5   9
HETATM    9  C3  UNL     1      -2.557  -0.587   2.659  1.00  0.00     0.196 C 
BRANCH   9  10
HETATM   10  N3  UNL     1      -3.251   0.244   1.764  1.00  0.00    -0.246 N 
BRANCH  10  11
HETATM   11  O2  UNL     1      -3.407   1.415   2.210  1.00  0.00    -0.284 OA
ATOM     12  H2  UNL     1      -3.876   1.977   1.605  1.00  0.00     0.245 HD
ENDBRANCH  10  11
BRANCH  10  13
HETATM   13  C4  UNL     1      -3.803  -0.001   0.498  1.00  0.00     0.097 C 
BRANCH  13  14
HETATM   14  C5  UNL     1      -5.011  -0.836   0.334  1.00  0.00     0.074 C 
BRANCH  14  15
HETATM   15  C6  UNL     1      -4.927  -2.263   0.691  1.00  0.00     0.237 C 
BRANCH  15  16
HETATM   16  N4  UNL     1      -6.197  -2.977   0.457  1.00  0.00    -0.073 N 
ATOM     17  H42 UNL     1      -6.522  -2.855  -0.502  1.00  0.00     0.277 HD
ATOM     18  H41 UNL     1      -6.061  -3.988   0.451  1.00  0.00     0.277 HD
BRANCH  16  19
HETATM   19  C7  UNL     1      -7.215  -2.584   1.416  1.00  0.00     0.251 C 
BRANCH  19  20
HETATM   20  C8  UNL     1      -8.460  -3.371   1.099  1.00  0.00     0.150 C 
BRANCH  20  21
HETATM   21  N5  UNL     1      -8.953  -3.095  -0.222  1.00  0.00    -0.359 N 
HETATM   22  C9  UNL     1      -9.383  -1.802  -0.573  1.00  0.00     0.223 C 
HETATM   23  O3  UNL     1      -9.336  -0.880   0.279  1.00  0.00    -0.273 OA
ATOM     24  H5  UNL     1      -8.992  -3.844  -0.913  1.00  0.00     0.162 HD
BRANCH  22  25
HETATM   25  C10 UNL     1      -9.903  -1.505  -1.960  1.00  0.00     0.161 C 
BRANCH  25  26
HETATM   26  C11 UNL     1     -10.280  -0.070  -2.014  1.00  0.00     0.038 A 
HETATM   27  C12 UNL     1      -9.536   1.000  -2.455  1.00  0.00     0.118 A 
HETATM   28  N6  UNL     1     -10.245   2.142  -2.337  1.00  0.00    -0.317 N 
HETATM   29  C13 UNL     1     -11.433   1.797  -1.824  1.00  0.00     0.324 A 
ATOM     30  H6  UNL     1      -9.937   3.081  -2.589  1.00  0.00     0.170 HD
HETATM   31  O4  UNL     1     -12.362   2.588  -1.572  1.00  0.00    -0.247 OA
HETATM   32  N7  UNL     1     -11.465   0.474  -1.628  1.00  0.00    -0.311 N 
ATOM     33  H7  UNL     1     -12.256  -0.046  -1.248  1.00  0.00     0.170 HD
ENDBRANCH  25  26
ENDBRANCH  22  25
ENDBRANCH  20  21
ENDBRANCH  19  20
ENDBRANCH  16  19
ENDBRANCH  15  16
ENDBRANCH  14  15
ENDBRANCH  13  14
ENDBRANCH  10  13
ENDBRANCH   9  10
ENDBRANCH   5   9
BRANCH   7  34
HETATM   34  C14 UNL     1       1.934  -0.082  -0.671  1.00  0.00     0.122 C 
BRANCH  34  35
HETATM   35  C15 UNL     1       2.870   0.858   0.023  1.00  0.00     0.021 C 
BRANCH  35  36
HETATM   36  C16 UNL     1       2.851   2.241  -0.561  1.00  0.00     0.021 C 
BRANCH  36  37
HETATM   37  C17 UNL     1       3.810   3.169   0.163  1.00  0.00     0.122 C 
BRANCH  37  38
HETATM   38  N9  UNL     1       5.179   2.654   0.077  1.00  0.00    -0.360 N 
HETATM   39  C18 UNL     1       6.261   3.333   0.671  1.00  0.00     0.235 C 
HETATM   40  O5  UNL     1       6.009   4.438   1.294  1.00  0.00    -0.272 OA
ATOM     41  H9  UNL     1       5.353   1.783  -0.425  1.00  0.00     0.162 HD
BRANCH  39  42
HETATM   42  C19 UNL     1       7.669   2.934   0.674  1.00  0.00     0.225 C 
BRANCH  42  43
HETATM   43  N10 UNL     1       7.909   1.703  -0.015  1.00  0.00    -0.352 N 
HETATM   44  C20 UNL     1       9.215   1.177  -0.095  1.00  0.00     0.222 C 
HETATM   45  O6  UNL     1      10.162   1.787   0.434  1.00  0.00    -0.273 OA
ATOM     46  H10 UNL     1       7.133   1.204  -0.450  1.00  0.00     0.162 HD
BRANCH  44  47
HETATM   47  C21 UNL     1       9.451  -0.090  -0.806  1.00  0.00     0.141 C 
BRANCH  47  48
HETATM   48  C22 UNL     1      10.845  -0.520  -0.809  1.00  0.00    -0.050 A 
HETATM   49  C23 UNL     1      11.720  -0.098  -1.783  1.00  0.00     0.007 A 
HETATM   50  C24 UNL     1      13.056  -0.525  -1.773  1.00  0.00     0.001 A 
HETATM   51  C25 UNL     1      13.496  -1.366  -0.791  1.00  0.00     0.000 A 
HETATM   52  C26 UNL     1      12.634  -1.799   0.193  1.00  0.00     0.001 A 
HETATM   53  C27 UNL     1      11.307  -1.365   0.168  1.00  0.00     0.007 A 
ENDBRANCH  47  48
ENDBRANCH  44  47
ENDBRANCH  42  43
ENDBRANCH  39  42
ENDBRANCH  37  38
ENDBRANCH  36  37
ENDBRANCH  35  36
ENDBRANCH  34  35
ENDBRANCH   7  34
TORSDOF 21
