REMARK  23 active torsions:
REMARK  status: ('A' for Active; 'I' for Inactive)
REMARK    1  A    between atoms: N1_2  and  C2_4 
REMARK    2  A    between atoms: C6_8  and  C7_9 
REMARK    3  A    between atoms: C7_9  and  S1_10 
REMARK    4  A    between atoms: S1_10  and  N2_13 
REMARK    5  A    between atoms: N2_13  and  C8_15 
REMARK    6  A    between atoms: C8_15  and  C9_16 
REMARK    7  A    between atoms: C9_16  and  C10_17 
REMARK    8  A    between atoms: C10_17  and  C11_18 
REMARK    9  A    between atoms: C11_18  and  C12_19 
REMARK   10  A    between atoms: C12_19  and  C13_20 
REMARK   11  A    between atoms: C13_20  and  C14_21 
REMARK       I    between atoms: C14_21  and  N3_23 
REMARK   12  A    between atoms: N3_23  and  C15_25 
REMARK   13  A    between atoms: C15_25  and  C16_26 
REMARK   14  A    between atoms: C16_26  and  C17_27 
REMARK   15  A    between atoms: C17_27  and  N4_28 
REMARK   16  A    between atoms: N4_28  and  C18_30 
REMARK   17  A    between atoms: C20_34  and  C21_35 
REMARK   18  A    between atoms: C21_35  and  N6_36 
REMARK   19  A    between atoms: N6_36  and  C22_38 
REMARK   20  A    between atoms: C22_38  and  C23_39 
REMARK   21  A    between atoms: C23_39  and  C24_40 
REMARK   22  A    between atoms: C24_40  and  N7_41 
REMARK       I    between atoms: N7_41  and  C25_43 
REMARK       I    between atoms: C25_43  and  N9_45 
REMARK   23  A    between atoms: N9_45  and  N10_47 
ROOT
HETATM    1  C16 UNL     1       2.638   1.258  -2.892  1.00  0.00     0.040 C 
ENDROOT
BRANCH   1   2
HETATM    2  C15 UNL     1       1.881   2.416  -3.486  1.00  0.00     0.124 C 
BRANCH   2   3
HETATM    3  N3  UNL     1       0.978   2.959  -2.501  1.00  0.00    -0.361 N 
HETATM    4  C14 UNL     1      -0.086   2.209  -1.960  1.00  0.00     0.217 C 
HETATM    5  O3  UNL     1      -0.326   1.012  -2.302  1.00  0.00    -0.274 OA
ATOM      6  H3  UNL     1       1.114   3.919  -2.185  1.00  0.00     0.162 HD
BRANCH   4   7
HETATM    7  C13 UNL     1      -0.966   2.835  -0.953  1.00  0.00     0.103 C 
BRANCH   7   8
HETATM    8  C12 UNL     1      -2.210   2.033  -0.768  1.00  0.00     0.009 C 
BRANCH   8   9
HETATM    9  C11 UNL     1      -3.007   1.987  -2.023  1.00  0.00     0.001 C 
BRANCH   9  10
HETATM   10  C10 UNL     1      -4.280   1.190  -1.888  1.00  0.00     0.002 C 
BRANCH  10  11
HETATM   11  C9  UNL     1      -5.191   1.760  -0.834  1.00  0.00     0.020 C 
BRANCH  11  12
HETATM   12  C8  UNL     1      -6.467   0.931  -0.797  1.00  0.00     0.132 C 
BRANCH  12  13
HETATM   13  N2  UNL     1      -7.382   1.403   0.183  1.00  0.00    -0.319 N 
ATOM     14  H2  UNL     1      -7.161   2.204   0.775  1.00  0.00     0.172 HD
BRANCH  13  15
HETATM   15  S1  UNL     1      -8.851   0.580   0.326  1.00  0.00     0.231 S 
HETATM   16  O1  UNL     1      -9.705   0.663  -0.923  1.00  0.00    -0.206 OA
HETATM   17  O2  UNL     1      -9.696   1.228   1.415  1.00  0.00    -0.206 OA
BRANCH  15  18
HETATM   18  C7  UNL     1      -8.706  -1.127   0.778  1.00  0.00     0.220 C 
BRANCH  18  19
HETATM   19  C6  UNL     1     -10.106  -1.692   0.880  1.00  0.00     0.026 A 
HETATM   20  C5  UNL     1     -10.762  -2.228  -0.195  1.00  0.00     0.026 A 
HETATM   21  C4  UNL     1     -12.042  -2.720  -0.041  1.00  0.00     0.006 A 
HETATM   22  C3  UNL     1     -12.626  -2.655   1.213  1.00  0.00     0.048 A 
HETATM   23  C2  UNL     1     -11.954  -2.113   2.285  1.00  0.00     0.100 A 
HETATM   24  N13 UNL     1     -10.720  -1.654   2.072  1.00  0.00    -0.345 N 
ATOM     25  H13 UNL     1     -10.214  -1.251   2.861  1.00  0.00     0.167 HD
BRANCH  23  26
HETATM   26  N1  UNL     1     -12.538  -2.067   3.451  1.00  0.00    -0.381 N 
HETATM   27  C1  UNL     1     -11.890  -1.515   4.615  1.00  0.00     0.147 C 
ATOM     28  H1  UNL     1     -13.485  -2.434   3.542  1.00  0.00     0.160 HD
ENDBRANCH  23  26
ENDBRANCH  18  19
ENDBRANCH  15  18
ENDBRANCH  13  15
ENDBRANCH  12  13
ENDBRANCH  11  12
ENDBRANCH  10  11
ENDBRANCH   9  10
ENDBRANCH   8   9
ENDBRANCH   7   8
ENDBRANCH   4   7
ENDBRANCH   2   3
ENDBRANCH   1   2
BRANCH   1  29
HETATM   29  C17 UNL     1       3.426   1.847  -1.708  1.00  0.00     0.139 C 
BRANCH  29  30
HETATM   30  N4  UNL     1       4.216   0.861  -1.032  1.00  0.00    -0.226 N 
ATOM     31  H4  UNL     1       3.871   0.465  -0.158  1.00  0.00     0.177 HD
BRANCH  30  32
HETATM   32  C18 UNL     1       5.347   0.461  -1.495  1.00  0.00     0.678 A 
HETATM   33  N5  UNL     1       5.978   0.842  -2.606  1.00  0.00    -0.200 N 
HETATM   34  C19 UNL     1       7.130   0.167  -2.736  1.00  0.00     0.137 A 
ATOM     35  H5  UNL     1       5.635   1.544  -3.261  1.00  0.00     0.183 HD
HETATM   36  C20 UNL     1       7.200  -0.684  -1.621  1.00  0.00     0.080 A 
HETATM   37  N12 UNL     1       6.106  -0.481  -0.890  1.00  0.00    -0.189 N 
ATOM     38  H12 UNL     1       5.878  -0.957  -0.017  1.00  0.00     0.184 HD
BRANCH  36  39
HETATM   39  C21 UNL     1       8.299  -1.597  -1.387  1.00  0.00     0.114 C 
BRANCH  39  40
HETATM   40  N6  UNL     1       8.451  -2.373  -0.455  1.00  0.00    -0.397 N 
ATOM     41  H6  UNL     1       9.333  -2.864  -0.602  1.00  0.00     0.158 HD
BRANCH  40  42
HETATM   42  C22 UNL     1       7.898  -2.848   0.722  1.00  0.00     0.120 C 
BRANCH  42  43
HETATM   43  C23 UNL     1       8.447  -2.146   1.975  1.00  0.00     0.039 C 
BRANCH  43  44
HETATM   44  C24 UNL     1       9.961  -2.388   1.997  1.00  0.00     0.124 C 
BRANCH  44  45
HETATM   45  N7  UNL     1      10.570  -1.761   3.148  1.00  0.00    -0.363 N 
HETATM   46  C25 UNL     1      11.676  -1.073   3.044  1.00  0.00     0.204 C 
HETATM   47  N8  UNL     1      12.259  -0.966   1.761  1.00  0.00    -0.062 NA
HETATM   48  N9  UNL     1      12.205  -0.493   4.224  1.00  0.00    -0.260 N 
ATOM     49  H9  UNL     1      11.887  -0.777   5.151  1.00  0.00     0.191 HD
ATOM     50  H7  UNL     1      10.127  -1.858   4.062  1.00  0.00     0.162 HD
BRANCH  48  51
HETATM   51  N10 UNL     1      13.189   0.493   4.051  1.00  0.00    -0.247 N 
HETATM   52  N11 UNL     1      13.060   1.502   3.315  1.00  0.00    -0.331 N 
ATOM     53 2H11 UNL     1      12.175   1.596   2.817  1.00  0.00     0.178 HD
ATOM     54 1H11 UNL     1      13.775   2.218   3.189  1.00  0.00     0.178 HD
ATOM     55  H10 UNL     1      14.068   0.382   4.557  1.00  0.00     0.207 HD
ENDBRANCH  48  51
ENDBRANCH  44  45
ENDBRANCH  43  44
ENDBRANCH  42  43
ENDBRANCH  40  42
ENDBRANCH  39  40
ENDBRANCH  36  39
ENDBRANCH  30  32
ENDBRANCH  29  30
ENDBRANCH   1  29
TORSDOF 23
