REMARK  14 active torsions:
REMARK  status: ('A' for Active; 'I' for Inactive)
REMARK    1  A    between atoms: C2_3  and  C3_4 
REMARK    2  A    between atoms: C4_7  and  N3_8 
REMARK    3  A    between atoms: N3_8  and  C5_10 
REMARK    4  A    between atoms: C5_10  and  C6_11 
REMARK    5  A    between atoms: C6_11  and  N4_12 
REMARK    6  A    between atoms: N4_12  and  C7_14 
REMARK    7  A    between atoms: C10_22  and  N8_23 
REMARK    8  A    between atoms: N8_23  and  O1_24 
REMARK    9  A    between atoms: N8_23  and  O2_26 
REMARK   10  A    between atoms: C11_30  and  N10_31 
REMARK   11  A    between atoms: N10_31  and  C12_33 
REMARK   12  A    between atoms: C12_33  and  C13_34 
REMARK   13  A    between atoms: C15_38  and  N12_39 
REMARK   14  A    between atoms: C16_44  and  N14_45 
ROOT
HETATM    1  C3  UNL     1       0.794   2.986   0.201  1.00  0.00     0.164 A 
HETATM    2  N2  UNL     1      -0.338   2.200   0.177  1.00  0.00    -0.173 N 
ATOM      3  H2  UNL     1      -1.241   2.673   0.223  1.00  0.00     0.186 HD
HETATM    4  C4  UNL     1      -0.343   0.895   0.100  1.00  0.00     0.694 A 
HETATM    5  N9  UNL     1       0.845   0.264   0.028  1.00  0.00    -0.022 N 
ATOM      6  H9  UNL     1       0.864  -0.754  -0.040  1.00  0.00     0.203 HD
HETATM    7  C11 UNL     1       1.999   0.938   0.044  1.00  0.00     0.694 A 
HETATM    8  N15 UNL     1       1.935   2.296   0.134  1.00  0.00    -0.173 N 
ATOM      9  H15 UNL     1       2.812   2.817   0.151  1.00  0.00     0.186 HD
ENDROOT
BRANCH   4  10
HETATM   10  N3  UNL     1      -1.487   0.229   0.131  1.00  0.00    -0.221 N 
ATOM     11  H3  UNL     1      -2.375   0.725   0.210  1.00  0.00     0.178 HD
BRANCH  10  12
HETATM   12  C5  UNL     1      -1.455  -1.208   0.051  1.00  0.00     0.182 C 
BRANCH  12  13
HETATM   13  C6  UNL     1      -2.626  -1.961   0.545  1.00  0.00     0.082 C 
BRANCH  13  14
HETATM   14  N4  UNL     1      -3.880  -1.907  -0.049  1.00  0.00    -0.353 N 
ATOM     15  H4  UNL     1      -3.950  -2.275  -0.998  1.00  0.00     0.166 HD
BRANCH  14  16
HETATM   16  C7  UNL     1      -4.942  -1.452   0.458  1.00  0.00     0.135 A 
HETATM   17  N5  UNL     1      -5.111  -0.894   1.670  1.00  0.00    -0.337 N 
HETATM   18  C8  UNL     1      -6.315  -0.543   2.145  1.00  0.00     0.183 A 
ATOM     19  H5  UNL     1      -4.289  -0.731   2.252  1.00  0.00     0.168 HD
HETATM   20  N6  UNL     1      -7.434  -0.725   1.433  1.00  0.00    -0.339 N 
HETATM   21  C9  UNL     1      -7.348  -1.277   0.212  1.00  0.00     0.147 A 
ATOM     22  H6  UNL     1      -8.339  -0.448   1.813  1.00  0.00     0.167 HD
HETATM   23  N7  UNL     1      -8.522  -1.515  -0.578  1.00  0.00    -0.080 NA
HETATM   24  C10 UNL     1      -6.133  -1.638  -0.279  1.00  0.00     0.150 A 
BRANCH  24  25
HETATM   25  N8  UNL     1      -6.091  -2.249  -1.550  1.00  0.00    -0.029 NA
BRANCH  25  26
HETATM   26  O1  UNL     1      -6.252  -3.600  -1.453  1.00  0.00    -0.284 OA
ATOM     27  H1  UNL     1      -6.224  -4.011  -2.309  1.00  0.00     0.240 HD
ENDBRANCH  25  26
BRANCH  25  28
HETATM   28  O2  UNL     1      -5.051  -1.903  -2.302  1.00  0.00    -0.284 OA
ATOM     29  H2  UNL     1      -5.023  -2.314  -3.158  1.00  0.00     0.240 HD
ENDBRANCH  25  28
ENDBRANCH  24  25
ENDBRANCH  14  16
ENDBRANCH  13  14
ENDBRANCH  12  13
ENDBRANCH  10  12
ENDBRANCH   4  10
BRANCH   1  30
HETATM   30  C2  UNL     1       0.673   4.472   0.205  1.00  0.00     0.089 A 
HETATM   31  N1  UNL     1       1.543   5.377  -0.197  1.00  0.00    -0.309 N 
HETATM   32  C1  UNL     1       2.898   5.068  -0.750  1.00  0.00     0.160 C 
HETATM   33  C18 UNL     1       1.187   6.670  -0.139  1.00  0.00     0.290 A 
HETATM   34  S1  UNL     1      -0.388   6.647   0.479  1.00  0.00    -0.038 SA
HETATM   35  O3  UNL     1       1.881   7.703  -0.476  1.00  0.00    -0.260 OA
HETATM   36  C17 UNL     1      -0.561   4.971   0.656  1.00  0.00     0.088 A 
ENDBRANCH   1  30
BRANCH   7  37
HETATM   37  N10 UNL     1       3.150   0.350  -0.105  1.00  0.00    -0.221 N 
ATOM     38  H10 UNL     1       4.017   0.888  -0.085  1.00  0.00     0.178 HD
BRANCH  37  39
HETATM   39  C12 UNL     1       3.173  -1.068  -0.297  1.00  0.00     0.182 C 
BRANCH  39  40
HETATM   40  C13 UNL     1       4.383  -1.789   0.139  1.00  0.00     0.020 A 
HETATM   41  C14 UNL     1       4.274  -2.871   0.989  1.00  0.00     0.118 A 
HETATM   42  N11 UNL     1       5.365  -3.617   1.236  1.00  0.00    -0.201 N 
HETATM   43  C15 UNL     1       6.547  -3.325   0.676  1.00  0.00     0.677 A 
ATOM     44  H11 UNL     1       5.292  -4.420   1.861  1.00  0.00     0.183 HD
HETATM   45  N13 UNL     1       6.655  -2.279  -0.146  1.00  0.00    -0.177 N 
HETATM   46  C16 UNL     1       5.598  -1.504  -0.424  1.00  0.00     0.124 A 
ATOM     47  H13 UNL     1       7.558  -2.066  -0.570  1.00  0.00     0.185 HD
BRANCH  43  48
HETATM   48  N12 UNL     1       7.597  -4.058   0.943  1.00  0.00    -0.234 N 
ATOM     49 2H12 UNL     1       7.514  -4.857   1.571  1.00  0.00     0.174 HD
ATOM     50 1H12 UNL     1       8.497  -3.836   0.517  1.00  0.00     0.174 HD
ENDBRANCH  43  48
BRANCH  46  51
HETATM   51  N14 UNL     1       5.674  -0.455  -1.193  1.00  0.00    -0.385 N 
ATOM     52 2H14 UNL     1       4.869   0.135  -1.405  1.00  0.00     0.157 HD
ATOM     53 1H14 UNL     1       6.579  -0.243  -1.612  1.00  0.00     0.157 HD
ENDBRANCH  46  51
ENDBRANCH  39  40
ENDBRANCH  37  39
ENDBRANCH   7  37
TORSDOF 14
