REMARK  1 active torsions:
REMARK  status: ('A' for Active; 'I' for Inactive)
REMARK    1  A    between atoms: N1_1  and  C1_5 
ROOT
HETATM    1  C1  UNL     1       1.339  -0.018   0.775  1.00  0.00     0.184 C 
HETATM    2  C2  UNL     1       0.651  -1.327   0.552  1.00  0.00     0.037 C 
HETATM    3  C3  UNL     1      -0.695  -1.205  -0.105  1.00  0.00    -0.012 C 
HETATM    4  C4  UNL     1      -0.622  -0.487  -1.434  1.00  0.00     0.005 C 
HETATM    5  C5  UNL     1      -0.849   0.974  -1.162  1.00  0.00     0.005 C 
HETATM    6  C6  UNL     1      -0.871   1.085   0.305  1.00  0.00    -0.012 C 
HETATM    7  C7  UNL     1       0.437   1.138   1.001  1.00  0.00     0.037 C 
HETATM    8  C8  UNL     1      -1.549  -0.235   0.699  1.00  0.00     0.009 C 
ENDROOT
BRANCH   1   9
HETATM    9  N1  UNL     1       2.343   0.242  -0.271  1.00  0.00    -0.075 N 
ATOM     10  H13 UNL     1       3.012  -0.525  -0.348  1.00  0.00     0.274 HD
ATOM     11  H12 UNL     1       1.935   0.187  -1.204  1.00  0.00     0.274 HD
ATOM     12  H11 UNL     1       2.812   1.135  -0.119  1.00  0.00     0.274 HD
ENDBRANCH   1   9
TORSDOF 1
