REMARK  1 active torsions:
REMARK  status: ('A' for Active; 'I' for Inactive)
REMARK    1  A    between atoms: N1_2  and  C2_5 
ROOT
HETATM    1  C2  UNL     1       0.744  -0.418   0.144  1.00  0.00     0.189 C 
HETATM    2  C3  UNL     1       0.106   0.766   0.832  1.00  0.00     0.038 C 
HETATM    3  C4  UNL     1      -1.371   0.452   0.890  1.00  0.00    -0.012 C 
HETATM    4  C5  UNL     1      -1.957   0.835  -0.450  1.00  0.00     0.005 C 
HETATM    5  C6  UNL     1      -1.208  -0.125  -1.383  1.00  0.00     0.007 C 
HETATM    6  C7  UNL     1      -0.443  -1.068  -0.514  1.00  0.00     0.016 C 
HETATM    7  C8  UNL     1      -1.359  -1.081   0.730  1.00  0.00     0.011 C 
ENDROOT
BRANCH   1   8
HETATM    8  N1  UNL     1       1.824  -0.092  -0.720  1.00  0.00    -0.074 N 
HETATM    9  C1  UNL     1       2.876   0.490   0.103  1.00  0.00     0.267 C 
ATOM     10  H12 UNL     1       1.547   0.508  -1.496  1.00  0.00     0.277 HD
ATOM     11  H11 UNL     1       2.145  -0.886  -1.275  1.00  0.00     0.277 HD
ENDBRANCH   1   8
TORSDOF 1
