REMARK  3 active torsions:
REMARK  status: ('A' for Active; 'I' for Inactive)
REMARK    1  A    between atoms: C2_2  and  C4_4 
REMARK    2  A    between atoms: C4_4  and  N1_5 
REMARK    3  A    between atoms: C7_14  and  C8_15 
ROOT
HETATM    1  C4  UNL     1       0.078   0.012   0.478  1.00  0.00     0.157 C 
HETATM    2  C5  UNL     1      -0.308   1.342  -0.090  1.00  0.00     0.068 C 
HETATM    3  C6  UNL     1      -1.831   1.307   0.084  1.00  0.00     0.235 C 
HETATM    4  N2  UNL     1      -2.164   0.002   0.595  1.00  0.00    -0.067 N 
ATOM      5  H21 UNL     1      -3.093  -0.329   0.335  1.00  0.00     0.277 HD
ATOM      6  H22 UNL     1      -2.318  -0.031   1.603  1.00  0.00     0.277 HD
HETATM    7  C7  UNL     1      -1.050  -0.852   0.115  1.00  0.00     0.235 C 
ENDROOT
BRANCH   1   8
HETATM    8  C2  UNL     1       1.449  -0.446   0.196  1.00  0.00     0.015 C 
HETATM    9  C1  UNL     1       1.807  -0.703  -1.220  1.00  0.00     0.012 C 
HETATM   10  C3  UNL     1       2.472   0.473   0.795  1.00  0.00     0.012 C 
ENDBRANCH   1   8
BRANCH   1  11
HETATM   11  N1  UNL     1      -0.002   0.188   1.948  1.00  0.00    -0.068 N 
ATOM     12  H13 UNL     1       0.264  -0.646   2.472  1.00  0.00     0.275 HD
ATOM     13  H12 UNL     1       0.718   0.805   2.323  1.00  0.00     0.275 HD
ATOM     14  H11 UNL     1      -0.952   0.505   2.143  1.00  0.00     0.275 HD
ENDBRANCH   1  11
BRANCH   7  15
HETATM   15  C8  UNL     1      -1.366  -1.059  -1.311  1.00  0.00     0.150 C 
HETATM   16 CL1  UNL     1      -2.796  -2.164  -1.354  1.00  0.00    -0.128 Cl
ENDBRANCH   7  15
TORSDOF 3
