REMARK  14 active torsions:
REMARK  status: ('A' for Active; 'I' for Inactive)
REMARK    1  A    between atoms: N1_1  and  N2_4 
REMARK    2  A    between atoms: N2_4  and  N3_5 
REMARK    3  A    between atoms: N3_5  and  N4_6 
REMARK    4  A    between atoms: N4_6  and  C1_8 
REMARK    5  A    between atoms: N6_11  and  N7_12 
REMARK    6  A    between atoms: C3_16  and  O1_17 
REMARK    7  A    between atoms: C5_21  and  O2_22 
REMARK    8  A    between atoms: C6_24  and  C7_25 
REMARK    9  A    between atoms: C7_25  and  O3_26 
REMARK   10  A    between atoms: C7_25  and  C8_28 
REMARK   11  A    between atoms: C8_28  and  O4_29 
REMARK   12  A    between atoms: C8_28  and  C9_31 
REMARK   13  A    between atoms: C9_31  and  O5_32 
REMARK   14  A    between atoms: C9_31  and  O6_34 
ROOT
HETATM    1  N7  UNL     1       1.160  -0.583  -0.379  1.00  0.00    -0.118 N 
HETATM    2  N8  UNL     1       1.055  -1.407   0.659  1.00  0.00    -0.271 N 
ATOM      3  H8  UNL     1       1.748  -2.106   0.926  1.00  0.00     0.189 HD
HETATM    4  C2  UNL     1      -0.098  -1.180   1.301  1.00  0.00     0.101 A 
HETATM    5  C3  UNL     1      -0.605  -1.744   2.439  1.00  0.00     0.115 A 
HETATM    6  C4  UNL     1      -1.794  -1.314   2.960  1.00  0.00     0.080 A 
HETATM    7 BR1  UNL     1      -2.534  -2.096   4.538  1.00  0.00    -0.045 Br
HETATM    8  C5  UNL     1      -2.519  -0.317   2.373  1.00  0.00     0.096 A 
HETATM    9  C6  UNL     1      -2.002   0.280   1.182  1.00  0.00     0.026 A 
HETATM   10  C10 UNL     1      -0.813  -0.146   0.663  1.00  0.00     0.078 A 
HETATM   11  C11 UNL     1       0.049   0.167  -0.371  1.00  0.00     0.297 A 
HETATM   12  O7  UNL     1      -0.100   1.043  -1.260  1.00  0.00    -0.264 OA
ENDROOT
BRANCH   1  13
HETATM   13  N6  UNL     1       2.230  -0.528  -1.297  1.00  0.00     0.022 N 
HETATM   14  C1  UNL     1       3.470  -0.947  -1.713  1.00  0.00     0.750 A 
HETATM   15  N5  UNL     1       2.784  -0.028  -2.473  1.00  0.00    -0.090 N 
ATOM     16  H5  UNL     1       2.725   0.575  -3.293  1.00  0.00     0.208 HD
BRANCH  14  17
HETATM   17  N4  UNL     1       4.685  -1.633  -1.722  1.00  0.00    -0.113 N 
ATOM     18  H4  UNL     1       4.703  -2.574  -2.115  1.00  0.00     0.203 HD
BRANCH  17  19
HETATM   19  N3  UNL     1       5.900  -1.094  -1.214  1.00  0.00     0.006 NA
BRANCH  19  20
HETATM   20  N2  UNL     1       5.665   0.053  -0.430  1.00  0.00    -0.015 NA
BRANCH  20  21
HETATM   21  N1  UNL     1       6.634   1.041  -0.658  1.00  0.00    -0.330 N 
ATOM     22  H12 UNL     1       7.407   0.928  -1.314  1.00  0.00     0.173 HD
ATOM     23  H11 UNL     1       6.464   1.871  -0.090  1.00  0.00     0.173 HD
ENDBRANCH  20  21
ENDBRANCH  19  20
ENDBRANCH  17  19
ENDBRANCH  14  17
ENDBRANCH   1  13
BRANCH   5  24
HETATM   24  O1  UNL     1       0.118  -2.776   3.069  1.00  0.00    -0.357 OA
ATOM     25  H1  UNL     1      -0.234  -3.168   3.860  1.00  0.00     0.217 HD
ENDBRANCH   5  24
BRANCH   9  26
HETATM   26  C7  UNL     1      -2.741   1.387   0.635  1.00  0.00     0.188 C 
BRANCH  26  27
HETATM   27  O3  UNL     1      -1.732   2.347   0.283  1.00  0.00    -0.388 OA
ATOM     28  H3  UNL     1      -2.220   3.078  -0.078  1.00  0.00     0.210 HD
ENDBRANCH  26  27
BRANCH  26  29
HETATM   29  C8  UNL     1      -3.679   1.351  -0.459  1.00  0.00     0.206 C 
BRANCH  29  30
HETATM   30  O4  UNL     1      -4.135   2.672  -0.664  1.00  0.00    -0.388 OA
ATOM     31  H4  UNL     1      -4.753   2.648  -1.385  1.00  0.00     0.210 HD
ENDBRANCH  29  30
BRANCH  29  32
HETATM   32  C9  UNL     1      -3.419   0.798  -1.794  1.00  0.00     0.285 C 
BRANCH  32  33
HETATM   33  O5  UNL     1      -2.948  -0.487  -1.848  1.00  0.00    -0.369 OA
ATOM     34  H5  UNL     1      -2.780  -0.845  -2.712  1.00  0.00     0.212 HD
ENDBRANCH  32  33
BRANCH  32  35
HETATM   35  O6  UNL     1      -4.632   0.809  -2.542  1.00  0.00    -0.369 OA
ATOM     36  H6  UNL     1      -4.464   0.451  -3.406  1.00  0.00     0.212 HD
ENDBRANCH  32  35
ENDBRANCH  29  32
ENDBRANCH  26  29
ENDBRANCH   9  26
BRANCH   8  37
HETATM   37  O2  UNL     1      -3.711   0.171   2.829  1.00  0.00    -0.359 OA
ATOM     38  H2  UNL     1      -4.215   0.865   2.421  1.00  0.00     0.217 HD
ENDBRANCH   8  37
TORSDOF 14
