REMARK  17 active torsions:
REMARK  status: ('A' for Active; 'I' for Inactive)
REMARK    1  A    between atoms: C2_2  and  C3_4 
REMARK    2  A    between atoms: C3_4  and  C4_6 
REMARK    3  A    between atoms: C4_6  and  N1_7 
REMARK    4  A    between atoms: C4_6  and  C14_33 
REMARK    5  A    between atoms: N1_7  and  N2_9 
REMARK    6  A    between atoms: N2_9  and  C5_10 
REMARK    7  A    between atoms: C5_10  and  O3_11 
REMARK    8  A    between atoms: C5_10  and  C6_13 
REMARK    9  A    between atoms: C6_13  and  N3_14 
REMARK   10  A    between atoms: C6_13  and  C12_28 
REMARK       I    between atoms: N3_14  and  C7_16 
REMARK   11  A    between atoms: C7_16  and  C8_18 
REMARK   12  A    between atoms: C8_18  and  C9_19 
REMARK   13  A    between atoms: C11_22  and  N4_23 
REMARK   14  A    between atoms: C12_28  and  C13_30 
REMARK   15  A    between atoms: C13_30  and  O6_31 
REMARK   16  A    between atoms: C17_38  and  N7_39 
REMARK       I    between atoms: N7_39  and  C18_41 
REMARK   17  A    between atoms: C18_41  and  C19_43 
ROOT
HETATM    1  N1  UNL     1       0.135  -1.752   0.603  1.00  0.00    -0.320 N 
ATOM      2  H1  UNL     1      -0.145  -2.721   0.449  1.00  0.00     0.177 HD
ENDROOT
BRANCH   1   3
HETATM    3  C4  UNL     1      -0.294  -1.024   1.753  1.00  0.00     0.207 C 
BRANCH   3   4
HETATM    4  C3  UNL     1      -1.163  -1.881   2.588  1.00  0.00     0.222 C 
HETATM    5  O2  UNL     1      -1.435  -3.041   2.165  1.00  0.00    -0.287 OA
BRANCH   4   6
HETATM    6  C2  UNL     1      -1.720  -1.479   3.859  1.00  0.00     0.193 C 
HETATM    7  C1  UNL     1      -2.580  -2.386   4.634  1.00  0.00     0.100 C 
HETATM    8  O1  UNL     1      -1.470  -0.341   4.314  1.00  0.00    -0.290 OA
ENDBRANCH   4   6
ENDBRANCH   3   4
BRANCH   3   9
HETATM    9  C14 UNL     1      -1.020   0.215   1.426  1.00  0.00    -0.009 A 
HETATM   10  C15 UNL     1      -0.325   1.344   1.075  1.00  0.00     0.097 A 
HETATM   11  N6  UNL     1      -0.968   2.495   0.751  1.00  0.00    -0.372 N 
HETATM   12  C16 UNL     1      -2.309   2.547   0.769  1.00  0.00     0.117 A 
ATOM     13  H6  UNL     1      -0.430   3.323   0.493  1.00  0.00     0.164 HD
HETATM   14  C17 UNL     1      -3.089   1.429   1.118  1.00  0.00     0.051 A 
HETATM   15  C20 UNL     1      -2.402   0.285   1.439  1.00  0.00     0.042 A 
BRANCH  14  16
HETATM   16  N7  UNL     1      -4.489   1.597   1.101  1.00  0.00    -0.319 N 
HETATM   17  C18 UNL     1      -5.487   0.656   1.393  1.00  0.00     0.292 C 
HETATM   18  O7  UNL     1      -5.223  -0.510   1.722  1.00  0.00    -0.264 OA
ATOM     19  H7  UNL     1      -4.820   2.526   0.842  1.00  0.00     0.169 HD
BRANCH  17  20
HETATM   20  C19 UNL     1      -6.902   1.029   1.315  1.00  0.00     0.203 A 
HETATM   21  N8  UNL     1      -7.945   0.230   1.561  1.00  0.00    -0.262 N 
HETATM   22  N9  UNL     1      -9.066   0.929   1.385  1.00  0.00    -0.005 NA
ATOM     23  H8  UNL     1      -7.892  -0.750   1.837  1.00  0.00     0.186 HD
HETATM   24  N10 UNL     1      -8.736   2.158   1.032  1.00  0.00    -0.225 N 
HETATM   25  N11 UNL     1      -7.432   2.226   0.987  1.00  0.00    -0.267 N 
ATOM     26  H10 UNL     1      -9.384   2.919   0.830  1.00  0.00     0.205 HD
ATOM     27  H11 UNL     1      -6.896   3.058   0.741  1.00  0.00     0.190 HD
ENDBRANCH  17  20
ENDBRANCH  14  16
ENDBRANCH   3   9
ENDBRANCH   1   3
BRANCH   1  28
HETATM   28  N2  UNL     1       0.943  -1.087  -0.288  1.00  0.00    -0.110 NA
BRANCH  28  29
HETATM   29  C5  UNL     1       1.334  -2.069  -1.300  1.00  0.00     0.261 C 
BRANCH  29  30
HETATM   30  O3  UNL     1       0.132  -2.501  -1.857  1.00  0.00    -0.376 OA
ATOM     31  H3  UNL     1       0.386  -3.139  -2.514  1.00  0.00     0.211 HD
ENDBRANCH  29  30
BRANCH  29  32
HETATM   32  C6  UNL     1       2.241  -1.551  -2.319  1.00  0.00     0.202 C 
BRANCH  32  33
HETATM   33  N3  UNL     1       3.483  -0.951  -1.799  1.00  0.00    -0.345 N 
HETATM   34  C7  UNL     1       3.820   0.398  -1.920  1.00  0.00     0.224 C 
HETATM   35  O4  UNL     1       3.000   1.147  -2.517  1.00  0.00    -0.273 OA
ATOM     36  H3  UNL     1       4.141  -1.564  -1.318  1.00  0.00     0.163 HD
BRANCH  34  37
HETATM   37  C8  UNL     1       5.089   0.891  -1.360  1.00  0.00     0.160 C 
BRANCH  37  38
HETATM   38  C9  UNL     1       5.227   2.392  -1.608  1.00  0.00     0.026 A 
HETATM   39  C10 UNL     1       5.834   2.826  -2.755  1.00  0.00     0.078 A 
HETATM   40  S1  UNL     1       5.755   4.520  -2.589  1.00  0.00    -0.064 SA
HETATM   41  C11 UNL     1       4.963   4.588  -1.084  1.00  0.00     0.142 A 
HETATM   42  N5  UNL     1       4.792   3.307  -0.771  1.00  0.00    -0.340 N 
ATOM     43  H5  UNL     1       4.333   3.040   0.100  1.00  0.00     0.168 HD
BRANCH  41  44
HETATM   44  N4  UNL     1       4.595   5.639  -0.373  1.00  0.00    -0.380 N 
ATOM     45  H42 UNL     1       4.726   6.622  -0.613  1.00  0.00     0.158 HD
ATOM     46  H41 UNL     1       4.120   5.680   0.529  1.00  0.00     0.158 HD
ENDBRANCH  41  44
ENDBRANCH  37  38
ENDBRANCH  34  37
ENDBRANCH  32  33
BRANCH  32  47
HETATM   47  C12 UNL     1       2.580  -2.521  -3.366  1.00  0.00     0.176 C 
HETATM   48  O5  UNL     1       3.447  -2.087  -4.191  1.00  0.00    -0.293 OA
BRANCH  47  49
HETATM   49  C13 UNL     1       2.136  -3.872  -3.655  1.00  0.00     0.244 C 
BRANCH  49  50
HETATM   50  O6  UNL     1       1.485  -4.575  -2.664  1.00  0.00    -0.394 OA
ATOM     51  H6  UNL     1       1.194  -5.459  -2.853  1.00  0.00     0.209 HD
ENDBRANCH  49  50
ENDBRANCH  47  49
ENDBRANCH  32  47
ENDBRANCH  29  32
ENDBRANCH  28  29
ENDBRANCH   1  28
TORSDOF 17
