REMARK  6 active torsions:
REMARK  status: ('A' for Active; 'I' for Inactive)
REMARK    1  A    between atoms: C3_5  and  N2_6 
REMARK    2  A    between atoms: C4_11  and  N4_12 
REMARK    3  A    between atoms: C5_15  and  C6_16 
REMARK    4  A    between atoms: C6_16  and  C7_17 
REMARK    5  A    between atoms: C7_17  and  C8_18 
REMARK    6  A    between atoms: C8_18  and  N5_19 
ROOT
HETATM    1  C1  UNL     1      -1.509   1.474   1.449  1.00  0.00     0.069 C 
HETATM    2  C2  UNL     1      -2.086   0.542   0.440  1.00  0.00     0.032 A 
HETATM    3  N1  UNL     1      -3.118   0.982  -0.347  1.00  0.00    -0.196 N 
ATOM      4  H1  UNL     1      -3.431   1.948  -0.257  1.00  0.00     0.184 HD
HETATM    5  C3  UNL     1      -3.732   0.177  -1.237  1.00  0.00     0.677 A 
HETATM    6  N3  UNL     1      -3.319  -1.097  -1.358  1.00  0.00    -0.177 N 
ATOM      7  H3  UNL     1      -3.777  -1.715  -2.028  1.00  0.00     0.185 HD
HETATM    8  C4  UNL     1      -2.317  -1.561  -0.612  1.00  0.00     0.122 A 
HETATM    9  C5  UNL     1      -1.652  -0.755   0.326  1.00  0.00     0.009 A 
ENDROOT
BRANCH   9  10
HETATM   10  C6  UNL     1      -0.506  -1.340   1.058  1.00  0.00     0.046 C 
BRANCH  10  11
HETATM   11  C7  UNL     1       0.827  -1.202   0.430  1.00  0.00     0.035 C 
BRANCH  11  12
HETATM   12  C8  UNL     1       1.361   0.139   0.147  1.00  0.00     0.272 C 
BRANCH  12  13
HETATM   13  N5  UNL     1       2.685   0.096  -0.470  1.00  0.00     0.088 N 
HETATM   14  C9  UNL     1       3.740  -0.351   0.395  1.00  0.00     0.274 C 
HETATM   15  C10 UNL     1       4.473   0.936   0.066  1.00  0.00     0.060 C 
HETATM   16  C11 UNL     1       3.257   1.395  -0.720  1.00  0.00     0.274 C 
ENDBRANCH  12  13
ENDBRANCH  11  12
ENDBRANCH  10  11
ENDBRANCH   9  10
BRANCH   8  17
HETATM   17  N4  UNL     1      -1.957  -2.789  -0.772  1.00  0.00    -0.385 N 
ATOM     18  H42 UNL     1      -2.440  -3.374  -1.453  1.00  0.00     0.157 HD
ATOM     19  H41 UNL     1      -1.190  -3.144  -0.201  1.00  0.00     0.157 HD
ENDBRANCH   8  17
BRANCH   5  20
HETATM   20  N2  UNL     1      -4.706   0.615  -1.979  1.00  0.00    -0.234 N 
ATOM     21  H22 UNL     1      -5.019   1.581  -1.887  1.00  0.00     0.174 HD
ATOM     22  H21 UNL     1      -5.171   0.006  -2.652  1.00  0.00     0.174 HD
ENDBRANCH   5  20
TORSDOF 6
