REMARK  6 active torsions:
REMARK  status: ('A' for Active; 'I' for Inactive)
REMARK    1  A    between atoms: C2_2  and  C3_3 
REMARK    2  A    between atoms: C3_3  and  C4_4 
REMARK    3  A    between atoms: C4_4  and  N1_5 
REMARK    4  A    between atoms: N1_5  and  C5_7 
REMARK    5  A    between atoms: C6_10  and  N3_11 
REMARK    6  A    between atoms: C9_18  and  C10_19 
ROOT
HETATM    1  C5  UNL     1       0.302  -0.324   0.696  1.00  0.00     0.129 A 
HETATM    2  N2  UNL     1       1.104  -1.297   1.150  1.00  0.00    -0.176 N 
ATOM      3  H2  UNL     1       2.074  -1.077   1.377  1.00  0.00     0.186 HD
HETATM    4  C6  UNL     1       0.662  -2.555   1.313  1.00  0.00     0.677 A 
HETATM    5  N4  UNL     1      -0.605  -2.847   1.015  1.00  0.00    -0.195 N 
ATOM      6  H4  UNL     1      -0.948  -3.800   1.135  1.00  0.00     0.184 HD
HETATM    7  C7  UNL     1      -1.444  -1.878   0.551  1.00  0.00     0.036 A 
HETATM    8  C8  UNL     1      -2.836  -2.268   0.241  1.00  0.00     0.070 C 
HETATM    9  C9  UNL     1      -1.050  -0.583   0.366  1.00  0.00     0.031 A 
ENDROOT
BRANCH   1  10
HETATM   10  N1  UNL     1       0.720   0.872   0.543  1.00  0.00    -0.375 N 
ATOM     11  H1  UNL     1       0.068   1.575   0.194  1.00  0.00     0.161 HD
BRANCH  10  12
HETATM   12  C4  UNL     1       2.051   1.269   0.837  1.00  0.00     0.125 C 
BRANCH  12  13
HETATM   13  C3  UNL     1       3.024   1.010  -0.298  1.00  0.00     0.046 C 
BRANCH  13  14
HETATM   14  C2  UNL     1       2.653   1.732  -1.532  1.00  0.00    -0.035 C 
HETATM   15  C1  UNL     1       3.471   2.609  -2.082  1.00  0.00     0.007 C 
ENDBRANCH  13  14
ENDBRANCH  12  13
ENDBRANCH  10  12
ENDBRANCH   1  10
BRANCH   9  16
HETATM   16  C10 UNL     1      -1.850   0.488  -0.111  1.00  0.00     0.013 C 
HETATM   17  C11 UNL     1      -3.075   0.606  -0.493  1.00  0.00    -0.030 C 
HETATM   18  C12 UNL     1      -3.526   2.001  -0.944  1.00  0.00     0.036 C 
ENDBRANCH   9  16
BRANCH   4  19
HETATM   19  N3  UNL     1       1.440  -3.496   1.753  1.00  0.00    -0.234 N 
ATOM     20  H32 UNL     1       2.409  -3.273   1.981  1.00  0.00     0.174 HD
ATOM     21  H31 UNL     1       1.104  -4.451   1.877  1.00  0.00     0.174 HD
ENDBRANCH   4  19
TORSDOF 6
