REMARK  15 active torsions:
REMARK  status: ('A' for Active; 'I' for Inactive)
REMARK    1  A    between atoms: O1_2  and  C2_3 
REMARK    2  A    between atoms: C6_8  and  N1_9 
REMARK    3  A    between atoms: N1_9  and  C7_11 
REMARK    4  A    between atoms: C7_11  and  O3_12 
REMARK    5  A    between atoms: N2_14  and  O4_16 
REMARK    6  A    between atoms: C8_19  and  C9_20 
REMARK    7  A    between atoms: C8_19  and  O8_25 
REMARK    8  A    between atoms: C9_20  and  O6_21 
REMARK    9  A    between atoms: O6_21  and  C10_22 
REMARK   10  A    between atoms: C13_27  and  S1_28 
REMARK   11  A    between atoms: S1_28  and  N3_31 
REMARK   12  A    between atoms: N3_31  and  C14_33 
REMARK   13  A    between atoms: C14_33  and  C15_34 
REMARK   14  A    between atoms: C14_33  and  C18_45 
REMARK   15  A    between atoms: C15_34  and  C16_35 
ROOT
HETATM    1  C2  UNL     1      -3.936  -0.755   0.421  1.00  0.00     0.285 C 
HETATM    2  O2  UNL     1      -2.760  -1.187  -0.169  1.00  0.00    -0.315 OA
HETATM    3  C3  UNL     1      -2.211  -0.342  -1.111  1.00  0.00     0.247 C 
HETATM    4  C4  UNL     1      -3.296   0.664  -1.567  1.00  0.00     0.080 C 
HETATM    5  C5  UNL     1      -3.452   1.588  -0.379  1.00  0.00     0.036 C 
HETATM    6  C6  UNL     1      -3.978   0.714   0.739  1.00  0.00     0.140 C 
HETATM    7  O5  UNL     1      -1.233   0.390  -0.586  1.00  0.00    -0.306 OA
HETATM    8  C8  UNL     1       0.066  -0.037  -0.462  1.00  0.00     0.222 C 
HETATM    9  C13 UNL     1       0.434  -1.387  -0.854  1.00  0.00     0.323 C 
HETATM   10  S3  UNL     1      -0.455  -2.084  -2.246  1.00  0.00     0.239 S 
HETATM   11  O13 UNL     1       0.350  -2.206  -3.472  1.00  0.00    -0.218 OA
HETATM   12  O14 UNL     1      -0.989  -3.467  -1.862  1.00  0.00    -0.218 OA
HETATM   13  C19 UNL     1      -1.874  -1.071  -2.390  1.00  0.00     0.306 C 
HETATM   14  O15 UNL     1      -2.484  -0.992  -3.411  1.00  0.00    -0.274 OA
ENDROOT
BRANCH   9  15
HETATM   15  S1  UNL     1       2.127  -1.848  -0.926  1.00  0.00     0.251 S 
HETATM   16  O9  UNL     1       2.186  -3.343  -1.358  1.00  0.00    -0.204 OA
HETATM   17  O10 UNL     1       2.697  -1.894   0.477  1.00  0.00    -0.204 OA
BRANCH  15  18
HETATM   18  N3  UNL     1       3.131  -0.957  -1.978  1.00  0.00    -0.303 N 
ATOM     19  H3  UNL     1       3.022  -0.917  -2.991  1.00  0.00     0.173 HD
BRANCH  18  20
HETATM   20  C14 UNL     1       4.173  -0.256  -1.222  1.00  0.00     0.199 C 
BRANCH  20  21
HETATM   21  C15 UNL     1       5.512  -1.010  -1.493  1.00  0.00     0.103 C 
BRANCH  21  22
HETATM   22  C16 UNL     1       6.567  -0.293  -0.729  1.00  0.00     0.072 A 
HETATM   23  N4  UNL     1       6.962  -0.425   0.521  1.00  0.00    -0.296 N 
HETATM   24  N5  UNL     1       7.917   0.262   0.988  1.00  0.00    -0.279 N 
ATOM     25  H4  UNL     1       6.488  -1.096   1.126  1.00  0.00     0.187 HD
HETATM   26  C17 UNL     1       8.532   1.137   0.188  1.00  0.00     0.158 A 
ATOM     27  H5  UNL     1       8.212   0.149   1.958  1.00  0.00     0.189 HD
HETATM   28  N6  UNL     1       9.529   1.936   0.468  1.00  0.00    -0.379 N 
HETATM   29  S2  UNL     1       7.673   0.929  -1.275  1.00  0.00    -0.038 SA
ATOM     30  H62 UNL     1      10.042   2.060   1.341  1.00  0.00     0.158 HD
ATOM     31  H61 UNL     1       9.999   2.604  -0.143  1.00  0.00     0.158 HD
ENDBRANCH  21  22
ENDBRANCH  20  21
BRANCH  20  32
HETATM   32  C18 UNL     1       4.401   1.122  -1.640  1.00  0.00     0.197 C 
HETATM   33  O11 UNL     1       4.157   1.528  -2.802  1.00  0.00    -0.646 OA
HETATM   34  O12 UNL     1       4.903   2.039  -0.733  1.00  0.00    -0.646 OA
ENDBRANCH  20  32
ENDBRANCH  18  20
ENDBRANCH  15  18
ENDBRANCH   9  15
BRANCH   8  35
HETATM   35  C9  UNL     1       0.439   0.164   1.069  1.00  0.00     0.249 C 
BRANCH  35  36
HETATM   36  O6  UNL     1      -0.397  -0.642   1.854  1.00  0.00    -0.316 OA
BRANCH  36  37
HETATM   37  C10 UNL     1      -0.361  -0.730   3.214  1.00  0.00     0.254 C 
HETATM   38  C11 UNL     1      -1.225  -1.571   4.067  1.00  0.00     0.126 C 
HETATM   39  O7  UNL     1       0.506  -0.015   3.813  1.00  0.00    -0.266 OA
ENDBRANCH  36  37
ENDBRANCH  35  36
ENDBRANCH   8  35
BRANCH   8  40
HETATM   40  O8  UNL     1       0.831   0.935  -1.050  1.00  0.00    -0.356 OA
HETATM   41  C12 UNL     1       0.618   1.270  -2.339  1.00  0.00     0.205 C 
ENDBRANCH   8  40
BRANCH   1  42
HETATM   42  O1  UNL     1      -4.004  -1.422   1.649  1.00  0.00    -0.364 OA
HETATM   43  C1  UNL     1      -5.042  -2.306   1.761  1.00  0.00     0.204 C 
ENDBRANCH   1  42
BRANCH   6  44
HETATM   44  N1  UNL     1      -5.332   1.149   0.977  1.00  0.00    -0.346 N 
ATOM     45  H1  UNL     1      -6.105   0.486   0.919  1.00  0.00     0.163 HD
BRANCH  44  46
HETATM   46  C7  UNL     1      -5.576   2.504   1.292  1.00  0.00     0.237 C 
HETATM   47  N2  UNL     1      -6.650   3.131   0.963  1.00  0.00    -0.233 N 
ATOM     48  H2  UNL     1      -6.792   4.111   1.208  1.00  0.00     0.198 HD
BRANCH  46  49
HETATM   49  O3  UNL     1      -4.610   3.238   2.005  1.00  0.00    -0.331 OA
ATOM     50  H3  UNL     1      -4.774   4.149   2.217  1.00  0.00     0.221 HD
ENDBRANCH  46  49
BRANCH  47  51
HETATM   51  O4  UNL     1      -7.602   2.416   0.262  1.00  0.00    -0.287 OA
ATOM     52  H4  UNL     1      -8.395   2.879   0.019  1.00  0.00     0.244 HD
ENDBRANCH  47  51
ENDBRANCH  44  46
ENDBRANCH   6  44
TORSDOF 15
