REMARK  14 active torsions:
REMARK  status: ('A' for Active; 'I' for Inactive)
REMARK    1  A    between atoms: C3_4  and  N2_5 
REMARK    2  A    between atoms: N3_7  and  N4_9 
REMARK    3  A    between atoms: C6_16  and  C7_17 
REMARK    4  A    between atoms: C7_17  and  N7_18 
REMARK    5  A    between atoms: N7_18  and  C8_21 
REMARK    6  A    between atoms: C8_21  and  C9_22 
REMARK    7  A    between atoms: C9_22  and  C10_23 
REMARK    8  A    between atoms: C10_23  and  N8_24 
REMARK    9  A    between atoms: C12_26  and  C13_27 
REMARK       I    between atoms: C13_27  and  N9_29 
REMARK   10  A    between atoms: N10_32  and  O2_33 
REMARK   11  A    between atoms: O2_33  and  S1_34 
REMARK   12  A    between atoms: S1_34  and  N11_36 
REMARK   13  A    between atoms: S1_34  and  N12_40 
REMARK   14  A    between atoms: N11_36  and  O4_38 
REMARK       I    between atoms: N12_40  and  C16_42 
ROOT
HETATM    1  C8  UNL     1      -0.180  -0.264  -0.076  1.00  0.00     0.234 C 
ENDROOT
BRANCH   1   2
HETATM    2  N7  UNL     1      -0.918   0.993  -0.232  1.00  0.00    -0.069 N 
ATOM      3  H72 UNL     1      -0.329   1.814  -0.089  1.00  0.00     0.277 HD
ATOM      4  H71 UNL     1      -1.575   1.159   0.530  1.00  0.00     0.277 HD
BRANCH   2   5
HETATM    5  C7  UNL     1      -1.568   0.987  -1.545  1.00  0.00     0.308 C 
BRANCH   5   6
HETATM    6  C6  UNL     1      -3.050   0.938  -1.385  1.00  0.00     0.109 A 
HETATM    7  N6  UNL     1      -3.972   1.214  -2.303  1.00  0.00    -0.329 N 
HETATM    8  C5  UNL     1      -5.218   0.948  -1.788  1.00  0.00     0.137 A 
ATOM      9  H6  UNL     1      -3.784   1.567  -3.241  1.00  0.00     0.168 HD
HETATM   10  N5  UNL     1      -6.529   1.028  -2.333  1.00  0.00    -0.356 N 
HETATM   11  C18 UNL     1      -5.033   0.494  -0.503  1.00  0.00     0.148 A 
HETATM   12  C4  UNL     1      -7.578   0.207  -1.791  1.00  0.00     0.277 C 
ATOM     13  H5  UNL     1      -6.725   1.665  -3.105  1.00  0.00     0.162 HD
HETATM   14  N4  UNL     1      -7.536   0.192  -0.306  1.00  0.00    -0.223 N 
HETATM   15  C19 UNL     1      -6.208   0.113   0.252  1.00  0.00     0.295 C 
HETATM   16  O6  UNL     1      -6.089  -0.305   1.439  1.00  0.00    -0.264 OA
HETATM   17  N17 UNL     1      -3.711   0.500  -0.281  1.00  0.00    -0.337 N 
ATOM     18  H17 UNL     1      -3.265   0.216   0.591  1.00  0.00     0.167 HD
BRANCH  14  19
HETATM   19  N3  UNL     1      -8.653   0.205   0.428  1.00  0.00    -0.236 N 
HETATM   20  N2  UNL     1      -9.287  -0.041   1.399  1.00  0.00    -0.283 N 
ATOM     21  H2  UNL     1      -8.891  -0.530   2.201  1.00  0.00     0.188 HD
ATOM     22  H3  UNL     1      -9.322   0.688  -0.172  1.00  0.00     0.208 HD
BRANCH  20  23
HETATM   23  C3  UNL     1     -10.686   0.410   1.363  1.00  0.00     0.080 A 
HETATM   24  C2  UNL     1     -11.617  -0.353   0.701  1.00  0.00     0.127 A 
HETATM   25  N1  UNL     1     -12.929  -0.006   0.613  1.00  0.00    -0.312 N 
HETATM   26  C1  UNL     1     -13.883  -0.830  -0.103  1.00  0.00     0.160 C 
HETATM   27  C21 UNL     1     -13.282   1.135   1.210  1.00  0.00     0.325 A 
HETATM   28  N18 UNL     1     -12.374   1.903   1.870  1.00  0.00    -0.316 N 
HETATM   29  O7  UNL     1     -14.493   1.494   1.153  1.00  0.00    -0.247 OA
HETATM   30  C20 UNL     1     -11.084   1.577   1.966  1.00  0.00     0.125 A 
ATOM     31  H18 UNL     1     -12.693   2.766   2.311  1.00  0.00     0.170 HD
ENDBRANCH  20  23
ENDBRANCH  14  19
ENDBRANCH   5   6
ENDBRANCH   2   5
ENDBRANCH   1   2
BRANCH   1  32
HETATM   32  C9  UNL     1       0.361  -0.409   1.278  1.00  0.00     0.049 C 
BRANCH  32  33
HETATM   33  C10 UNL     1       1.473   0.459   1.738  1.00  0.00     0.151 C 
BRANCH  33  34
HETATM   34  N8  UNL     1       2.694   0.150   1.024  1.00  0.00    -0.287 N 
HETATM   35  C11 UNL     1       3.469  -0.881   1.457  1.00  0.00     0.148 A 
HETATM   36  C12 UNL     1       4.559  -0.941   0.600  1.00  0.00     0.135 A 
HETATM   37  N15 UNL     1       4.377   0.036  -0.275  1.00  0.00    -0.280 N 
HETATM   38  N16 UNL     1       3.230   0.697  -0.005  1.00  0.00    -0.240 N 
ATOM     39  H15 UNL     1       5.011   0.258  -1.042  1.00  0.00     0.189 HD
ATOM     40  H16 UNL     1       2.857   1.490  -0.527  1.00  0.00     0.208 HD
BRANCH  36  41
HETATM   41  C13 UNL     1       5.590  -1.959   0.757  1.00  0.00     0.281 C 
HETATM   42  O1  UNL     1       5.471  -2.808   1.720  1.00  0.00    -0.265 OA
HETATM   43  N9  UNL     1       6.724  -2.121  -0.044  1.00  0.00    -0.261 N 
HETATM   44  C14 UNL     1       7.695  -3.213   0.059  1.00  0.00     0.159 C 
HETATM   45  C17 UNL     1       7.267  -1.314  -1.082  1.00  0.00     0.352 C 
HETATM   46  C15 UNL     1       9.022  -2.616  -0.293  1.00  0.00     0.183 C 
HETATM   47  N10 UNL     1       8.704  -1.399  -0.988  1.00  0.00    -0.188 N 
HETATM   48  O5  UNL     1       6.665  -0.647  -1.932  1.00  0.00    -0.244 OA
BRANCH  47  49
HETATM   49  O2  UNL     1       9.622  -0.492  -1.441  1.00  0.00    -0.143 OA
BRANCH  49  50
HETATM   50  S1  UNL     1       9.514   0.912  -0.527  1.00  0.00     0.282 S 
HETATM   51  O3  UNL     1       8.212   1.604  -0.847  1.00  0.00    -0.194 OA
BRANCH  50  52
HETATM   52  N11 UNL     1       9.480   0.617   1.018  1.00  0.00    -0.187 N 
ATOM     53  H11 UNL     1       9.762  -0.287   1.397  1.00  0.00     0.208 HD
BRANCH  52  54
HETATM   54  O4  UNL     1       9.049   1.645   1.836  1.00  0.00    -0.280 OA
ATOM     55  H4  UNL     1       9.028   1.467   2.769  1.00  0.00     0.245 HD
ENDBRANCH  52  54
ENDBRANCH  50  52
BRANCH  50  56
HETATM   56  N12 UNL     1      10.859   1.917  -0.840  1.00  0.00    -0.250 N 
HETATM   57  C16 UNL     1      12.170   1.469  -0.539  1.00  0.00     0.196 C 
HETATM   58  N13 UNL     1      13.184   2.288  -0.470  1.00  0.00    -0.373 N 
HETATM   59  N14 UNL     1      12.415   0.103  -0.290  1.00  0.00    -0.063 NA
ATOM     60 2H13 UNL     1      13.007   3.276  -0.650  1.00  0.00     0.158 HD
ATOM     61 1H13 UNL     1      14.127   1.966  -0.253  1.00  0.00     0.158 HD
ATOM     62  H12 UNL     1      10.719   2.843  -1.245  1.00  0.00     0.182 HD
ENDBRANCH  50  56
ENDBRANCH  49  50
ENDBRANCH  47  49
ENDBRANCH  36  41
ENDBRANCH  33  34
ENDBRANCH  32  33
ENDBRANCH   1  32
TORSDOF 14
