REMARK  18 active torsions:
REMARK  status: ('A' for Active; 'I' for Inactive)
REMARK    1  A    between atoms: C2_2  and  N1_3 
REMARK    2  A    between atoms: C4_5  and  N2_6 
REMARK       I    between atoms: N2_6  and  C5_8 
REMARK    3  A    between atoms: N4_13  and  C7_14 
REMARK    4  A    between atoms: C7_14  and  C8_15 
REMARK    5  A    between atoms: C8_15  and  C9_16 
REMARK    6  A    between atoms: C9_16  and  C10_17 
REMARK    7  A    between atoms: C10_17  and  C11_18 
REMARK    8  A    between atoms: C11_18  and  C12_19 
REMARK    9  A    between atoms: C12_19  and  C13_20 
REMARK   10  A    between atoms: C13_20  and  C14_21 
REMARK   11  A    between atoms: C14_21  and  C15_22 
REMARK   12  A    between atoms: C15_22  and  C16_23 
REMARK   13  A    between atoms: C16_23  and  N5_24 
REMARK   14  A    between atoms: N5_24  and  C17_26 
REMARK   15  A    between atoms: C17_26  and  N6_28 
REMARK       I    between atoms: C18_30  and  N8_32 
REMARK   16  A    between atoms: N8_32  and  C19_34 
REMARK   17  A    between atoms: C25_40  and  C26_41 
REMARK   18  A    between atoms: C26_41  and  O3_42 
ROOT
HETATM    1  C10 UNL     1      -0.749  -0.271  -2.159  1.00  0.00     0.000 C 
ENDROOT
BRANCH   1   2
HETATM    2  C9  UNL     1      -1.329  -1.641  -2.187  1.00  0.00     0.002 C 
BRANCH   2   3
HETATM    3  C8  UNL     1      -2.483  -1.863  -1.238  1.00  0.00     0.020 C 
BRANCH   3   4
HETATM    4  C7  UNL     1      -3.601  -0.937  -1.555  1.00  0.00     0.127 C 
BRANCH   4   5
HETATM    5  N4  UNL     1      -4.753  -1.043  -0.724  1.00  0.00    -0.335 N 
HETATM    6  C6  UNL     1      -4.814  -0.236   0.456  1.00  0.00     0.245 C 
HETATM    7  C4  UNL     1      -6.021   0.314   1.172  1.00  0.00     0.196 C 
HETATM    8  O2  UNL     1      -3.685   0.032   0.932  1.00  0.00    -0.271 OA
HETATM    9  C3  UNL     1      -7.024   0.833   0.186  1.00  0.00     0.160 C 
HETATM   10  N1  UNL     1      -7.655  -0.154  -0.626  1.00  0.00    -0.348 N 
HETATM   11  C27 UNL     1      -7.077  -1.197  -1.390  1.00  0.00     0.245 C 
HETATM   12  C25 UNL     1      -5.814  -1.950  -1.127  1.00  0.00     0.203 C 
HETATM   13  O4  UNL     1      -7.709  -1.531  -2.421  1.00  0.00    -0.271 OA
BRANCH   7  14
HETATM   14  N2  UNL     1      -5.547   1.464   1.927  1.00  0.00    -0.331 N 
HETATM   15  C5  UNL     1      -5.648   1.516   3.342  1.00  0.00     0.329 C 
HETATM   16  N3  UNL     1      -5.182   2.642   4.064  1.00  0.00    -0.040 NA
HETATM   17  O1  UNL     1      -6.151   0.574   4.013  1.00  0.00    -0.251 OA
ATOM     18  H2  UNL     1      -5.133   2.251   1.428  1.00  0.00     0.164 HD
ENDBRANCH   7  14
BRANCH  10  19
HETATM   19  C2  UNL     1      -9.126  -0.053  -0.667  1.00  0.00     0.121 C 
HETATM   20  C1  UNL     1      -9.587   0.836  -1.775  1.00  0.00     0.026 C 
ENDBRANCH  10  19
BRANCH  12  21
HETATM   21  C26 UNL     1      -6.077  -3.024  -0.068  1.00  0.00     0.199 C 
BRANCH  21  22
HETATM   22  O3  UNL     1      -4.981  -3.806   0.194  1.00  0.00    -0.398 OA
ATOM     23  H3  UNL     1      -5.144  -4.472   0.851  1.00  0.00     0.209 HD
ENDBRANCH  21  22
ENDBRANCH  12  21
ENDBRANCH   4   5
ENDBRANCH   3   4
ENDBRANCH   2   3
ENDBRANCH   1   2
BRANCH   1  24
HETATM   24  C11 UNL     1      -0.197   0.105  -0.797  1.00  0.00     0.000 C 
BRANCH  24  25
HETATM   25  C12 UNL     1       0.359   1.513  -0.886  1.00  0.00     0.000 C 
BRANCH  25  26
HETATM   26  C13 UNL     1       0.895   1.908   0.453  1.00  0.00     0.000 C 
BRANCH  26  27
HETATM   27  C14 UNL     1       1.981   0.969   0.892  1.00  0.00     0.002 C 
BRANCH  27  28
HETATM   28  C15 UNL     1       3.113   0.974  -0.086  1.00  0.00     0.020 C 
BRANCH  28  29
HETATM   29  C16 UNL     1       4.194   0.025   0.416  1.00  0.00     0.122 C 
BRANCH  29  30
HETATM   30  N5  UNL     1       4.670   0.494   1.686  1.00  0.00    -0.367 N 
ATOM     31  H5  UNL     1       4.282   1.352   2.077  1.00  0.00     0.161 HD
BRANCH  30  32
HETATM   32  C17 UNL     1       5.687  -0.221   2.425  1.00  0.00     0.174 C 
HETATM   33  S1  UNL     1       6.152   0.387   3.888  1.00  0.00    -0.041 SA
BRANCH  32  34
HETATM   34  N6  UNL     1       6.233  -1.397   1.900  1.00  0.00    -0.308 N 
HETATM   35  C18 UNL     1       7.237  -1.310   1.070  1.00  0.00     0.191 C 
HETATM   36  N7  UNL     1       7.720  -2.557   0.593  1.00  0.00    -0.063 NA
HETATM   37  N8  UNL     1       7.825  -0.114   0.643  1.00  0.00    -0.356 N 
ATOM     38  H8  UNL     1       7.339   0.407  -0.087  1.00  0.00     0.162 HD
ATOM     39  H6  UNL     1       5.853  -2.307   2.161  1.00  0.00     0.171 HD
BRANCH  37  40
HETATM   40  C19 UNL     1       9.071   0.456   1.148  1.00  0.00     0.110 A 
HETATM   41  C20 UNL     1       9.259   1.808   0.635  1.00  0.00    -0.002 A 
HETATM   42  C21 UNL     1      10.347   2.244   0.059  1.00  0.00    -0.002 A 
HETATM   43  C22 UNL     1      11.478   1.350  -0.109  1.00  0.00    -0.004 A 
HETATM   44  C23 UNL     1      11.390   0.111   0.314  1.00  0.00    -0.024 A 
HETATM   45  C24 UNL     1      10.202  -0.464   0.959  1.00  0.00     0.056 A 
ENDBRANCH  37  40
ENDBRANCH  32  34
ENDBRANCH  30  32
ENDBRANCH  29  30
ENDBRANCH  28  29
ENDBRANCH  27  28
ENDBRANCH  26  27
ENDBRANCH  25  26
ENDBRANCH  24  25
ENDBRANCH   1  24
TORSDOF 18
