REMARK  17 active torsions:
REMARK  status: ('A' for Active; 'I' for Inactive)
REMARK       I    between atoms: C1_2  and  N6_42 
REMARK    1  A    between atoms: N2_3  and  C2_5 
REMARK    2  A    between atoms: C2_5  and  C3_6 
REMARK    3  A    between atoms: C3_6  and  C4_7 
REMARK    4  A    between atoms: C4_7  and  C5_8 
REMARK       I    between atoms: C5_8  and  N3_10 
REMARK       I    between atoms: N3_10  and  C6_12 
REMARK    5  A    between atoms: C6_12  and  C7_14 
REMARK    6  A    between atoms: C10_17  and  C11_18 
REMARK    7  A    between atoms: C11_18  and  C12_19 
REMARK    8  A    between atoms: C12_19  and  C13_20 
REMARK    9  A    between atoms: C16_23  and  C17_24 
REMARK   10  A    between atoms: C17_24  and  N4_25 
REMARK   11  A    between atoms: N5_28  and  C20_29 
REMARK   12  A    between atoms: C20_29  and  C21_30 
REMARK   13  A    between atoms: C21_30  and  C22_31 
REMARK   14  A    between atoms: C22_31  and  O3_32 
REMARK   15  A    between atoms: N6_42  and  C31_44 
REMARK   16  A    between atoms: C31_44  and  C32_45 
REMARK   17  A    between atoms: C32_45  and  O4_46 
ROOT
HETATM    1  C7  UNL     1       3.917  -0.278   0.441  1.00  0.00     0.032 A 
HETATM    2  C8  UNL     1       3.115   0.467   1.284  1.00  0.00     0.017 A 
HETATM    3  C9  UNL     1       1.835   0.781   0.885  1.00  0.00     0.008 A 
HETATM    4  C10 UNL     1       1.369   0.346  -0.354  1.00  0.00    -0.058 A 
HETATM    5  C29 UNL     1       2.159  -0.387  -1.182  1.00  0.00     0.008 A 
HETATM    6  C30 UNL     1       3.458  -0.705  -0.775  1.00  0.00     0.017 A 
ENDROOT
BRANCH   4   7
HETATM    7  C11 UNL     1      -0.003   0.697  -0.764  1.00  0.00     0.043 C 
BRANCH   7   8
HETATM    8  C12 UNL     1      -1.022  -0.344  -0.295  1.00  0.00     0.043 C 
BRANCH   8   9
HETATM    9  C13 UNL     1      -2.365   0.112  -0.761  1.00  0.00    -0.058 A 
HETATM   10  C14 UNL     1      -3.115   0.950   0.040  1.00  0.00     0.007 A 
HETATM   11  C15 UNL     1      -4.363   1.386  -0.366  1.00  0.00     0.009 A 
HETATM   12  C16 UNL     1      -4.914   1.014  -1.573  1.00  0.00    -0.032 A 
HETATM   13  C27 UNL     1      -4.158   0.178  -2.365  1.00  0.00     0.009 A 
HETATM   14  C28 UNL     1      -2.899  -0.267  -1.964  1.00  0.00     0.007 A 
BRANCH  12  15
HETATM   15  C17 UNL     1      -6.245   1.520  -1.938  1.00  0.00     0.276 C 
BRANCH  15  16
HETATM   16  N4  UNL     1      -7.333   0.778  -1.389  1.00  0.00    -0.058 N 
HETATM   17  C18 UNL     1      -8.063   1.650  -0.454  1.00  0.00     0.266 C 
HETATM   18  C19 UNL     1      -9.039   0.860   0.362  1.00  0.00     0.265 C 
HETATM   19  N5  UNL     1      -9.378  -0.332  -0.390  1.00  0.00    -0.062 N 
HETATM   20  C23 UNL     1      -8.202  -1.199  -0.342  1.00  0.00     0.265 C 
HETATM   21  C25 UNL     1      -9.604  -0.029  -1.789  1.00  0.00     0.265 C 
HETATM   22  C24 UNL     1      -6.946  -0.455  -0.736  1.00  0.00     0.266 C 
HETATM   23  C26 UNL     1      -8.291   0.419  -2.419  1.00  0.00     0.266 C 
BRANCH  19  24
HETATM   24  C20 UNL     1     -10.475  -1.055   0.185  1.00  0.00     0.239 C 
BRANCH  24  25
HETATM   25  C21 UNL     1     -11.286  -0.223   1.151  1.00  0.00     0.054 C 
BRANCH  25  26
HETATM   26  C22 UNL     1     -12.403  -1.096   1.682  1.00  0.00     0.165 C 
BRANCH  26  27
HETATM   27  O3  UNL     1     -11.844  -2.215   2.340  1.00  0.00    -0.401 OA
ATOM     28  H3  UNL     1     -12.545  -2.763   2.673  1.00  0.00     0.209 HD
ENDBRANCH  26  27
ENDBRANCH  25  26
ENDBRANCH  24  25
ENDBRANCH  19  24
ENDBRANCH  15  16
ENDBRANCH  12  15
ENDBRANCH   8   9
ENDBRANCH   7   8
ENDBRANCH   4   7
BRANCH   1  29
HETATM   29  C6  UNL     1       5.259  -0.608   0.879  1.00  0.00     0.258 C 
HETATM   30  N3  UNL     1       6.273  -0.868  -0.056  1.00  0.00    -0.293 N 
HETATM   31  C5  UNL     1       7.616  -1.204   0.278  1.00  0.00     0.224 C 
ATOM     32  H3  UNL     1       6.031  -0.812  -1.045  1.00  0.00     0.172 HD
HETATM   33  O1  UNL     1       8.376  -1.421  -0.701  1.00  0.00    -0.273 OA
HETATM   34  O2  UNL     1       5.490  -0.654   2.101  1.00  0.00    -0.267 OA
BRANCH  31  35
HETATM   35  C4  UNL     1       8.101  -1.298   1.634  1.00  0.00     0.105 C 
BRANCH  35  36
HETATM   36  C3  UNL     1       9.529  -1.526   1.904  1.00  0.00     0.029 C 
BRANCH  36  37
HETATM   37  C2  UNL     1      10.531  -0.510   1.538  1.00  0.00     0.122 C 
BRANCH  37  38
HETATM   38  N2  UNL     1      10.689  -0.118   0.192  1.00  0.00    -0.365 N 
HETATM   39  C1  UNL     1      11.822   0.091  -0.377  1.00  0.00     0.184 C 
HETATM   40  N1  UNL     1      11.871   0.482  -1.729  1.00  0.00    -0.064 NA
HETATM   41  N6  UNL     1      13.001  -0.082   0.386  1.00  0.00    -0.363 N 
ATOM     42  H6  UNL     1      13.282  -1.029   0.639  1.00  0.00     0.162 HD
ATOM     43  H2  UNL     1       9.846   0.008  -0.368  1.00  0.00     0.162 HD
BRANCH  41  44
HETATM   44  C31 UNL     1      13.825   1.022   0.823  1.00  0.00     0.148 C 
BRANCH  44  45
HETATM   45  C32 UNL     1      15.010   0.482   1.623  1.00  0.00     0.183 C 
BRANCH  45  46
HETATM   46  O4  UNL     1      15.781  -0.373   0.852  1.00  0.00    -0.399 OA
ATOM     47  H4  UNL     1      16.518  -0.709   1.349  1.00  0.00     0.209 HD
ENDBRANCH  45  46
ENDBRANCH  44  45
ENDBRANCH  41  44
ENDBRANCH  37  38
ENDBRANCH  36  37
ENDBRANCH  35  36
ENDBRANCH  31  35
ENDBRANCH   1  29
TORSDOF 17
