REMARK  15 active torsions:
REMARK  status: ('A' for Active; 'I' for Inactive)
REMARK    1  A    between atoms: O1_2  and  C2_3 
REMARK    2  A    between atoms: C2_3  and  C3_5 
REMARK    3  A    between atoms: C4_7  and  N1_8 
REMARK    4  A    between atoms: C5_13  and  C6_14 
REMARK    5  A    between atoms: C6_14  and  O3_15 
REMARK    6  A    between atoms: C6_14  and  N3_17 
REMARK    7  A    between atoms: N3_17  and  C7_20 
REMARK    8  A    between atoms: C9_22  and  N4_23 
REMARK    9  A    between atoms: N5_28  and  C11_29 
REMARK   10  A    between atoms: N7_35  and  C13_36 
REMARK   11  A    between atoms: C13_36  and  C14_37 
REMARK       I    between atoms: C14_37  and  N8_39 
REMARK   12  A    between atoms: N8_39  and  C15_41 
REMARK   13  A    between atoms: C17_43  and  C18_44 
REMARK   14  A    between atoms: C18_44  and  O7_45 
REMARK   15  A    between atoms: O7_45  and  S2_46 
ROOT
HETATM    1  C7  UNL     1      -2.791   0.474   0.228  1.00  0.00     0.210 C 
HETATM    2  C8  UNL     1      -3.516   0.712  -1.046  1.00  0.00     0.069 C 
HETATM    3  C9  UNL     1      -3.013   0.009  -2.254  1.00  0.00     0.204 C 
HETATM    4  C10 UNL     1      -1.531  -0.137  -2.377  1.00  0.00     0.174 C 
HETATM    5  N5  UNL     1      -0.901   0.551  -1.285  1.00  0.00    -0.212 N 
HETATM    6  C21 UNL     1      -1.303   0.221   0.060  1.00  0.00     0.174 C 
ENDROOT
BRANCH   5   7
HETATM    7  C11 UNL     1       0.067   1.545  -1.525  1.00  0.00     0.707 A 
HETATM    8  N6  UNL     1      -0.036   2.872  -1.279  1.00  0.00    -0.086 N 
HETATM    9  O4  UNL     1       1.026   3.483  -1.644  1.00  0.00    -0.165 OA
ATOM     10  H6  UNL     1      -0.849   3.323  -0.860  1.00  0.00     0.214 HD
HETATM   11  C12 UNL     1       1.849   2.599  -2.133  1.00  0.00     0.404 A 
HETATM   12  O5  UNL     1       2.997   2.859  -2.587  1.00  0.00    -0.235 OA
HETATM   13  N7  UNL     1       1.299   1.379  -2.081  1.00  0.00    -0.114 N 
BRANCH  13  14
HETATM   14  C13 UNL     1       1.859   0.112  -2.513  1.00  0.00     0.256 C 
BRANCH  14  15
HETATM   15  C14 UNL     1       2.634  -0.455  -1.387  1.00  0.00     0.237 C 
HETATM   16  O6  UNL     1       2.034  -1.191  -0.564  1.00  0.00    -0.272 OA
HETATM   17  N8  UNL     1       4.017  -0.196  -1.211  1.00  0.00    -0.348 N 
ATOM     18  H8  UNL     1       4.487   0.405  -1.887  1.00  0.00     0.163 HD
BRANCH  17  19
HETATM   19  C15 UNL     1       4.785  -0.736  -0.132  1.00  0.00     0.167 C 
HETATM   20  C16 UNL     1       5.520   0.368   0.594  1.00  0.00     0.068 C 
HETATM   21  C17 UNL     1       6.686   0.900  -0.182  1.00  0.00     0.160 C 
HETATM   22  O11 UNL     1       6.953   0.200  -1.383  1.00  0.00    -0.307 OA
HETATM   23  C19 UNL     1       6.910  -1.184  -1.349  1.00  0.00     0.332 C 
HETATM   24  O12 UNL     1       7.792  -1.922  -1.895  1.00  0.00    -0.256 OA
HETATM   25  C20 UNL     1       5.773  -1.758  -0.638  1.00  0.00     0.246 C 
HETATM   26  O13 UNL     1       5.654  -2.973  -0.479  1.00  0.00    -0.284 OA
BRANCH  21  27
HETATM   27  C18 UNL     1       7.940   0.955   0.667  1.00  0.00     0.225 C 
BRANCH  27  28
HETATM   28  O7  UNL     1       8.383  -0.335   0.992  1.00  0.00    -0.254 OA
BRANCH  28  29
HETATM   29  S2  UNL     1       9.759  -0.297   1.925  1.00  0.00     0.251 S 
HETATM   30  O8  UNL     1       9.907   0.962   2.716  1.00  0.00    -0.572 OA
HETATM   31  O9  UNL     1       9.776  -1.448   2.896  1.00  0.00    -0.572 OA
HETATM   32  O10 UNL     1      11.123  -0.459   0.939  1.00  0.00    -0.572 OA
ENDBRANCH  28  29
ENDBRANCH  27  28
ENDBRANCH  21  27
ENDBRANCH  17  19
ENDBRANCH  14  15
ENDBRANCH  13  14
ENDBRANCH   5   7
BRANCH   3  33
HETATM   33  N4  UNL     1      -3.682  -1.287  -2.456  1.00  0.00    -0.073 N 
ATOM     34  H43 UNL     1      -3.607  -1.876  -1.627  1.00  0.00     0.274 HD
ATOM     35  H42 UNL     1      -4.696  -1.180  -2.485  1.00  0.00     0.274 HD
ATOM     36  H41 UNL     1      -3.337  -1.770  -3.286  1.00  0.00     0.274 HD
ENDBRANCH   3  33
BRANCH   1  37
HETATM   37  N3  UNL     1      -3.420  -0.484   1.114  1.00  0.00    -0.037 N 
ATOM     38  H32 UNL     1      -2.808  -0.722   1.895  1.00  0.00     0.281 HD
ATOM     39  H31 UNL     1      -3.488  -1.403   0.676  1.00  0.00     0.281 HD
BRANCH  37  40
HETATM   40  C6  UNL     1      -4.698  -0.034   1.576  1.00  0.00     0.371 C 
BRANCH  40  41
HETATM   41  C5  UNL     1      -5.812  -1.026   1.263  1.00  0.00     0.091 A 
HETATM   42  C3  UNL     1      -7.084  -0.797   1.691  1.00  0.00     0.110 A 
HETATM   43  S1  UNL     1      -7.902  -2.221   1.122  1.00  0.00    -0.046 SA
HETATM   44  C4  UNL     1      -6.572  -2.990   0.387  1.00  0.00     0.143 A 
HETATM   45  N2  UNL     1      -5.578  -2.141   0.605  1.00  0.00    -0.335 N 
ATOM     46  H2  UNL     1      -4.639  -2.350   0.265  1.00  0.00     0.168 HD
BRANCH  42  47
HETATM   47  C2  UNL     1      -7.711   0.323   2.421  1.00  0.00     0.302 C 
HETATM   48  O2  UNL     1      -7.180   1.347   2.817  1.00  0.00    -0.259 OA
BRANCH  47  49
HETATM   49  O1  UNL     1      -9.090   0.198   2.697  1.00  0.00    -0.322 OA
HETATM   50  C1  UNL     1      -9.821   1.177   3.380  1.00  0.00     0.213 C 
ENDBRANCH  47  49
ENDBRANCH  42  47
BRANCH  44  51
HETATM   51  N1  UNL     1      -6.531  -4.146  -0.246  1.00  0.00    -0.380 N 
ATOM     52  H12 UNL     1      -7.296  -4.799  -0.414  1.00  0.00     0.158 HD
ATOM     53  H11 UNL     1      -5.734  -4.607  -0.686  1.00  0.00     0.158 HD
ENDBRANCH  44  51
ENDBRANCH  40  41
BRANCH  40  54
HETATM   54  O3  UNL     1      -4.708   0.296   2.916  1.00  0.00    -0.365 OA
ATOM     55  H3  UNL     1      -4.014   0.914   3.111  1.00  0.00     0.212 HD
ENDBRANCH  40  54
ENDBRANCH  37  40
ENDBRANCH   1  37
TORSDOF 15
