REMARK  3 active torsions:
REMARK  status: ('A' for Active; 'I' for Inactive)
REMARK    1  A    between atoms: C3_4  and  C4_5 
REMARK    2  A    between atoms: C11_17  and  C12_18 
REMARK    3  A    between atoms: C17_28  and  N8_29 
ROOT
HETATM    1  N1  UNL     1      -2.853   3.556   1.082  1.00  0.00    -0.191 NA
HETATM    2  C1  UNL     1      -2.106   2.690   0.919  1.00  0.00     0.105 C 
HETATM    3  C2  UNL     1      -1.161   1.636   0.683  1.00  0.00     0.118 A 
HETATM    4  C3  UNL     1      -1.467   0.369   0.289  1.00  0.00     0.084 A 
HETATM    5  N3  UNL     1      -0.422  -0.486   0.023  1.00  0.00    -0.187 N 
ATOM      6  H3  UNL     1      -0.642  -1.436  -0.275  1.00  0.00     0.184 HD
HETATM    7  C10 UNL     1       0.855  -0.145   0.132  1.00  0.00     0.707 A 
HETATM    8  N4  UNL     1       2.041  -0.792  -0.068  1.00  0.00    -0.172 N 
ATOM      9  H4  UNL     1       2.152  -1.760  -0.371  1.00  0.00     0.186 HD
HETATM   10  C11 UNL     1       3.024   0.058   0.200  1.00  0.00     0.148 A 
HETATM   11  N6  UNL     1       2.449   1.207   0.559  1.00  0.00    -0.261 N 
ATOM     12  H6  UNL     1       2.958   2.050   0.824  1.00  0.00     0.190 HD
HETATM   13  N7  UNL     1       1.131   1.108   0.525  1.00  0.00    -0.067 N 
HETATM   14  C17 UNL     1       0.187   2.006   0.803  1.00  0.00     0.162 A 
ENDROOT
BRANCH   4  15
HETATM   15  C4  UNL     1      -2.829  -0.095   0.064  1.00  0.00    -0.007 A 
HETATM   16  C5  UNL     1      -3.959   0.324   0.690  1.00  0.00     0.015 A 
HETATM   17  C6  UNL     1      -5.240  -0.133   0.324  1.00  0.00     0.027 A 
HETATM   18  C7  UNL     1      -5.422  -1.036  -0.691  1.00  0.00     0.046 A 
HETATM   19  N2  UNL     1      -6.703  -1.516  -1.083  1.00  0.00    -0.102 NA
HETATM   20  C8  UNL     1      -4.288  -1.474  -1.335  1.00  0.00     0.027 A 
HETATM   21  C9  UNL     1      -3.043  -1.025  -0.976  1.00  0.00     0.015 A 
ENDBRANCH   4  15
BRANCH  14  22
HETATM   22  N8  UNL     1       0.530   3.203   1.179  1.00  0.00    -0.382 N 
ATOM     23  H82 UNL     1      -0.193   3.891   1.392  1.00  0.00     0.157 HD
ATOM     24  H81 UNL     1       1.510   3.472   1.266  1.00  0.00     0.157 HD
ENDBRANCH  14  22
BRANCH  10  25
HETATM   25  C12 UNL     1       4.465  -0.169   0.132  1.00  0.00     0.025 A 
HETATM   26  C13 UNL     1       4.982  -1.374  -0.244  1.00  0.00     0.018 A 
HETATM   27  C14 UNL     1       6.346  -1.570  -0.302  1.00  0.00     0.018 A 
HETATM   28  C15 UNL     1       7.193  -0.525   0.027  1.00  0.00     0.087 A 
HETATM   29  N5  UNL     1       6.680   0.670   0.400  1.00  0.00    -0.374 N 
HETATM   30  C16 UNL     1       5.346   0.840   0.450  1.00  0.00     0.102 A 
ATOM     31  H5  UNL     1       7.303   1.440   0.643  1.00  0.00     0.164 HD
ENDBRANCH  10  25
TORSDOF 3
