REMARK  14 active torsions:
REMARK  status: ('A' for Active; 'I' for Inactive)
REMARK    1  A    between atoms: C2_2  and  O1_5 
REMARK    2  A    between atoms: O1_5  and  C5_6 
REMARK       I    between atoms: C5_6  and  N1_8 
REMARK       I    between atoms: N2_11  and  C8_12 
REMARK    3  A    between atoms: C8_12  and  C9_14 
REMARK    4  A    between atoms: C9_14  and  C10_15 
REMARK    5  A    between atoms: C10_15  and  C11_16 
REMARK    6  A    between atoms: C11_16  and  C12_17 
REMARK    7  A    between atoms: C12_17  and  C13_18 
REMARK    8  A    between atoms: C13_18  and  C14_19 
REMARK    9  A    between atoms: C15_20  and  S1_21 
REMARK   10  A    between atoms: C18_25  and  C19_26 
REMARK   11  A    between atoms: C19_26  and  C20_27 
REMARK   12  A    between atoms: C20_27  and  C21_28 
REMARK   13  A    between atoms: C21_28  and  C22_29 
REMARK   14  A    between atoms: C22_29  and  O4_30 
ROOT
HETATM    1  S1  UNL     1       4.492   1.870  -2.806  1.00  0.00    -0.010 SA
HETATM    2  C16 UNL     1       4.162   3.591  -2.854  1.00  0.00     0.139 C 
HETATM    3  N3  UNL     1       3.953   4.727  -2.904  1.00  0.00    -0.184 NA
ENDROOT
BRANCH   1   4
HETATM    4  C15 UNL     1       5.186   1.462  -1.195  1.00  0.00     0.029 A 
HETATM    5  C14 UNL     1       4.348   1.112  -0.173  1.00  0.00     0.028 A 
HETATM    6  C23 UNL     1       4.914   0.808   1.054  1.00  0.00     0.253 A 
HETATM    7  N4  UNL     1       6.263   0.861   1.223  1.00  0.00    -0.327 N 
HETATM    8  O5  UNL     1       4.145   0.484   2.006  1.00  0.00    -0.268 OA
HETATM    9  C18 UNL     1       7.091   1.195   0.249  1.00  0.00     0.013 A 
ATOM     10  H4  UNL     1       6.651   0.634   2.139  1.00  0.00     0.169 HD
HETATM   11  C17 UNL     1       6.548   1.505  -0.994  1.00  0.00     0.045 A 
BRANCH   5  12
HETATM   12  C13 UNL     1       2.893   1.060  -0.376  1.00  0.00     0.046 C 
BRANCH  12  13
HETATM   13  C12 UNL     1       2.461  -0.173  -1.152  1.00  0.00     0.005 C 
BRANCH  13  14
HETATM   14  C11 UNL     1       0.939  -0.150  -1.301  1.00  0.00     0.001 C 
BRANCH  14  15
HETATM   15  C10 UNL     1       0.461  -1.352  -2.070  1.00  0.00     0.009 C 
BRANCH  15  16
HETATM   16  C9  UNL     1      -1.014  -1.428  -2.261  1.00  0.00     0.103 C 
BRANCH  16  17
HETATM   17  C8  UNL     1      -1.754  -1.532  -0.988  1.00  0.00     0.219 C 
HETATM   18  N2  UNL     1      -3.170  -1.429  -0.911  1.00  0.00    -0.349 N 
HETATM   19  C7  UNL     1      -3.850  -1.547   0.363  1.00  0.00     0.145 C 
HETATM   20  C24 UNL     1      -3.971  -1.202  -2.091  1.00  0.00     0.145 C 
HETATM   21  C6  UNL     1      -5.356  -1.668   0.158  1.00  0.00     0.148 C 
HETATM   22  N1  UNL     1      -5.819  -0.538  -0.658  1.00  0.00    -0.325 N 
HETATM   23  C5  UNL     1      -7.048   0.091  -0.335  1.00  0.00     0.363 C 
HETATM   24  C25 UNL     1      -4.993  -0.111  -1.768  1.00  0.00     0.148 C 
HETATM   25  O2  UNL     1      -7.518   1.060  -0.969  1.00  0.00    -0.238 OA
HETATM   26  O3  UNL     1      -1.130  -1.723   0.101  1.00  0.00    -0.273 OA
BRANCH  23  27
HETATM   27  O1  UNL     1      -7.811  -0.366   0.743  1.00  0.00    -0.294 OA
BRANCH  27  28
HETATM   28  C2  UNL     1      -9.040   0.220   1.113  1.00  0.00     0.061 C 
HETATM   29  C1  UNL     1      -8.923   1.670   1.487  1.00  0.00     0.046 C 
HETATM   30  C3  UNL     1     -10.067   0.118   0.007  1.00  0.00     0.046 C 
HETATM   31  C4  UNL     1      -9.559  -0.533   2.317  1.00  0.00     0.046 C 
ENDBRANCH  27  28
ENDBRANCH  23  27
ENDBRANCH  16  17
ENDBRANCH  15  16
ENDBRANCH  14  15
ENDBRANCH  13  14
ENDBRANCH  12  13
ENDBRANCH   5  12
BRANCH   9  32
HETATM   32  C19 UNL     1       8.537   1.300   0.377  1.00  0.00     0.057 C 
BRANCH  32  33
HETATM   33  C20 UNL     1       9.163   0.746   1.599  1.00  0.00     0.008 C 
BRANCH  33  34
HETATM   34  C21 UNL     1       9.011  -0.739   1.737  1.00  0.00     0.026 C 
BRANCH  34  35
HETATM   35  C22 UNL     1       9.644  -1.256   3.016  1.00  0.00     0.164 C 
BRANCH  35  36
HETATM   36  O4  UNL     1      10.994  -0.981   3.059  1.00  0.00    -0.401 OA
ATOM     37  H4  UNL     1      11.390  -1.305   3.860  1.00  0.00     0.209 HD
ENDBRANCH  35  36
ENDBRANCH  34  35
ENDBRANCH  33  34
ENDBRANCH  32  33
ENDBRANCH   9  32
ENDBRANCH   1   4
TORSDOF 14
