REMARK  11 active torsions:
REMARK  status: ('A' for Active; 'I' for Inactive)
REMARK    1  A    between atoms: C2_2  and  C3_3 
REMARK    2  A    between atoms: C3_3  and  N1_5 
REMARK       I    between atoms: N1_5  and  C5_7 
REMARK    3  A    between atoms: C5_7  and  C6_9 
REMARK    4  A    between atoms: C6_9  and  C7_10 
REMARK    5  A    between atoms: C7_10  and  C8_11 
REMARK    6  A    between atoms: C8_11  and  C9_12 
REMARK    7  A    between atoms: C9_12  and  C10_13 
REMARK    8  A    between atoms: C10_13  and  N2_14 
REMARK       I    between atoms: C11_16  and  N3_17 
REMARK       I    between atoms: C11_16  and  N6_24 
REMARK    9  A    between atoms: N3_17  and  N4_19 
REMARK       I    between atoms: N6_24  and  C12_26 
REMARK       I    between atoms: C12_26  and  N7_28 
REMARK       I    between atoms: N8_33  and  C17_35 
REMARK   10  A    between atoms: C17_35  and  C18_37 
REMARK   11  A    between atoms: C27_49  and  C28_50 
ROOT
HETATM    1  C6  UNL     1      -1.163   2.338  -1.555  1.00  0.00     0.080 C 
HETATM    2  N8  UNL     1      -2.208   1.798  -1.291  1.00  0.00    -0.326 N 
ATOM      3  H8  UNL     1      -2.851   2.564  -1.091  1.00  0.00     0.168 HD
HETATM    4  C17 UNL     1      -2.946   0.682  -1.130  1.00  0.00     0.226 C 
HETATM    5  O3  UNL     1      -4.157   0.725  -1.564  1.00  0.00    -0.273 OA
ENDROOT
BRANCH   1   6
HETATM    6  C5  UNL     1      -1.106   3.822  -1.518  1.00  0.00     0.264 C 
HETATM    7  N1  UNL     1      -2.253   4.524  -1.171  1.00  0.00    -0.352 N 
ATOM      8  H1  UNL     1      -3.089   3.982  -0.952  1.00  0.00     0.163 HD
HETATM    9  O1  UNL     1      -0.044   4.430  -1.797  1.00  0.00    -0.266 OA
BRANCH   7  10
HETATM   10  C3  UNL     1      -2.352   5.971  -1.096  1.00  0.00     0.080 C 
HETATM   11  C4  UNL     1      -3.551   6.525  -1.782  1.00  0.00     0.032 C 
BRANCH  10  12
HETATM   12  C2  UNL     1      -2.363   6.308   0.406  1.00  0.00     0.020 C 
HETATM   13  C1  UNL     1      -3.577   5.734   1.068  1.00  0.00     0.007 C 
ENDBRANCH  10  12
ENDBRANCH   7  10
ENDBRANCH   1   6
BRANCH   1  14
HETATM   14  C7  UNL     1       0.073   1.572  -1.904  1.00  0.00     0.063 C 
BRANCH  14  15
HETATM   15  C8  UNL     1       1.187   1.817  -0.926  1.00  0.00     0.008 C 
BRANCH  15  16
HETATM   16  C9  UNL     1       2.380   0.971  -1.397  1.00  0.00     0.020 C 
BRANCH  16  17
HETATM   17  C10 UNL     1       3.476   1.249  -0.390  1.00  0.00     0.138 C 
BRANCH  17  18
HETATM   18  N2  UNL     1       4.633   0.487  -0.753  1.00  0.00    -0.225 N 
HETATM   19  C11 UNL     1       5.023  -0.480  -0.006  1.00  0.00     0.697 C 
HETATM   20  N3  UNL     1       4.279  -0.763   1.173  1.00  0.00    -0.118 N 
HETATM   21  N6  UNL     1       6.175  -1.232  -0.370  1.00  0.00    -0.140 N 
ATOM     22  H3  UNL     1       3.530  -1.455   1.141  1.00  0.00     0.207 HD
HETATM   23  C12 UNL     1       6.652  -2.312   0.413  1.00  0.00     0.336 C 
ATOM     24  H6  UNL     1       6.675  -0.985  -1.224  1.00  0.00     0.189 HD
HETATM   25  O2  UNL     1       5.999  -2.590   1.473  1.00  0.00    -0.246 OA
HETATM   26  N7  UNL     1       7.794  -3.045   0.041  1.00  0.00    -0.334 N 
HETATM   27  C13 UNL     1       8.610  -2.821  -1.123  1.00  0.00     0.127 C 
HETATM   28  C16 UNL     1       8.370  -4.164   0.751  1.00  0.00     0.127 C 
HETATM   29  C14 UNL     1      10.022  -2.917  -0.529  1.00  0.00     0.022 C 
HETATM   30  C15 UNL     1       9.855  -4.044   0.461  1.00  0.00     0.022 C 
ATOM     31  H2  UNL     1       5.146   0.713  -1.605  1.00  0.00     0.177 HD
BRANCH  20  32
HETATM   32  N4  UNL     1       4.558  -0.108   2.373  1.00  0.00    -0.235 N 
HETATM   33  N5  UNL     1       5.467   0.774   2.472  1.00  0.00    -0.330 N 
ATOM     34  H52 UNL     1       6.003   1.000   1.634  1.00  0.00     0.178 HD
ATOM     35  H51 UNL     1       5.671   1.253   3.349  1.00  0.00     0.178 HD
ATOM     36  H4  UNL     1       4.012  -0.346   3.201  1.00  0.00     0.208 HD
ENDBRANCH  20  32
ENDBRANCH  17  18
ENDBRANCH  16  17
ENDBRANCH  15  16
ENDBRANCH  14  15
ENDBRANCH   1  14
BRANCH   4  37
HETATM   37  C18 UNL     1      -2.513  -0.566  -0.517  1.00  0.00     0.083 C 
HETATM   38  C19 UNL     1      -1.906  -0.407   0.851  1.00  0.00     0.014 C 
HETATM   39  C20 UNL     1      -2.329   0.828   1.562  1.00  0.00     0.002 C 
HETATM   40  C21 UNL     1      -2.607   0.489   3.008  1.00  0.00     0.020 C 
HETATM   41  C22 UNL     1      -4.096   0.129   3.072  1.00  0.00     0.122 C 
HETATM   42  N9  UNL     1      -4.181  -1.285   2.837  1.00  0.00    -0.361 N 
HETATM   43  C23 UNL     1      -4.700  -1.932   1.708  1.00  0.00     0.222 C 
ATOM     44  H9  UNL     1      -3.822  -1.888   3.577  1.00  0.00     0.162 HD
HETATM   45  O4  UNL     1      -5.153  -3.120   1.941  1.00  0.00    -0.273 OA
HETATM   46  C24 UNL     1      -4.773  -1.403   0.338  1.00  0.00     0.083 C 
HETATM   47  C25 UNL     1      -5.949  -2.132  -0.340  1.00  0.00     0.015 C 
HETATM   48  C30 UNL     1      -3.626  -1.582  -0.561  1.00  0.00     0.012 C 
HETATM   49  C26 UNL     1      -5.552  -3.068  -1.406  1.00  0.00     0.016 C 
HETATM   50  C27 UNL     1      -4.256  -3.767  -1.324  1.00  0.00     0.087 C 
HETATM   51  C29 UNL     1      -3.191  -3.005  -0.550  1.00  0.00     0.021 C 
BRANCH  50  52
HETATM   52  C28 UNL     1      -4.340  -5.200  -0.908  1.00  0.00     0.177 C 
HETATM   53  O5  UNL     1      -5.462  -5.674  -0.657  1.00  0.00    -0.648 OA
HETATM   54  O6  UNL     1      -3.204  -5.980  -0.803  1.00  0.00    -0.648 OA
ENDBRANCH  50  52
ENDBRANCH   4  37
TORSDOF 11
