REMARK  16 active torsions:
REMARK  status: ('A' for Active; 'I' for Inactive)
REMARK    1  A    between atoms: C2_2  and  O1_3 
REMARK    2  A    between atoms: C2_2  and  N1_5 
REMARK    3  A    between atoms: N1_5  and  C3_7 
REMARK    4  A    between atoms: C3_7  and  O2_8 
REMARK    5  A    between atoms: C3_7  and  C4_10 
REMARK    6  A    between atoms: N2_19  and  C13_20 
REMARK    7  A    between atoms: C13_20  and  O3_21 
REMARK    8  A    between atoms: C13_20  and  C14_23 
REMARK    9  A    between atoms: C14_23  and  N3_24 
REMARK   10  A    between atoms: C14_23  and  N6_40 
REMARK       I    between atoms: N3_24  and  C15_26 
REMARK   11  A    between atoms: C15_26  and  C16_28 
REMARK   12  A    between atoms: C16_28  and  N4_30 
REMARK       I    between atoms: N4_30  and  C18_32 
REMARK       I    between atoms: C18_32  and  N5_34 
REMARK   13  A    between atoms: N5_34  and  C19_36 
REMARK   14  A    between atoms: N6_40  and  C23_42 
REMARK   15  A    between atoms: C23_42  and  C25_44 
REMARK   16  A    between atoms: C25_44  and  C26_45 
ROOT
HETATM    1  C14 UNL     1       0.180   1.004   0.691  1.00  0.00     0.156 C 
ENDROOT
BRANCH   1   2
HETATM    2  C13 UNL     1      -0.437  -0.298   0.612  1.00  0.00     0.184 C 
BRANCH   2   3
HETATM    3  N2  UNL     1      -1.584  -0.853   1.237  1.00  0.00    -0.347 N 
HETATM    4  C4  UNL     1      -2.017  -2.194   0.785  1.00  0.00     0.162 C 
HETATM    5  C5  UNL     1      -3.401  -2.565   1.096  1.00  0.00     0.043 C 
HETATM    6  C6  UNL     1      -4.116  -1.810   2.161  1.00  0.00    -0.037 C 
HETATM    7  C7  UNL     1      -3.873  -2.357   3.547  1.00  0.00     0.010 C 
HETATM    8  C10 UNL     1      -5.610  -1.905   1.945  1.00  0.00     0.010 C 
HETATM    9  C11 UNL     1      -3.744  -0.343   2.164  1.00  0.00     0.029 C 
HETATM   10  C8  UNL     1      -5.028  -3.329   3.739  1.00  0.00     0.001 C 
HETATM   11  C9  UNL     1      -6.182  -2.545   3.207  1.00  0.00     0.001 C 
HETATM   12  C12 UNL     1      -2.275  -0.259   2.342  1.00  0.00     0.127 C 
BRANCH   4  13
HETATM   13  C3  UNL     1      -0.997  -3.156   1.231  1.00  0.00     0.140 C 
BRANCH  13  14
HETATM   14  N1  UNL     1      -0.762  -4.452   0.753  1.00  0.00    -0.324 N 
ATOM     15  H1  UNL     1      -0.016  -4.941   1.247  1.00  0.00     0.169 HD
BRANCH  14  16
HETATM   16  C2  UNL     1      -1.344  -5.202  -0.260  1.00  0.00     0.112 C 
HETATM   17  C1  UNL     1      -2.428  -4.899  -1.189  1.00  0.00     0.097 C 
BRANCH  16  18
HETATM   18  O1  UNL     1      -0.837  -6.399  -0.423  1.00  0.00    -0.350 OA
ATOM     19  H1  UNL     1      -0.131  -6.596   0.182  1.00  0.00     0.219 HD
ENDBRANCH  16  18
ENDBRANCH  14  16
ENDBRANCH  13  14
BRANCH  13  20
HETATM   20  O2  UNL     1      -0.200  -2.772   2.191  1.00  0.00    -0.348 OA
ATOM     21  H2  UNL     1      -0.359  -1.893   2.515  1.00  0.00     0.219 HD
ENDBRANCH  13  20
ENDBRANCH   4  13
ENDBRANCH   2   3
BRANCH   2  22
HETATM   22  O3  UNL     1       0.164  -1.173  -0.178  1.00  0.00    -0.343 OA
ATOM     23  H3  UNL     1       0.932  -0.801  -0.596  1.00  0.00     0.219 HD
ENDBRANCH   2  22
ENDBRANCH   1   2
BRANCH   1  24
HETATM   24  N3  UNL     1       1.611   0.928   1.017  1.00  0.00    -0.308 N 
HETATM   25  C15 UNL     1       2.634   0.597   0.110  1.00  0.00     0.245 C 
HETATM   26  O4  UNL     1       2.427   0.315  -1.077  1.00  0.00    -0.271 OA
ATOM     27  H3  UNL     1       1.884   1.132   1.978  1.00  0.00     0.170 HD
BRANCH  25  28
HETATM   28  C16 UNL     1       4.044   0.587   0.618  1.00  0.00     0.174 C 
HETATM   29  C17 UNL     1       4.082   0.725   2.110  1.00  0.00     0.042 C 
BRANCH  28  30
HETATM   30  N4  UNL     1       4.817  -0.525   0.202  1.00  0.00    -0.330 N 
HETATM   31  C18 UNL     1       5.761  -0.518  -0.859  1.00  0.00     0.317 C 
HETATM   32  O5  UNL     1       5.950   0.504  -1.549  1.00  0.00    -0.247 OA
HETATM   33  N5  UNL     1       6.491  -1.707  -1.114  1.00  0.00    -0.335 N 
ATOM     34  H5  UNL     1       6.325  -2.522  -0.524  1.00  0.00     0.165 HD
ATOM     35  H4  UNL     1       4.685  -1.402   0.706  1.00  0.00     0.165 HD
BRANCH  33  36
HETATM   36  C19 UNL     1       7.449  -1.803  -2.167  1.00  0.00     0.023 C 
HETATM   37  C20 UNL     1       8.165  -3.153  -2.081  1.00  0.00     0.037 C 
HETATM   38  C21 UNL     1       6.697  -1.851  -3.516  1.00  0.00     0.037 C 
HETATM   39  C22 UNL     1       8.426  -0.683  -2.146  1.00  0.00     0.037 C 
ENDBRANCH  33  36
ENDBRANCH  28  30
ENDBRANCH  25  28
ENDBRANCH   1  24
BRANCH   1  40
HETATM   40  N6  UNL     1      -0.378   2.197   1.038  1.00  0.00    -0.368 N 
ATOM     41  H6  UNL     1      -0.169   2.545   1.974  1.00  0.00     0.161 HD
BRANCH  40  42
HETATM   42  C23 UNL     1      -1.208   2.993   0.244  1.00  0.00     0.084 C 
HETATM   43  C24 UNL     1      -2.465   2.388  -0.203  1.00  0.00     0.032 C 
BRANCH  42  44
HETATM   44  C25 UNL     1      -0.465   3.715  -0.878  1.00  0.00     0.082 C 
BRANCH  44  45
HETATM   45  C26 UNL     1      -1.463   4.535  -1.647  1.00  0.00     0.017 A 
HETATM   46  N7  UNL     1      -1.968   4.232  -2.877  1.00  0.00    -0.363 N 
HETATM   47  C27 UNL     1      -2.822   5.194  -3.252  1.00  0.00     0.006 A 
ATOM     48  H7  UNL     1      -1.733   3.404  -3.425  1.00  0.00     0.165 HD
HETATM   49  C28 UNL     1      -3.623   5.305  -4.509  1.00  0.00     0.068 C 
HETATM   50  C29 UNL     1      -2.888   6.162  -2.247  1.00  0.00     0.033 A 
HETATM   51  C30 UNL     1      -2.035   5.724  -1.269  1.00  0.00    -0.037 A 
HETATM   52  C31 UNL     1      -1.736   6.420   0.040  1.00  0.00     0.050 C 
ENDBRANCH  44  45
ENDBRANCH  42  44
ENDBRANCH  40  42
ENDBRANCH   1  40
TORSDOF 16
