REMARK  8 active torsions:
REMARK  status: ('A' for Active; 'I' for Inactive)
REMARK    1  A    between atoms: C2_2  and  N1_3 
REMARK    2  A    between atoms: N1_3  and  S1_5 
REMARK    3  A    between atoms: S1_5  and  N2_8 
REMARK    4  A    between atoms: N2_8  and  C3_9 
REMARK    5  A    between atoms: N2_8  and  C12_21 
REMARK    6  A    between atoms: C3_9  and  C4_10 
REMARK       I    between atoms: C4_10  and  N3_12 
REMARK    7  A    between atoms: N3_12  and  C5_14 
REMARK    8  A    between atoms: C5_14  and  C6_15 
ROOT
HETATM    1  N2  UNL     1      -1.449  -0.100   0.824  1.00  0.00    -0.249 N 
ENDROOT
BRANCH   1   2
HETATM    2  S1  UNL     1      -1.990   1.209   1.803  1.00  0.00     0.322 S 
HETATM    3  O1  UNL     1      -3.275   0.848   2.515  1.00  0.00    -0.182 OA
HETATM    4  O2  UNL     1      -0.955   1.389   2.910  1.00  0.00    -0.182 OA
BRANCH   2   5
HETATM    5  N1  UNL     1      -2.117   2.708   1.017  1.00  0.00    -0.303 N 
ATOM      6  H1  UNL     1      -1.310   3.275   0.758  1.00  0.00     0.173 HD
BRANCH   5   7
HETATM    7  C2  UNL     1      -3.484   3.102   0.751  1.00  0.00     0.129 C 
HETATM    8  C1  UNL     1      -3.588   4.421   0.058  1.00  0.00     0.027 C 
ENDBRANCH   5   7
ENDBRANCH   2   5
ENDBRANCH   1   2
BRANCH   1   9
HETATM    9  C3  UNL     1      -0.036  -0.337   0.763  1.00  0.00     0.246 C 
BRANCH   9  10
HETATM   10  C4  UNL     1       0.796   0.657   0.104  1.00  0.00     0.236 C 
HETATM   11  O3  UNL     1       0.350   1.707  -0.376  1.00  0.00    -0.272 OA
HETATM   12  N3  UNL     1       2.194   0.430  -0.003  1.00  0.00    -0.359 N 
ATOM     13  H3  UNL     1       2.587  -0.427   0.385  1.00  0.00     0.162 HD
BRANCH  12  14
HETATM   14  C5  UNL     1       3.082   1.384  -0.650  1.00  0.00     0.127 C 
BRANCH  14  15
HETATM   15  C6  UNL     1       4.477   0.822  -0.581  1.00  0.00     0.003 C 
HETATM   16  C7  UNL     1       4.866   0.631   0.868  1.00  0.00     0.006 C 
HETATM   17  C8  UNL     1       6.362   0.524   0.979  1.00  0.00     0.000 C 
HETATM   18  C9  UNL     1       6.929  -0.065  -0.308  1.00  0.00     0.000 C 
HETATM   19  C10 UNL     1       6.763   0.941  -1.418  1.00  0.00     0.000 C 
HETATM   20  C11 UNL     1       5.497   1.745  -1.201  1.00  0.00     0.006 C 
ENDBRANCH  14  15
ENDBRANCH  12  14
ENDBRANCH   9  10
ENDBRANCH   1   9
BRANCH   1  21
HETATM   21  C12 UNL     1      -2.360  -0.992   0.160  1.00  0.00     0.059 A 
HETATM   22  C13 UNL     1      -2.807  -0.813  -1.103  1.00  0.00    -0.033 A 
HETATM   23  C14 UNL     1      -2.420   0.305  -1.990  1.00  0.00     0.050 C 
HETATM   24  C15 UNL     1      -3.681  -1.743  -1.677  1.00  0.00     0.016 A 
HETATM   25  C16 UNL     1      -4.126  -2.863  -1.009  1.00  0.00    -0.055 A 
HETATM   26  C17 UNL     1      -5.048  -3.826  -1.639  1.00  0.00     0.049 C 
HETATM   27  C18 UNL     1      -3.659  -3.029   0.278  1.00  0.00    -0.048 A 
HETATM   28  C19 UNL     1      -4.126  -4.235   1.022  1.00  0.00     0.049 C 
HETATM   29  C20 UNL     1      -2.799  -2.133   0.871  1.00  0.00    -0.027 A 
HETATM   30  C21 UNL     1      -2.320  -2.340   2.245  1.00  0.00     0.051 C 
ENDBRANCH   1  21
TORSDOF 8
