REMARK  8 active torsions:
REMARK  status: ('A' for Active; 'I' for Inactive)
REMARK    1  A    between atoms: C2_2  and  C3_3 
REMARK    2  A    between atoms: C2_2  and  N2_16 
REMARK       I    between atoms: C3_3  and  N1_5 
REMARK    3  A    between atoms: N1_5  and  C4_7 
REMARK    4  A    between atoms: N2_16  and  C13_17 
REMARK       I    between atoms: N2_16  and  C20_24 
REMARK    5  A    between atoms: C13_17  and  C14_18 
REMARK    6  A    between atoms: C20_24  and  C21_26 
REMARK    7  A    between atoms: C21_26  and  C22_27 
REMARK    8  A    between atoms: C22_27  and  C23_28 
ROOT
HETATM    1  C1  UNL     1      -1.061   0.480  -1.791  1.00  0.00     0.042 C 
HETATM    2  C2  UNL     1      -0.898  -0.084  -0.435  1.00  0.00     0.175 C 
ENDROOT
BRANCH   2   3
HETATM    3  C3  UNL     1       0.492   0.164   0.109  1.00  0.00     0.240 C 
HETATM    4  O1  UNL     1       0.651   0.540   1.295  1.00  0.00    -0.271 OA
HETATM    5  N1  UNL     1       1.637  -0.021  -0.699  1.00  0.00    -0.354 N 
ATOM      6  H1  UNL     1       1.542  -0.326  -1.668  1.00  0.00     0.162 HD
BRANCH   5   7
HETATM    7  C4  UNL     1       2.936   0.226  -0.138  1.00  0.00     0.093 C 
HETATM    8  C5  UNL     1       3.604   1.267  -1.011  1.00  0.00     0.026 C 
HETATM    9  C6  UNL     1       4.978   1.624  -0.578  1.00  0.00     0.002 C 
HETATM   10  C7  UNL     1       5.784   0.582   0.066  1.00  0.00     0.001 C 
HETATM   11  C8  UNL     1       5.090  -0.624   0.562  1.00  0.00     0.011 C 
HETATM   12  C9  UNL     1       3.831  -0.983  -0.157  1.00  0.00    -0.020 C 
HETATM   13  C10 UNL     1       3.254  -2.255   0.357  1.00  0.00     0.011 C 
HETATM   14  C12 UNL     1       4.006  -1.638  -1.505  1.00  0.00     0.011 C 
HETATM   15  C11 UNL     1       3.991  -2.986  -0.774  1.00  0.00     0.002 C 
ENDBRANCH   5   7
ENDBRANCH   2   3
BRANCH   2  16
HETATM   16  N2  UNL     1      -1.872   0.354   0.536  1.00  0.00    -0.339 N 
HETATM   17  C20 UNL     1      -2.134   1.746   0.789  1.00  0.00     0.221 C 
HETATM   18  O2  UNL     1      -2.999   2.001   1.701  1.00  0.00    -0.273 OA
BRANCH  16  19
HETATM   19  C13 UNL     1      -2.584  -0.590   1.367  1.00  0.00     0.131 C 
BRANCH  19  20
HETATM   20  C14 UNL     1      -3.922  -1.025   0.959  1.00  0.00     0.004 C 
HETATM   21  C15 UNL     1      -4.469  -2.001   2.006  1.00  0.00     0.006 C 
HETATM   22  C16 UNL     1      -4.025  -3.411   1.746  1.00  0.00     0.000 C 
HETATM   23  C17 UNL     1      -4.353  -3.860   0.321  1.00  0.00     0.000 C 
HETATM   24  C18 UNL     1      -3.491  -2.968  -0.583  1.00  0.00     0.000 C 
HETATM   25  C19 UNL     1      -4.080  -1.563  -0.412  1.00  0.00     0.006 C 
ENDBRANCH  19  20
ENDBRANCH  16  19
BRANCH  17  26
HETATM   26  C21 UNL     1      -1.485   2.865   0.075  1.00  0.00     0.112 C 
BRANCH  26  27
HETATM   27  C22 UNL     1      -1.889   4.157   0.765  1.00  0.00     0.109 C 
BRANCH  27  28
HETATM   28  C23 UNL     1      -1.278   5.330   0.108  1.00  0.00     0.231 C 
HETATM   29  N3  UNL     1      -1.473   6.659   0.528  1.00  0.00    -0.062 NA
HETATM   30  O3  UNL     1      -0.541   5.130  -0.885  1.00  0.00    -0.277 OA
ENDBRANCH  27  28
ENDBRANCH  26  27
ENDBRANCH  17  26
ENDBRANCH   2  16
TORSDOF 8
