REMARK  14 active torsions:
REMARK  status: ('A' for Active; 'I' for Inactive)
REMARK    1  A    between atoms: C2_2  and  C3_3 
REMARK    2  A    between atoms: C3_3  and  C4_4 
REMARK    3  A    between atoms: C6_9  and  C7_10 
REMARK    4  A    between atoms: C7_10  and  C8_11 
REMARK    5  A    between atoms: C12_18  and  C13_19 
REMARK    6  A    between atoms: C19_28  and  O4_29 
REMARK    7  A    between atoms: C20_33  and  C21_34 
REMARK    8  A    between atoms: C21_34  and  C22_35 
REMARK    9  A    between atoms: C22_35  and  C23_36 
REMARK   10  A    between atoms: C23_36  and  C24_37 
REMARK   11  A    between atoms: C24_37  and  N5_38 
REMARK   12  A    between atoms: C31_46  and  C32_47 
REMARK   13  A    between atoms: C32_47  and  C33_48 
REMARK   14  A    between atoms: C36_53  and  O6_54 
ROOT
HETATM    1  C4  UNL     1      -1.938  -2.851   0.623  1.00  0.00     0.159 C 
HETATM    2  N1  UNL     1      -2.404  -2.066  -0.481  1.00  0.00    -0.344 N 
ATOM      3  H1  UNL     1      -2.441  -2.521  -1.393  1.00  0.00     0.163 HD
HETATM    4  C5  UNL     1      -2.817  -0.715  -0.417  1.00  0.00     0.264 C 
HETATM    5  O1  UNL     1      -2.713  -0.077  -1.528  1.00  0.00    -0.266 OA
HETATM    6  C6  UNL     1      -3.330   0.013   0.744  1.00  0.00     0.080 C 
HETATM    7  N2  UNL     1      -2.357   0.664   1.579  1.00  0.00    -0.324 N 
ATOM      8  H2  UNL     1      -1.838   0.000   2.154  1.00  0.00     0.169 HD
HETATM    9  C11 UNL     1      -1.953   1.964   1.794  1.00  0.00     0.245 C 
HETATM   10  O2  UNL     1      -2.223   2.471   2.952  1.00  0.00    -0.271 OA
HETATM   11  C12 UNL     1      -1.233   2.938   0.915  1.00  0.00     0.180 C 
HETATM   12  N3  UNL     1      -0.548   2.317  -0.167  1.00  0.00    -0.347 N 
ATOM     13  H3  UNL     1      -0.526   1.304  -0.047  1.00  0.00     0.163 HD
HETATM   14  C16 UNL     1       0.090   2.682  -1.322  1.00  0.00     0.218 C 
HETATM   15  O3  UNL     1      -0.566   2.530  -2.434  1.00  0.00    -0.274 OA
HETATM   16  C17 UNL     1       1.448   3.240  -1.602  1.00  0.00     0.111 C 
HETATM   17  C18 UNL     1       2.153   2.403  -2.667  1.00  0.00     0.093 C 
HETATM   18  C19 UNL     1       3.248   1.557  -2.218  1.00  0.00     0.116 C 
HETATM   19  N4  UNL     1       3.362   0.332  -1.569  1.00  0.00    -0.341 N 
ATOM     20  H4  UNL     1       4.288  -0.080  -1.686  1.00  0.00     0.167 HD
HETATM   21  C20 UNL     1       2.505  -0.489  -0.781  1.00  0.00     0.059 C 
HETATM   22  C30 UNL     1       1.379  -1.149  -1.439  1.00  0.00     0.194 C 
HETATM   23  O5  UNL     1       0.746  -0.602  -2.305  1.00  0.00    -0.289 OA
HETATM   24  C31 UNL     1       0.881  -2.545  -1.139  1.00  0.00     0.160 C 
HETATM   25  N6  UNL     1       0.639  -2.799   0.241  1.00  0.00    -0.361 N 
ATOM     26  H6  UNL     1       1.468  -3.057   0.776  1.00  0.00     0.162 HD
HETATM   27  C36 UNL     1      -0.541  -2.755   0.987  1.00  0.00     0.135 C 
ENDROOT
BRANCH  21  28
HETATM   28  C21 UNL     1       2.296  -0.085   0.663  1.00  0.00     0.061 C 
BRANCH  28  29
HETATM   29  C22 UNL     1       3.526  -0.089   1.509  1.00  0.00     0.008 C 
BRANCH  29  30
HETATM   30  C23 UNL     1       4.558   0.926   1.279  1.00  0.00     0.021 C 
BRANCH  30  31
HETATM   31  C24 UNL     1       4.095   2.339   1.666  1.00  0.00     0.128 C 
BRANCH  31  32
HETATM   32  N5  UNL     1       5.105   3.340   1.468  1.00  0.00    -0.366 N 
HETATM   33  C25 UNL     1       6.018   3.566   2.460  1.00  0.00     0.090 A 
HETATM   34  C26 UNL     1       6.998   4.526   2.357  1.00  0.00     0.017 A 
HETATM   35  C27 UNL     1       7.099   5.311   1.229  1.00  0.00     0.003 A 
HETATM   36  C28 UNL     1       6.178   5.090   0.217  1.00  0.00     0.017 A 
HETATM   37  C29 UNL     1       5.221   4.108   0.390  1.00  0.00     0.090 A 
ENDBRANCH  31  32
ENDBRANCH  30  31
ENDBRANCH  29  30
ENDBRANCH  28  29
ENDBRANCH  21  28
BRANCH  18  38
HETATM   38  O4  UNL     1       4.418   2.102  -2.507  1.00  0.00    -0.349 OA
ATOM     39  H4  UNL     1       5.133   1.550  -2.214  1.00  0.00     0.219 HD
ENDBRANCH  18  38
BRANCH  24  40
HETATM   40  C32 UNL     1       1.887  -3.459  -1.756  1.00  0.00     0.037 C 
BRANCH  40  41
HETATM   41  C33 UNL     1       1.655  -4.921  -1.655  1.00  0.00    -0.020 C 
HETATM   42  C34 UNL     1       0.398  -5.425  -2.288  1.00  0.00     0.009 C 
HETATM   43  C35 UNL     1       1.845  -5.491  -0.268  1.00  0.00     0.009 C 
ENDBRANCH  40  41
ENDBRANCH  24  40
BRANCH  27  44
HETATM   44  O6  UNL     1      -0.311  -2.596   2.261  1.00  0.00    -0.348 OA
ATOM     45  H6  UNL     1       0.606  -2.533   2.500  1.00  0.00     0.219 HD
ENDBRANCH  27  44
BRANCH   1  46
HETATM   46  C3  UNL     1      -2.405  -4.302   0.478  1.00  0.00     0.033 C 
BRANCH  46  47
HETATM   47  C2  UNL     1      -3.920  -4.377   0.445  1.00  0.00    -0.002 C 
HETATM   48  C1  UNL     1      -4.294  -5.835   0.295  1.00  0.00     0.005 C 
ENDBRANCH  46  47
ENDBRANCH   1  46
BRANCH  11  49
HETATM   49  C13 UNL     1      -2.161   4.055   0.621  1.00  0.00     0.009 C 
HETATM   50  C14 UNL     1      -1.558   5.127  -0.263  1.00  0.00     0.012 C 
HETATM   51  C15 UNL     1      -2.649   4.738   1.861  1.00  0.00     0.012 C 
ENDBRANCH  11  49
BRANCH   6  52
HETATM   52  C7  UNL     1      -4.542   0.818   0.408  1.00  0.00     0.067 C 
BRANCH  52  53
HETATM   53  C8  UNL     1      -5.739   0.089  -0.061  1.00  0.00    -0.017 C 
HETATM   54  C9  UNL     1      -6.264  -0.919   0.941  1.00  0.00     0.010 C 
HETATM   55  C10 UNL     1      -5.730  -0.519  -1.407  1.00  0.00     0.010 C 
ENDBRANCH  52  53
ENDBRANCH   6  52
TORSDOF 14
