REMARK  3 active torsions:
REMARK  status: ('A' for Active; 'I' for Inactive)
REMARK    1  A    between atoms: C1_2  and  C2_3 
REMARK       I    between atoms: C1_2  and  N3_14 
REMARK    2  A    between atoms: C2_3  and  N1_4 
REMARK    3  A    between atoms: N3_14  and  C7_16 
ROOT
HETATM    1  O1  UNL     1       0.769  -1.461   0.882  1.00  0.00    -0.272 OA
HETATM    2  C1  UNL     1       0.997  -0.535   0.089  1.00  0.00     0.235 C 
HETATM    3  N3  UNL     1      -0.078   0.191  -0.438  1.00  0.00    -0.354 N 
ATOM      4  H3  UNL     1       0.141   0.947  -1.087  1.00  0.00     0.162 HD
ENDROOT
BRANCH   2   5
HETATM    5  C2  UNL     1       2.385  -0.229  -0.270  1.00  0.00     0.220 C 
BRANCH   5   6
HETATM    6  N1  UNL     1       3.334  -1.082   0.377  1.00  0.00    -0.396 N 
HETATM    7  C3  UNL     1       3.432  -0.889   1.780  1.00  0.00     0.145 C 
HETATM    8  C4  UNL     1       4.827  -0.552   2.183  1.00  0.00     0.257 C 
HETATM    9  N2  UNL     1       5.569   0.213   1.227  1.00  0.00    -0.021 N 
HETATM   10  C5  UNL     1       5.661  -0.406  -0.065  1.00  0.00     0.356 C 
ATOM     11  H22 UNL     1       5.188   1.156   1.147  1.00  0.00     0.282 HD
ATOM     12  H21 UNL     1       6.498   0.434   1.586  1.00  0.00     0.282 HD
HETATM   13  F1  UNL     1       6.842  -1.126  -0.107  1.00  0.00    -0.191 F 
HETATM   14 CL1  UNL     1       5.772   0.801  -1.372  1.00  0.00    -0.051 Cl
HETATM   15  C6  UNL     1       4.528  -1.369  -0.327  1.00  0.00     0.209 C 
ENDBRANCH   5   6
ENDBRANCH   2   5
BRANCH   3  16
HETATM   16  C7  UNL     1      -1.469  -0.041  -0.140  1.00  0.00     0.092 C 
HETATM   17  C8  UNL     1      -2.156   1.079   0.579  1.00  0.00     0.009 C 
HETATM   18  C9  UNL     1      -3.364   0.434   1.282  1.00  0.00     0.011 C 
HETATM   19  C13 UNL     1      -2.734   2.129  -0.321  1.00  0.00     0.011 C 
HETATM   20  C10 UNL     1      -4.254  -0.180   0.234  1.00  0.00    -0.013 C 
HETATM   21  C11 UNL     1      -4.802   0.903  -0.680  1.00  0.00     0.009 C 
HETATM   22  C16 UNL     1      -3.538  -1.171  -0.658  1.00  0.00     0.011 C 
HETATM   23  C12 UNL     1      -3.642   1.531  -1.393  1.00  0.00    -0.013 C 
HETATM   24  C14 UNL     1      -2.810   0.572  -2.182  1.00  0.00     0.011 C 
HETATM   25  C15 UNL     1      -2.296  -0.519  -1.286  1.00  0.00     0.009 C 
ENDBRANCH   3  16
TORSDOF 3
