REMARK  6 active torsions:
REMARK  status: ('A' for Active; 'I' for Inactive)
REMARK    1  A    between atoms: C1_4  and  C2_6 
REMARK    2  A    between atoms: C6_12  and  C7_13 
REMARK    3  A    between atoms: C12_18  and  O1_19 
REMARK    4  A    between atoms: O1_19  and  C13_20 
REMARK    5  A    between atoms: C13_20  and  C14_21 
REMARK    6  A    between atoms: C17_24  and  C18_25 
ROOT
HETATM    1  C7  UNL     1      -1.329  -1.671   1.225  1.00  0.00     0.041 A 
HETATM    2  C8  UNL     1      -1.344  -2.083   2.572  1.00  0.00     0.018 A 
HETATM    3  C9  UNL     1      -0.299  -2.773   3.133  1.00  0.00     0.001 A 
HETATM    4  C10 UNL     1       0.797  -3.074   2.365  1.00  0.00     0.003 A 
HETATM    5  C11 UNL     1       0.809  -2.671   1.048  1.00  0.00     0.038 A 
HETATM    6  C12 UNL     1      -0.249  -1.965   0.459  1.00  0.00     0.083 A 
ENDROOT
BRANCH   1   7
HETATM    7  C6  UNL     1      -2.481  -0.947   0.718  1.00  0.00     0.119 A 
HETATM    8  N3  UNL     1      -2.713  -0.455  -0.494  1.00  0.00    -0.340 N 
HETATM    9  C5  UNL     1      -3.938   0.165  -0.557  1.00  0.00     0.060 A 
ATOM     10  H3  UNL     1      -2.065  -0.528  -1.278  1.00  0.00     0.167 HD
HETATM   11  C4  UNL     1      -4.631   0.815  -1.556  1.00  0.00     0.033 A 
HETATM   12  C26 UNL     1      -4.484   0.040   0.698  1.00  0.00     0.061 A 
HETATM   13  C3  UNL     1      -5.878   1.361  -1.351  1.00  0.00     0.017 A 
HETATM   14  C2  UNL     1      -6.432   1.237  -0.084  1.00  0.00     0.007 A 
HETATM   15  C27 UNL     1      -5.733   0.586   0.907  1.00  0.00     0.046 A 
HETATM   16  N4  UNL     1      -3.597  -0.627   1.445  1.00  0.00    -0.340 N 
ATOM     17  H4  UNL     1      -3.734  -0.866   2.427  1.00  0.00     0.167 HD
BRANCH  14  18
HETATM   18  C1  UNL     1      -7.758   1.813   0.146  1.00  0.00     0.120 C 
HETATM   19  N1  UNL     1      -8.363   1.759   1.273  1.00  0.00    -0.387 N 
ATOM     20  H12 UNL     1      -9.287   2.160   1.433  1.00  0.00     0.157 HD
ATOM     21  H11 UNL     1      -7.870   1.285   2.030  1.00  0.00     0.157 HD
HETATM   22  N2  UNL     1      -8.447   2.475  -0.911  1.00  0.00    -0.082 NA
ENDBRANCH  14  18
ENDBRANCH   1   7
BRANCH   6  23
HETATM   23  O1  UNL     1      -0.178  -1.596  -0.846  1.00  0.00    -0.346 OA
BRANCH  23  24
HETATM   24  C13 UNL     1       0.803  -1.772  -1.796  1.00  0.00     0.214 C 
BRANCH  24  25
HETATM   25  C14 UNL     1       2.045  -1.076  -1.365  1.00  0.00    -0.034 A 
HETATM   26  C15 UNL     1       2.006   0.010  -0.500  1.00  0.00     0.010 A 
HETATM   27  C16 UNL     1       3.129   0.678  -0.078  1.00  0.00     0.013 A 
HETATM   28  C17 UNL     1       4.374   0.270  -0.521  1.00  0.00    -0.026 A 
HETATM   29  C24 UNL     1       4.433  -0.808  -1.381  1.00  0.00     0.013 A 
HETATM   30  C25 UNL     1       3.302  -1.466  -1.795  1.00  0.00     0.010 A 
BRANCH  28  31
HETATM   31  C18 UNL     1       5.548   0.983  -0.067  1.00  0.00    -0.026 A 
HETATM   32  C19 UNL     1       6.744   0.324   0.081  1.00  0.00     0.012 A 
HETATM   33  C20 UNL     1       7.880   0.996   0.516  1.00  0.00     0.001 A 
HETATM   34  C21 UNL     1       7.792   2.331   0.795  1.00  0.00     0.000 A 
HETATM   35  C22 UNL     1       6.592   3.000   0.648  1.00  0.00     0.001 A 
HETATM   36  C23 UNL     1       5.475   2.318   0.216  1.00  0.00     0.012 A 
ENDBRANCH  28  31
ENDBRANCH  24  25
ENDBRANCH  23  24
ENDBRANCH   6  23
TORSDOF 6
