REMARK  8 active torsions:
REMARK  status: ('A' for Active; 'I' for Inactive)
REMARK    1  A    between atoms: N1_1  and  C1_5 
REMARK    2  A    between atoms: C1_5  and  C2_6 
REMARK    3  A    between atoms: C2_6  and  C3_7 
REMARK    4  A    between atoms: C3_7  and  N2_8 
REMARK    5  A    between atoms: N2_8  and  C4_10 
REMARK    6  A    between atoms: C5_16  and  N5_17 
REMARK    7  A    between atoms: N5_17  and  N6_19 
REMARK    8  A    between atoms: N6_19  and  O2_21 
ROOT
HETATM    1  C4  UNL     1      -1.207  -0.690  -0.171  1.00  0.00     0.171 A 
HETATM    2  N3  UNL     1      -0.835  -1.975  -0.299  1.00  0.00    -0.222 N 
ATOM      3  H3  UNL     1       0.090  -2.311  -0.566  1.00  0.00     0.198 HD
HETATM    4  O1  UNL     1      -1.858  -2.703  -0.023  1.00  0.00    -0.153 OA
HETATM    5  N4  UNL     1      -2.904  -2.010   0.285  1.00  0.00    -0.221 N 
ATOM      6  H4  UNL     1      -3.825  -2.368   0.539  1.00  0.00     0.198 HD
HETATM    7  C5  UNL     1      -2.532  -0.722   0.203  1.00  0.00     0.189 A 
ENDROOT
BRANCH   1   8
HETATM    8  N2  UNL     1      -0.507   0.371  -0.350  1.00  0.00    -0.372 N 
ATOM      9  H2  UNL     1      -0.918   1.295  -0.217  1.00  0.00     0.161 HD
BRANCH   8  10
HETATM   10  C3  UNL     1       0.881   0.227  -0.745  1.00  0.00     0.123 C 
BRANCH  10  11
HETATM   11  C2  UNL     1       1.702  -0.045   0.505  1.00  0.00     0.047 C 
BRANCH  11  12
HETATM   12  C1  UNL     1       3.143  -0.191   0.062  1.00  0.00     0.231 C 
BRANCH  12  13
HETATM   13  N1  UNL     1       3.613   0.997  -0.579  1.00  0.00    -0.079 N 
ATOM     14  H13 UNL     1       3.009   1.268  -1.355  1.00  0.00     0.274 HD
ATOM     15  H12 UNL     1       3.485   1.817   0.013  1.00  0.00     0.274 HD
ATOM     16  H11 UNL     1       4.583   0.899  -0.877  1.00  0.00     0.274 HD
ENDBRANCH  12  13
ENDBRANCH  11  12
ENDBRANCH  10  11
ENDBRANCH   8  10
ENDBRANCH   1   8
BRANCH   7  17
HETATM   17  N5  UNL     1      -3.315   0.276   0.442  1.00  0.00    -0.261 N 
ATOM     18  H5  UNL     1      -4.282   0.095   0.712  1.00  0.00     0.190 HD
BRANCH  17  19
HETATM   19  N6  UNL     1      -2.873   1.601   0.341  1.00  0.00    -0.208 N 
ATOM     20  H6  UNL     1      -2.099   1.951   0.906  1.00  0.00     0.215 HD
BRANCH  19  21
HETATM   21  O2  UNL     1      -3.523   2.396  -0.543  1.00  0.00    -0.274 OA
ATOM     22  H2  UNL     1      -3.223   3.295  -0.612  1.00  0.00     0.246 HD
ENDBRANCH  19  21
ENDBRANCH  17  19
ENDBRANCH   7  17
TORSDOF 8
