REMARK  15 active torsions:
REMARK  status: ('A' for Active; 'I' for Inactive)
REMARK    1  A    between atoms: C2_2  and  O2_4 
REMARK    2  A    between atoms: O2_4  and  C3_5 
REMARK    3  A    between atoms: C3_5  and  C4_6 
REMARK    4  A    between atoms: C3_5  and  C5_13 
REMARK    5  A    between atoms: C4_6  and  N1_7 
REMARK    6  A    between atoms: C4_6  and  O3_11 
REMARK    7  A    between atoms: C5_13  and  S1_14 
REMARK    8  A    between atoms: C5_13  and  C20_49 
REMARK    9  A    between atoms: S1_14  and  C6_15 
REMARK   10  A    between atoms: C8_18  and  N2_19 
REMARK       I    between atoms: N2_19  and  C9_21 
REMARK   11  A    between atoms: C9_21  and  C10_23 
REMARK   12  A    between atoms: N5_30  and  O6_31 
REMARK   13  A    between atoms: O6_31  and  S2_32 
REMARK   14  A    between atoms: S2_32  and  N6_35 
REMARK       I    between atoms: N6_35  and  C14_37 
REMARK   15  A    between atoms: C16_42  and  N8_43 
ROOT
HETATM    1  C6  UNL     1      -2.527   1.003  -0.560  1.00  0.00     0.079 C 
HETATM    2  C7  UNL     1      -1.548   0.112  -0.733  1.00  0.00     0.066 C 
HETATM    3  O4  UNL     1      -0.659  -0.430   0.160  1.00  0.00    -0.326 OA
HETATM    4  C8  UNL     1       0.109  -1.420  -0.393  1.00  0.00     0.260 C 
HETATM    5  C16 UNL     1      -0.445  -1.707  -1.741  1.00  0.00     0.219 C 
HETATM    6  C17 UNL     1      -1.256  -0.483  -2.072  1.00  0.00     0.033 C 
HETATM    7  C18 UNL     1      -0.489   0.550  -2.872  1.00  0.00     0.025 C 
HETATM    8  C19 UNL     1      -2.541  -0.839  -2.795  1.00  0.00     0.025 C 
ENDROOT
BRANCH   4   9
HETATM    9  N2  UNL     1       1.547  -1.169  -0.418  1.00  0.00    -0.328 N 
HETATM   10  C9  UNL     1       2.477  -2.096   0.080  1.00  0.00     0.261 C 
HETATM   11  O5  UNL     1       1.945  -3.169   0.546  1.00  0.00    -0.267 OA
ATOM     12  H2  UNL     1       1.888  -0.291  -0.810  1.00  0.00     0.165 HD
BRANCH  10  13
HETATM   13  C10 UNL     1       3.914  -2.016   0.134  1.00  0.00     0.124 A 
HETATM   14  C11 UNL     1       4.709  -3.140   0.338  1.00  0.00     0.029 A 
HETATM   15  C12 UNL     1       4.104  -4.475   0.467  1.00  0.00     0.069 C 
HETATM   16  N3  UNL     1       6.031  -3.002   0.406  1.00  0.00    -0.331 N 
HETATM   17  C13 UNL     1       6.681  -1.840   0.292  1.00  0.00     0.224 A 
ATOM     18  H3  UNL     1       6.588  -3.843   0.556  1.00  0.00     0.168 HD
HETATM   19  N4  UNL     1       8.095  -1.726   0.355  1.00  0.00    -0.061 NA
HETATM   20  N5  UNL     1       5.908  -0.743   0.093  1.00  0.00    -0.135 N 
HETATM   21  C15 UNL     1       4.562  -0.806   0.014  1.00  0.00     0.293 A 
HETATM   22  O10 UNL     1       3.950   0.291  -0.172  1.00  0.00    -0.264 OA
BRANCH  20  23
HETATM   23  O6  UNL     1       6.575   0.480  -0.016  1.00  0.00    -0.121 OA
BRANCH  23  24
HETATM   24  S2  UNL     1       6.919   1.270   1.472  1.00  0.00     0.386 S 
HETATM   25  O7  UNL     1       8.149   0.685   2.118  1.00  0.00    -0.173 OA
HETATM   26  O8  UNL     1       5.788   1.005   2.452  1.00  0.00    -0.173 OA
BRANCH  24  27
HETATM   27  N6  UNL     1       7.137   2.957   1.264  1.00  0.00    -0.214 N 
HETATM   28  C14 UNL     1       7.949   3.484   0.231  1.00  0.00     0.343 C 
HETATM   29  N7  UNL     1       8.091   4.880   0.114  1.00  0.00    -0.039 NA
HETATM   30  O9  UNL     1       8.520   2.693  -0.550  1.00  0.00    -0.250 OA
ATOM     31  H6  UNL     1       6.668   3.600   1.903  1.00  0.00     0.185 HD
ENDBRANCH  24  27
ENDBRANCH  23  24
ENDBRANCH  20  23
ENDBRANCH  10  13
ENDBRANCH   4   9
BRANCH   5  32
HETATM   32  N8  UNL     1      -1.307  -2.887  -1.752  1.00  0.00    -0.145 N 
HETATM   33  O11 UNL     1      -1.043  -3.858  -2.452  1.00  0.00    -0.536 OA
HETATM   34  O12 UNL     1      -2.417  -2.854  -0.946  1.00  0.00    -0.536 OA
ENDBRANCH   5  32
BRANCH   1  35
HETATM   35  S1  UNL     1      -2.912   1.740   1.020  1.00  0.00    -0.120 SA
BRANCH  35  36
HETATM   36  C5  UNL     1      -4.395   0.887   1.674  1.00  0.00     0.186 C 
BRANCH  36  37
HETATM   37  C3  UNL     1      -5.597   1.160   0.848  1.00  0.00     0.212 C 
BRANCH  37  38
HETATM   38  O2  UNL     1      -6.719   0.496   1.374  1.00  0.00    -0.310 OA
BRANCH  38  39
HETATM   39  C2  UNL     1      -7.359  -0.546   0.722  1.00  0.00     0.255 C 
HETATM   40  C1  UNL     1      -8.543  -1.231   1.299  1.00  0.00     0.126 C 
HETATM   41  O1  UNL     1      -6.926  -0.919  -0.385  1.00  0.00    -0.266 OA
ENDBRANCH  38  39
ENDBRANCH  37  38
BRANCH  37  42
HETATM   42  C4  UNL     1      -5.899   2.578   0.518  1.00  0.00     0.347 C 
BRANCH  42  43
HETATM   43  N1  UNL     1      -6.361   3.398   1.591  1.00  0.00    -0.051 N 
ATOM     44  H13 UNL     1      -7.176   2.966   2.026  1.00  0.00     0.277 HD
ATOM     45  H12 UNL     1      -5.695   3.360   2.363  1.00  0.00     0.277 HD
ATOM     46  H11 UNL     1      -6.568   4.371   1.365  1.00  0.00     0.277 HD
ENDBRANCH  42  43
BRANCH  42  47
HETATM   47  O3  UNL     1      -4.833   3.240  -0.082  1.00  0.00    -0.368 OA
ATOM     48  H3  UNL     1      -5.026   4.146  -0.293  1.00  0.00     0.212 HD
ENDBRANCH  42  47
ENDBRANCH  37  42
ENDBRANCH  36  37
BRANCH  36  49
HETATM   49  C20 UNL     1      -4.535   1.025   3.120  1.00  0.00     0.190 C 
HETATM   50  O13 UNL     1      -4.458   0.023   3.920  1.00  0.00    -0.647 OA
HETATM   51  O14 UNL     1      -4.763   2.234   3.757  1.00  0.00    -0.647 OA
ENDBRANCH  36  49
ENDBRANCH  35  36
ENDBRANCH   1  35
TORSDOF 15
