REMARK  17 active torsions:
REMARK  status: ('A' for Active; 'I' for Inactive)
REMARK    1  A    between atoms: S1_2  and  C2_5 
REMARK    2  A    between atoms: C3_10  and  C4_11 
REMARK    3  A    between atoms: C4_11  and  O3_12 
REMARK    4  A    between atoms: C4_11  and  C5_14 
REMARK    5  A    between atoms: C5_14  and  O5_16 
REMARK    6  A    between atoms: O5_16  and  C6_17 
REMARK    7  A    between atoms: C6_17  and  C7_18 
REMARK    8  A    between atoms: C8_19  and  C9_20 
REMARK    9  A    between atoms: C9_20  and  O6_21 
REMARK   10  A    between atoms: C9_20  and  C10_23 
REMARK   11  A    between atoms: C11_25  and  N3_26 
REMARK       I    between atoms: N3_26  and  C12_28 
REMARK   12  A    between atoms: C12_28  and  C13_30 
REMARK   13  A    between atoms: C13_30  and  N4_31 
REMARK   14  A    between atoms: C15_33  and  C16_34 
REMARK       I    between atoms: C16_34  and  N5_36 
REMARK   15  A    between atoms: N5_36  and  N6_38 
REMARK   16  A    between atoms: C17_41  and  N7_42 
REMARK   17  A    between atoms: C19_49  and  O11_50 
ROOT
HETATM    1  C10 UNL     1      -0.175  -0.236   0.519  1.00  0.00     0.216 C 
HETATM    2  O7  UNL     1      -1.426  -0.246  -0.190  1.00  0.00    -0.349 OA
HETATM    3  C11 UNL     1      -2.207  -0.619   0.894  1.00  0.00     0.256 C 
HETATM    4  C19 UNL     1      -1.060  -0.268   1.776  1.00  0.00     0.202 C 
ENDROOT
BRANCH   1   5
HETATM    5  C9  UNL     1       0.611  -1.431   0.271  1.00  0.00     0.109 C 
BRANCH   5   6
HETATM    6  C8  UNL     1       1.916  -1.912   0.597  1.00  0.00     0.115 C 
HETATM    7  C7  UNL     1       2.801  -1.268   1.319  1.00  0.00     0.038 C 
HETATM    8  S2  UNL     1       4.330  -2.220   1.682  1.00  0.00    -0.127 SA
HETATM    9  C21 UNL     1       4.779  -2.978   0.100  1.00  0.00     0.106 C 
HETATM   10  C20 UNL     1       3.515  -3.336  -0.637  1.00  0.00     0.186 C 
HETATM   11  O12 UNL     1       2.340  -3.201   0.114  1.00  0.00    -0.347 OA
BRANCH   7  12
HETATM   12  C6  UNL     1       2.652   0.030   1.919  1.00  0.00     0.227 C 
BRANCH  12  13
HETATM   13  O5  UNL     1       3.569   0.972   1.466  1.00  0.00    -0.314 OA
BRANCH  13  14
HETATM   14  C5  UNL     1       4.879   1.080   1.674  1.00  0.00     0.294 C 
HETATM   15  O4  UNL     1       5.521   0.281   2.389  1.00  0.00    -0.262 OA
BRANCH  14  16
HETATM   16  C4  UNL     1       5.679   2.213   1.034  1.00  0.00     0.275 C 
BRANCH  16  17
HETATM   17  C3  UNL     1       6.731   1.605   0.178  1.00  0.00     0.107 A 
HETATM   18  N2  UNL     1       7.131   0.341   0.238  1.00  0.00    -0.293 N 
HETATM   19  N1  UNL     1       8.035  -0.072  -0.540  1.00  0.00    -0.284 N 
ATOM     20  H2  UNL     1       6.708  -0.296   0.913  1.00  0.00     0.187 HD
HETATM   21  C2  UNL     1       8.585   0.761  -1.419  1.00  0.00     0.186 A 
ATOM     22  H1  UNL     1       8.343  -1.043  -0.495  1.00  0.00     0.188 HD
HETATM   23  S3  UNL     1       7.725   2.206  -1.072  1.00  0.00    -0.041 SA
BRANCH  21  24
HETATM   24  S1  UNL     1       9.846   0.448  -2.603  1.00  0.00     0.195 S 
HETATM   25  C1  UNL     1      11.396   0.787  -1.813  1.00  0.00     0.169 C 
HETATM   26  O1  UNL     1       9.848  -0.997  -3.002  1.00  0.00    -0.221 OA
HETATM   27  O2  UNL     1       9.598   1.308  -3.784  1.00  0.00    -0.221 OA
ENDBRANCH  21  24
ENDBRANCH  16  17
BRANCH  16  28
HETATM   28  O3  UNL     1       4.825   3.003   0.268  1.00  0.00    -0.379 OA
ATOM     29  H3  UNL     1       4.153   3.392   0.815  1.00  0.00     0.211 HD
ENDBRANCH  16  28
ENDBRANCH  14  16
ENDBRANCH  13  14
ENDBRANCH  12  13
ENDBRANCH   7  12
ENDBRANCH   5   6
BRANCH   5  30
HETATM   30  O6  UNL     1      -0.087  -2.297  -0.457  1.00  0.00    -0.359 OA
ATOM     31  H6  UNL     1      -0.955  -1.977  -0.674  1.00  0.00     0.217 HD
ENDBRANCH   5  30
ENDBRANCH   1   5
BRANCH   4  32
HETATM   32  O11 UNL     1      -1.132   0.920   2.458  1.00  0.00    -0.388 OA
ATOM     33  H11 UNL     1      -1.679   0.900   3.235  1.00  0.00     0.210 HD
ENDBRANCH   4  32
BRANCH   3  34
HETATM   34  N3  UNL     1      -3.371   0.236   1.018  1.00  0.00    -0.331 N 
HETATM   35  C12 UNL     1      -4.690  -0.248   1.103  1.00  0.00     0.238 C 
HETATM   36  O8  UNL     1      -4.833  -1.516   1.067  1.00  0.00    -0.272 OA
ATOM     37  H3  UNL     1      -3.226   1.245   1.045  1.00  0.00     0.165 HD
BRANCH  35  38
HETATM   38  C13 UNL     1      -5.888   0.583   1.227  1.00  0.00     0.235 C 
BRANCH  38  39
HETATM   39  N4  UNL     1      -6.519   0.913  -0.025  1.00  0.00    -0.300 N 
HETATM   40  C14 UNL     1      -7.487   0.147  -0.581  1.00  0.00     0.117 A 
HETATM   41  C15 UNL     1      -8.094   0.455  -1.771  1.00  0.00     0.092 A 
HETATM   42  C17 UNL     1      -7.710   1.598  -2.447  1.00  0.00     0.120 A 
HETATM   43  N8  UNL     1      -6.760   2.339  -1.890  1.00  0.00    -0.294 N 
HETATM   44  C18 UNL     1      -6.181   2.013  -0.719  1.00  0.00     0.328 A 
ATOM     45  H8  UNL     1      -6.457   3.188  -2.367  1.00  0.00     0.172 HD
HETATM   46  O10 UNL     1      -5.299   2.781  -0.287  1.00  0.00    -0.246 OA
BRANCH  41  47
HETATM   47  C16 UNL     1      -9.127  -0.370  -2.357  1.00  0.00     0.274 C 
HETATM   48  O9  UNL     1      -9.176  -0.559  -3.589  1.00  0.00    -0.266 OA
HETATM   49  N5  UNL     1     -10.099  -0.972  -1.527  1.00  0.00    -0.272 N 
ATOM     50  H5  UNL     1     -10.071  -0.825  -0.518  1.00  0.00     0.189 HD
BRANCH  49  51
HETATM   51  N6  UNL     1     -11.094  -1.765  -2.087  1.00  0.00    -0.342 N 
ATOM     52  H62 UNL     1     -11.108  -1.902  -3.098  1.00  0.00     0.176 HD
ATOM     53  H61 UNL     1     -11.796  -2.200  -1.488  1.00  0.00     0.176 HD
ENDBRANCH  49  51
ENDBRANCH  41  47
BRANCH  42  54
HETATM   54  N7  UNL     1      -8.226   1.955  -3.563  1.00  0.00    -0.385 N 
ATOM     55  H72 UNL     1      -8.956   1.386  -3.991  1.00  0.00     0.157 HD
ATOM     56  H71 UNL     1      -7.943   2.798  -4.062  1.00  0.00     0.157 HD
ENDBRANCH  42  54
ENDBRANCH  38  39
ENDBRANCH  35  38
ENDBRANCH   3  34
TORSDOF 17
