REMARK  1 active torsions:
REMARK  status: ('A' for Active; 'I' for Inactive)
REMARK    1  A    between atoms: C2_2  and  C3_3 
ROOT
HETATM    1  C3  UNL     1       0.626   0.548   0.291  1.00  0.00     0.408 C 
HETATM    2  N1  UNL     1       0.896   0.814  -1.129  1.00  0.00    -0.041 N 
ATOM      3  H11 UNL     1       1.177   0.007  -1.685  1.00  0.00     0.280 HD
ATOM      4  H12 UNL     1       1.741   1.350  -1.327  1.00  0.00     0.280 HD
HETATM    5  C4  UNL     1      -0.354   1.442  -1.516  1.00  0.00     0.263 C 
HETATM    6  C5  UNL     1      -1.393   0.740  -0.666  1.00  0.00     0.267 C 
HETATM    7  N2  UNL     1      -0.624  -0.116   0.247  1.00  0.00    -0.041 N 
HETATM    8  C6  UNL     1      -0.595  -1.426  -0.339  1.00  0.00     0.275 C 
HETATM    9  C7  UNL     1      -1.299  -0.207   1.518  1.00  0.00     0.275 C 
ENDROOT
BRANCH   1  10
HETATM   10  C2  UNL     1       1.723  -0.204   0.924  1.00  0.00     0.025 C 
HETATM   11  C1  UNL     1       2.519  -1.046   0.308  1.00  0.00     0.011 C 
ENDBRANCH   1  10
TORSDOF 1
