REMARK  1 active torsions:
REMARK  status: ('A' for Active; 'I' for Inactive)
REMARK    1  A    between atoms: C5_6  and  C6_7 
ROOT
HETATM    1  C1  UNL     1      -1.130  -0.645  -1.373  1.00  0.00     0.272 C 
HETATM    2  N1  UNL     1      -0.594  -0.104  -0.117  1.00  0.00    -0.066 N 
HETATM    3  C2  UNL     1      -1.301   1.036   0.328  1.00  0.00     0.272 C 
HETATM    4  C3  UNL     1      -0.541  -1.116   0.950  1.00  0.00     0.239 C 
HETATM    5  C4  UNL     1       0.804  -0.512   1.344  1.00  0.00     0.067 C 
HETATM    6  C5  UNL     1       0.822  -0.096  -0.116  1.00  0.00     0.228 C 
ENDROOT
BRANCH   6   7
HETATM    7  C6  UNL     1       1.525   1.145  -0.415  1.00  0.00     0.086 C 
HETATM    8  N2  UNL     1       2.737   1.083  -0.842  1.00  0.00    -0.409 N 
ATOM      9  H22 UNL     1       3.183   0.174  -0.964  1.00  0.00     0.155 HD
ATOM     10  H21 UNL     1       3.229   1.952  -1.051  1.00  0.00     0.155 HD
ENDBRANCH   6   7
TORSDOF 1
