REMARK  4 active torsions:
REMARK  status: ('A' for Active; 'I' for Inactive)
REMARK    1  A    between atoms: N1_1  and  C1_5 
REMARK    2  A    between atoms: C1_5  and  C2_6 
REMARK    3  A    between atoms: C2_6  and  N2_7 
REMARK    4  A    between atoms: C3_9  and  C4_10 
ROOT
HETATM    1  C4  UNL     1       0.060  -0.138  -0.467  1.00  0.00     0.048 A 
HETATM    2  C5  UNL     1       1.272  -0.417  -1.108  1.00  0.00     0.032 A 
HETATM    3  C6  UNL     1       2.420  -0.144  -0.394  1.00  0.00    -0.008 A 
HETATM    4  C7  UNL     1       3.664  -0.391  -0.956  1.00  0.00     0.014 A 
HETATM    5  C8  UNL     1       4.847  -0.139  -0.292  1.00  0.00     0.001 A 
HETATM    6  C9  UNL     1       4.798   0.386   0.998  1.00  0.00     0.002 A 
HETATM    7  C10 UNL     1       3.551   0.632   1.557  1.00  0.00     0.030 A 
HETATM    8  C11 UNL     1       2.380   0.376   0.884  1.00  0.00     0.045 A 
HETATM    9  N3  UNL     1       1.186   0.624   1.450  1.00  0.00    -0.322 N 
ATOM     10  H3  UNL     1       1.152   1.008   2.394  1.00  0.00     0.169 HD
HETATM   11  C12 UNL     1       0.027   0.375   0.793  1.00  0.00     0.257 A 
HETATM   12  O1  UNL     1      -1.090   0.612   1.334  1.00  0.00    -0.267 OA
ENDROOT
BRANCH   1  13
HETATM   13  C3  UNL     1      -1.177  -0.415  -1.195  1.00  0.00     0.100 C 
HETATM   14  N2  UNL     1      -2.296  -0.158  -0.604  1.00  0.00    -0.396 N 
ATOM     15  H2  UNL     1      -2.311   0.226   0.341  1.00  0.00     0.158 HD
BRANCH  14  16
HETATM   16  C2  UNL     1      -3.532  -0.428  -1.314  1.00  0.00     0.146 C 
BRANCH  16  17
HETATM   17  C1  UNL     1      -4.661  -0.479  -0.275  1.00  0.00     0.249 C 
BRANCH  17  18
HETATM   18  N1  UNL     1      -4.676   0.840   0.376  1.00  0.00    -0.078 N 
ATOM     19  H13 UNL     1      -3.774   1.110   0.769  1.00  0.00     0.274 HD
ATOM     20  H12 UNL     1      -4.762   1.616  -0.280  1.00  0.00     0.274 HD
ATOM     21  H11 UNL     1      -5.426   0.806   1.066  1.00  0.00     0.274 HD
ENDBRANCH  17  18
ENDBRANCH  16  17
ENDBRANCH  14  16
ENDBRANCH   1  13
TORSDOF 4
