REMARK  11 active torsions:
REMARK  status: ('A' for Active; 'I' for Inactive)
REMARK    1  A    between atoms: N1_2  and  C2_4 
REMARK    2  A    between atoms: N3_8  and  C4_10 
REMARK    3  A    between atoms: C4_10  and  C5_11 
REMARK    4  A    between atoms: C5_11  and  C6_12 
REMARK    5  A    between atoms: C6_12  and  O1_13 
REMARK    6  A    between atoms: O1_13  and  C7_14 
REMARK    7  A    between atoms: C7_14  and  C8_15 
REMARK    8  A    between atoms: C8_15  and  O2_16 
REMARK    9  A    between atoms: C9_20  and  N5_21 
REMARK   10  A    between atoms: N5_21  and  C10_23 
REMARK   11  A    between atoms: C10_23  and  C11_24 
ROOT
HETATM    1  C2  UNL     1      -1.837   1.068   0.834  1.00  0.00     0.706 A 
HETATM    2  N2  UNL     1      -0.747   0.367   1.272  1.00  0.00    -0.022 N 
ATOM      3  H2  UNL     1      -0.126   0.816   1.945  1.00  0.00     0.203 HD
HETATM    4  C3  UNL     1      -0.449  -0.870   0.870  1.00  0.00     0.707 A 
HETATM    5  N3  UNL     1       0.563  -1.535   1.271  1.00  0.00    -0.225 N 
ATOM      6  H3  UNL     1       0.689  -2.473   0.891  1.00  0.00     0.177 HD
HETATM    7  N4  UNL     1      -1.298  -1.454  -0.036  1.00  0.00    -0.022 N 
ATOM      8  H4  UNL     1      -1.102  -2.399  -0.368  1.00  0.00     0.203 HD
HETATM    9  C9  UNL     1      -2.382  -0.806  -0.495  1.00  0.00     0.707 A 
HETATM   10  N6  UNL     1      -2.629   0.441  -0.051  1.00  0.00    -0.022 N 
ATOM     11  H6  UNL     1      -3.453   0.930  -0.402  1.00  0.00     0.203 HD
ENDROOT
BRANCH   5  12
HETATM   12  C4  UNL     1       1.534  -1.070   2.209  1.00  0.00     0.140 C 
BRANCH  12  13
HETATM   13  C5  UNL     1       2.826  -0.607   1.574  1.00  0.00     0.046 C 
BRANCH  13  14
HETATM   14  C6  UNL     1       2.649   0.524   0.604  1.00  0.00     0.169 C 
BRANCH  14  15
HETATM   15  O1  UNL     1       3.855   0.913   0.060  1.00  0.00    -0.389 OA
BRANCH  15  16
HETATM   16  C7  UNL     1       4.534  -0.053  -0.637  1.00  0.00     0.193 C 
BRANCH  16  17
HETATM   17  C8  UNL     1       3.726  -0.577  -1.810  1.00  0.00     0.190 C 
BRANCH  17  18
HETATM   18  O2  UNL     1       4.465  -1.560  -2.487  1.00  0.00    -0.399 OA
ATOM     19  H2  UNL     1       3.959  -1.888  -3.221  1.00  0.00     0.209 HD
ENDBRANCH  17  18
ENDBRANCH  16  17
ENDBRANCH  15  16
ENDBRANCH  14  15
ENDBRANCH  13  14
ENDBRANCH  12  13
ENDBRANCH   5  12
BRANCH   1  20
HETATM   20  N1  UNL     1      -2.102   2.263   1.240  1.00  0.00    -0.229 N 
HETATM   21  C1  UNL     1      -1.189   2.859   2.197  1.00  0.00     0.165 C 
ATOM     22  H1  UNL     1      -2.921   2.769   0.902  1.00  0.00     0.177 HD
ENDBRANCH   1  20
BRANCH   9  23
HETATM   23  N5  UNL     1      -3.168  -1.378  -1.349  1.00  0.00    -0.215 N 
ATOM     24  H5  UNL     1      -2.978  -2.323  -1.684  1.00  0.00     0.178 HD
BRANCH  23  25
HETATM   25  C10 UNL     1      -4.309  -0.653  -1.811  1.00  0.00     0.251 C 
BRANCH  25  26
HETATM   26  C11 UNL     1      -5.157  -1.391  -2.746  1.00  0.00     0.191 C 
HETATM   27  O3  UNL     1      -4.905  -2.563  -3.112  1.00  0.00    -0.647 OA
HETATM   28  O4  UNL     1      -6.288  -0.770  -3.249  1.00  0.00    -0.647 OA
ENDBRANCH  25  26
ENDBRANCH  23  25
ENDBRANCH   9  23
TORSDOF 11
