REMARK  8 active torsions:
REMARK  status: ('A' for Active; 'I' for Inactive)
REMARK    1  A    between atoms: N1_2  and  C3_4 
REMARK    2  A    between atoms: C3_4  and  C4_5 
REMARK    3  A    between atoms: C4_5  and  C5_6 
REMARK    4  A    between atoms: C5_6  and  N2_7 
REMARK    5  A    between atoms: C7_12  and  C8_13 
REMARK    6  A    between atoms: C8_13  and  C11_16 
REMARK    7  A    between atoms: C11_16  and  N4_17 
REMARK    8  A    between atoms: C15_21  and  C16_22 
ROOT
HETATM    1  N2  UNL     1       1.643  -0.235  -0.005  1.00  0.00    -0.226 N 
ATOM      2  H2  UNL     1       2.119  -1.126  -0.146  1.00  0.00     0.177 HD
HETATM    3  C6  UNL     1       0.452  -0.509  -0.112  1.00  0.00     0.678 A 
HETATM    4  N3  UNL     1      -0.609   0.348  -0.012  1.00  0.00    -0.195 N 
ATOM      5  H3  UNL     1      -0.409   1.341   0.106  1.00  0.00     0.184 HD
HETATM    6  C7  UNL     1      -1.887  -0.029  -0.059  1.00  0.00     0.038 A 
HETATM    7  C14 UNL     1      -2.117  -1.408  -0.222  1.00  0.00     0.052 A 
HETATM    8  C15 UNL     1      -1.082  -2.322  -0.324  1.00  0.00     0.036 A 
HETATM    9  N5  UNL     1       0.147  -1.835  -0.267  1.00  0.00    -0.195 N 
ATOM     10  H5  UNL     1       0.922  -2.494  -0.344  1.00  0.00     0.184 HD
ENDROOT
BRANCH   1  11
HETATM   11  C5  UNL     1       2.653   0.656   0.207  1.00  0.00     0.140 C 
BRANCH  11  12
HETATM   12  C4  UNL     1       3.866  -0.154   0.753  1.00  0.00     0.050 C 
BRANCH  12  13
HETATM   13  C3  UNL     1       4.975   0.739   1.115  1.00  0.00     0.273 C 
BRANCH  13  14
HETATM   14  N1  UNL     1       5.459   1.531   0.022  1.00  0.00     0.080 N 
HETATM   15  C1  UNL     1       6.142   0.765  -0.989  1.00  0.00     0.309 C 
HETATM   16  C2  UNL     1       6.330   2.593   0.563  1.00  0.00     0.309 C 
ENDBRANCH  13  14
ENDBRANCH  12  13
ENDBRANCH  11  12
ENDBRANCH   1  11
BRANCH   6  17
HETATM   17  C8  UNL     1      -3.076   0.847   0.143  1.00  0.00     0.022 C 
HETATM   18  C9  UNL     1      -3.019   1.154   1.652  1.00  0.00     0.023 C 
HETATM   19  C10 UNL     1      -4.350   0.044   0.002  1.00  0.00     0.023 C 
BRANCH  17  20
HETATM   20  C11 UNL     1      -3.178   2.065  -0.669  1.00  0.00     0.286 C 
BRANCH  20  21
HETATM   21  N4  UNL     1      -2.259   3.115  -0.550  1.00  0.00     0.081 N 
HETATM   22  C12 UNL     1      -2.490   3.906   0.682  1.00  0.00     0.309 C 
HETATM   23  C13 UNL     1      -2.515   4.087  -1.631  1.00  0.00     0.309 C 
ENDBRANCH  20  21
ENDBRANCH  17  20
ENDBRANCH   6  17
BRANCH   8  24
HETATM   24  C16 UNL     1      -1.371  -3.794  -0.398  1.00  0.00    -0.008 C 
HETATM   25  C17 UNL     1      -1.099  -4.438  -1.698  1.00  0.00     0.021 C 
HETATM   26  C18 UNL     1      -0.460  -4.458   0.688  1.00  0.00     0.021 C 
HETATM   27  C19 UNL     1      -2.788  -4.007   0.054  1.00  0.00     0.021 C 
ENDBRANCH   8  24
TORSDOF 8
