REMARK  7 active torsions:
REMARK  status: ('A' for Active; 'I' for Inactive)
REMARK    1  A    between atoms: O1_2  and  C2_3 
REMARK    2  A    between atoms: C3_6  and  N2_7 
REMARK    3  A    between atoms: N2_7  and  C4_9 
REMARK    4  A    between atoms: C5_12  and  N4_13 
REMARK    5  A    between atoms: N4_13  and  C6_15 
REMARK    6  A    between atoms: C6_15  and  C7_16 
REMARK    7  A    between atoms: C7_16  and  O2_17 
ROOT
HETATM    1  C4  UNL     1       0.604  -0.078  -1.107  1.00  0.00     0.713 A 
HETATM    2  N3  UNL     1       1.624   0.402  -0.383  1.00  0.00    -0.021 N 
ATOM      3  H3  UNL     1       1.524   1.295   0.100  1.00  0.00     0.203 HD
HETATM    4  C5  UNL     1       2.776  -0.280  -0.287  1.00  0.00     0.707 A 
HETATM    5  N5  UNL     1       2.945  -1.470  -0.916  1.00  0.00    -0.021 N 
ATOM      6  H5  UNL     1       3.822  -1.986  -0.841  1.00  0.00     0.203 HD
HETATM    7  C8  UNL     1       1.927  -1.943  -1.636  1.00  0.00     0.720 A 
HETATM    8  N6  UNL     1       2.049  -3.069  -2.248  1.00  0.00    -0.125 N 
ATOM      9  H6  UNL     1       2.921  -3.593  -2.181  1.00  0.00     0.197 HD
HETATM   10  C9  UNL     1       0.994  -3.570  -2.999  1.00  0.00     0.196 C 
HETATM   11  N7  UNL     1       0.119  -4.004  -3.627  1.00  0.00    -0.171 NA
HETATM   12  N8  UNL     1       0.782  -1.258  -1.726  1.00  0.00    -0.020 N 
ATOM     13  H8  UNL     1       0.019  -1.643  -2.282  1.00  0.00     0.203 HD
ENDROOT
BRANCH   4  14
HETATM   14  N4  UNL     1       3.771   0.198   0.425  1.00  0.00    -0.223 N 
ATOM     15  H4  UNL     1       4.655  -0.303   0.512  1.00  0.00     0.177 HD
BRANCH  14  16
HETATM   16  C6  UNL     1       3.553   1.469   1.080  1.00  0.00     0.164 C 
BRANCH  16  17
HETATM   17  C7  UNL     1       4.921   2.112   1.253  1.00  0.00     0.184 C 
BRANCH  17  18
HETATM   18  O2  UNL     1       4.817   3.361   1.885  1.00  0.00    -0.399 OA
ATOM     19  H2  UNL     1       5.671   3.762   1.993  1.00  0.00     0.209 HD
ENDBRANCH  17  18
ENDBRANCH  16  17
ENDBRANCH  14  16
ENDBRANCH   4  14
BRANCH   1  20
HETATM   20  N2  UNL     1      -0.637   0.607  -1.239  1.00  0.00    -0.175 N 
ATOM     21  H2  UNL     1      -0.692   1.419  -1.854  1.00  0.00     0.186 HD
BRANCH  20  22
HETATM   22  C3  UNL     1      -1.700   0.227  -0.598  1.00  0.00     0.127 A 
HETATM   23  N1  UNL     1      -2.862   0.883  -0.734  1.00  0.00    -0.308 N 
HETATM   24  C2  UNL     1      -3.987   0.531  -0.095  1.00  0.00     0.225 A 
ATOM     25  H1  UNL     1      -2.891   1.691  -1.356  1.00  0.00     0.171 HD
HETATM   26  N10 UNL     1      -3.921  -0.540   0.721  1.00  0.00    -0.310 N 
HETATM   27  C11 UNL     1      -2.785  -1.234   0.895  1.00  0.00     0.122 A 
ATOM     28  H10 UNL     1      -4.760  -0.832   1.222  1.00  0.00     0.170 HD
HETATM   29  C10 UNL     1      -1.623  -0.869   0.233  1.00  0.00     0.094 A 
HETATM   30  N9  UNL     1      -2.746  -2.362   1.763  1.00  0.00    -0.083 NA
BRANCH  24  31
HETATM   31  O1  UNL     1      -5.181   1.238  -0.260  1.00  0.00    -0.327 OA
HETATM   32  C1  UNL     1      -5.207   2.343  -1.114  1.00  0.00     0.213 C 
ENDBRANCH  24  31
ENDBRANCH  20  22
ENDBRANCH   1  20
TORSDOF 7
