REMARK  8 active torsions:
REMARK  status: ('A' for Active; 'I' for Inactive)
REMARK       I    between atoms: N1_2  and  C2_4 
REMARK    1  A    between atoms: C2_4  and  C3_6 
REMARK    2  A    between atoms: C3_6  and  C4_7 
REMARK    3  A    between atoms: C3_6  and  N10_36 
REMARK    4  A    between atoms: C5_8  and  C6_9 
REMARK    5  A    between atoms: C7_10  and  N2_11 
REMARK    6  A    between atoms: C10_16  and  N4_17 
REMARK    7  A    between atoms: C11_22  and  N6_23 
REMARK    8  A    between atoms: N6_23  and  N7_25 
REMARK       I    between atoms: N7_25  and  C12_27 
REMARK       I    between atoms: C12_27  and  N8_28 
REMARK       I    between atoms: C12_27  and  N9_32 
ROOT
HETATM    1  C6  UNL     1      -1.001   0.897  -0.041  1.00  0.00     0.108 A 
HETATM    2  C7  UNL     1      -1.265   2.211   0.318  1.00  0.00     0.141 A 
HETATM    3  N3  UNL     1      -2.494   2.594   0.700  1.00  0.00    -0.175 N 
ATOM      4  H3  UNL     1      -2.662   3.566   0.959  1.00  0.00     0.186 HD
HETATM    5  C10 UNL     1      -3.500   1.715   0.744  1.00  0.00     0.679 A 
HETATM    6  N5  UNL     1      -3.252   0.436   0.397  1.00  0.00    -0.174 N 
ATOM      7  H5  UNL     1      -4.021  -0.234   0.431  1.00  0.00     0.186 HD
HETATM    8  C11 UNL     1      -2.041   0.001   0.009  1.00  0.00     0.158 A 
ENDROOT
BRANCH   8   9
HETATM    9  N6  UNL     1      -1.867  -1.262  -0.313  1.00  0.00    -0.285 N 
ATOM     10  H6  UNL     1      -0.953  -1.604  -0.609  1.00  0.00     0.188 HD
BRANCH   9  11
HETATM   11  N7  UNL     1      -2.969  -2.127  -0.240  1.00  0.00    -0.282 N 
HETATM   12  C12 UNL     1      -3.039  -3.316   0.539  1.00  0.00     0.494 C 
HETATM   13  N8  UNL     1      -4.390  -3.884   0.415  1.00  0.00    -0.032 N 
HETATM   14  N9  UNL     1      -2.162  -4.300  -0.095  1.00  0.00    -0.032 N 
ATOM     15  H83 UNL     1      -5.119  -3.214   0.660  1.00  0.00     0.279 HD
ATOM     16  H82 UNL     1      -4.661  -4.038  -0.556  1.00  0.00     0.279 HD
ATOM     17  H81 UNL     1      -4.440  -4.736   0.973  1.00  0.00     0.279 HD
ATOM     18  H93 UNL     1      -2.380  -4.454  -1.080  1.00  0.00     0.279 HD
ATOM     19  H92 UNL     1      -1.208  -3.962  -0.223  1.00  0.00     0.279 HD
ATOM     20  H91 UNL     1      -2.212  -5.152   0.463  1.00  0.00     0.279 HD
ATOM     21  H7  UNL     1      -3.791  -1.883  -0.793  1.00  0.00     0.184 HD
ENDBRANCH   9  11
ENDBRANCH   8   9
BRANCH   1  22
HETATM   22  C5  UNL     1       0.317   0.513  -0.454  1.00  0.00    -0.057 C 
HETATM   23  C4  UNL     1       1.431   0.217  -0.804  1.00  0.00    -0.058 C 
BRANCH  23  24
HETATM   24  C3  UNL     1       2.797  -0.111  -1.230  1.00  0.00     0.355 C 
BRANCH  24  25
HETATM   25  C2  UNL     1       3.426  -0.880  -0.131  1.00  0.00     0.260 C 
HETATM   26  N1  UNL     1       3.465  -0.305   1.153  1.00  0.00    -0.363 N 
HETATM   27  C1  UNL     1       4.073  -1.042   2.238  1.00  0.00     0.149 C 
ATOM     28  H1  UNL     1       3.069   0.621   1.316  1.00  0.00     0.162 HD
HETATM   29  O1  UNL     1       3.898  -2.005  -0.378  1.00  0.00    -0.270 OA
ENDBRANCH  24  25
BRANCH  24  30
HETATM   30  N10 UNL     1       2.825  -0.783  -2.501  1.00  0.00    -0.056 N 
HETATM   31  C13 UNL     1       4.166  -0.997  -2.988  1.00  0.00     0.269 C 
ATOM     32 2H10 UNL     1       2.305  -1.660  -2.463  1.00  0.00     0.278 HD
ATOM     33 1H10 UNL     1       2.260  -0.286  -3.190  1.00  0.00     0.278 HD
ENDBRANCH  24  30
ENDBRANCH  23  24
ENDBRANCH   1  22
BRANCH   2  34
HETATM   34  N2  UNL     1      -0.173   3.108   0.274  1.00  0.00    -0.374 N 
HETATM   35  C8  UNL     1       0.259   3.711  -0.963  1.00  0.00     0.150 C 
HETATM   36  C9  UNL     1       0.510   3.422   1.508  1.00  0.00     0.150 C 
ENDBRANCH   2  34
BRANCH   5  37
HETATM   37  N4  UNL     1      -4.679   2.087   1.109  1.00  0.00    -0.234 N 
ATOM     38  H42 UNL     1      -4.867   3.055   1.372  1.00  0.00     0.174 HD
ATOM     39  H41 UNL     1      -5.447   1.416   1.143  1.00  0.00     0.174 HD
ENDBRANCH   5  37
TORSDOF 8
