REMARK  4 active torsions:
REMARK  status: ('A' for Active; 'I' for Inactive)
REMARK    1  A    between atoms: N1_6  and  C5_8 
REMARK    2  A    between atoms: C5_8  and  C6_9 
REMARK    3  A    between atoms: C6_9  and  N2_10 
REMARK    4  A    between atoms: N2_10  and  C7_12 
ROOT
HETATM    1  C5  UNL     1      -0.591  -1.723   0.671  1.00  0.00     0.143 C 
ENDROOT
BRANCH   1   2
HETATM    2  N1  UNL     1      -1.281  -1.480  -0.566  1.00  0.00    -0.354 N 
HETATM    3  C4  UNL     1      -2.354  -0.757  -0.648  1.00  0.00     0.224 A 
HETATM    4  O1  UNL     1      -2.975  -0.542  -1.779  1.00  0.00    -0.290 OA
HETATM    5  N4  UNL     1      -3.013  -0.116   0.342  1.00  0.00    -0.324 N 
HETATM    6  C3  UNL     1      -4.026   0.219  -1.579  1.00  0.00     0.170 A 
HETATM    7  C2  UNL     1      -4.055   0.493  -0.231  1.00  0.00     0.031 A 
HETATM    8  C1  UNL     1      -5.035   1.314   0.538  1.00  0.00     0.070 C 
ATOM      9  H4  UNL     1      -2.764  -0.100   1.331  1.00  0.00     0.169 HD
ATOM     10  H1  UNL     1      -0.909  -1.896  -1.420  1.00  0.00     0.163 HD
ENDBRANCH   1   2
BRANCH   1  11
HETATM   11  C6  UNL     1       0.635  -0.847   0.807  1.00  0.00     0.141 C 
BRANCH  11  12
HETATM   12  N2  UNL     1       1.571  -1.095  -0.274  1.00  0.00    -0.375 N 
ATOM     13  H2  UNL     1       1.368  -1.783  -0.999  1.00  0.00     0.161 HD
BRANCH  12  14
HETATM   14  C7  UNL     1       2.668  -0.417  -0.287  1.00  0.00     0.100 A 
HETATM   15  C8  UNL     1       2.964   0.526   0.695  1.00  0.00     0.048 A 
HETATM   16  C9  UNL     1       4.132   1.256   0.692  1.00  0.00     0.005 A 
HETATM   17  C10 UNL     1       5.018   1.016  -0.337  1.00  0.00     0.017 A 
HETATM   18  C11 UNL     1       4.721   0.077  -1.313  1.00  0.00     0.089 A 
HETATM   19  N3  UNL     1       3.568  -0.613  -1.271  1.00  0.00    -0.353 N 
ATOM     20  H3  UNL     1       3.370  -1.299  -1.999  1.00  0.00     0.166 HD
ENDBRANCH  12  14
ENDBRANCH  11  12
ENDBRANCH   1  11
TORSDOF 4
