REMARK  1 active torsions:
REMARK  status: ('A' for Active; 'I' for Inactive)
REMARK    1  A    between atoms: N2_10  and  O2_11 
ROOT
HETATM    1  C1  UNL     1      -1.874   0.986  -0.384  1.00  0.00     0.037 C 
HETATM    2  C2  UNL     1      -0.952   0.137   0.457  1.00  0.00     0.136 C 
HETATM    3  C3  UNL     1      -0.878  -1.291  -0.011  1.00  0.00     0.195 C 
HETATM    4  O1  UNL     1       0.107  -1.524  -0.941  1.00  0.00    -0.382 OA
HETATM    5  C4  UNL     1       1.389  -1.308  -0.467  1.00  0.00     0.245 C 
HETATM    6  C5  UNL     1       1.497   0.138  -0.154  1.00  0.00     0.122 C 
HETATM    7  N1  UNL     1       2.531   0.871  -0.366  1.00  0.00    -0.386 N 
ATOM      8  H11 UNL     1       2.605   1.865  -0.151  1.00  0.00     0.157 HD
ATOM      9  H12 UNL     1       3.350   0.428  -0.784  1.00  0.00     0.157 HD
HETATM   10  N2  UNL     1       0.360   0.753   0.426  1.00  0.00    -0.240 N 
ENDROOT
BRANCH  10  11
HETATM   11  O2  UNL     1       0.496   1.977   0.982  1.00  0.00    -0.286 OA
ATOM     12  H2  UNL     1       1.356   2.381   0.962  1.00  0.00     0.244 HD
ENDBRANCH  10  11
TORSDOF 1
