REMARK  10 active torsions:
REMARK  status: ('A' for Active; 'I' for Inactive)
REMARK    1  A    between atoms: C1_4  and  O1_6 
REMARK    2  A    between atoms: O1_6  and  C2_7 
REMARK    3  A    between atoms: C3_8  and  C4_9 
REMARK    4  A    between atoms: C4_9  and  O2_10 
REMARK    5  A    between atoms: C4_9  and  O3_12 
REMARK    6  A    between atoms: C5_15  and  O5_16 
REMARK    7  A    between atoms: O5_16  and  S1_17 
REMARK    8  A    between atoms: S1_17  and  N3_18 
REMARK    9  A    between atoms: C7_24  and  O8_25 
REMARK   10  A    between atoms: C7_24  and  C8_27 
ROOT
HETATM    1  C2  UNL     1      -1.032   0.457  -0.313  1.00  0.00     0.210 C 
HETATM    2  C3  UNL     1      -0.338  -0.752   0.140  1.00  0.00     0.212 C 
HETATM    3  O4  UNL     1       0.944  -0.818  -0.424  1.00  0.00    -0.347 OA
HETATM    4  C5  UNL     1       1.807   0.170  -0.074  1.00  0.00     0.284 C 
HETATM    5  C6  UNL     1       1.250   1.551  -0.345  1.00  0.00     0.114 C 
HETATM    6  C7  UNL     1      -0.177   1.682  -0.004  1.00  0.00     0.179 C 
ENDROOT
BRANCH   4   7
HETATM    7  O5  UNL     1       2.950   0.034  -0.861  1.00  0.00    -0.227 OA
BRANCH   7   8
HETATM    8  S1  UNL     1       4.327  -0.237   0.016  1.00  0.00     0.358 S 
HETATM    9  O6  UNL     1       5.178  -1.232  -0.734  1.00  0.00    -0.176 OA
HETATM   10  O7  UNL     1       5.165   1.013   0.163  1.00  0.00    -0.176 OA
BRANCH   8  11
HETATM   11  N3  UNL     1       3.947  -0.896   1.558  1.00  0.00    -0.306 N 
ATOM     12  H32 UNL     1       2.997  -1.088   1.875  1.00  0.00     0.171 HD
ATOM     13  H31 UNL     1       4.796  -1.063   2.099  1.00  0.00     0.171 HD
ENDBRANCH   8  11
ENDBRANCH   7   8
ENDBRANCH   4   7
BRANCH   2  14
HETATM   14  C4  UNL     1      -0.942  -2.094  -0.164  1.00  0.00     0.285 C 
BRANCH  14  15
HETATM   15  O2  UNL     1      -0.934  -2.283  -1.562  1.00  0.00    -0.369 OA
ATOM     16  H2  UNL     1      -1.316  -3.131  -1.754  1.00  0.00     0.212 HD
ENDBRANCH  14  15
BRANCH  14  17
HETATM   17  O3  UNL     1       0.056  -3.026   0.278  1.00  0.00    -0.369 OA
ATOM     18  H3  UNL     1      -0.326  -3.874   0.086  1.00  0.00     0.212 HD
ENDBRANCH  14  17
ENDBRANCH   2  14
BRANCH   6  19
HETATM   19  O8  UNL     1      -0.314   1.896   1.382  1.00  0.00    -0.376 OA
ATOM     20  H8  UNL     1       0.218   2.659   1.574  1.00  0.00     0.211 HD
ENDBRANCH   6  19
BRANCH   6  21
HETATM   21  C8  UNL     1      -0.718   2.880  -0.696  1.00  0.00     0.212 C 
HETATM   22  O9  UNL     1      -1.189   3.848  -0.052  1.00  0.00    -0.646 OA
HETATM   23  O10 UNL     1      -0.728   2.981  -2.079  1.00  0.00    -0.646 OA
ENDBRANCH   6  21
BRANCH   1  24
HETATM   24  O1  UNL     1      -2.264   0.669   0.316  1.00  0.00    -0.313 OA
BRANCH  24  25
HETATM   25  C1  UNL     1      -3.373  -0.127   0.211  1.00  0.00     0.225 C 
HETATM   26  N1  UNL     1      -3.738  -0.414  -1.018  1.00  0.00    -0.368 N 
ATOM     27  H12 UNL     1      -4.564  -1.007  -1.096  1.00  0.00     0.159 HD
ATOM     28  H11 UNL     1      -3.225  -0.067  -1.829  1.00  0.00     0.159 HD
HETATM   29  N2  UNL     1      -4.083  -0.608   1.334  1.00  0.00    -0.057 NA
ENDBRANCH  24  25
ENDBRANCH   1  24
TORSDOF 10
