REMARK  11 active torsions:
REMARK  status: ('A' for Active; 'I' for Inactive)
REMARK    1  A    between atoms: C2_2  and  C3_3 
REMARK    2  A    between atoms: C3_3  and  C6_6 
REMARK    3  A    between atoms: C6_6  and  C7_7 
REMARK    4  A    between atoms: C10_10  and  C11_11 
REMARK    5  A    between atoms: C11_11  and  C12_12 
REMARK    6  A    between atoms: C12_12  and  C13_13 
REMARK    7  A    between atoms: N3_22  and  C17_23 
REMARK    8  A    between atoms: C17_23  and  C18_24 
REMARK       I    between atoms: C18_24  and  N4_26 
REMARK    9  A    between atoms: C24_32  and  C25_33 
REMARK   10  A    between atoms: C25_33  and  O3_35 
REMARK   11  A    between atoms: C25_33  and  C27_37 
ROOT
HETATM    1  C7  UNL     1      -1.943  -1.818  -0.140  1.00  0.00     0.025 A 
HETATM    2  C8  UNL     1      -0.660  -2.121  -0.437  1.00  0.00    -0.005 A 
HETATM    3  C9  UNL     1      -0.344  -3.386  -0.751  1.00  0.00     0.026 C 
HETATM    4  C10 UNL     1       0.330  -1.117  -0.714  1.00  0.00     0.042 A 
HETATM    5  N3  UNL     1      -0.054   0.167  -0.689  1.00  0.00    -0.335 N 
HETATM    6  C23 UNL     1      -1.348   0.564  -0.404  1.00  0.00     0.086 A 
HETATM    7  C24 UNL     1      -1.668   1.814  -0.345  1.00  0.00     0.044 C 
HETATM    8  C30 UNL     1      -2.238  -0.430  -0.142  1.00  0.00     0.209 A 
HETATM    9  O4  UNL     1      -3.405  -0.129   0.117  1.00  0.00    -0.285 OA
ENDROOT
BRANCH   4  10
HETATM   10  C11 UNL     1       1.527  -1.541  -0.861  1.00  0.00     0.008 C 
BRANCH  10  11
HETATM   11  C12 UNL     1       2.842  -1.005  -1.148  1.00  0.00     0.075 C 
BRANCH  11  12
HETATM   12  C13 UNL     1       3.915  -2.059  -1.068  1.00  0.00     0.038 A 
HETATM   13  C14 UNL     1       4.452  -2.595   0.059  1.00  0.00     0.034 A 
HETATM   14  C15 UNL     1       4.117  -2.280   1.463  1.00  0.00     0.070 C 
HETATM   15  N1  UNL     1       5.390  -3.515  -0.291  1.00  0.00    -0.302 N 
HETATM   16  N2  UNL     1       5.426  -3.539  -1.606  1.00  0.00    -0.266 N 
ATOM     17  H1  UNL     1       5.956  -4.078   0.343  1.00  0.00     0.186 HD
HETATM   18  C16 UNL     1       4.527  -2.652  -2.124  1.00  0.00     0.268 A 
ATOM     19  H2  UNL     1       6.039  -4.136  -2.160  1.00  0.00     0.190 HD
HETATM   20  O1  UNL     1       4.331  -2.450  -3.364  1.00  0.00    -0.266 OA
ENDBRANCH  11  12
ENDBRANCH  10  11
ENDBRANCH   4  10
BRANCH   5  21
HETATM   21  C17 UNL     1       0.827   1.269  -0.962  1.00  0.00     0.232 C 
BRANCH  21  22
HETATM   22  C18 UNL     1       1.410   1.853   0.288  1.00  0.00     0.238 C 
HETATM   23  O2  UNL     1       1.078   1.320   1.370  1.00  0.00    -0.272 OA
HETATM   24  N4  UNL     1       2.293   2.952   0.282  1.00  0.00    -0.351 N 
HETATM   25  C19 UNL     1       2.862   3.526   1.492  1.00  0.00     0.126 C 
HETATM   26  C22 UNL     1       2.795   3.701  -0.829  1.00  0.00     0.126 C 
HETATM   27  C20 UNL     1       4.146   4.162   1.072  1.00  0.00     0.021 C 
HETATM   28  C21 UNL     1       3.960   4.506  -0.361  1.00  0.00     0.021 C 
ENDBRANCH  21  22
ENDBRANCH   5  21
BRANCH   1  29
HETATM   29  C6  UNL     1      -2.865  -2.593   0.348  1.00  0.00     0.002 C 
BRANCH  29  30
HETATM   30  C3  UNL     1      -3.142  -3.923   0.811  1.00  0.00    -0.012 C 
HETATM   31  C4  UNL     1      -2.168  -4.638   1.674  1.00  0.00     0.023 C 
HETATM   32  C5  UNL     1      -3.742  -4.773  -0.300  1.00  0.00     0.023 C 
BRANCH  30  33
HETATM   33  C2  UNL     1      -4.378  -3.793   1.784  1.00  0.00    -0.024 C 
HETATM   34  C1  UNL     1      -5.152  -4.811   1.995  1.00  0.00     0.008 C 
ENDBRANCH  30  33
ENDBRANCH  29  30
ENDBRANCH   1  29
BRANCH   7  35
HETATM   35  C25 UNL     1      -2.934   2.512  -0.072  1.00  0.00     0.077 C 
HETATM   36  C26 UNL     1      -3.914   2.443  -1.224  1.00  0.00     0.051 C 
BRANCH  35  37
HETATM   37  O3  UNL     1      -3.489   2.295   1.173  1.00  0.00    -0.386 OA
ATOM     38  H3  UNL     1      -4.306   2.746   1.349  1.00  0.00     0.211 HD
ENDBRANCH  35  37
BRANCH  35  39
HETATM   39  C27 UNL     1      -2.625   4.054  -0.015  1.00  0.00     0.015 C 
HETATM   40  C28 UNL     1      -2.059   4.463  -1.339  1.00  0.00     0.013 C 
HETATM   41  C29 UNL     1      -1.761   4.373   1.142  1.00  0.00     0.013 C 
ENDBRANCH  35  39
ENDBRANCH   7  35
TORSDOF 11
