REMARK  9 active torsions:
REMARK  status: ('A' for Active; 'I' for Inactive)
REMARK    1  A    between atoms: C3_3  and  C4_4 
REMARK    2  A    between atoms: C4_4  and  N1_5 
REMARK       I    between atoms: N1_5  and  C6_7 
REMARK    3  A    between atoms: C6_7  and  C7_9 
REMARK    4  A    between atoms: C7_9  and  N2_11 
REMARK    5  A    between atoms: C10_14  and  C11_15 
REMARK    6  A    between atoms: N3_17  and  C13_18 
REMARK    7  A    between atoms: C13_18  and  C14_19 
REMARK       I    between atoms: C14_19  and  N4_21 
REMARK    8  A    between atoms: N6_28  and  C17_29 
REMARK    9  A    between atoms: C20_32  and  N7_34 
ROOT
HETATM    1  C1  UNL     1       6.218   0.050  -4.471  1.00  0.00     0.112 C 
HETATM    2  C2  UNL     1       5.951   0.419  -3.098  1.00  0.00    -0.109 C 
HETATM    3  C3  UNL     1       5.715   0.701  -1.970  1.00  0.00    -0.087 C 
ENDROOT
BRANCH   3   4
HETATM    4  C4  UNL     1       5.400   1.024  -0.605  1.00  0.00     0.219 C 
BRANCH   4   5
HETATM    5  N1  UNL     1       4.413   0.059  -0.030  1.00  0.00    -0.341 N 
HETATM    6  C5  UNL     1       5.039  -1.092   0.581  1.00  0.00     0.154 C 
HETATM    7  C6  UNL     1       3.055   0.316  -0.144  1.00  0.00     0.266 C 
HETATM    8  O1  UNL     1       2.771   1.389  -0.798  1.00  0.00    -0.266 OA
BRANCH   7   9
HETATM    9  C7  UNL     1       1.988  -0.498   0.391  1.00  0.00     0.085 C 
HETATM   10  C8  UNL     1       2.207  -1.516   1.435  1.00  0.00     0.075 C 
BRANCH   9  11
HETATM   11  N2  UNL     1       0.621  -0.003   0.348  1.00  0.00    -0.262 N 
HETATM   12  C9  UNL     1      -0.094  -0.164  -0.875  1.00  0.00     0.253 C 
HETATM   13  O2  UNL     1       0.718  -0.143  -1.880  1.00  0.00    -0.270 OA
HETATM   14  C10 UNL     1      -1.561  -0.355  -1.287  1.00  0.00     0.195 C 
HETATM   15  N3  UNL     1      -2.480   0.278  -0.427  1.00  0.00    -0.196 N 
HETATM   16  C16 UNL     1      -2.412   0.220   1.032  1.00  0.00     0.678 C 
HETATM   17  N5  UNL     1      -3.564   0.366   1.599  1.00  0.00    -0.234 N 
HETATM   18  N6  UNL     1      -1.308   0.023   1.912  1.00  0.00    -0.166 N 
ATOM     19  H52 UNL     1      -4.354   0.507   0.969  1.00  0.00     0.174 HD
ATOM     20  H51 UNL     1      -3.517   0.326   2.617  1.00  0.00     0.174 HD
HETATM   21  C19 UNL     1       0.099   0.412   1.594  1.00  0.00     0.157 C 
HETATM   22  C20 UNL     1       0.675   1.096   2.457  1.00  0.00     0.066 C 
HETATM   23  C21 UNL     1       1.997   1.702   2.551  1.00  0.00     0.074 C 
BRANCH  14  24
HETATM   24  C11 UNL     1      -1.529  -0.038  -2.744  1.00  0.00     0.031 C 
HETATM   25  C12 UNL     1      -2.725  -0.166  -3.583  1.00  0.00     0.007 C 
ENDBRANCH  14  24
BRANCH  15  26
HETATM   26  C13 UNL     1      -3.688   0.982  -0.855  1.00  0.00     0.244 C 
BRANCH  26  27
HETATM   27  C14 UNL     1      -4.849   0.147  -1.131  1.00  0.00     0.235 C 
HETATM   28  O3  UNL     1      -4.804  -1.103  -0.944  1.00  0.00    -0.272 OA
HETATM   29  N4  UNL     1      -6.031   0.758  -1.610  1.00  0.00    -0.364 N 
HETATM   30  C15 UNL     1      -7.228   0.010  -1.901  1.00  0.00     0.149 C 
ATOM     31  H4  UNL     1      -6.037   1.768  -1.755  1.00  0.00     0.161 HD
ENDBRANCH  26  27
ENDBRANCH  15  26
BRANCH  18  32
HETATM   32  C17 UNL     1      -1.540  -0.552   3.166  1.00  0.00     0.145 C 
HETATM   33  C18 UNL     1      -2.084  -2.025   2.989  1.00  0.00     0.027 C 
ENDBRANCH  18  32
BRANCH  22  34
HETATM   34  N7  UNL     1      -0.032   1.528   3.690  1.00  0.00    -0.308 N 
HETATM   35  N8  UNL     1       0.493   1.504   4.826  1.00  0.00    -0.345 N 
ATOM     36  H82 UNL     1       1.454   1.169   4.891  1.00  0.00     0.176 HD
ATOM     37  H81 UNL     1       0.008   1.801   5.673  1.00  0.00     0.176 HD
ATOM     38  H7  UNL     1      -0.993   1.861   3.607  1.00  0.00     0.186 HD
ENDBRANCH  22  34
ENDBRANCH   9  11
ENDBRANCH   7   9
ENDBRANCH   4   5
ENDBRANCH   3   4
TORSDOF 9
