REMARK  8 active torsions:
REMARK  status: ('A' for Active; 'I' for Inactive)
REMARK    1  A    between atoms: C3_3  and  C4_4 
REMARK    2  A    between atoms: C3_3  and  N5_32 
REMARK    3  A    between atoms: C4_4  and  C5_5 
REMARK    4  A    between atoms: C5_5  and  N1_6 
REMARK    5  A    between atoms: C19_23  and  C20_24 
REMARK    6  A    between atoms: C20_24  and  C21_25 
REMARK    7  A    between atoms: N5_32  and  C26_35 
REMARK    8  A    between atoms: C26_35  and  C28_37 
ROOT
HETATM    1  C1  UNL     1       5.958   2.766   1.654  1.00  0.00     0.099 C 
HETATM    2  C2  UNL     1       5.777   1.558   1.589  1.00  0.00    -0.155 C 
HETATM    3  C3  UNL     1       5.567   0.094   1.475  1.00  0.00     0.254 C 
ENDROOT
BRANCH   3   4
HETATM    4  C4  UNL     1       4.127  -0.249   1.340  1.00  0.00     0.073 C 
BRANCH   4   5
HETATM    5  C5  UNL     1       3.591   0.417   0.116  1.00  0.00     0.250 C 
BRANCH   5   6
HETATM    6  N1  UNL     1       2.194   0.163  -0.149  1.00  0.00    -0.010 N 
HETATM    7  C6  UNL     1       1.270   0.778   0.710  1.00  0.00     0.280 C 
HETATM    8  C7  UNL     1      -0.076   0.246   0.859  1.00  0.00     0.268 C 
HETATM    9  O1  UNL     1      -0.243  -0.332   2.005  1.00  0.00    -0.267 OA
HETATM   10  N2  UNL     1      -1.336   0.135   0.153  1.00  0.00    -0.322 N 
HETATM   11  C8  UNL     1      -2.560  -0.074   0.826  1.00  0.00     0.123 C 
HETATM   12  C19 UNL     1      -1.521   0.226  -1.320  1.00  0.00     0.120 C 
HETATM   13  C9  UNL     1      -2.708  -1.420   1.491  1.00  0.00     0.299 C 
HETATM   14  C17 UNL     1      -3.586  -0.117  -0.255  1.00  0.00     0.047 C 
HETATM   15  N3  UNL     1      -4.084  -1.845   1.281  1.00  0.00     0.100 N 
HETATM   16  C10 UNL     1      -5.003  -1.344   2.246  1.00  0.00     0.307 C 
HETATM   17  C16 UNL     1      -4.437  -1.330  -0.020  1.00  0.00     0.237 C 
HETATM   18  C11 UNL     1      -6.184  -0.842   1.474  1.00  0.00    -0.050 C 
HETATM   19  C12 UNL     1      -7.329  -0.375   1.958  1.00  0.00    -0.026 C 
HETATM   20  C14 UNL     1      -5.876  -0.934   0.027  1.00  0.00     0.045 C 
HETATM   21  C13 UNL     1      -8.439   0.100   1.097  1.00  0.00     0.036 C 
HETATM   22  C15 UNL     1      -6.785  -1.909  -0.674  1.00  0.00     0.017 C 
HETATM   23  C18 UNL     1      -2.853  -0.319  -1.575  1.00  0.00     0.050 C 
HETATM   24  C23 UNL     1      -0.388  -0.593  -1.967  1.00  0.00     0.251 C 
HETATM   25  O2  UNL     1      -0.726  -1.278  -2.924  1.00  0.00    -0.270 OA
HETATM   26  N4  UNL     1       0.930  -0.528  -1.459  1.00  0.00    -0.300 N 
HETATM   27  C24 UNL     1       1.989   0.486  -1.585  1.00  0.00     0.374 C 
HETATM   28  C25 UNL     1       1.874  -1.199  -0.579  1.00  0.00     0.374 C 
BRANCH  12  29
HETATM   29  C20 UNL     1      -1.351   1.663  -1.659  1.00  0.00     0.067 C 
BRANCH  29  30
HETATM   30  C21 UNL     1      -1.400   2.013  -3.076  1.00  0.00    -0.034 C 
HETATM   31  C22 UNL     1      -2.157   2.924  -3.574  1.00  0.00     0.007 C 
ENDBRANCH  29  30
ENDBRANCH  12  29
ENDBRANCH   5   6
ENDBRANCH   4   5
ENDBRANCH   3   4
BRANCH   3  32
HETATM   32  N5  UNL     1       6.303  -0.386   0.293  1.00  0.00    -0.048 N 
ATOM     33  H52 UNL     1       6.099  -1.360   0.068  1.00  0.00     0.279 HD
ATOM     34  H51 UNL     1       5.967   0.027  -0.577  1.00  0.00     0.279 HD
BRANCH  32  35
HETATM   35  C26 UNL     1       7.730  -0.142   0.524  1.00  0.00     0.283 C 
HETATM   36  C27 UNL     1       8.497  -1.417   0.224  1.00  0.00     0.052 C 
BRANCH  35  37
HETATM   37  C28 UNL     1       8.272   0.936  -0.306  1.00  0.00     0.204 C 
HETATM   38  O3  UNL     1       7.642   1.376  -1.279  1.00  0.00    -0.646 OA
HETATM   39  O4  UNL     1       9.511   1.479   0.005  1.00  0.00    -0.646 OA
ENDBRANCH  35  37
ENDBRANCH  32  35
ENDBRANCH   3  32
TORSDOF 8
