REMARK  13 active torsions:
REMARK  status: ('A' for Active; 'I' for Inactive)
REMARK       I    between atoms: C2_2  and  N1_4 
REMARK    1  A    between atoms: N1_4  and  C3_6 
REMARK    2  A    between atoms: C3_6  and  O2_7 
REMARK    3  A    between atoms: C3_6  and  C4_9 
REMARK    4  A    between atoms: C3_6  and  C10_16 
REMARK    5  A    between atoms: C4_9  and  C5_10 
REMARK    6  A    between atoms: C5_10  and  C6_11 
REMARK    7  A    between atoms: C6_11  and  N2_12 
REMARK       I    between atoms: C10_16  and  N3_18 
REMARK    8  A    between atoms: N3_18  and  C11_20 
REMARK    9  A    between atoms: C11_20  and  C14_23 
REMARK   10  A    between atoms: C14_23  and  C15_24 
REMARK       I    between atoms: N4_27  and  C18_29 
REMARK   11  A    between atoms: C18_29  and  C19_31 
REMARK   12  A    between atoms: C19_31  and  N5_32 
REMARK   13  A    between atoms: N5_32  and  N6_34 
ROOT
HETATM    1  C11 UNL     1       1.132  -1.366  -0.886  1.00  0.00     0.031 C 
HETATM    2  C12 UNL     1       1.398  -2.741  -1.417  1.00  0.00     0.038 C 
HETATM    3  C13 UNL     1       0.817  -0.439  -2.054  1.00  0.00     0.038 C 
ENDROOT
BRANCH   1   4
HETATM    4  N3  UNL     1      -0.095  -1.473  -0.047  1.00  0.00    -0.348 N 
HETATM    5  C10 UNL     1      -1.297  -1.906  -0.643  1.00  0.00     0.274 C 
HETATM    6  O3  UNL     1      -1.333  -2.192  -1.848  1.00  0.00    -0.268 OA
ATOM      7  H3  UNL     1      -0.066  -1.236   0.945  1.00  0.00     0.163 HD
BRANCH   5   8
HETATM    8  C3  UNL     1      -2.532  -2.023   0.165  1.00  0.00     0.217 C 
BRANCH   8   9
HETATM    9  N1  UNL     1      -3.648  -2.497  -0.603  1.00  0.00    -0.322 N 
HETATM   10  C2  UNL     1      -3.632  -3.803  -1.138  1.00  0.00     0.216 C 
HETATM   11  C1  UNL     1      -4.757  -4.356  -1.948  1.00  0.00     0.117 C 
HETATM   12  O1  UNL     1      -2.648  -4.552  -0.942  1.00  0.00    -0.274 OA
ATOM     13  H1  UNL     1      -4.452  -1.890  -0.762  1.00  0.00     0.166 HD
ENDBRANCH   8   9
BRANCH   8  14
HETATM   14  O2  UNL     1      -2.234  -2.824   1.265  1.00  0.00    -0.363 OA
ATOM     15  H2  UNL     1      -1.495  -2.510   1.773  1.00  0.00     0.213 HD
ENDBRANCH   8  14
BRANCH   8  16
HETATM   16  C4  UNL     1      -2.777  -0.606   0.683  1.00  0.00     0.073 C 
BRANCH  16  17
HETATM   17  C5  UNL     1      -3.971  -0.517   1.558  1.00  0.00     0.033 C 
BRANCH  17  18
HETATM   18  C6  UNL     1      -4.170   0.870   2.039  1.00  0.00     0.236 C 
BRANCH  18  19
HETATM   19  N2  UNL     1      -4.382   1.886   1.072  1.00  0.00    -0.079 N 
HETATM   20  C7  UNL     1      -5.208   2.937   1.668  1.00  0.00     0.271 C 
HETATM   21  C8  UNL     1      -4.976   1.463  -0.171  1.00  0.00     0.271 C 
HETATM   22  C9  UNL     1      -3.118   2.519   0.752  1.00  0.00     0.271 C 
ENDBRANCH  18  19
ENDBRANCH  17  18
ENDBRANCH  16  17
ENDBRANCH   8  16
ENDBRANCH   5   8
ENDBRANCH   1   4
BRANCH   1  23
HETATM   23  C14 UNL     1       2.209  -0.768  -0.071  1.00  0.00     0.087 C 
BRANCH  23  24
HETATM   24  C15 UNL     1       3.513  -0.552  -0.645  1.00  0.00     0.013 A 
HETATM   25  C16 UNL     1       4.512   0.032   0.149  1.00  0.00     0.054 A 
HETATM   26  C17 UNL     1       5.771   0.280  -0.284  1.00  0.00     0.037 A 
HETATM   27  N4  UNL     1       6.668   0.829   0.492  1.00  0.00    -0.326 N 
HETATM   28  C20 UNL     1       6.078  -0.066  -1.580  1.00  0.00     0.046 A 
HETATM   29  C18 UNL     1       6.291   1.168   1.821  1.00  0.00     0.241 C 
ATOM     30  H4  UNL     1       7.613   1.010   0.154  1.00  0.00     0.169 HD
HETATM   31  O4  UNL     1       6.239   0.246   2.670  1.00  0.00    -0.271 OA
HETATM   32  C21 UNL     1       5.117  -0.639  -2.374  1.00  0.00     0.090 A 
HETATM   33  N8  UNL     1       3.855  -0.869  -1.888  1.00  0.00    -0.369 N 
ATOM     34  H8  UNL     1       3.159  -1.296  -2.499  1.00  0.00     0.165 HD
BRANCH  29  35
HETATM   35  C19 UNL     1       5.969   2.581   2.182  1.00  0.00     0.243 C 
BRANCH  35  36
HETATM   36  N5  UNL     1       6.114   3.435   1.002  1.00  0.00    -0.314 N 
ATOM     37  H5  UNL     1       6.399   3.014   0.118  1.00  0.00     0.182 HD
BRANCH  36  38
HETATM   38  N6  UNL     1       5.874   4.803   1.052  1.00  0.00    -0.253 N 
HETATM   39  N7  UNL     1       5.279   5.309   0.034  1.00  0.00    -0.331 N 
ATOM     40  H72 UNL     1       5.005   4.727  -0.758  1.00  0.00     0.178 HD
ATOM     41  H71 UNL     1       5.103   6.313   0.071  1.00  0.00     0.178 HD
ATOM     42  H6  UNL     1       6.154   5.371   1.851  1.00  0.00     0.207 HD
ENDBRANCH  36  38
ENDBRANCH  35  36
ENDBRANCH  29  35
ENDBRANCH  23  24
ENDBRANCH   1  23
TORSDOF 13
