REMARK  12 active torsions:
REMARK  status: ('A' for Active; 'I' for Inactive)
REMARK    1  A    between atoms: C3_3  and  N1_4 
REMARK       I    between atoms: N1_4  and  C4_6 
REMARK    2  A    between atoms: C4_6  and  C5_8 
REMARK    3  A    between atoms: C5_8  and  N2_9 
REMARK    4  A    between atoms: C5_8  and  C6_13 
REMARK    5  A    between atoms: C6_13  and  N3_14 
REMARK    6  A    between atoms: N3_14  and  N4_16 
REMARK    7  A    between atoms: N6_23  and  C8_24 
REMARK    8  A    between atoms: C8_24  and  C10_26 
REMARK    9  A    between atoms: C10_26  and  C11_27 
REMARK   10  A    between atoms: N8_36  and  C18_37 
REMARK   11  A    between atoms: C18_37  and  C19_38 
REMARK   12  A    between atoms: C22_41  and  C23_42 
ROOT
HETATM    1  C1  UNL     1       3.252  -3.927  -1.411  1.00  0.00     0.015 C 
HETATM    2  C2  UNL     1       2.786  -2.944  -0.887  1.00  0.00    -0.075 C 
HETATM    3  C3  UNL     1       2.222  -1.749  -0.221  1.00  0.00     0.189 C 
HETATM    4  C7  UNL     1       1.042  -1.350  -1.019  1.00  0.00     0.262 C 
HETATM    5  O2  UNL     1       1.049  -0.672  -2.075  1.00  0.00    -0.269 OA
HETATM    6  N6  UNL     1      -0.173  -1.832  -0.450  1.00  0.00    -0.344 N 
HETATM    7  C21 UNL     1       0.135  -2.064   0.952  1.00  0.00     0.141 C 
HETATM    8  C22 UNL     1       1.616  -2.156   1.093  1.00  0.00     0.115 C 
ENDROOT
BRANCH   3   9
HETATM    9  N1  UNL     1       3.202  -0.712  -0.111  1.00  0.00    -0.331 N 
HETATM   10  C4  UNL     1       2.892   0.528   0.491  1.00  0.00     0.251 C 
HETATM   11  O1  UNL     1       1.734   0.717   0.934  1.00  0.00    -0.271 OA
ATOM     12  H1  UNL     1       4.142  -0.871  -0.474  1.00  0.00     0.164 HD
BRANCH  10  13
HETATM   13  C5  UNL     1       3.883   1.623   0.622  1.00  0.00     0.293 C 
BRANCH  13  14
HETATM   14  N2  UNL     1       3.306   2.760   1.267  1.00  0.00    -0.065 N 
ATOM     15  H23 UNL     1       2.460   3.073   0.792  1.00  0.00     0.275 HD
ATOM     16  H22 UNL     1       2.896   2.514   2.168  1.00  0.00     0.275 HD
ATOM     17  H21 UNL     1       3.988   3.513   1.357  1.00  0.00     0.275 HD
ENDBRANCH  13  14
BRANCH  13  18
HETATM   18  C6  UNL     1       4.395   1.933  -0.769  1.00  0.00     0.183 C 
BRANCH  18  19
HETATM   19  N3  UNL     1       5.370   2.992  -0.740  1.00  0.00    -0.320 N 
ATOM     20  H3  UNL     1       5.212   3.858  -1.255  1.00  0.00     0.181 HD
BRANCH  19  21
HETATM   21  N4  UNL     1       6.534   2.812   0.005  1.00  0.00    -0.254 N 
HETATM   22  N5  UNL     1       7.222   3.769   0.461  1.00  0.00    -0.331 N 
ATOM     23  H52 UNL     1       6.895   4.715   0.265  1.00  0.00     0.178 HD
ATOM     24  H51 UNL     1       8.074   3.637   1.006  1.00  0.00     0.178 HD
ATOM     25  H4  UNL     1       6.847   1.859   0.192  1.00  0.00     0.207 HD
ENDBRANCH  19  21
ENDBRANCH  18  19
ENDBRANCH  13  18
ENDBRANCH  10  13
ENDBRANCH   3   9
BRANCH   8  26
HETATM   26  C23 UNL     1       2.041  -3.559   1.428  1.00  0.00     0.241 C 
HETATM   27  O3  UNL     1       3.209  -3.689   1.762  1.00  0.00    -0.306 OA
ENDBRANCH   8  26
BRANCH   6  28
HETATM   28  C8  UNL     1      -1.442  -2.066  -1.026  1.00  0.00     0.090 C 
HETATM   29  C9  UNL     1      -1.344  -3.179  -2.067  1.00  0.00     0.033 C 
BRANCH  28  30
HETATM   30  C10 UNL     1      -2.133  -0.900  -1.641  1.00  0.00     0.101 C 
BRANCH  30  31
HETATM   31  C11 UNL     1      -2.387   0.188  -0.663  1.00  0.00     0.086 A 
HETATM   32  N7  UNL     1      -1.526   1.215  -0.405  1.00  0.00    -0.344 N 
HETATM   33  C12 UNL     1      -2.047   2.022   0.529  1.00  0.00     0.060 A 
ATOM     34  H7  UNL     1      -0.621   1.348  -0.856  1.00  0.00     0.167 HD
HETATM   35  C13 UNL     1      -1.652   3.177   1.170  1.00  0.00     0.032 A 
HETATM   36  C17 UNL     1      -3.268   1.505   0.881  1.00  0.00     0.063 A 
HETATM   37  C14 UNL     1      -2.406   3.822   2.123  1.00  0.00     0.002 A 
HETATM   38  C15 UNL     1      -3.642   3.263   2.452  1.00  0.00     0.002 A 
HETATM   39  C16 UNL     1      -4.064   2.109   1.829  1.00  0.00     0.032 A 
HETATM   40  N8  UNL     1      -3.453   0.377   0.133  1.00  0.00    -0.331 N 
BRANCH  40  41
HETATM   41  C18 UNL     1      -4.633  -0.435   0.228  1.00  0.00     0.157 C 
BRANCH  41  42
HETATM   42  C19 UNL     1      -5.729  -0.025  -0.686  1.00  0.00    -0.017 C 
HETATM   43  C20 UNL     1      -6.192  -0.874  -1.592  1.00  0.00     0.008 C 
ENDBRANCH  41  42
ENDBRANCH  40  41
ENDBRANCH  30  31
ENDBRANCH  28  30
ENDBRANCH   6  28
TORSDOF 12
