REMARK  12 active torsions:
REMARK  status: ('A' for Active; 'I' for Inactive)
REMARK    1  A    between atoms: C2_2  and  C3_3 
REMARK    2  A    between atoms: C3_3  and  C4_4 
REMARK    3  A    between atoms: C4_4  and  C5_5 
REMARK    4  A    between atoms: C5_5  and  C6_6 
REMARK    5  A    between atoms: C6_6  and  C7_7 
REMARK    6  A    between atoms: C7_7  and  N1_8 
REMARK       I    between atoms: N1_8  and  C9_10 
REMARK    7  A    between atoms: C9_10  and  C10_12 
REMARK    8  A    between atoms: C10_12  and  C11_13 
REMARK    9  A    between atoms: C11_13  and  C12_14 
REMARK   10  A    between atoms: C12_14  and  N2_15 
REMARK   11  A    between atoms: N4_19  and  N5_21 
REMARK   12  A    between atoms: C19_27  and  O3_28 
ROOT
HETATM    1  N2  UNL     1      -1.931   1.214   1.801  1.00  0.00     0.159 N 
HETATM    2  N3  UNL     1      -1.826   2.093   0.714  1.00  0.00    -0.022 NA
HETATM    3  C13 UNL     1      -2.063   1.477  -0.589  1.00  0.00     0.198 C 
HETATM    4  C14 UNL     1      -3.403   0.797  -0.689  1.00  0.00     0.031 C 
HETATM    5  N4  UNL     1      -3.981   0.680  -1.787  1.00  0.00    -0.326 N 
ATOM      6  H4  UNL     1      -3.463   1.078  -2.570  1.00  0.00     0.180 HD
HETATM    7  C17 UNL     1      -3.832   0.371   0.580  1.00  0.00     0.167 C 
HETATM    8  C18 UNL     1      -2.464   0.067   1.202  1.00  0.00     0.362 C 
HETATM    9  O2  UNL     1      -2.056  -1.032   1.102  1.00  0.00    -0.262 OA
HETATM   10  C19 UNL     1      -4.681  -0.618   1.113  1.00  0.00     0.159 C 
HETATM   11  C20 UNL     1      -4.723  -0.357   2.627  1.00  0.00     0.112 C 
HETATM   12  C21 UNL     1      -4.045  -1.436   3.419  1.00  0.00     0.035 C 
HETATM   13  N6  UNL     1      -4.238   0.956   3.029  1.00  0.00    -0.328 N 
ATOM     14  H6  UNL     1      -4.849   1.467   3.667  1.00  0.00     0.164 HD
HETATM   15  C22 UNL     1      -3.038   1.636   2.666  1.00  0.00     0.444 C 
HETATM   16  O4  UNL     1      -2.865   2.769   3.137  1.00  0.00    -0.237 OA
ENDROOT
BRANCH   1  17
HETATM   17  C12 UNL     1      -0.835   1.105   2.660  1.00  0.00     0.284 C 
BRANCH  17  18
HETATM   18  C11 UNL     1       0.516   1.518   2.309  1.00  0.00     0.040 C 
BRANCH  18  19
HETATM   19  C10 UNL     1       1.251   0.853   1.190  1.00  0.00     0.105 C 
BRANCH  19  20
HETATM   20  C9  UNL     1       1.497  -0.599   1.377  1.00  0.00     0.219 C 
HETATM   21  N1  UNL     1       2.123  -1.385   0.388  1.00  0.00    -0.356 N 
HETATM   22  C8  UNL     1       2.315  -2.815   0.681  1.00  0.00     0.152 C 
HETATM   23  O1  UNL     1       1.143  -1.147   2.441  1.00  0.00    -0.273 OA
BRANCH  21  24
HETATM   24  C7  UNL     1       2.567  -0.830  -0.876  1.00  0.00     0.125 C 
BRANCH  24  25
HETATM   25  C6  UNL     1       3.969  -0.320  -0.839  1.00  0.00     0.020 C 
BRANCH  25  26
HETATM   26  C5  UNL     1       4.984  -1.367  -0.495  1.00  0.00     0.002 C 
BRANCH  26  27
HETATM   27  C4  UNL     1       6.360  -0.777  -0.479  1.00  0.00     0.000 C 
BRANCH  27  28
HETATM   28  C3  UNL     1       6.764  -0.186  -1.800  1.00  0.00    -0.000 C 
BRANCH  28  29
HETATM   29  C2  UNL     1       8.169   0.380  -1.672  1.00  0.00    -0.005 C 
HETATM   30  C1  UNL     1       8.575   0.970  -2.984  1.00  0.00     0.005 C 
ENDBRANCH  28  29
ENDBRANCH  27  28
ENDBRANCH  26  27
ENDBRANCH  25  26
ENDBRANCH  24  25
ENDBRANCH  21  24
ENDBRANCH  19  20
ENDBRANCH  18  19
ENDBRANCH  17  18
ENDBRANCH   1  17
BRANCH  10  31
HETATM   31  O3  UNL     1      -4.175  -1.923   0.952  1.00  0.00    -0.392 OA
ATOM     32  H3  UNL     1      -4.748  -2.590   1.312  1.00  0.00     0.210 HD
ENDBRANCH  10  31
BRANCH   5  33
HETATM   33  N5  UNL     1      -5.165   0.125  -2.139  1.00  0.00    -0.240 NA
HETATM   34  C15 UNL     1      -5.122  -1.282  -2.466  1.00  0.00     0.135 C 
HETATM   35  C16 UNL     1      -5.703   0.890  -3.274  1.00  0.00     0.135 C 
ENDBRANCH   5  33
TORSDOF 12
