REMARK  12 active torsions:
REMARK  status: ('A' for Active; 'I' for Inactive)
REMARK    1  A    between atoms: C3_5  and  C4_6 
REMARK    2  A    between atoms: C4_6  and  N2_7 
REMARK    3  A    between atoms: C6_13  and  C7_14 
REMARK    4  A    between atoms: C8_15  and  C9_16 
REMARK    5  A    between atoms: C9_16  and  C10_17 
REMARK    6  A    between atoms: C9_16  and  N5_22 
REMARK    7  A    between atoms: C10_17  and  C11_18 
REMARK    8  A    between atoms: C11_18  and  C12_19 
REMARK       I    between atoms: N5_22  and  C13_24 
REMARK    9  A    between atoms: C13_24  and  C14_26 
REMARK   10  A    between atoms: C14_26  and  N7_29 
REMARK       I    between atoms: N7_29  and  C16_31 
REMARK   11  A    between atoms: C16_31  and  C17_33 
REMARK   12  A    between atoms: C17_33  and  N8_34 
ROOT
HETATM    1  C14 UNL     1       1.486  -1.086   1.291  1.00  0.00     0.284 C 
HETATM    2  C15 UNL     1       1.405  -1.872   2.522  1.00  0.00     0.094 C 
HETATM    3  N6  UNL     1       1.328  -2.500   3.491  1.00  0.00    -0.195 NA
ENDROOT
BRANCH   1   4
HETATM    4  C13 UNL     1       0.498  -1.523   0.288  1.00  0.00     0.255 C 
HETATM    5  N5  UNL     1      -0.877  -1.529   0.615  1.00  0.00    -0.351 N 
ATOM      6  H5  UNL     1      -1.157  -1.227   1.548  1.00  0.00     0.163 HD
HETATM    7  O2  UNL     1       0.898  -1.884  -0.843  1.00  0.00    -0.270 OA
BRANCH   5   8
HETATM    8  C9  UNL     1      -1.908  -1.945  -0.316  1.00  0.00     0.108 C 
BRANCH   8   9
HETATM    9  C8  UNL     1      -2.848  -0.810  -0.479  1.00  0.00    -0.001 C 
HETATM   10  C7  UNL     1      -2.379   0.426  -0.312  1.00  0.00     0.012 C 
BRANCH  10  11
HETATM   11  C6  UNL     1      -3.271   1.565  -0.463  1.00  0.00    -0.008 A 
HETATM   12  C2  UNL     1      -2.923   2.890  -0.319  1.00  0.00     0.033 A 
HETATM   13  C1  UNL     1      -1.728   3.356  -0.019  1.00  0.00     0.044 C 
HETATM   14  N1  UNL     1      -3.998   3.675  -0.530  1.00  0.00    -0.355 N 
HETATM   15  C3  UNL     1      -5.059   2.894  -0.813  1.00  0.00     0.050 A 
ATOM     16  H1  UNL     1      -4.007   4.694  -0.483  1.00  0.00     0.166 HD
HETATM   17  C5  UNL     1      -4.611   1.578  -0.773  1.00  0.00     0.044 A 
BRANCH  15  18
HETATM   18  C4  UNL     1      -6.285   3.295  -1.078  1.00  0.00     0.136 C 
BRANCH  18  19
HETATM   19  N2  UNL     1      -6.580   4.686  -1.079  1.00  0.00    -0.316 N 
HETATM   20  N3  UNL     1      -7.554   5.151  -1.756  1.00  0.00    -0.345 N 
ATOM     21  H32 UNL     1      -8.121   4.502  -2.301  1.00  0.00     0.176 HD
ATOM     22  H31 UNL     1      -7.766   6.149  -1.757  1.00  0.00     0.176 HD
ATOM     23  H2  UNL     1      -6.003   5.322  -0.529  1.00  0.00     0.185 HD
ENDBRANCH  18  19
ENDBRANCH  15  18
ENDBRANCH  10  11
ENDBRANCH   8   9
BRANCH   8  24
HETATM   24  C10 UNL     1      -2.695  -3.097   0.277  1.00  0.00     0.038 C 
BRANCH  24  25
HETATM   25  C11 UNL     1      -1.821  -4.314   0.485  1.00  0.00     0.102 C 
BRANCH  25  26
HETATM   26  C12 UNL     1      -2.634  -5.394   1.060  1.00  0.00     0.231 C 
HETATM   27  N4  UNL     1      -2.028  -6.654   1.350  1.00  0.00    -0.062 NA
HETATM   28  O1  UNL     1      -3.858  -5.279   1.319  1.00  0.00    -0.277 OA
ENDBRANCH  25  26
ENDBRANCH  24  25
ENDBRANCH   8  24
ENDBRANCH   5   8
ENDBRANCH   1   4
BRANCH   1  29
HETATM   29  N7  UNL     1       2.806  -1.174   0.708  1.00  0.00    -0.335 N 
HETATM   30  C16 UNL     1       3.682  -0.088   0.574  1.00  0.00     0.237 C 
HETATM   31  O3  UNL     1       3.313   1.053   0.983  1.00  0.00    -0.272 OA
ATOM     32  H7  UNL     1       3.120  -2.085   0.373  1.00  0.00     0.164 HD
BRANCH  30  33
HETATM   33  C17 UNL     1       5.011  -0.295  -0.039  1.00  0.00     0.230 C 
BRANCH  33  34
HETATM   34  N8  UNL     1       5.781   0.927  -0.101  1.00  0.00    -0.358 N 
HETATM   35  C18 UNL     1       5.689   1.724  -1.184  1.00  0.00     0.091 A 
HETATM   36  C19 UNL     1       6.419   2.910  -1.274  1.00  0.00     0.017 A 
HETATM   37  C20 UNL     1       7.256   3.301  -0.256  1.00  0.00     0.003 A 
HETATM   38  C21 UNL     1       7.338   2.468   0.849  1.00  0.00     0.017 A 
HETATM   39  C22 UNL     1       6.592   1.299   0.892  1.00  0.00     0.091 A 
ENDBRANCH  33  34
ENDBRANCH  30  33
ENDBRANCH   1  29
TORSDOF 12
