REMARK  13 active torsions:
REMARK  status: ('A' for Active; 'I' for Inactive)
REMARK    1  A    between atoms: C2_2  and  C3_3 
REMARK    2  A    between atoms: N1_6  and  C6_7 
REMARK    3  A    between atoms: C6_7  and  C7_8 
REMARK    4  A    between atoms: C7_8  and  C8_9 
REMARK    5  A    between atoms: C8_9  and  C9_10 
REMARK    6  A    between atoms: C9_10  and  C10_11 
REMARK    7  A    between atoms: C10_11  and  N2_12 
REMARK    8  A    between atoms: C12_14  and  C13_15 
REMARK    9  A    between atoms: C13_15  and  C14_16 
REMARK   10  A    between atoms: C14_16  and  C15_17 
REMARK   11  A    between atoms: C15_17  and  N3_18 
REMARK   12  A    between atoms: N4_22  and  C18_24 
REMARK   13  A    between atoms: C21_34  and  O2_35 
ROOT
HETATM    1  N2  UNL     1       0.246   0.024   2.886  1.00  0.00    -0.322 N 
HETATM    2  C11 UNL     1       1.083  -0.414   1.946  1.00  0.00     0.109 A 
HETATM    3  C12 UNL     1       2.314   0.145   1.637  1.00  0.00     0.024 A 
HETATM    4  C17 UNL     1       2.739   1.248   2.341  1.00  0.00     0.122 A 
HETATM    5  N4  UNL     1       3.770   1.860   2.209  1.00  0.00    -0.313 N 
ATOM      6  H4  UNL     1       3.735   2.607   2.902  1.00  0.00     0.170 HD
HETATM    7  N7  UNL     1       1.837   1.690   3.328  1.00  0.00    -0.307 N 
ATOM      8  H7  UNL     1       2.095   2.504   3.885  1.00  0.00     0.171 HD
HETATM    9  C21 UNL     1       0.686   1.115   3.571  1.00  0.00     0.224 A 
ENDROOT
BRANCH   1  10
HETATM   10  C10 UNL     1      -1.011  -0.578   3.189  1.00  0.00     0.132 C 
BRANCH  10  11
HETATM   11  C9  UNL     1      -2.199  -0.060   2.480  1.00  0.00     0.020 C 
BRANCH  11  12
HETATM   12  C8  UNL     1      -2.241  -0.201   1.000  1.00  0.00     0.003 C 
BRANCH  12  13
HETATM   13  C7  UNL     1      -2.252  -1.645   0.567  1.00  0.00     0.020 C 
BRANCH  13  14
HETATM   14  C6  UNL     1      -2.272  -1.752  -0.923  1.00  0.00     0.128 C 
BRANCH  14  15
HETATM   15  N1  UNL     1      -3.370  -1.168  -1.599  1.00  0.00    -0.366 N 
HETATM   16  C5  UNL     1      -4.506  -1.872  -1.850  1.00  0.00     0.091 A 
HETATM   17  C4  UNL     1      -5.582  -1.326  -2.511  1.00  0.00     0.024 A 
HETATM   18  C3  UNL     1      -5.526  -0.009  -2.947  1.00  0.00    -0.056 A 
HETATM   19  C23 UNL     1      -4.367   0.679  -2.681  1.00  0.00     0.024 A 
HETATM   20  C22 UNL     1      -3.288   0.118  -2.013  1.00  0.00     0.091 A 
BRANCH  18  21
HETATM   21  C2  UNL     1      -6.682   0.599  -3.665  1.00  0.00     0.034 C 
HETATM   22  C1  UNL     1      -7.612   1.238  -2.636  1.00  0.00     0.010 C 
ENDBRANCH  18  21
ENDBRANCH  14  15
ENDBRANCH  13  14
ENDBRANCH  12  13
ENDBRANCH  11  12
ENDBRANCH  10  11
ENDBRANCH   1  10
BRANCH   9  23
HETATM   23  O2  UNL     1      -0.132   1.640   4.577  1.00  0.00    -0.332 OA
ATOM     24  H2  UNL     1       0.175   2.401   5.055  1.00  0.00     0.221 HD
ENDBRANCH   9  23
BRANCH   3  25
HETATM   25  C13 UNL     1       3.140  -0.443   0.569  1.00  0.00     0.018 C 
BRANCH  25  26
HETATM   26  C14 UNL     1       2.794  -1.491  -0.142  1.00  0.00     0.018 C 
BRANCH  26  27
HETATM   27  C15 UNL     1       3.659  -2.015  -1.177  1.00  0.00     0.082 C 
BRANCH  27  28
HETATM   28  N3  UNL     1       4.804  -1.563  -1.523  1.00  0.00    -0.403 N 
HETATM   29  C16 UNL     1       5.598  -2.167  -2.583  1.00  0.00     0.145 C 
ATOM     30  H3  UNL     1       5.176  -0.747  -1.037  1.00  0.00     0.158 HD
ENDBRANCH  27  28
ENDBRANCH  26  27
ENDBRANCH  25  26
ENDBRANCH   3  25
BRANCH   5  31
HETATM   31  C18 UNL     1       4.938   2.013   1.575  1.00  0.00     0.184 A 
HETATM   32  N5  UNL     1       5.180   2.772   0.511  1.00  0.00    -0.353 N 
HETATM   33  C19 UNL     1       6.546   2.695   0.098  1.00  0.00     0.225 A 
ATOM     34  H5  UNL     1       4.474   3.342   0.045  1.00  0.00     0.163 HD
HETATM   35  C20 UNL     1       7.215   1.798   1.067  1.00  0.00     0.241 A 
HETATM   36  O1  UNL     1       8.440   1.463   1.104  1.00  0.00    -0.271 OA
HETATM   37  N6  UNL     1       6.202   1.384   1.953  1.00  0.00    -0.297 N 
ATOM     38  H6  UNL     1       6.330   0.744   2.737  1.00  0.00     0.172 HD
ENDBRANCH   5  31
TORSDOF 13
