REMARK  7 active torsions:
REMARK  status: ('A' for Active; 'I' for Inactive)
REMARK    1  A    between atoms: N1_1  and  C1_5 
REMARK    2  A    between atoms: N2_7  and  S1_8 
REMARK    3  A    between atoms: S1_8  and  N3_11 
REMARK    4  A    between atoms: C8_17  and  N4_18 
REMARK    5  A    between atoms: C8_17  and  C9_22 
REMARK    6  A    between atoms: C9_22  and  O3_23 
REMARK    7  A    between atoms: N5_25  and  O4_27 
ROOT
HETATM    1  C1  UNL     1      -2.699  -1.044  -0.395  1.00  0.00     0.258 C 
HETATM    2  C2  UNL     1      -1.963   0.282  -0.619  1.00  0.00     0.149 C 
HETATM    3  N2  UNL     1      -1.045  -0.104   0.404  1.00  0.00    -0.151 NA
HETATM    4  C8  UNL     1      -1.913  -1.145   0.894  1.00  0.00     0.287 C 
ENDROOT
BRANCH   4   5
HETATM    5  N4  UNL     1      -1.330  -2.441   1.049  1.00  0.00    -0.046 N 
ATOM      6  H43 UNL     1      -2.032  -3.177   0.981  1.00  0.00     0.277 HD
ATOM      7  H42 UNL     1      -0.759  -2.693   0.242  1.00  0.00     0.277 HD
ATOM      8  H41 UNL     1      -0.800  -2.509   1.918  1.00  0.00     0.277 HD
ENDBRANCH   4   5
BRANCH   4   9
HETATM    9  C9  UNL     1      -2.640  -0.703   2.096  1.00  0.00     0.191 C 
HETATM   10  N5  UNL     1      -2.272   0.255   2.875  1.00  0.00    -0.248 N 
ATOM     11  H5  UNL     1      -2.847   0.487   3.685  1.00  0.00     0.196 HD
BRANCH   9  12
HETATM   12  O3  UNL     1      -3.817  -1.358   2.431  1.00  0.00    -0.345 OA
ATOM     13  H3  UNL     1      -4.286  -1.073   3.206  1.00  0.00     0.219 HD
ENDBRANCH   9  12
BRANCH  10  14
HETATM   14  O4  UNL     1      -1.124   0.972   2.640  1.00  0.00    -0.288 OA
ATOM     15  H4  UNL     1      -0.853   1.678   3.214  1.00  0.00     0.244 HD
ENDBRANCH  10  14
ENDBRANCH   4   9
BRANCH   1  16
HETATM   16  N1  UNL     1      -4.119  -0.807  -0.214  1.00  0.00    -0.070 N 
ATOM     17  H13 UNL     1      -4.301  -0.140   0.536  1.00  0.00     0.274 HD
ATOM     18  H12 UNL     1      -4.518  -0.276  -0.988  1.00  0.00     0.274 HD
ATOM     19  H11 UNL     1      -4.609  -1.689  -0.065  1.00  0.00     0.274 HD
ENDBRANCH   1  16
BRANCH   3  20
HETATM   20  S1  UNL     1       0.504  -0.621  -0.133  1.00  0.00     0.285 S 
HETATM   21  O1  UNL     1       0.261  -1.730  -1.148  1.00  0.00    -0.194 OA
HETATM   22  O2  UNL     1       1.316  -1.215   0.962  1.00  0.00    -0.194 OA
BRANCH  20  23
HETATM   23  N3  UNL     1       1.263   0.661  -0.955  1.00  0.00    -0.197 NA
HETATM   24  C3  UNL     1       1.493   1.821  -0.159  1.00  0.00     0.108 C 
HETATM   25  C4  UNL     1       2.790   1.771   0.614  1.00  0.00     0.015 C 
HETATM   26  C5  UNL     1       3.951   1.350  -0.261  1.00  0.00     0.002 C 
HETATM   27  C6  UNL     1       3.641   0.069  -1.000  1.00  0.00     0.015 C 
HETATM   28  C7  UNL     1       2.364   0.276  -1.773  1.00  0.00     0.108 C 
ENDBRANCH  20  23
ENDBRANCH   3  20
TORSDOF 7
