REMARK  7 active torsions:
REMARK  status: ('A' for Active; 'I' for Inactive)
REMARK    1  A    between atoms: N1_2  and  C3_4 
REMARK    2  A    between atoms: C3_4  and  C4_9 
REMARK    3  A    between atoms: N2_5  and  O1_7 
REMARK    4  A    between atoms: C6_12  and  C7_13 
REMARK    5  A    between atoms: N3_14  and  N4_16 
REMARK    6  A    between atoms: N4_16  and  C8_18 
REMARK    7  A    between atoms: C9_21  and  O2_22 
ROOT
HETATM    1  C4  UNL     1      -1.174   0.622  -0.355  1.00  0.00     0.084 A 
HETATM    2  S1  UNL     1      -0.317   0.538  -1.821  1.00  0.00    -0.094 SA
HETATM    3  C5  UNL     1       1.271   0.592  -1.209  1.00  0.00     0.066 A 
HETATM    4  C6  UNL     1       1.100   0.675   0.148  1.00  0.00     0.022 A 
HETATM    5  C9  UNL     1      -0.192   0.690   0.585  1.00  0.00     0.098 A 
ENDROOT
BRANCH   1   6
HETATM    6  C3  UNL     1      -2.644   0.601  -0.152  1.00  0.00     0.142 C 
HETATM    7  N2  UNL     1      -3.227   1.583   0.387  1.00  0.00    -0.252 N 
ATOM      8  H2  UNL     1      -4.235   1.524   0.533  1.00  0.00     0.196 HD
BRANCH   6   9
HETATM    9  N1  UNL     1      -3.298  -0.583  -0.571  1.00  0.00    -0.373 N 
HETATM   10  C1  UNL     1      -2.630  -1.860  -0.415  1.00  0.00     0.150 C 
HETATM   11  C2  UNL     1      -4.621  -0.589  -1.159  1.00  0.00     0.150 C 
ENDBRANCH   6   9
BRANCH   7  12
HETATM   12  O1  UNL     1      -2.591   2.706   0.780  1.00  0.00    -0.288 OA
ATOM     13  H1  UNL     1      -3.030   3.445   1.185  1.00  0.00     0.244 HD
ENDBRANCH   7  12
ENDBRANCH   1   6
BRANCH   5  14
HETATM   14  O2  UNL     1      -0.471   0.767   1.982  1.00  0.00    -0.358 OA
ATOM     15  H2  UNL     1       0.214   0.814   2.638  1.00  0.00     0.217 HD
ENDBRANCH   5  14
BRANCH   4  16
HETATM   16  C7  UNL     1       2.305   0.743   1.028  1.00  0.00     0.122 C 
HETATM   17  N3  UNL     1       3.478   0.733   0.676  1.00  0.00    -0.309 N 
ATOM     18  H3  UNL     1       4.077   0.792   1.499  1.00  0.00     0.186 HD
BRANCH  17  19
HETATM   19  N4  UNL     1       4.244   0.671  -0.427  1.00  0.00    -0.279 N 
ATOM     20  H4  UNL     1       4.262   1.498  -1.024  1.00  0.00     0.189 HD
BRANCH  19  21
HETATM   21  C8  UNL     1       5.030  -0.437  -0.839  1.00  0.00     0.199 C 
HETATM   22  N5  UNL     1       5.038  -1.595  -0.052  1.00  0.00    -0.068 NA
HETATM   23  S2  UNL     1       5.911  -0.363  -2.206  1.00  0.00    -0.043 SA
ENDBRANCH  19  21
ENDBRANCH  17  19
ENDBRANCH   4  16
TORSDOF 7
