REMARK  6 active torsions:
REMARK  status: ('A' for Active; 'I' for Inactive)
REMARK    1  A    between atoms: C2_5  and  C3_6 
REMARK    2  A    between atoms: C3_6  and  O1_7 
REMARK    3  A    between atoms: O1_7  and  N2_8 
REMARK    4  A    between atoms: C11_17  and  C12_18 
REMARK    5  A    between atoms: C12_18  and  O3_19 
REMARK    6  A    between atoms: N3_21  and  O4_23 
ROOT
HETATM    1  N1  UNL     1       2.521   0.557  -1.558  1.00  0.00    -0.399 N 
ATOM      2  H11 UNL     1       3.399   0.940  -1.909  1.00  0.00     0.156 HD
ATOM      3  H12 UNL     1       1.643   0.883  -1.962  1.00  0.00     0.156 HD
HETATM    4  C1  UNL     1       2.517  -0.332  -0.615  1.00  0.00     0.048 C 
HETATM    5  C2  UNL     1       1.271  -0.876  -0.117  1.00  0.00    -0.009 C 
HETATM    6  C9  UNL     1       1.276  -2.057   0.464  1.00  0.00     0.010 C 
HETATM    7  C10 UNL     1       2.611  -2.729   0.548  1.00  0.00     0.197 C 
HETATM    8  O2  UNL     1       3.602  -1.811   0.881  1.00  0.00    -0.368 OA
HETATM    9  C11 UNL     1       3.794  -0.806  -0.028  1.00  0.00     0.247 C 
ENDROOT
BRANCH   5  10
HETATM   10  C3  UNL     1       0.028  -0.086  -0.276  1.00  0.00     0.242 C 
BRANCH  10  11
HETATM   11  O1  UNL     1      -1.077  -0.755   0.257  1.00  0.00    -0.274 OA
BRANCH  11  12
HETATM   12  N2  UNL     1      -2.147  -0.035   0.100  1.00  0.00    -0.273 N 
HETATM   13  C4  UNL     1      -2.380   1.064   0.930  1.00  0.00     0.155 C 
HETATM   14  C5  UNL     1      -3.844   1.041   1.381  1.00  0.00     0.023 C 
HETATM   15  C6  UNL     1      -4.700   0.956   0.154  1.00  0.00     0.007 C 
HETATM   16  C7  UNL     1      -4.391  -0.272  -0.667  1.00  0.00     0.047 C 
HETATM   17  C8  UNL     1      -2.922  -0.194  -1.059  1.00  0.00     0.090 C 
ENDBRANCH  11  12
ENDBRANCH  10  11
ENDBRANCH   5  10
BRANCH   9  18
HETATM   18  C12 UNL     1       4.366   0.356   0.700  1.00  0.00     0.171 C 
HETATM   19  N3  UNL     1       5.502   0.812   0.372  1.00  0.00    -0.249 N 
ATOM     20  H3  UNL     1       5.986   0.349  -0.397  1.00  0.00     0.196 HD
BRANCH  18  21
HETATM   21  O3  UNL     1       3.640   0.916   1.726  1.00  0.00    -0.346 OA
ATOM     22  H3  UNL     1       4.006   1.659   2.191  1.00  0.00     0.219 HD
ENDBRANCH  18  21
BRANCH  19  23
HETATM   23  O4  UNL     1       6.131   1.867   0.958  1.00  0.00    -0.288 OA
ATOM     24  H4  UNL     1       6.983   2.209   0.712  1.00  0.00     0.244 HD
ENDBRANCH  19  23
ENDBRANCH   9  18
TORSDOF 6
