REMARK  11 active torsions:
REMARK  status: ('A' for Active; 'I' for Inactive)
REMARK    1  A    between atoms: C2_2  and  C3_3 
REMARK    2  A    between atoms: C3_3  and  C4_4 
REMARK    3  A    between atoms: C4_4  and  C5_5 
REMARK    4  A    between atoms: C7_10  and  C8_11 
REMARK    5  A    between atoms: C8_11  and  C9_12 
REMARK    6  A    between atoms: C18_26  and  C19_27 
REMARK    7  A    between atoms: C19_27  and  C20_28 
REMARK    8  A    between atoms: C20_28  and  C21_29 
REMARK    9  A    between atoms: C26_40  and  C27_41 
REMARK   10  A    between atoms: C27_41  and  N6_42 
REMARK   11  A    between atoms: N6_42  and  C28_43 
ROOT
HETATM    1  C5  UNL     1      -1.947   1.742   0.793  1.00  0.00     0.176 C 
HETATM    2  N1  UNL     1      -0.991   1.535   1.857  1.00  0.00    -0.346 N 
ATOM      3  H1  UNL     1      -1.396   1.433   2.787  1.00  0.00     0.163 HD
HETATM    4  C6  UNL     1       0.389   1.454   1.808  1.00  0.00     0.241 C 
HETATM    5  O1  UNL     1       0.956   0.427   2.264  1.00  0.00    -0.271 OA
HETATM    6  C7  UNL     1       1.327   2.515   1.242  1.00  0.00     0.177 C 
HETATM    7  N2  UNL     1       2.634   1.894   1.183  1.00  0.00    -0.346 N 
ATOM      8  H2  UNL     1       3.101   1.752   2.079  1.00  0.00     0.163 HD
HETATM    9  C12 UNL     1       3.332   1.467   0.059  1.00  0.00     0.241 C 
HETATM   10  O2  UNL     1       4.602   1.317   0.137  1.00  0.00    -0.271 OA
HETATM   11  C13 UNL     1       2.764   1.152  -1.276  1.00  0.00     0.179 C 
HETATM   12  C14 UNL     1       2.744   2.470  -2.056  1.00  0.00     0.037 C 
HETATM   13  C15 UNL     1       4.128   2.458  -2.680  1.00  0.00     0.022 C 
HETATM   14  C16 UNL     1       4.282   1.034  -3.088  1.00  0.00     0.127 C 
HETATM   15  N3  UNL     1       3.619   0.281  -2.051  1.00  0.00    -0.337 N 
HETATM   16  C17 UNL     1       3.739  -1.110  -1.779  1.00  0.00     0.243 C 
HETATM   17  O3  UNL     1       4.748  -1.737  -2.181  1.00  0.00    -0.271 OA
HETATM   18  C18 UNL     1       2.706  -1.889  -1.025  1.00  0.00     0.176 C 
HETATM   19  N4  UNL     1       1.834  -2.603  -1.934  1.00  0.00    -0.346 N 
ATOM     20  H4  UNL     1       2.256  -2.908  -2.811  1.00  0.00     0.163 HD
HETATM   21  C23 UNL     1       0.492  -2.924  -1.758  1.00  0.00     0.236 C 
HETATM   22  O4  UNL     1      -0.276  -2.760  -2.771  1.00  0.00    -0.272 OA
HETATM   23  C24 UNL     1      -0.154  -3.436  -0.528  1.00  0.00     0.225 C 
HETATM   24  N5  UNL     1      -0.364  -2.465   0.495  1.00  0.00    -0.350 N 
ATOM     25  H5  UNL     1       0.484  -2.143   0.961  1.00  0.00     0.163 HD
HETATM   26  C25 UNL     1      -1.560  -1.879   0.965  1.00  0.00     0.242 C 
HETATM   27  O5  UNL     1      -1.747  -1.881   2.249  1.00  0.00    -0.271 OA
HETATM   28  C26 UNL     1      -2.624  -1.259   0.169  1.00  0.00     0.202 C 
HETATM   29  N7  UNL     1      -2.056  -0.291  -0.797  1.00  0.00    -0.344 N 
ATOM     30  H7  UNL     1      -1.940  -0.585  -1.767  1.00  0.00     0.163 HD
HETATM   31  C34 UNL     1      -1.669   1.012  -0.443  1.00  0.00     0.241 C 
HETATM   32  O6  UNL     1      -0.982   1.625  -1.340  1.00  0.00    -0.271 OA
ENDROOT
BRANCH  28  33
HETATM   33  C27 UNL     1      -3.479  -2.198  -0.558  1.00  0.00     0.272 C 
BRANCH  33  34
HETATM   34  N6  UNL     1      -4.294  -3.171   0.037  1.00  0.00    -0.065 N 
HETATM   35  C30 UNL     1      -5.551  -2.592   0.550  1.00  0.00     0.237 C 
HETATM   36  C31 UNL     1      -6.566  -2.682  -0.533  1.00  0.00     0.029 C 
HETATM   37  C32 UNL     1      -6.118  -3.837  -1.374  1.00  0.00     0.029 C 
HETATM   38  C33 UNL     1      -4.694  -4.093  -1.028  1.00  0.00     0.237 C 
BRANCH  34  39
HETATM   39  C28 UNL     1      -3.771  -3.949   1.120  1.00  0.00     0.233 C 
HETATM   40  C29 UNL     1      -4.567  -5.255   1.277  1.00  0.00     0.035 C 
ENDBRANCH  34  39
ENDBRANCH  33  34
ENDBRANCH  28  33
BRANCH   1  41
HETATM   41  C4  UNL     1      -2.161   3.244   0.546  1.00  0.00     0.035 C 
BRANCH  41  42
HETATM   42  C3  UNL     1      -3.170   3.483  -0.549  1.00  0.00     0.002 C 
BRANCH  42  43
HETATM   43  C2  UNL     1      -3.354   4.990  -0.770  1.00  0.00    -0.004 C 
HETATM   44  C1  UNL     1      -1.994   5.557  -1.167  1.00  0.00     0.005 C 
ENDBRANCH  42  43
ENDBRANCH  41  42
ENDBRANCH   1  41
BRANCH  18  45
HETATM   45  C19 UNL     1       3.459  -2.923  -0.225  1.00  0.00     0.035 C 
BRANCH  45  46
HETATM   46  C20 UNL     1       4.443  -2.284   0.746  1.00  0.00     0.002 C 
BRANCH  46  47
HETATM   47  C21 UNL     1       5.184  -3.338   1.537  1.00  0.00    -0.004 C 
HETATM   48  C22 UNL     1       5.936  -4.215   0.576  1.00  0.00     0.005 C 
ENDBRANCH  46  47
ENDBRANCH  45  46
ENDBRANCH  18  45
BRANCH   6  49
HETATM   49  C8  UNL     1       1.373   3.662   2.207  1.00  0.00     0.038 C 
BRANCH  49  50
HETATM   50  C9  UNL     1       2.211   4.792   1.732  1.00  0.00    -0.020 C 
HETATM   51  C10 UNL     1       3.651   4.568   1.484  1.00  0.00     0.009 C 
HETATM   52  C11 UNL     1       2.076   5.955   2.739  1.00  0.00     0.009 C 
ENDBRANCH  49  50
ENDBRANCH   6  49
TORSDOF 11
