REMARK  14 active torsions:
REMARK  status: ('A' for Active; 'I' for Inactive)
REMARK    1  A    between atoms: C2_2  and  C3_3 
REMARK    2  A    between atoms: C3_3  and  N1_5 
REMARK    3  A    between atoms: C3_3  and  C8_15 
REMARK       I    between atoms: N1_5  and  C5_7 
REMARK    4  A    between atoms: C5_7  and  C6_9 
REMARK    5  A    between atoms: C6_9  and  C7_10 
REMARK    6  A    between atoms: C7_10  and  S1_11 
REMARK    7  A    between atoms: N2_18  and  C11_19 
REMARK    8  A    between atoms: C15_23  and  C16_24 
REMARK    9  A    between atoms: C16_24  and  N3_25 
REMARK   10  A    between atoms: C16_24  and  C24_35 
REMARK       I    between atoms: N3_25  and  C17_27 
REMARK   11  A    between atoms: C17_27  and  C18_29 
REMARK   12  A    between atoms: C24_35  and  O6_36 
REMARK   13  A    between atoms: C24_35  and  N4_38 
REMARK       I    between atoms: N4_38  and  C25_40 
REMARK       I    between atoms: C25_40  and  N6_42 
REMARK   14  A    between atoms: N6_42  and  C26_44 
ROOT
HETATM    1  C11 UNL     1      -0.316  -0.658   0.064  1.00  0.00     0.200 C 
HETATM    2  C12 UNL     1       0.303  -1.864   0.702  1.00  0.00     0.034 C 
HETATM    3  C13 UNL     1       0.312  -2.961  -0.333  1.00  0.00     0.003 C 
HETATM    4  C14 UNL     1      -0.505  -2.417  -1.515  1.00  0.00     0.013 C 
HETATM    5  C15 UNL     1      -1.297  -1.301  -0.954  1.00  0.00     0.071 C 
ENDROOT
BRANCH   5   6
HETATM    6  C16 UNL     1      -2.588  -1.552  -0.311  1.00  0.00     0.069 C 
BRANCH   6   7
HETATM    7  N3  UNL     1      -3.211  -0.266   0.102  1.00  0.00    -0.326 N 
HETATM    8  C17 UNL     1      -3.626  -0.009   1.409  1.00  0.00     0.226 C 
HETATM    9  O5  UNL     1      -3.445  -0.931   2.293  1.00  0.00    -0.273 OA
ATOM     10  H3  UNL     1      -3.341   0.461  -0.602  1.00  0.00     0.168 HD
BRANCH   8  11
HETATM   11  C18 UNL     1      -4.264   1.249   1.848  1.00  0.00     0.078 C 
HETATM   12  C19 UNL     1      -3.382   2.163   2.614  1.00  0.00     0.014 C 
HETATM   13  C20 UNL     1      -3.878   3.597   2.603  1.00  0.00     0.001 C 
HETATM   14  C21 UNL     1      -5.356   3.672   2.337  1.00  0.00     0.000 C 
HETATM   15  C22 UNL     1      -5.672   3.145   0.977  1.00  0.00     0.001 C 
HETATM   16  C23 UNL     1      -4.894   1.903   0.630  1.00  0.00     0.014 C 
ENDBRANCH   8  11
ENDBRANCH   6   7
BRANCH   6  17
HETATM   17  C24 UNL     1      -3.604  -2.465  -0.698  1.00  0.00     0.166 C 
BRANCH  17  18
HETATM   18  O6  UNL     1      -4.839  -2.096  -0.528  1.00  0.00    -0.345 OA
ATOM     19  H6  UNL     1      -5.519  -2.707  -0.787  1.00  0.00     0.219 HD
ENDBRANCH  17  18
BRANCH  17  20
HETATM   20  N4  UNL     1      -3.534  -3.777  -1.259  1.00  0.00    -0.309 N 
HETATM   21  C25 UNL     1      -4.665  -4.537  -1.510  1.00  0.00     0.196 C 
HETATM   22  N5  UNL     1      -3.749  -5.577  -2.618  1.00  0.00    -0.063 NA
HETATM   23  N6  UNL     1      -5.603  -5.168  -1.719  1.00  0.00    -0.310 N 
ATOM     24  H6  UNL     1      -5.231  -5.991  -2.193  1.00  0.00     0.170 HD
ATOM     25  H4  UNL     1      -2.619  -4.168  -1.483  1.00  0.00     0.170 HD
BRANCH  23  26
HETATM   26  C26 UNL     1      -6.933  -5.409  -1.676  1.00  0.00     0.187 C 
HETATM   27  N7  UNL     1      -7.400  -6.799  -1.563  1.00  0.00    -0.070 NA
HETATM   28  S2  UNL     1      -8.165  -4.296  -1.726  1.00  0.00    -0.044 SA
ENDBRANCH  23  26
ENDBRANCH  17  20
ENDBRANCH   6  17
ENDBRANCH   5   6
BRANCH   1  29
HETATM   29  N2  UNL     1       0.499   0.372  -0.344  1.00  0.00    -0.061 N 
HETATM   30  C10 UNL     1       1.081   0.466  -1.630  1.00  0.00     0.239 C 
HETATM   31  C9  UNL     1       2.099   1.632  -1.469  1.00  0.00     0.042 C 
HETATM   32  C8  UNL     1       2.301   1.651   0.016  1.00  0.00     0.016 C 
HETATM   33  C28 UNL     1       1.183   2.508   0.569  1.00  0.00     0.042 C 
HETATM   34  C29 UNL     1       1.756   0.308   0.454  1.00  0.00     0.250 C 
HETATM   35  C27 UNL     1       0.004   1.704  -0.014  1.00  0.00     0.239 C 
BRANCH  32  36
HETATM   36  C3  UNL     1       3.670   1.920   0.478  1.00  0.00     0.056 C 
HETATM   37  C4  UNL     1       3.752   1.858   1.982  1.00  0.00     0.044 C 
BRANCH  36  38
HETATM   38  C2  UNL     1       4.189   3.243   0.037  1.00  0.00    -0.006 C 
HETATM   39  C1  UNL     1       4.951   3.376  -1.027  1.00  0.00     0.009 C 
ENDBRANCH  36  38
BRANCH  36  40
HETATM   40  N1  UNL     1       4.527   0.846  -0.014  1.00  0.00    -0.348 N 
HETATM   41  C5  UNL     1       5.902   0.709   0.341  1.00  0.00     0.219 C 
HETATM   42  O1  UNL     1       6.372   1.564   1.101  1.00  0.00    -0.274 OA
ATOM     43  H1  UNL     1       4.121   0.156  -0.646  1.00  0.00     0.163 HD
BRANCH  41  44
HETATM   44  C6  UNL     1       6.637  -0.416  -0.210  1.00  0.00     0.120 C 
BRANCH  44  45
HETATM   45  C7  UNL     1       8.082  -0.484   0.076  1.00  0.00     0.174 C 
BRANCH  45  46
HETATM   46  S1  UNL     1       8.996   0.831  -0.659  1.00  0.00     0.102 S 
HETATM   47  O2  UNL     1       8.709   2.181  -0.147  1.00  0.00    -0.595 OA
HETATM   48  O3  UNL     1      10.480   0.577  -0.436  1.00  0.00    -0.595 OA
HETATM   49  O4  UNL     1       8.783   0.755  -2.334  1.00  0.00    -0.595 OA
ENDBRANCH  45  46
ENDBRANCH  44  45
ENDBRANCH  41  44
ENDBRANCH  36  40
ENDBRANCH  32  36
ENDBRANCH   1  29
TORSDOF 14
