REMARK  13 active torsions:
REMARK  status: ('A' for Active; 'I' for Inactive)
REMARK    1  A    between atoms: C2_2  and  C4_4 
REMARK    2  A    between atoms: C4_4  and  C5_5 
REMARK    3  A    between atoms: C6_8  and  O1_9 
REMARK    4  A    between atoms: C7_11  and  C8_12 
REMARK    5  A    between atoms: C8_12  and  C9_13 
REMARK    6  A    between atoms: C12_18  and  O2_19 
REMARK    7  A    between atoms: C13_21  and  C14_22 
REMARK    8  A    between atoms: C14_22  and  C15_23 
REMARK    9  A    between atoms: C20_30  and  C21_31 
REMARK   10  A    between atoms: C21_31  and  C22_32 
REMARK   11  A    between atoms: C24_39  and  C25_40 
REMARK   12  A    between atoms: C25_40  and  C26_41 
REMARK   13  A    between atoms: C30_48  and  C31_49 
ROOT
HETATM    1  C5  UNL     1      -2.473  -1.988  -0.040  1.00  0.00     0.175 C 
HETATM    2  N1  UNL     1      -2.549  -1.188  -1.270  1.00  0.00    -0.359 N 
ATOM      3  H1  UNL     1      -3.283  -1.543  -1.883  1.00  0.00     0.162 HD
HETATM    4  C6  UNL     1      -1.940  -0.129  -1.828  1.00  0.00     0.135 C 
HETATM    5  C7  UNL     1      -2.100   1.377  -1.693  1.00  0.00     0.158 C 
HETATM    6  N2  UNL     1      -2.579   1.794  -0.451  1.00  0.00    -0.361 N 
ATOM      7  H2  UNL     1      -3.510   1.449  -0.220  1.00  0.00     0.162 HD
HETATM    8  C12 UNL     1      -1.994   2.614   0.543  1.00  0.00     0.135 C 
HETATM    9  C13 UNL     1      -0.560   2.760   0.869  1.00  0.00     0.161 C 
HETATM   10  N3  UNL     1       0.215   3.473  -0.134  1.00  0.00    -0.343 N 
HETATM   11  C18 UNL     1      -0.321   4.705  -0.698  1.00  0.00     0.153 C 
HETATM   12  C19 UNL     1       1.498   3.059  -0.594  1.00  0.00     0.243 C 
HETATM   13  O3  UNL     1       2.443   3.930  -0.614  1.00  0.00    -0.271 OA
HETATM   14  C20 UNL     1       1.874   1.715  -1.059  1.00  0.00     0.185 C 
HETATM   15  N5  UNL     1       3.117   1.217  -0.511  1.00  0.00    -0.346 N 
ATOM     16  H5  UNL     1       3.969   1.640  -0.880  1.00  0.00     0.163 HD
HETATM   17  C23 UNL     1       3.295   0.233   0.457  1.00  0.00     0.241 C 
HETATM   18  O5  UNL     1       4.121   0.495   1.403  1.00  0.00    -0.271 OA
HETATM   19  C24 UNL     1       2.632  -1.102   0.524  1.00  0.00     0.177 C 
HETATM   20  N6  UNL     1       2.340  -1.674  -0.744  1.00  0.00    -0.346 N 
ATOM     21  H6  UNL     1       2.925  -1.332  -1.506  1.00  0.00     0.163 HD
HETATM   22  C29 UNL     1       1.393  -2.620  -1.124  1.00  0.00     0.241 C 
HETATM   23  O6  UNL     1       1.404  -2.935  -2.384  1.00  0.00    -0.271 OA
HETATM   24  C30 UNL     1       0.384  -3.322  -0.338  1.00  0.00     0.180 C 
HETATM   25  N7  UNL     1      -0.133  -2.642   0.813  1.00  0.00    -0.346 N 
ATOM     26  H7  UNL     1       0.334  -2.777   1.709  1.00  0.00     0.163 HD
HETATM   27  C34 UNL     1      -1.293  -1.769   0.760  1.00  0.00     0.241 C 
HETATM   28  O7  UNL     1      -1.169  -0.767   1.499  1.00  0.00    -0.271 OA
ENDROOT
BRANCH   1  29
HETATM   29  C4  UNL     1      -3.799  -1.915   0.658  1.00  0.00     0.038 C 
BRANCH  29  30
HETATM   30  C2  UNL     1      -4.010  -2.695   1.889  1.00  0.00    -0.020 C 
HETATM   31  C1  UNL     1      -3.158  -2.438   3.082  1.00  0.00     0.009 C 
HETATM   32  C3  UNL     1      -5.464  -2.560   2.386  1.00  0.00     0.009 C 
ENDBRANCH  29  30
ENDBRANCH   1  29
BRANCH   4  33
HETATM   33  O1  UNL     1      -0.998  -0.380  -2.692  1.00  0.00    -0.348 OA
ATOM     34  H1  UNL     1      -0.567   0.369  -3.087  1.00  0.00     0.219 HD
ENDBRANCH   4  33
BRANCH   5  35
HETATM   35  C8  UNL     1      -2.932   1.832  -2.872  1.00  0.00     0.037 C 
BRANCH  35  36
HETATM   36  C9  UNL     1      -3.250   3.245  -3.052  1.00  0.00    -0.020 C 
HETATM   37  C10 UNL     1      -4.049   3.884  -1.962  1.00  0.00     0.009 C 
HETATM   38  C11 UNL     1      -4.143   3.329  -4.322  1.00  0.00     0.009 C 
ENDBRANCH  35  36
ENDBRANCH   5  35
BRANCH  24  39
HETATM   39  C31 UNL     1       0.863  -4.746  -0.018  1.00  0.00     0.009 C 
HETATM   40  C32 UNL     1      -0.152  -5.494   0.793  1.00  0.00     0.012 C 
HETATM   41  C33 UNL     1       1.047  -5.525  -1.319  1.00  0.00     0.012 C 
ENDBRANCH  24  39
BRANCH   8  42
HETATM   42  O2  UNL     1      -2.788   3.337   1.279  1.00  0.00    -0.348 OA
ATOM     43  H2  UNL     1      -2.395   3.887   1.946  1.00  0.00     0.219 HD
ENDBRANCH   8  42
BRANCH   9  44
HETATM   44  C14 UNL     1      -0.472   3.495   2.206  1.00  0.00     0.037 C 
BRANCH  44  45
HETATM   45  C15 UNL     1       0.897   3.738   2.707  1.00  0.00    -0.020 C 
HETATM   46  C16 UNL     1       0.732   4.501   4.042  1.00  0.00     0.009 C 
HETATM   47  C17 UNL     1       1.551   2.425   3.119  1.00  0.00     0.009 C 
ENDBRANCH  44  45
ENDBRANCH   9  44
BRANCH  19  48
HETATM   48  C25 UNL     1       3.447  -2.045   1.356  1.00  0.00     0.038 C 
BRANCH  48  49
HETATM   49  C26 UNL     1       4.833  -2.329   0.914  1.00  0.00    -0.020 C 
HETATM   50  C27 UNL     1       5.471  -3.304   1.944  1.00  0.00     0.009 C 
HETATM   51  C28 UNL     1       4.924  -3.100  -0.394  1.00  0.00     0.009 C 
ENDBRANCH  48  49
ENDBRANCH  19  48
BRANCH  14  52
HETATM   52  C21 UNL     1       2.001   1.652  -2.556  1.00  0.00     0.134 C 
BRANCH  52  53
HETATM   53  C22 UNL     1       2.991   2.534  -3.154  1.00  0.00     0.233 C 
HETATM   54  N4  UNL     1       4.320   2.118  -3.424  1.00  0.00    -0.062 NA
HETATM   55  O4  UNL     1       2.679   3.712  -3.451  1.00  0.00    -0.277 OA
ENDBRANCH  52  53
ENDBRANCH  14  52
TORSDOF 13
