REMARK  13 active torsions:
REMARK  status: ('A' for Active; 'I' for Inactive)
REMARK    1  A    between atoms: C4_4  and  C5_5 
REMARK    2  A    between atoms: C6_6  and  C7_7 
REMARK       I    between atoms: C7_7  and  N1_9 
REMARK    3  A    between atoms: C8_11  and  C9_13 
REMARK    4  A    between atoms: C12_16  and  C13_17 
REMARK    5  A    between atoms: C13_17  and  C14_18 
REMARK    6  A    between atoms: C14_18  and  N3_19 
REMARK       I    between atoms: N3_19  and  C15_21 
REMARK       I    between atoms: C15_21  and  N4_23 
REMARK    7  A    between atoms: N4_23  and  C16_25 
REMARK    8  A    between atoms: C22_31  and  O3_32 
REMARK    9  A    between atoms: C22_31  and  N5_34 
REMARK   10  A    between atoms: C28_43  and  C29_44 
REMARK   11  A    between atoms: C29_44  and  O5_45 
REMARK   12  A    between atoms: C29_44  and  N7_47 
REMARK   13  A    between atoms: C33_51  and  C34_52 
ROOT
HETATM    1  C1  UNL     1      12.190   1.065   1.026  1.00  0.00     0.102 C 
HETATM    2  C2  UNL     1      11.745  -0.087   1.206  1.00  0.00    -0.160 C 
HETATM    3  C3  UNL     1      11.340  -1.415   1.434  1.00  0.00     0.050 C 
HETATM    4  C4  UNL     1       9.985  -1.692   1.224  1.00  0.00     0.008 C 
ENDROOT
BRANCH   4   5
HETATM    5  C5  UNL     1       9.160  -0.578   0.791  1.00  0.00     0.006 C 
HETATM    6  C6  UNL     1       7.896  -0.644   0.535  1.00  0.00     0.074 C 
BRANCH   6   7
HETATM    7  C7  UNL     1       7.063  -1.810   0.615  1.00  0.00     0.246 C 
HETATM    8  O1  UNL     1       7.367  -2.931   0.929  1.00  0.00    -0.268 OA
HETATM    9  N1  UNL     1       5.684  -1.566   0.272  1.00  0.00    -0.310 N 
HETATM   10  C8  UNL     1       5.101  -1.129  -0.638  1.00  0.00     0.146 C 
ATOM     11  H1  UNL     1       5.054  -1.850   1.022  1.00  0.00     0.170 HD
HETATM   12  N2  UNL     1       5.634  -0.638  -1.888  1.00  0.00    -0.080 NA
BRANCH  10  13
HETATM   13  C9  UNL     1       3.625  -0.918  -0.525  1.00  0.00     0.074 A 
HETATM   14  C10 UNL     1       2.985  -1.091   0.672  1.00  0.00     0.035 A 
HETATM   15  C11 UNL     1       1.637  -0.865   0.490  1.00  0.00     0.027 A 
HETATM   16  C12 UNL     1       1.511  -0.550  -0.907  1.00  0.00     0.015 A 
HETATM   17  N8  UNL     1       2.721  -0.600  -1.414  1.00  0.00    -0.357 N 
ATOM     18  H8  UNL     1       2.932  -0.411  -2.394  1.00  0.00     0.166 HD
BRANCH  16  19
HETATM   19  C13 UNL     1       0.182  -0.369  -1.551  1.00  0.00     0.118 C 
BRANCH  19  20
HETATM   20  C14 UNL     1      -0.856   0.385  -0.830  1.00  0.00     0.070 C 
HETATM   21  C22 UNL     1      -2.019  -0.288  -0.313  1.00  0.00     0.163 C 
BRANCH  20  22
HETATM   22  N3  UNL     1      -0.712   1.800  -0.675  1.00  0.00    -0.308 N 
HETATM   23  C15 UNL     1      -1.696   2.786  -0.412  1.00  0.00     0.320 C 
HETATM   24  O2  UNL     1      -2.884   2.793  -0.328  1.00  0.00    -0.247 OA
HETATM   25  N4  UNL     1      -1.105   4.142  -0.196  1.00  0.00    -0.338 N 
ATOM     26  H4  UNL     1      -0.104   4.325  -0.271  1.00  0.00     0.164 HD
ATOM     27  H3  UNL     1       0.241   2.152  -0.768  1.00  0.00     0.170 HD
BRANCH  25  28
HETATM   28  C16 UNL     1      -2.079   5.189   0.133  1.00  0.00     0.086 C 
HETATM   29  C17 UNL     1      -1.656   5.964   1.338  1.00  0.00     0.025 C 
HETATM   30  C18 UNL     1      -0.520   6.922   1.012  1.00  0.00     0.002 C 
HETATM   31  C19 UNL     1      -0.882   7.896  -0.054  1.00  0.00     0.000 C 
HETATM   32  C20 UNL     1      -2.190   7.541  -0.740  1.00  0.00     0.002 C 
HETATM   33  C21 UNL     1      -2.299   6.091  -1.059  1.00  0.00     0.025 C 
ENDBRANCH  25  28
ENDBRANCH  20  22
BRANCH  21  34
HETATM   34  O3  UNL     1      -2.857   0.496   0.367  1.00  0.00    -0.345 OA
ATOM     35  H3  UNL     1      -3.624   0.052   0.708  1.00  0.00     0.219 HD
ENDBRANCH  21  34
BRANCH  21  36
HETATM   36  N5  UNL     1      -2.537  -1.587  -0.298  1.00  0.00    -0.337 N 
HETATM   37  C23 UNL     1      -2.073  -2.689  -1.091  1.00  0.00     0.228 C 
HETATM   38  C24 UNL     1      -1.123  -3.482  -0.204  1.00  0.00     0.236 C 
HETATM   39  O4  UNL     1      -0.260  -4.200  -0.666  1.00  0.00    -0.272 OA
HETATM   40  N6  UNL     1      -1.398  -3.258   1.195  1.00  0.00    -0.349 N 
HETATM   41  C25 UNL     1      -2.776  -3.077   1.594  1.00  0.00     0.053 C 
ATOM     42  H6  UNL     1      -0.644  -3.228   1.881  1.00  0.00     0.163 HD
HETATM   43  C26 UNL     1      -2.758  -2.643   3.069  1.00  0.00     0.041 C 
HETATM   44  C27 UNL     1      -3.410  -4.420   1.515  1.00  0.00     0.041 C 
HETATM   45  C28 UNL     1      -3.501  -2.009   0.739  1.00  0.00     0.188 C 
BRANCH  45  46
HETATM   46  C29 UNL     1      -4.844  -2.305   0.402  1.00  0.00     0.140 C 
BRANCH  46  47
HETATM   47  O5  UNL     1      -5.532  -2.792   1.430  1.00  0.00    -0.348 OA
ATOM     48  H5  UNL     1      -6.433  -2.991   1.204  1.00  0.00     0.219 HD
ENDBRANCH  46  47
BRANCH  46  49
HETATM   49  N7  UNL     1      -5.645  -2.222  -0.754  1.00  0.00    -0.349 N 
HETATM   50  C30 UNL     1      -5.326  -1.570  -2.029  1.00  0.00     0.126 C 
HETATM   51  C31 UNL     1      -5.529  -2.704  -3.002  1.00  0.00     0.022 C 
HETATM   52  C32 UNL     1      -6.770  -3.332  -2.461  1.00  0.00     0.038 C 
HETATM   53  C33 UNL     1      -6.957  -2.736  -1.032  1.00  0.00     0.187 C 
BRANCH  53  54
HETATM   54  C34 UNL     1      -7.513  -3.805  -0.189  1.00  0.00     0.196 C 
HETATM   55  O6  UNL     1      -8.768  -3.791  -0.055  1.00  0.00    -0.646 OA
HETATM   56  O7  UNL     1      -6.842  -4.812   0.454  1.00  0.00    -0.646 OA
ENDBRANCH  53  54
ENDBRANCH  46  49
ENDBRANCH  45  46
ENDBRANCH  21  36
ENDBRANCH  19  20
ENDBRANCH  16  19
ENDBRANCH  10  13
ENDBRANCH   6   7
ENDBRANCH   4   5
TORSDOF 13
