REMARK  12 active torsions:
REMARK  status: ('A' for Active; 'I' for Inactive)
REMARK    1  A    between atoms: C2_2  and  N1_3 
REMARK    2  A    between atoms: N1_3  and  C3_4 
REMARK       I    between atoms: N1_3  and  C34_53 
REMARK    3  A    between atoms: C3_4  and  C4_5 
REMARK    4  A    between atoms: C4_5  and  C5_6 
REMARK    5  A    between atoms: C5_6  and  C6_7 
REMARK    6  A    between atoms: C8_12  and  C9_13 
REMARK    7  A    between atoms: C9_13  and  C10_14 
REMARK    8  A    between atoms: C10_14  and  C11_15 
REMARK    9  A    between atoms: C11_15  and  C12_16 
REMARK   10  A    between atoms: C12_16  and  N3_17 
REMARK   11  A    between atoms: C24_37  and  C25_38 
REMARK   12  A    between atoms: C33_50  and  O5_51 
ROOT
HETATM    1  C6  UNL     1       1.620   0.113  -0.170  1.00  0.00     0.159 C 
HETATM    2  N2  UNL     1       0.529   0.709   0.567  1.00  0.00    -0.347 N 
ATOM      3  H2  UNL     1       0.014   0.112   1.213  1.00  0.00     0.163 HD
HETATM    4  C7  UNL     1       0.119   2.073   0.457  1.00  0.00     0.241 C 
HETATM    5  O1  UNL     1      -0.502   2.498   1.501  1.00  0.00    -0.271 OA
HETATM    6  C8  UNL     1       0.312   2.983  -0.631  1.00  0.00     0.176 C 
HETATM    7  N4  UNL     1      -0.690   3.160  -1.623  1.00  0.00    -0.347 N 
ATOM      8  H4  UNL     1      -0.507   3.931  -2.266  1.00  0.00     0.163 HD
HETATM    9  C13 UNL     1      -1.890   2.467  -1.883  1.00  0.00     0.223 C 
HETATM   10  O2  UNL     1      -1.991   2.049  -3.094  1.00  0.00    -0.273 OA
HETATM   11  C14 UNL     1      -3.009   2.155  -1.030  1.00  0.00     0.084 C 
HETATM   12  C15 UNL     1      -4.281   2.781  -1.581  1.00  0.00     0.014 C 
HETATM   13  C16 UNL     1      -5.317   2.738  -0.540  1.00  0.00     0.001 C 
HETATM   14  C17 UNL     1      -5.082   1.967   0.695  1.00  0.00     0.001 C 
HETATM   15  C18 UNL     1      -4.038   0.931   0.717  1.00  0.00     0.007 C 
HETATM   16  C19 UNL     1      -3.277   0.766  -0.588  1.00  0.00     0.021 C 
HETATM   17  C20 UNL     1      -3.923  -0.182  -1.524  1.00  0.00     0.087 C 
HETATM   18  C21 UNL     1      -2.959  -0.796  -2.535  1.00  0.00     0.033 C 
HETATM   19  N5  UNL     1      -4.667  -1.235  -0.858  1.00  0.00    -0.350 N 
HETATM   20  C22 UNL     1      -6.118  -1.048  -0.722  1.00  0.00     0.153 C 
HETATM   21  C23 UNL     1      -4.159  -2.447  -0.352  1.00  0.00     0.243 C 
HETATM   22  O3  UNL     1      -4.804  -3.545  -0.566  1.00  0.00    -0.271 OA
HETATM   23  C24 UNL     1      -2.925  -2.684   0.435  1.00  0.00     0.180 C 
HETATM   24  N6  UNL     1      -2.019  -3.540  -0.318  1.00  0.00    -0.346 N 
ATOM     25  H6  UNL     1      -2.403  -3.950  -1.170  1.00  0.00     0.163 HD
HETATM   26  C28 UNL     1      -0.700  -3.873  -0.030  1.00  0.00     0.241 C 
HETATM   27  O4  UNL     1      -0.402  -5.116  -0.165  1.00  0.00    -0.271 OA
HETATM   28  C29 UNL     1       0.410  -3.003   0.407  1.00  0.00     0.178 C 
HETATM   29  C30 UNL     1       1.515  -3.817   1.052  1.00  0.00     0.037 C 
HETATM   30  C31 UNL     1       2.204  -4.427  -0.144  1.00  0.00     0.022 C 
HETATM   31  C32 UNL     1       1.704  -3.604  -1.342  1.00  0.00     0.126 C 
HETATM   32  N7  UNL     1       1.153  -2.394  -0.692  1.00  0.00    -0.350 N 
HETATM   33  C33 UNL     1       1.263  -1.035  -0.992  1.00  0.00     0.137 C 
ENDROOT
BRANCH   1  34
HETATM   34  C5  UNL     1       2.760  -0.040   0.777  1.00  0.00     0.035 C 
BRANCH  34  35
HETATM   35  C4  UNL     1       4.010  -0.639   0.171  1.00  0.00     0.022 C 
BRANCH  35  36
HETATM   36  C3  UNL     1       5.073  -0.695   1.262  1.00  0.00     0.127 C 
BRANCH  36  37
HETATM   37  N1  UNL     1       6.262  -1.253   0.704  1.00  0.00    -0.337 N 
HETATM   38  C34 UNL     1       6.546  -2.642   0.709  1.00  0.00     0.330 C 
HETATM   39  N8  UNL     1       7.747  -3.150   0.140  1.00  0.00    -0.040 NA
HETATM   40  O6  UNL     1       5.717  -3.416   1.227  1.00  0.00    -0.251 OA
BRANCH  37  41
HETATM   41  C2  UNL     1       7.248  -0.350   0.094  1.00  0.00     0.122 C 
HETATM   42  C1  UNL     1       6.905  -0.211  -1.371  1.00  0.00     0.026 C 
ENDBRANCH  37  41
ENDBRANCH  36  37
ENDBRANCH  35  36
ENDBRANCH  34  35
ENDBRANCH   1  34
BRANCH  33  43
HETATM   43  O5  UNL     1       0.996  -0.759  -2.235  1.00  0.00    -0.348 OA
ATOM     44  H5  UNL     1       0.763  -1.508  -2.771  1.00  0.00     0.219 HD
ENDBRANCH  33  43
BRANCH   6  45
HETATM   45  C9  UNL     1       0.603   4.399  -0.052  1.00  0.00     0.035 C 
BRANCH  45  46
HETATM   46  C10 UNL     1       1.843   4.305   0.760  1.00  0.00     0.004 C 
BRANCH  46  47
HETATM   47  C11 UNL     1       2.307   5.529   1.451  1.00  0.00     0.027 C 
BRANCH  47  48
HETATM   48  C12 UNL     1       2.638   6.710   0.600  1.00  0.00     0.229 C 
BRANCH  48  49
HETATM   49  N3  UNL     1       1.566   7.248  -0.170  1.00  0.00    -0.079 N 
ATOM     50  H33 UNL     1       1.150   6.514  -0.744  1.00  0.00     0.274 HD
ATOM     51  H32 UNL     1       0.780   7.471   0.441  1.00  0.00     0.274 HD
ATOM     52  H31 UNL     1       1.792   8.055  -0.751  1.00  0.00     0.274 HD
ENDBRANCH  48  49
ENDBRANCH  47  48
ENDBRANCH  46  47
ENDBRANCH  45  46
ENDBRANCH   6  45
BRANCH  23  53
HETATM   53  C25 UNL     1      -3.265  -3.463   1.706  1.00  0.00     0.009 C 
HETATM   54  C26 UNL     1      -3.878  -4.794   1.457  1.00  0.00     0.012 C 
HETATM   55  C27 UNL     1      -4.089  -2.709   2.683  1.00  0.00     0.012 C 
ENDBRANCH  23  53
TORSDOF 12
