REMARK  14 active torsions:
REMARK  status: ('A' for Active; 'I' for Inactive)
REMARK    1  A    between atoms: C2_2  and  C4_4 
REMARK    2  A    between atoms: C4_4  and  C5_5 
REMARK    3  A    between atoms: C9_15  and  C10_16 
REMARK    4  A    between atoms: C10_16  and  C11_17 
REMARK    5  A    between atoms: C15_24  and  C16_25 
REMARK    6  A    between atoms: C16_25  and  C17_26 
REMARK    7  A    between atoms: C20_31  and  O4_32 
REMARK    8  A    between atoms: C21_34  and  O5_35 
REMARK    9  A    between atoms: C22_37  and  C23_38 
REMARK   10  A    between atoms: C23_38  and  C24_39 
REMARK   11  A    between atoms: C24_39  and  C25_40 
REMARK   12  A    between atoms: C25_40  and  N5_41 
REMARK   13  A    between atoms: C29_47  and  O6_48 
REMARK   14  A    between atoms: C30_50  and  C31_51 
ROOT
HETATM    1  C5  UNL     1      -2.089   4.015  -0.245  1.00  0.00     0.177 C 
HETATM    2  N1  UNL     1      -3.287   3.892   0.526  1.00  0.00    -0.346 N 
ATOM      3  H1  UNL     1      -3.563   4.741   1.019  1.00  0.00     0.163 HD
HETATM    4  C6  UNL     1      -4.145   2.801   0.718  1.00  0.00     0.236 C 
HETATM    5  O1  UNL     1      -5.323   2.865   0.273  1.00  0.00    -0.272 OA
HETATM    6  C7  UNL     1      -3.823   1.509   1.420  1.00  0.00     0.225 C 
HETATM    7  N2  UNL     1      -4.623   0.456   0.885  1.00  0.00    -0.351 N 
ATOM      8  H2  UNL     1      -5.627   0.597   0.997  1.00  0.00     0.163 HD
HETATM    9  C8  UNL     1      -4.284  -0.725   0.240  1.00  0.00     0.240 C 
HETATM   10  O2  UNL     1      -4.986  -1.023  -0.795  1.00  0.00    -0.271 OA
HETATM   11  C9  UNL     1      -3.210  -1.688   0.596  1.00  0.00     0.177 C 
HETATM   12  N3  UNL     1      -1.930  -1.260   0.070  1.00  0.00    -0.346 N 
ATOM     13  H3  UNL     1      -1.504  -0.459   0.537  1.00  0.00     0.163 HD
HETATM   14  C14 UNL     1      -1.201  -1.804  -0.998  1.00  0.00     0.241 C 
HETATM   15  O3  UNL     1      -1.022  -1.045  -2.019  1.00  0.00    -0.271 OA
HETATM   16  C15 UNL     1      -0.606  -3.159  -1.087  1.00  0.00     0.176 C 
HETATM   17  N4  UNL     1       0.569  -3.155  -0.257  1.00  0.00    -0.356 N 
ATOM     18  H4  UNL     1       0.369  -3.311   0.731  1.00  0.00     0.162 HD
HETATM   19  C20 UNL     1       1.917  -2.982  -0.526  1.00  0.00     0.169 C 
HETATM   20  C21 UNL     1       2.710  -1.862  -0.920  1.00  0.00     0.120 C 
HETATM   21  C22 UNL     1       2.774  -0.467  -0.475  1.00  0.00     0.167 C 
HETATM   22  N6  UNL     1       2.103   0.429  -1.429  1.00  0.00    -0.359 N 
ATOM     23  H6  UNL     1       1.707  -0.059  -2.232  1.00  0.00     0.162 HD
HETATM   24  C29 UNL     1       1.900   1.785  -1.462  1.00  0.00     0.136 C 
HETATM   25  C30 UNL     1       1.137   2.714  -0.585  1.00  0.00     0.162 C 
HETATM   26  N7  UNL     1      -0.155   2.256  -0.184  1.00  0.00    -0.347 N 
ATOM     27  H7  UNL     1      -0.147   1.473   0.469  1.00  0.00     0.163 HD
HETATM   28  C34 UNL     1      -1.435   2.709  -0.543  1.00  0.00     0.241 C 
HETATM   29  O7  UNL     1      -2.218   1.943  -1.231  1.00  0.00    -0.271 OA
ENDROOT
BRANCH  21  30
HETATM   30  C23 UNL     1       4.193  -0.070  -0.255  1.00  0.00     0.003 C 
BRANCH  30  31
HETATM   31  C24 UNL     1       5.061  -0.663   0.741  1.00  0.00    -0.001 C 
BRANCH  31  32
HETATM   32  C25 UNL     1       5.415  -2.090   0.727  1.00  0.00     0.263 C 
BRANCH  32  33
HETATM   33  N5  UNL     1       6.361  -2.413   1.823  1.00  0.00    -0.075 N 
HETATM   34  C26 UNL     1       6.930  -3.710   1.511  1.00  0.00     0.272 C 
HETATM   35  C27 UNL     1       7.422  -1.456   1.901  1.00  0.00     0.272 C 
HETATM   36  C28 UNL     1       5.681  -2.516   3.087  1.00  0.00     0.272 C 
ENDBRANCH  32  33
ENDBRANCH  31  32
ENDBRANCH  30  31
ENDBRANCH  21  30
BRANCH  20  37
HETATM   37  O5  UNL     1       3.559  -2.123  -1.876  1.00  0.00    -0.359 OA
ATOM     38  H5  UNL     1       4.087  -1.378  -2.138  1.00  0.00     0.217 HD
ENDBRANCH  20  37
BRANCH  19  39
HETATM   39  O4  UNL     1       2.620  -4.090  -0.390  1.00  0.00    -0.344 OA
ATOM     40  H4  UNL     1       3.544  -3.971  -0.574  1.00  0.00     0.219 HD
ENDBRANCH  19  39
BRANCH  24  41
HETATM   41  O6  UNL     1       2.478   2.412  -2.454  1.00  0.00    -0.348 OA
ATOM     42  H6  UNL     1       2.337   3.351  -2.477  1.00  0.00     0.219 HD
ENDBRANCH  24  41
BRANCH  25  43
HETATM   43  C31 UNL     1       2.051   3.182   0.516  1.00  0.00     0.008 C 
HETATM   44  C32 UNL     1       3.214   3.949  -0.143  1.00  0.00     0.012 C 
HETATM   45  C33 UNL     1       1.436   4.194   1.449  1.00  0.00     0.012 C 
ENDBRANCH  25  43
BRANCH  16  46
HETATM   46  C16 UNL     1      -0.406  -3.596  -2.506  1.00  0.00     0.038 C 
BRANCH  46  47
HETATM   47  C17 UNL     1      -1.639  -3.666  -3.326  1.00  0.00    -0.020 C 
HETATM   48  C18 UNL     1      -1.285  -4.127  -4.751  1.00  0.00     0.009 C 
HETATM   49  C19 UNL     1      -2.699  -4.590  -2.852  1.00  0.00     0.009 C 
ENDBRANCH  46  47
ENDBRANCH  16  46
BRANCH   1  50
HETATM   50  C4  UNL     1      -2.330   4.717  -1.542  1.00  0.00     0.038 C 
BRANCH  50  51
HETATM   51  C2  UNL     1      -2.825   6.122  -1.480  1.00  0.00    -0.020 C 
HETATM   52  C1  UNL     1      -2.952   6.664  -2.943  1.00  0.00     0.009 C 
HETATM   53  C3  UNL     1      -4.192   6.301  -0.909  1.00  0.00     0.009 C 
ENDBRANCH  50  51
ENDBRANCH   1  50
BRANCH  11  54
HETATM   54  C10 UNL     1      -3.076  -1.884   2.081  1.00  0.00     0.038 C 
BRANCH  54  55
HETATM   55  C11 UNL     1      -4.318  -2.412   2.733  1.00  0.00    -0.020 C 
HETATM   56  C12 UNL     1      -4.041  -2.561   4.214  1.00  0.00     0.009 C 
HETATM   57  C13 UNL     1      -4.672  -3.807   2.210  1.00  0.00     0.009 C 
ENDBRANCH  54  55
ENDBRANCH  11  54
TORSDOF 14
