REMARK  9 active torsions:
REMARK  status: ('A' for Active; 'I' for Inactive)
REMARK    1  A    between atoms: C2_2  and  O1_4 
REMARK    2  A    between atoms: O1_4  and  C4_5 
REMARK    3  A    between atoms: C4_5  and  C5_6 
REMARK    4  A    between atoms: C6_9  and  N2_10 
REMARK    5  A    between atoms: C7_15  and  N4_16 
REMARK    6  A    between atoms: N4_16  and  C8_18 
REMARK    7  A    between atoms: C12_22  and  C13_24 
REMARK    8  A    between atoms: C14_27  and  N5_28 
REMARK       I    between atoms: N5_28  and  C15_30 
REMARK    9  A    between atoms: C15_30  and  C16_32 
ROOT
HETATM    1  C5  UNL     1      -1.258  -1.757   0.274  1.00  0.00     0.080 A 
HETATM    2  N1  UNL     1      -0.946  -3.060   0.274  1.00  0.00    -0.191 N 
ATOM      3  H1  UNL     1      -1.696  -3.751   0.276  1.00  0.00     0.184 HD
HETATM    4  C6  UNL     1       0.333  -3.479   0.272  1.00  0.00     0.677 A 
HETATM    5  N3  UNL     1       1.352  -2.590   0.271  1.00  0.00    -0.175 N 
ATOM      6  H3  UNL     1       2.320  -2.912   0.270  1.00  0.00     0.186 HD
HETATM    7  C7  UNL     1       1.067  -1.261   0.271  1.00  0.00     0.146 A 
HETATM    8  C14 UNL     1      -0.233  -0.825   0.274  1.00  0.00     0.105 A 
ENDROOT
BRANCH   8   9
HETATM    9  N5  UNL     1      -0.568   0.569   0.299  1.00  0.00    -0.318 N 
HETATM   10  C15 UNL     1      -0.749   1.340  -0.847  1.00  0.00     0.260 C 
HETATM   11  O2  UNL     1      -0.616   0.784  -1.995  1.00  0.00    -0.267 OA
ATOM     12  H5  UNL     1      -0.680   1.021   1.206  1.00  0.00     0.169 HD
BRANCH  10  13
HETATM   13  C16 UNL     1      -1.087   2.733  -0.858  1.00  0.00     0.077 A 
HETATM   14  C17 UNL     1      -1.941   3.240  -1.854  1.00  0.00     0.046 A 
HETATM   15  C18 UNL     1      -2.371   4.542  -1.852  1.00  0.00     0.050 A 
HETATM   16 CL1  UNL     1      -3.432   5.110  -3.114  1.00  0.00    -0.083 Cl
HETATM   17  C19 UNL     1      -1.953   5.396  -0.835  1.00  0.00     0.113 A 
HETATM   18  N6  UNL     1      -1.147   4.920   0.102  1.00  0.00    -0.350 N 
HETATM   19  C20 UNL     1      -0.701   3.614   0.119  1.00  0.00     0.114 A 
ATOM     20  H6  UNL     1      -0.842   5.548   0.846  1.00  0.00     0.166 HD
HETATM   21  N7  UNL     1       0.127   3.369   1.044  1.00  0.00    -0.385 N 
ATOM     22  H72 UNL     1       0.457   2.404   1.057  1.00  0.00     0.157 HD
ATOM     23  H71 UNL     1       0.414   4.024   1.771  1.00  0.00     0.157 HD
ENDBRANCH  10  13
ENDBRANCH   8   9
BRANCH   1  24
HETATM   24  C4  UNL     1      -2.677  -1.267   0.264  1.00  0.00     0.228 C 
BRANCH  24  25
HETATM   25  O1  UNL     1      -3.574  -2.330   0.269  1.00  0.00    -0.381 OA
BRANCH  25  26
HETATM   26  C2  UNL     1      -4.896  -1.871   0.244  1.00  0.00     0.113 C 
HETATM   27  C1  UNL     1      -5.674  -2.439  -0.917  1.00  0.00     0.039 C 
HETATM   28  C3  UNL     1      -5.627  -2.260   1.527  1.00  0.00     0.039 C 
ENDBRANCH  25  26
ENDBRANCH  24  25
ENDBRANCH   1  24
BRANCH   7  29
HETATM   29  N4  UNL     1       2.119  -0.342   0.253  1.00  0.00    -0.366 N 
ATOM     30  H4  UNL     1       1.846   0.641   0.248  1.00  0.00     0.161 HD
BRANCH  29  31
HETATM   31  C8  UNL     1       3.532  -0.595   0.241  1.00  0.00     0.128 C 
HETATM   32  C9  UNL     1       4.044  -1.369  -0.922  1.00  0.00     0.029 C 
HETATM   33  C10 UNL     1       5.224  -0.639  -1.511  1.00  0.00     0.006 C 
HETATM   34  C11 UNL     1       5.008   0.783  -1.090  1.00  0.00     0.051 C 
HETATM   35  C12 UNL     1       4.342   0.684   0.254  1.00  0.00     0.182 C 
HETATM   36  F1  UNL     1       3.523   1.802   0.373  1.00  0.00    -0.235 F 
BRANCH  35  37
HETATM   37  C13 UNL     1       5.327   0.701   1.383  1.00  0.00     0.394 C 
HETATM   38  F2  UNL     1       4.655   0.603   2.576  1.00  0.00    -0.211 F 
HETATM   39  F3  UNL     1       6.246  -0.350   1.294  1.00  0.00    -0.211 F 
ENDBRANCH  35  37
ENDBRANCH  29  31
ENDBRANCH   7  29
BRANCH   4  40
HETATM   40  N2  UNL     1       0.648  -4.752   0.272  1.00  0.00    -0.234 N 
ATOM     41  H22 UNL     1      -0.121  -5.423   0.273  1.00  0.00     0.174 HD
ATOM     42  H21 UNL     1       1.617  -5.070   0.270  1.00  0.00     0.174 HD
ENDBRANCH   4  40
TORSDOF 9
