REMARK  15 active torsions:
REMARK  status: ('A' for Active; 'I' for Inactive)
REMARK    1  A    between atoms: C2_2  and  C3_3 
REMARK    2  A    between atoms: C3_3  and  N1_4 
REMARK    3  A    between atoms: C4_5  and  C5_6 
REMARK    4  A    between atoms: C5_6  and  O1_7 
REMARK    5  A    between atoms: O1_7  and  C6_8 
REMARK    6  A    between atoms: C11_13  and  O2_14 
REMARK    7  A    between atoms: C12_16  and  C13_17 
REMARK    8  A    between atoms: C13_17  and  O3_18 
REMARK    9  A    between atoms: C13_17  and  C14_20 
REMARK   10  A    between atoms: C14_20  and  O4_21 
REMARK   11  A    between atoms: C14_20  and  C15_23 
REMARK   12  A    between atoms: C15_23  and  C16_24 
REMARK   13  A    between atoms: C16_24  and  O5_25 
REMARK   14  A    between atoms: C16_24  and  C17_27 
REMARK   15  A    between atoms: C17_27  and  O6_28 
ROOT
HETATM    1  N1  UNL     1       0.080  -1.746  -0.172  1.00  0.00     0.111 N 
HETATM    2  C4  UNL     1      -0.812  -0.686  -0.523  1.00  0.00     0.278 C 
HETATM    3  C11 UNL     1       0.241   0.259   0.104  1.00  0.00     0.189 C 
HETATM    4  C12 UNL     1       1.204  -0.772  -0.429  1.00  0.00     0.285 C 
ENDROOT
BRANCH   4   5
HETATM    5  C13 UNL     1       2.361  -1.092   0.472  1.00  0.00     0.183 C 
BRANCH   5   6
HETATM    6  O3  UNL     1       2.751  -2.451   0.323  1.00  0.00    -0.391 OA
ATOM      7  H3  UNL     1       3.483  -2.654   0.893  1.00  0.00     0.210 HD
ENDBRANCH   5   6
BRANCH   5   8
HETATM    8  C14 UNL     1       3.579  -0.248   0.173  1.00  0.00     0.151 C 
BRANCH   8   9
HETATM    9  O4  UNL     1       4.587  -0.524   1.105  1.00  0.00    -0.393 OA
ATOM     10  H4  UNL     1       5.352   0.006   0.917  1.00  0.00     0.210 HD
ENDBRANCH   8   9
BRANCH   8  11
HETATM   11  C15 UNL     1       3.359   1.199  -0.055  1.00  0.00     0.068 C 
BRANCH  11  12
HETATM   12  C16 UNL     1       4.674   1.905  -0.320  1.00  0.00     0.144 C 
BRANCH  12  13
HETATM   13  O5  UNL     1       5.342   1.398  -1.426  1.00  0.00    -0.393 OA
ATOM     14  H5  UNL     1       6.166   1.840  -1.592  1.00  0.00     0.210 HD
ENDBRANCH  12  13
BRANCH  12  15
HETATM   15  C17 UNL     1       5.578   2.079   0.841  1.00  0.00     0.195 C 
BRANCH  15  16
HETATM   16  O6  UNL     1       6.562   3.034   0.443  1.00  0.00    -0.398 OA
ATOM     17  H6  UNL     1       7.142   3.146   1.187  1.00  0.00     0.209 HD
ENDBRANCH  15  16
ENDBRANCH  12  15
ENDBRANCH  11  12
ENDBRANCH   8  11
ENDBRANCH   5   8
ENDBRANCH   4   5
BRANCH   1  18
HETATM   18  C3  UNL     1       0.136  -2.824  -1.159  1.00  0.00     0.300 C 
BRANCH  18  19
HETATM   19  C2  UNL     1      -1.131  -3.589  -1.241  1.00  0.00    -0.007 C 
HETATM   20  C1  UNL     1      -1.185  -4.886  -0.983  1.00  0.00     0.008 C 
ENDBRANCH  18  19
ENDBRANCH   1  18
BRANCH   3  21
HETATM   21  O2  UNL     1       0.206   1.498  -0.464  1.00  0.00    -0.391 OA
ATOM     22  H2  UNL     1       0.852   2.078  -0.079  1.00  0.00     0.210 HD
ENDBRANCH   3  21
BRANCH   2  23
HETATM   23  C5  UNL     1      -2.128  -0.619   0.246  1.00  0.00     0.206 C 
BRANCH  23  24
HETATM   24  O1  UNL     1      -2.828   0.451  -0.248  1.00  0.00    -0.384 OA
BRANCH  24  25
HETATM   25  C6  UNL     1      -4.041   0.696   0.303  1.00  0.00     0.121 C 
HETATM   26  C7  UNL     1      -4.077   2.109   0.846  1.00  0.00     0.032 C 
HETATM   27  C8  UNL     1      -5.543   2.329   1.083  1.00  0.00     0.002 C 
HETATM   28  C9  UNL     1      -6.287   1.325   0.216  1.00  0.00     0.002 C 
HETATM   29  C10 UNL     1      -5.190   0.729  -0.679  1.00  0.00     0.032 C 
ENDBRANCH  24  25
ENDBRANCH  23  24
ENDBRANCH   2  23
TORSDOF 15
