REMARK  12 active torsions:
REMARK  status: ('A' for Active; 'I' for Inactive)
REMARK    1  A    between atoms: O1_2  and  N1_3 
REMARK    2  A    between atoms: N1_3  and  C2_4 
REMARK    3  A    between atoms: C2_4  and  C3_5 
REMARK    4  A    between atoms: C3_5  and  C4_6 
REMARK    5  A    between atoms: C3_5  and  N2_10 
REMARK    6  A    between atoms: C4_6  and  C5_7 
REMARK       I    between atoms: N2_10  and  C8_12 
REMARK    7  A    between atoms: C8_12  and  C9_14 
REMARK    8  A    between atoms: C9_14  and  N3_16 
REMARK    9  A    between atoms: N3_16  and  C11_18 
REMARK   10  A    between atoms: C11_18  and  C13_20 
REMARK   11  A    between atoms: C15_22  and  N4_23 
REMARK   12  A    between atoms: C16_27  and  O3_28 
ROOT
HETATM    1  C9  UNL     1      -0.846  -0.191   0.058  1.00  0.00     0.070 C 
HETATM    2  C10 UNL     1      -0.401  -0.698  -1.248  1.00  0.00     0.074 C 
ENDROOT
BRANCH   1   3
HETATM    3  C8  UNL     1       0.367   0.213   0.865  1.00  0.00     0.263 C 
HETATM    4  N2  UNL     1       1.657  -0.188   0.509  1.00  0.00    -0.350 N 
ATOM      5  H2  UNL     1       1.760  -0.767  -0.324  1.00  0.00     0.163 HD
HETATM    6  O2  UNL     1       0.116   0.931   1.861  1.00  0.00    -0.266 OA
BRANCH   4   7
HETATM    7  C3  UNL     1       2.874   0.164   1.247  1.00  0.00     0.102 C 
BRANCH   7   8
HETATM    8  C2  UNL     1       3.519   1.289   0.545  1.00  0.00     0.167 C 
BRANCH   8   9
HETATM    9  N1  UNL     1       4.695   1.837   1.234  1.00  0.00    -0.100 NA
BRANCH   9  10
HETATM   10  O1  UNL     1       5.177   2.853   0.481  1.00  0.00    -0.291 OA
HETATM   11  C1  UNL     1       6.455   2.643   0.016  1.00  0.00     0.231 C 
ENDBRANCH   9  10
ENDBRANCH   8   9
ENDBRANCH   7   8
BRANCH   7  12
HETATM   12  C4  UNL     1       3.595  -1.069   1.526  1.00  0.00     0.030 C 
BRANCH  12  13
HETATM   13  C5  UNL     1       4.139  -1.896   0.429  1.00  0.00    -0.021 C 
HETATM   14  C6  UNL     1       4.824  -3.119   1.084  1.00  0.00     0.009 C 
HETATM   15  C7  UNL     1       5.177  -1.280  -0.445  1.00  0.00     0.009 C 
ENDBRANCH  12  13
ENDBRANCH   7  12
ENDBRANCH   4   7
ENDBRANCH   1   3
BRANCH   1  16
HETATM   16  N3  UNL     1      -1.916   0.667   0.200  1.00  0.00    -0.384 N 
ATOM     17  H3  UNL     1      -1.882   1.311   0.991  1.00  0.00     0.160 HD
BRANCH  16  18
HETATM   18  C11 UNL     1      -3.029   0.748  -0.614  1.00  0.00     0.081 C 
HETATM   19  C12 UNL     1      -2.849   1.109  -2.035  1.00  0.00     0.032 C 
BRANCH  18  20
HETATM   20  C13 UNL     1      -3.965  -0.445  -0.504  1.00  0.00     0.012 C 
HETATM   21  C14 UNL     1      -5.154  -0.267  -1.415  1.00  0.00     0.042 C 
HETATM   22  C15 UNL     1      -6.313   0.121  -0.516  1.00  0.00     0.212 C 
HETATM   23  C16 UNL     1      -6.008  -0.666   0.737  1.00  0.00     0.149 C 
HETATM   24  C17 UNL     1      -4.533  -0.475   0.899  1.00  0.00     0.040 C 
BRANCH  22  25
HETATM   25  N4  UNL     1      -6.254   1.519  -0.242  1.00  0.00    -0.073 N 
ATOM     26  H43 UNL     1      -5.354   1.798   0.148  1.00  0.00     0.274 HD
ATOM     27  H42 UNL     1      -6.223   2.078  -1.095  1.00  0.00     0.274 HD
ATOM     28  H41 UNL     1      -7.033   1.780   0.362  1.00  0.00     0.274 HD
ENDBRANCH  22  25
BRANCH  23  29
HETATM   29  O3  UNL     1      -6.709  -0.130   1.830  1.00  0.00    -0.393 OA
ATOM     30  H3  UNL     1      -6.517  -0.625   2.618  1.00  0.00     0.210 HD
ENDBRANCH  23  29
ENDBRANCH  18  20
ENDBRANCH  16  18
ENDBRANCH   1  16
TORSDOF 12
