REMARK  11 active torsions:
REMARK  status: ('A' for Active; 'I' for Inactive)
REMARK    1  A    between atoms: N1_1  and  C1_4 
REMARK    2  A    between atoms: C2_7  and  O1_8 
REMARK    3  A    between atoms: C3_10  and  C4_11 
REMARK    4  A    between atoms: C4_11  and  N3_12 
REMARK    5  A    between atoms: C4_11  and  C18_40 
REMARK       I    between atoms: N3_12  and  C5_14 
REMARK    6  A    between atoms: C5_14  and  C6_16 
REMARK    7  A    between atoms: C6_16  and  N4_17 
REMARK       I    between atoms: N4_17  and  C7_19 
REMARK    8  A    between atoms: C7_19  and  C8_21 
REMARK    9  A    between atoms: C8_21  and  N5_22 
REMARK       I    between atoms: C18_40  and  N9_42 
REMARK   10  A    between atoms: N9_42  and  O7_44 
REMARK   11  A    between atoms: O7_44  and  C19_45 
ROOT
HETATM    1  N3  UNL     1      -2.258  -0.620   0.415  1.00  0.00    -0.342 N 
ATOM      2  H3  UNL     1      -2.621  -1.369   1.005  1.00  0.00     0.163 HD
HETATM    3  C5  UNL     1      -0.889  -0.260   0.462  1.00  0.00     0.236 C 
HETATM    4  O2  UNL     1      -0.439   0.685  -0.273  1.00  0.00    -0.272 OA
ENDROOT
BRANCH   1   5
HETATM    5  C4  UNL     1      -3.142   0.110  -0.502  1.00  0.00     0.222 C 
BRANCH   5   6
HETATM    6  C3  UNL     1      -4.286  -0.690  -0.907  1.00  0.00     0.093 A 
HETATM    7  C2  UNL     1      -4.387  -1.207  -2.172  1.00  0.00     0.169 A 
HETATM    8  N2  UNL     1      -5.450  -1.973  -2.553  1.00  0.00    -0.170 N 
HETATM    9  C1  UNL     1      -6.436  -2.233  -1.648  1.00  0.00     0.680 A 
ATOM     10  H2  UNL     1      -5.506  -2.346  -3.501  1.00  0.00     0.186 HD
HETATM   11  N10 UNL     1      -6.351  -1.737  -0.416  1.00  0.00    -0.156 N 
HETATM   12  C20 UNL     1      -5.296  -0.965  -0.011  1.00  0.00     0.272 A 
ATOM     13  H10 UNL     1      -7.098  -1.939   0.249  1.00  0.00     0.187 HD
HETATM   14  O8  UNL     1      -5.208  -0.492   1.152  1.00  0.00    -0.267 OA
BRANCH   7  15
HETATM   15  O1  UNL     1      -3.373  -0.937  -3.079  1.00  0.00    -0.345 OA
ATOM     16  H1  UNL     1      -2.633  -0.404  -2.814  1.00  0.00     0.219 HD
ENDBRANCH   7  15
BRANCH   9  17
HETATM   17  N1  UNL     1      -7.412  -2.966  -2.077  1.00  0.00    -0.234 N 
ATOM     18  H12 UNL     1      -7.477  -3.346  -3.021  1.00  0.00     0.174 HD
ATOM     19  H11 UNL     1      -8.150  -3.161  -1.400  1.00  0.00     0.174 HD
ENDBRANCH   9  17
ENDBRANCH   5   6
BRANCH   5  20
HETATM   20  C18 UNL     1      -3.586   1.377   0.213  1.00  0.00     0.269 C 
HETATM   21  O6  UNL     1      -3.179   1.579   1.373  1.00  0.00    -0.269 OA
HETATM   22  N9  UNL     1      -4.439   2.316  -0.416  1.00  0.00    -0.224 N 
ATOM     23  H9  UNL     1      -4.779   2.142  -1.362  1.00  0.00     0.198 HD
BRANCH  22  24
HETATM   24  O7  UNL     1      -4.801   3.437   0.232  1.00  0.00    -0.172 OA
BRANCH  24  25
HETATM   25  C19 UNL     1      -6.163   3.613   0.247  1.00  0.00     0.546 C 
HETATM   26  F2  UNL     1      -6.416   4.788   0.931  1.00  0.00    -0.143 F 
HETATM   27  F3  UNL     1      -6.746   2.585   0.986  1.00  0.00    -0.143 F 
HETATM   28  F4  UNL     1      -6.743   3.688  -0.987  1.00  0.00    -0.143 F 
ENDBRANCH  24  25
ENDBRANCH  22  24
ENDBRANCH   5  20
ENDBRANCH   1   5
BRANCH   3  29
HETATM   29  C6  UNL     1       0.010  -0.994   1.377  1.00  0.00     0.225 C 
BRANCH  29  30
HETATM   30  N4  UNL     1       1.357  -0.414   1.331  1.00  0.00    -0.351 N 
HETATM   31  C7  UNL     1       1.579   0.925   1.745  1.00  0.00     0.236 C 
HETATM   32  O3  UNL     1       0.621   1.601   2.161  1.00  0.00    -0.272 OA
ATOM     33  H4  UNL     1       2.140  -0.978   0.999  1.00  0.00     0.163 HD
BRANCH  31  34
HETATM   34  C8  UNL     1       2.909   1.513   1.689  1.00  0.00     0.238 C 
BRANCH  34  35
HETATM   35  N5  UNL     1       3.923   0.726   1.071  1.00  0.00    -0.269 N 
HETATM   36  C9  UNL     1       4.667  -0.141   1.745  1.00  0.00     0.281 C 
HETATM   37  O4  UNL     1       4.411  -0.239   2.949  1.00  0.00    -0.265 OA
HETATM   38  C10 UNL     1       5.696  -0.963   1.306  1.00  0.00     0.147 A 
HETATM   39  N6  UNL     1       6.234  -1.959   2.027  1.00  0.00    -0.345 N 
HETATM   40  C12 UNL     1       6.356  -0.926   0.069  1.00  0.00     0.146 A 
HETATM   41  C11 UNL     1       7.209  -2.546   1.278  1.00  0.00     0.182 A 
ATOM     42  H6  UNL     1       5.960  -2.230   2.972  1.00  0.00     0.167 HD
HETATM   43  N7  UNL     1       7.279  -1.922   0.103  1.00  0.00    -0.336 N 
ATOM     44  H7  UNL     1       7.924  -2.155  -0.652  1.00  0.00     0.168 HD
HETATM   45  N8  UNL     1       6.139  -0.090  -0.966  1.00  0.00    -0.298 N 
HETATM   46  C13 UNL     1       6.975   0.002  -2.029  1.00  0.00     0.141 A 
HETATM   47  C16 UNL     1       5.108   0.756  -1.127  1.00  0.00     0.112 A 
HETATM   48  C14 UNL     1       6.488   0.936  -2.924  1.00  0.00     0.134 A 
HETATM   49  F1  UNL     1       7.043   1.308  -4.105  1.00  0.00    -0.205 F 
HETATM   50  C15 UNL     1       5.310   1.393  -2.326  1.00  0.00     0.079 A 
HETATM   51  C17 UNL     1       4.042   0.965  -0.264  1.00  0.00     0.278 C 
HETATM   52  O5  UNL     1       3.034   1.455  -0.831  1.00  0.00    -0.265 OA
ENDBRANCH  34  35
ENDBRANCH  31  34
ENDBRANCH  29  30
ENDBRANCH   3  29
TORSDOF 11
