REMARK  7 active torsions:
REMARK  status: ('A' for Active; 'I' for Inactive)
REMARK    1  A    between atoms: O1_2  and  C2_3 
REMARK    2  A    between atoms: C4_5  and  N1_6 
REMARK       I    between atoms: N1_6  and  C5_8 
REMARK    3  A    between atoms: C5_8  and  C6_10 
REMARK    4  A    between atoms: N2_11  and  C7_13 
REMARK    5  A    between atoms: C8_16  and  N4_17 
REMARK    6  A    between atoms: C9_22  and  N6_23 
REMARK    7  A    between atoms: N6_23  and  N7_25 
ROOT
HETATM    1  C7  UNL     1      -3.740   0.722   0.616  1.00  0.00     0.711 A 
HETATM    2  N3  UNL     1      -4.686   1.673   0.596  1.00  0.00    -0.021 N 
ATOM      3  H3  UNL     1      -4.435   2.633   0.834  1.00  0.00     0.203 HD
HETATM    4  C8  UNL     1      -5.975   1.383   0.264  1.00  0.00     0.705 A 
HETATM    5  N5  UNL     1      -6.303   0.111  -0.051  1.00  0.00    -0.020 N 
ATOM      6  H5  UNL     1      -7.265  -0.117  -0.301  1.00  0.00     0.203 HD
HETATM    7  C9  UNL     1      -5.373  -0.852  -0.037  1.00  0.00     0.725 A 
HETATM    8  N8  UNL     1      -4.103  -0.532   0.297  1.00  0.00    -0.020 N 
ATOM      9  H8  UNL     1      -3.396  -1.267   0.307  1.00  0.00     0.203 HD
ENDROOT
BRANCH   1  10
HETATM   10  N2  UNL     1      -2.381   0.952   0.951  1.00  0.00    -0.195 N 
HETATM   11  C6  UNL     1      -1.453   0.613   0.123  1.00  0.00     0.180 C 
ATOM     12  H2  UNL     1      -2.139   1.384   1.843  1.00  0.00     0.183 HD
BRANCH  11  13
HETATM   13  C5  UNL     1      -0.068   0.842   0.452  1.00  0.00     0.258 C 
HETATM   14  N1  UNL     1       0.979   0.480  -0.437  1.00  0.00    -0.335 N 
ATOM     15  H1  UNL     1       0.743   0.047  -1.330  1.00  0.00     0.164 HD
HETATM   16  O2  UNL     1       0.247   1.377   1.553  1.00  0.00    -0.267 OA
BRANCH  14  17
HETATM   17  C4  UNL     1       2.368   0.707  -0.112  1.00  0.00     0.192 C 
HETATM   18  C3  UNL     1       3.067  -0.630  -0.069  1.00  0.00     0.108 C 
HETATM   19  C2  UNL     1       4.533  -0.345   0.258  1.00  0.00     0.272 C 
HETATM   20  O3  UNL     1       5.054   0.495  -0.744  1.00  0.00    -0.293 OA
HETATM   21  C10 UNL     1       4.280   1.450  -1.387  1.00  0.00     0.231 C 
HETATM   22  N9  UNL     1       3.032   1.531  -1.077  1.00  0.00    -0.337 N 
HETATM   23  N10 UNL     1       4.837   2.331  -2.372  1.00  0.00    -0.056 NA
ATOM     24  H9  UNL     1       2.473   2.237  -1.556  1.00  0.00     0.164 HD
BRANCH  19  25
HETATM   25  O1  UNL     1       5.252  -1.515   0.409  1.00  0.00    -0.365 OA
HETATM   26  C1  UNL     1       5.731  -1.577   1.729  1.00  0.00     0.204 C 
ENDBRANCH  19  25
ENDBRANCH  14  17
ENDBRANCH  11  13
ENDBRANCH   1  10
BRANCH   4  27
HETATM   27  N4  UNL     1      -6.841   2.342   0.263  1.00  0.00    -0.234 N 
ATOM     28  H42 UNL     1      -6.593   3.302   0.501  1.00  0.00     0.174 HD
ATOM     29  H41 UNL     1      -7.806   2.125   0.014  1.00  0.00     0.174 HD
ENDBRANCH   4  27
BRANCH   7  30
HETATM   30  N6  UNL     1      -5.676  -2.061  -0.334  1.00  0.00    -0.138 N 
ATOM     31  H6  UNL     1      -6.645  -2.265  -0.580  1.00  0.00     0.205 HD
BRANCH  30  32
HETATM   32  N7  UNL     1      -4.766  -3.110  -0.342  1.00  0.00    -0.331 N 
ATOM     33  H72 UNL     1      -3.802  -2.887  -0.094  1.00  0.00     0.177 HD
ATOM     34  H71 UNL     1      -5.007  -4.072  -0.578  1.00  0.00     0.177 HD
ENDBRANCH  30  32
ENDBRANCH   7  30
TORSDOF 7
