REMARK  9 active torsions:
REMARK  status: ('A' for Active; 'I' for Inactive)
REMARK    1  A    between atoms: C1_2  and  C2_4 
REMARK    2  A    between atoms: C2_4  and  C3_5 
REMARK    3  A    between atoms: C3_5  and  C4_6 
REMARK    4  A    between atoms: C4_6  and  C5_7 
REMARK    5  A    between atoms: C5_7  and  C6_8 
REMARK    6  A    between atoms: C9_11  and  C10_12 
REMARK    7  A    between atoms: C14_16  and  O3_17 
REMARK    8  A    between atoms: O3_17  and  C15_18 
REMARK    9  A    between atoms: C15_18  and  C16_19 
ROOT
HETATM    1  C6  UNL     1       3.511  -0.296   1.743  1.00  0.00    -0.056 A 
HETATM    2  C7  UNL     1       4.404  -1.267   1.461  1.00  0.00     0.008 A 
HETATM    3  C8  UNL     1       3.956  -2.557   1.154  1.00  0.00     0.011 A 
HETATM    4  C9  UNL     1       2.632  -2.827   1.141  1.00  0.00    -0.021 A 
HETATM    5  C14 UNL     1       1.679  -1.813   1.437  1.00  0.00     0.075 A 
HETATM    6  C28 UNL     1       2.146  -0.561   1.734  1.00  0.00     0.044 A 
ENDROOT
BRANCH   5   7
HETATM    7  O3  UNL     1       0.373  -2.123   1.414  1.00  0.00    -0.350 OA
BRANCH   7   8
HETATM    8  C15 UNL     1      -0.809  -1.487   1.614  1.00  0.00     0.180 C 
BRANCH   8   9
HETATM    9  C16 UNL     1      -1.181  -0.354   0.707  1.00  0.00     0.010 C 
HETATM   10  C17 UNL     1      -2.532   0.149   1.160  1.00  0.00     0.007 C 
HETATM   11  C18 UNL     1      -3.664  -0.790   0.926  1.00  0.00     0.000 C 
HETATM   12  C19 UNL     1      -4.980  -0.063   1.220  1.00  0.00     0.000 C 
HETATM   13  C20 UNL     1      -5.810   0.101  -0.013  1.00  0.00     0.000 C 
HETATM   14  C21 UNL     1      -5.821   1.529  -0.516  1.00  0.00     0.000 C 
HETATM   15  C22 UNL     1      -5.277   1.636  -1.917  1.00  0.00     0.000 C 
HETATM   16  C23 UNL     1      -3.883   2.227  -1.935  1.00  0.00     0.000 C 
HETATM   17  C24 UNL     1      -2.866   1.186  -2.418  1.00  0.00     0.000 C 
HETATM   18  C25 UNL     1      -1.534   1.555  -1.842  1.00  0.00     0.000 C 
HETATM   19  C26 UNL     1      -0.603   0.413  -1.620  1.00  0.00     0.000 C 
HETATM   20  C27 UNL     1      -1.115  -0.691  -0.759  1.00  0.00     0.007 C 
ENDBRANCH   8   9
ENDBRANCH   7   8
ENDBRANCH   5   7
BRANCH   4  21
HETATM   21  C10 UNL     1       2.099  -4.151   0.836  1.00  0.00     0.021 C 
HETATM   22  C11 UNL     1       3.023  -5.207   0.332  1.00  0.00     0.009 C 
HETATM   23  C12 UNL     1       2.599  -4.968  -1.110  1.00  0.00     0.001 C 
HETATM   24  C13 UNL     1       1.414  -4.199  -0.544  1.00  0.00     0.009 C 
ENDBRANCH   4  21
BRANCH   1  25
HETATM   25  C5  UNL     1       3.917   1.109   2.072  1.00  0.00     0.038 C 
BRANCH  25  26
HETATM   26  C4  UNL     1       4.025   1.922   0.787  1.00  0.00     0.005 C 
BRANCH  26  27
HETATM   27  C3  UNL     1       4.419   3.323   1.136  1.00  0.00     0.011 C 
BRANCH  27  28
HETATM   28  C2  UNL     1       4.570   4.203  -0.069  1.00  0.00     0.113 C 
BRANCH  28  29
HETATM   29  C1  UNL     1       3.339   4.360  -0.850  1.00  0.00     0.172 C 
HETATM   30  O1  UNL     1       2.231   3.870  -0.523  1.00  0.00    -0.648 OA
HETATM   31  O2  UNL     1       3.455   5.118  -2.038  1.00  0.00    -0.648 OA
ENDBRANCH  28  29
ENDBRANCH  27  28
ENDBRANCH  26  27
ENDBRANCH  25  26
ENDBRANCH   1  25
TORSDOF 9
