REMARK  11 active torsions:
REMARK  status: ('A' for Active; 'I' for Inactive)
REMARK    1  A    between atoms: C2_2  and  C3_3 
REMARK    2  A    between atoms: C3_3  and  C4_4 
REMARK    3  A    between atoms: C4_4  and  C5_5 
REMARK    4  A    between atoms: C5_5  and  C6_6 
REMARK    5  A    between atoms: C6_6  and  C7_7 
REMARK    6  A    between atoms: C7_7  and  C8_8 
REMARK    7  A    between atoms: C8_8  and  C9_9 
REMARK    8  A    between atoms: C9_9  and  C10_10 
REMARK    9  A    between atoms: C10_10  and  C11_11 
REMARK   10  A    between atoms: C11_11  and  O1_15 
REMARK   11  A    between atoms: O1_15  and  N2_16 
ROOT
HETATM    1  N2  UNL     1      -1.044   1.990  -0.405  1.00  0.00    -0.267 N 
ATOM      2  H2  UNL     1      -0.951   3.005  -0.431  1.00  0.00     0.194 HD
HETATM    3  C12 UNL     1      -2.197   1.469  -0.121  1.00  0.00     0.015 C 
HETATM    4  C13 UNL     1      -3.317   2.380   0.151  1.00  0.00     0.060 C 
HETATM    5  C14 UNL     1      -4.496   1.953  -0.648  1.00  0.00    -0.004 C 
HETATM    6  C15 UNL     1      -5.474   3.145  -0.629  1.00  0.00     0.005 C 
HETATM    7  C16 UNL     1      -6.339   2.911   0.607  1.00  0.00     0.001 C 
HETATM    8  C17 UNL     1      -5.918   1.545   1.157  1.00  0.00     0.006 C 
HETATM    9  C18 UNL     1      -5.341   0.902  -0.076  1.00  0.00    -0.001 C 
HETATM   10  C19 UNL     1      -4.758  -0.452   0.144  1.00  0.00    -0.032 C 
HETATM   11  C20 UNL     1      -5.743  -1.102   1.134  1.00  0.00     0.010 C 
HETATM   12  C21 UNL     1      -5.447  -2.529   1.395  1.00  0.00     0.001 C 
HETATM   13  C22 UNL     1      -3.993  -2.849   1.422  1.00  0.00     0.000 C 
HETATM   14  C23 UNL     1      -3.080  -1.696   1.563  1.00  0.00     0.006 C 
HETATM   15  C24 UNL     1      -3.426  -0.464   0.820  1.00  0.00     0.004 C 
HETATM   16  C25 UNL     1      -2.292  -0.030  -0.092  1.00  0.00     0.038 C 
HETATM   17  C26 UNL     1      -2.385  -0.518  -1.478  1.00  0.00     0.011 C 
HETATM   18  C27 UNL     1      -3.488  -1.435  -1.803  1.00  0.00     0.002 C 
HETATM   19  C28 UNL     1      -4.792  -1.191  -1.167  1.00  0.00     0.010 C 
ENDROOT
BRANCH   1  20
HETATM   20  O1  UNL     1       0.050   1.215  -0.671  1.00  0.00    -0.225 OA
BRANCH  20  21
HETATM   21  C11 UNL     1       0.763   1.370  -1.848  1.00  0.00     0.140 C 
HETATM   22  N1  UNL     1       0.803   2.533  -2.394  1.00  0.00    -0.382 N 
ATOM     23  H12 UNL     1       1.328   2.647  -3.261  1.00  0.00     0.158 HD
ATOM     24  H11 UNL     1       0.326   3.338  -1.987  1.00  0.00     0.158 HD
BRANCH  21  25
HETATM   25  C10 UNL     1       1.457   0.199  -2.440  1.00  0.00     0.086 C 
BRANCH  25  26
HETATM   26  C9  UNL     1       2.486  -0.397  -1.529  1.00  0.00     0.008 C 
BRANCH  26  27
HETATM   27  C8  UNL     1       3.577   0.583  -1.159  1.00  0.00     0.000 C 
BRANCH  27  28
HETATM   28  C7  UNL     1       4.536  -0.175  -0.234  1.00  0.00     0.000 C 
BRANCH  28  29
HETATM   29  C6  UNL     1       5.658   0.719   0.187  1.00  0.00     0.000 C 
BRANCH  29  30
HETATM   30  C5  UNL     1       6.608   0.023   1.106  1.00  0.00     0.000 C 
BRANCH  30  31
HETATM   31  C4  UNL     1       7.223  -1.168   0.459  1.00  0.00     0.000 C 
BRANCH  31  32
HETATM   32  C3  UNL     1       8.190  -1.848   1.412  1.00  0.00    -0.000 C 
BRANCH  32  33
HETATM   33  C2  UNL     1       9.312  -0.953   1.841  1.00  0.00    -0.005 C 
HETATM   34  C1  UNL     1      10.137  -0.466   0.656  1.00  0.00     0.005 C 
ENDBRANCH  32  33
ENDBRANCH  31  32
ENDBRANCH  30  31
ENDBRANCH  29  30
ENDBRANCH  28  29
ENDBRANCH  27  28
ENDBRANCH  26  27
ENDBRANCH  25  26
ENDBRANCH  21  25
ENDBRANCH  20  21
ENDBRANCH   1  20
TORSDOF 11
