REMARK  2 active torsions:
REMARK  status: ('A' for Active; 'I' for Inactive)
REMARK    1  A    between atoms: C3_8  and  C4_9 
REMARK    2  A    between atoms: C11_21  and  C12_22 
ROOT
HETATM    1  N1  UNL     1      -1.028   2.029   1.347  1.00  0.00    -0.385 N 
ATOM      2  H11 UNL     1      -2.023   2.144   1.539  1.00  0.00     0.157 HD
ATOM      3  H12 UNL     1      -0.375   2.739   1.678  1.00  0.00     0.157 HD
HETATM    4  C1  UNL     1      -0.670   1.004   0.707  1.00  0.00     0.114 A 
HETATM    5  N2  UNL     1       0.673   0.849   0.448  1.00  0.00    -0.326 N 
ATOM      6  H2  UNL     1       1.343   1.548   0.770  1.00  0.00     0.169 HD
HETATM    7  C2  UNL     1       1.094  -0.228  -0.231  1.00  0.00     0.142 A 
HETATM    8  C3  UNL     1       2.392  -0.558  -0.586  1.00  0.00     0.053 A 
HETATM    9  C9  UNL     1       2.255  -1.772  -1.274  1.00  0.00     0.125 A 
HETATM   10  N4  UNL     1       0.957  -2.078  -1.289  1.00  0.00    -0.303 N 
ATOM     11  H4  UNL     1       0.569  -2.914  -1.726  1.00  0.00     0.186 HD
HETATM   12  N5  UNL     1       0.232  -1.157  -0.663  1.00  0.00    -0.249 N 
HETATM   13  C10 UNL     1      -1.106  -1.061  -0.440  1.00  0.00     0.136 A 
HETATM   14  C11 UNL     1      -1.545   0.053   0.263  1.00  0.00     0.054 A 
ENDROOT
BRANCH  14  15
HETATM   15  C12 UNL     1      -2.992   0.167   0.511  1.00  0.00     0.074 A 
HETATM   16  C13 UNL     1      -3.673   1.156   1.172  1.00  0.00     0.036 A 
HETATM   17  C14 UNL     1      -5.014   0.829   1.149  1.00  0.00     0.053 A 
HETATM   18  C15 UNL     1      -5.153  -0.339   0.487  1.00  0.00     0.128 A 
HETATM   19  N6  UNL     1      -6.093  -1.212   0.098  1.00  0.00    -0.336 N 
HETATM   20  N8  UNL     1      -3.932  -0.741   0.101  1.00  0.00    -0.238 N 
HETATM   21  C16 UNL     1      -5.431  -2.185  -0.551  1.00  0.00     0.199 A 
ATOM     22  H6  UNL     1      -7.098  -1.151   0.260  1.00  0.00     0.168 HD
HETATM   23  N7  UNL     1      -4.130  -1.875  -0.534  1.00  0.00    -0.287 N 
ATOM     24  H7  UNL     1      -3.393  -2.440  -0.956  1.00  0.00     0.188 HD
ENDBRANCH  14  15
BRANCH   8  25
HETATM   25  C4  UNL     1       3.638   0.145  -0.333  1.00  0.00     0.047 A 
HETATM   26  C5  UNL     1       4.825  -0.418  -0.809  1.00  0.00     0.030 A 
HETATM   27  C6  UNL     1       6.040   0.203  -0.600  1.00  0.00     0.004 A 
HETATM   28  C7  UNL     1       6.117   1.398   0.085  1.00  0.00     0.017 A 
HETATM   29  C8  UNL     1       4.932   1.933   0.545  1.00  0.00     0.088 A 
HETATM   30  N3  UNL     1       3.767   1.300   0.323  1.00  0.00    -0.365 N 
ATOM     31  H3  UNL     1       2.918   1.735   0.683  1.00  0.00     0.165 HD
ENDBRANCH   8  25
TORSDOF 2
