REMARK  4 active torsions:
REMARK  status: ('A' for Active; 'I' for Inactive)
REMARK    1  A    between atoms: C2_3  and  N3_7 
REMARK    2  A    between atoms: N3_7  and  N4_9 
REMARK    3  A    between atoms: N4_9  and  C3_11 
REMARK    4  A    between atoms: C5_13  and  N5_14 
ROOT
HETATM    1  N1  UNL     1      -4.114  -1.928   0.759  1.00  0.00    -0.188 NA
HETATM    2  C1  UNL     1      -3.461  -0.982   0.625  1.00  0.00     0.137 C 
HETATM    3  C2  UNL     1      -2.663   0.204   0.460  1.00  0.00     0.196 C 
HETATM    4  N2  UNL     1      -3.055   1.274   1.025  1.00  0.00    -0.376 N 
ATOM      5  H21 UNL     1      -2.489   2.115   0.908  1.00  0.00     0.158 HD
ATOM      6  H22 UNL     1      -3.903   1.335   1.589  1.00  0.00     0.158 HD
ENDROOT
BRANCH   3   7
HETATM    7  N3  UNL     1      -1.470   0.118  -0.333  1.00  0.00    -0.281 N 
ATOM      8  H3  UNL     1      -1.470  -0.347  -1.241  1.00  0.00     0.189 HD
BRANCH   7   9
HETATM    9  N4  UNL     1      -0.325   0.687   0.177  1.00  0.00    -0.328 N 
ATOM     10  H4  UNL     1      -0.248   1.687   0.364  1.00  0.00     0.180 HD
BRANCH   9  11
HETATM   11  C3  UNL     1       0.747  -0.223   0.426  1.00  0.00     0.132 A 
HETATM   12  C4  UNL     1       1.370  -1.047  -0.618  1.00  0.00     0.063 A 
HETATM   13  C5  UNL     1       2.068   0.183  -0.235  1.00  0.00     0.209 A 
BRANCH  13  14
HETATM   14  N5  UNL     1       3.178   0.207   0.674  1.00  0.00    -0.073 N 
ATOM     15  H53 UNL     1       2.976   0.805   1.475  1.00  0.00     0.274 HD
ATOM     16  H52 UNL     1       3.273  -0.689   1.152  1.00  0.00     0.274 HD
ATOM     17  H51 UNL     1       4.058   0.477   0.234  1.00  0.00     0.274 HD
ENDBRANCH  13  14
ENDBRANCH   9  11
ENDBRANCH   7   9
ENDBRANCH   3   7
TORSDOF 4
