REMARK  7 active torsions:
REMARK  status: ('A' for Active; 'I' for Inactive)
REMARK    1  A    between atoms: C2_2  and  C3_3 
REMARK    2  A    between atoms: C3_3  and  C4_4 
REMARK    3  A    between atoms: C4_4  and  O1_6 
REMARK    4  A    between atoms: C8_12  and  C9_13 
REMARK    5  A    between atoms: C19_25  and  O6_26 
REMARK    6  A    between atoms: O6_26  and  N1_27 
REMARK    7  A    between atoms: C22_32  and  O7_33 
ROOT
HETATM    1  C3  UNL     1       2.866  -0.100  -0.053  1.00  0.00     0.081 C 
HETATM    2  C6  UNL     1       2.717   1.411  -0.382  1.00  0.00     0.271 C 
HETATM    3  O2  UNL     1       3.121   2.064  -1.328  1.00  0.00    -0.264 OA
HETATM    4  O3  UNL     1       1.988   1.854   0.697  1.00  0.00    -0.310 OA
HETATM    5  C7  UNL     1       1.019   0.846   0.936  1.00  0.00     0.168 C 
HETATM    6  C8  UNL     1      -0.310   1.487   0.681  1.00  0.00    -0.043 C 
HETATM    7  C13 UNL     1      -1.434   0.692   0.288  1.00  0.00     0.061 C 
HETATM    8  C14 UNL     1      -2.041   0.008   1.535  1.00  0.00     0.151 C 
HETATM    9  O4  UNL     1      -1.159  -0.863   2.150  1.00  0.00    -0.314 OA
HETATM   10  C15 UNL     1       0.092  -1.361   1.779  1.00  0.00     0.271 C 
HETATM   11  O5  UNL     1       0.756  -1.751   2.760  1.00  0.00    -0.264 OA
HETATM   12  C16 UNL     1       0.668  -1.460   0.395  1.00  0.00     0.081 C 
HETATM   13  C17 UNL     1       1.219  -2.839   0.277  1.00  0.00     0.029 C 
HETATM   14  C18 UNL     1       1.402  -0.297   0.014  1.00  0.00     0.061 C 
HETATM   15  C19 UNL     1      -0.585  -1.599  -0.498  1.00  0.00     0.181 C 
HETATM   16  C20 UNL     1      -1.423  -0.427  -0.647  1.00  0.00     0.022 C 
HETATM   17  C21 UNL     1      -1.322   0.050  -2.081  1.00  0.00     0.021 C 
HETATM   18  C22 UNL     1      -2.914  -0.840  -0.525  1.00  0.00     0.140 C 
HETATM   19  C23 UNL     1      -3.266  -0.590   0.922  1.00  0.00     0.007 C 
HETATM   20  C24 UNL     1      -4.455   0.365   0.984  1.00  0.00     0.020 C 
HETATM   21  C25 UNL     1      -3.725  -1.840   1.644  1.00  0.00     0.020 C 
ENDROOT
BRANCH   1  22
HETATM   22  C2  UNL     1       3.686   0.026   1.150  1.00  0.00     0.018 C 
HETATM   23  C1  UNL     1       4.405  -1.077   1.782  1.00  0.00     0.006 C 
ENDBRANCH   1  22
BRANCH   1  24
HETATM   24  C4  UNL     1       3.539  -0.564  -1.306  1.00  0.00     0.133 C 
HETATM   25  C5  UNL     1       4.201  -1.890  -1.325  1.00  0.00     0.040 C 
BRANCH  24  26
HETATM   26  O1  UNL     1       2.663  -0.516  -2.406  1.00  0.00    -0.395 OA
ATOM     27  H1  UNL     1       3.090  -0.811  -3.202  1.00  0.00     0.210 HD
ENDBRANCH  24  26
ENDBRANCH   1  24
BRANCH   6  28
HETATM   28  C9  UNL     1      -0.146   2.892   0.281  1.00  0.00     0.008 C 
HETATM   29  C10 UNL     1      -0.836   3.761  -0.378  1.00  0.00    -0.087 C 
HETATM   30  C11 UNL     1      -2.145   3.665  -1.020  1.00  0.00     0.043 C 
HETATM   31  C12 UNL     1      -0.183   5.153  -0.530  1.00  0.00     0.043 C 
ENDBRANCH   6  28
BRANCH  15  32
HETATM   32  O6  UNL     1      -1.285  -2.703  -0.038  1.00  0.00    -0.280 OA
BRANCH  32  33
HETATM   33  N1  UNL     1      -1.310  -3.738  -0.914  1.00  0.00    -0.311 N 
ATOM     34  H12 UNL     1      -0.851  -3.692  -1.824  1.00  0.00     0.184 HD
ATOM     35  H11 UNL     1      -1.825  -4.551  -0.575  1.00  0.00     0.184 HD
ENDBRANCH  32  33
ENDBRANCH  15  32
BRANCH  18  36
HETATM   36  O7  UNL     1      -3.733  -0.110  -1.343  1.00  0.00    -0.394 OA
ATOM     37  H7  UNL     1      -4.646  -0.363  -1.268  1.00  0.00     0.210 HD
ENDBRANCH  18  36
TORSDOF 7
