REMARK  10 active torsions:
REMARK  status: ('A' for Active; 'I' for Inactive)
REMARK    1  A    between atoms: N1_2  and  C4_5 
REMARK    2  A    between atoms: C4_5  and  C5_6 
REMARK    3  A    between atoms: C5_6  and  C6_7 
REMARK    4  A    between atoms: C6_7  and  N2_8 
REMARK    5  A    between atoms: N2_8  and  C7_11 
REMARK    6  A    between atoms: C7_11  and  C8_12 
REMARK    7  A    between atoms: C8_12  and  O1_13 
REMARK    8  A    between atoms: O1_13  and  C9_14 
REMARK    9  A    between atoms: C9_14  and  C10_15 
REMARK   10  A    between atoms: C10_15  and  C11_16 
ROOT
HETATM    1  C9  UNL     1       3.080  -1.070  -0.405  1.00  0.00     0.226 C 
ENDROOT
BRANCH   1   2
HETATM    2  O1  UNL     1       1.931  -0.517  -0.851  1.00  0.00    -0.385 OA
BRANCH   2   3
HETATM    3  C8  UNL     1       1.441   0.553  -0.190  1.00  0.00     0.195 C 
BRANCH   3   4
HETATM    4  C7  UNL     1       0.125   1.081  -0.667  1.00  0.00     0.258 C 
BRANCH   4   5
HETATM    5  N2  UNL     1      -0.996   0.223  -0.614  1.00  0.00    -0.073 N 
ATOM      6  H22 UNL     1      -0.831  -0.629  -1.151  1.00  0.00     0.277 HD
ATOM      7  H21 UNL     1      -1.776   0.606  -1.149  1.00  0.00     0.277 HD
BRANCH   5   8
HETATM    8  C6  UNL     1      -1.401  -0.089   0.750  1.00  0.00     0.234 C 
BRANCH   8   9
HETATM    9  C5  UNL     1      -2.799  -0.735   0.642  1.00  0.00     0.055 C 
BRANCH   9  10
HETATM   10  C4  UNL     1      -3.638   0.360  -0.002  1.00  0.00     0.237 C 
BRANCH  10  11
HETATM   11  N1  UNL     1      -5.004   0.038  -0.181  1.00  0.00    -0.079 N 
HETATM   12  C1  UNL     1      -5.781   0.645   0.922  1.00  0.00     0.271 C 
HETATM   13  C2  UNL     1      -5.287  -1.357  -0.291  1.00  0.00     0.271 C 
HETATM   14  C3  UNL     1      -5.448   0.687  -1.428  1.00  0.00     0.271 C 
ENDBRANCH  10  11
ENDBRANCH   9  10
ENDBRANCH   8   9
ENDBRANCH   5   8
ENDBRANCH   4   5
ENDBRANCH   3   4
ENDBRANCH   2   3
ENDBRANCH   1   2
BRANCH   1  15
HETATM   15  C10 UNL     1       4.276  -0.201  -0.280  1.00  0.00     0.202 C 
HETATM   16  N5  UNL     1       4.615   0.476  -1.518  1.00  0.00    -0.095 NA
HETATM   17  N6  UNL     1       5.540   1.439  -1.112  1.00  0.00    -0.253 N 
HETATM   18  C12 UNL     1       5.170   1.828   0.202  1.00  0.00     0.333 C 
ATOM     19  H6  UNL     1       6.328   1.794  -1.654  1.00  0.00     0.187 HD
HETATM   20  O2  UNL     1       5.600   2.825   0.864  1.00  0.00    -0.246 OA
HETATM   21  N7  UNL     1       4.199   0.878   0.669  1.00  0.00    -0.309 N 
ATOM     22  H7  UNL     1       3.593   0.951   1.486  1.00  0.00     0.167 HD
BRANCH  15  23
HETATM   23  C11 UNL     1       5.470  -1.069   0.071  1.00  0.00     0.136 C 
HETATM   24  N3  UNL     1       6.473  -1.071  -0.700  1.00  0.00    -0.388 N 
ATOM     25  H32 UNL     1       6.491  -0.511  -1.552  1.00  0.00     0.157 HD
ATOM     26  H31 UNL     1       7.276  -1.655  -0.464  1.00  0.00     0.157 HD
HETATM   27  N4  UNL     1       5.445  -1.838   1.240  1.00  0.00    -0.084 NA
ENDBRANCH  15  23
ENDBRANCH   1  15
TORSDOF 10
