REMARK  15 active torsions:
REMARK  status: ('A' for Active; 'I' for Inactive)
REMARK    1  A    between atoms: C2_2  and  C4_4 
REMARK    2  A    between atoms: C4_4  and  C6_6 
REMARK    3  A    between atoms: C6_6  and  O1_7 
REMARK    4  A    between atoms: C6_6  and  N1_9 
REMARK    5  A    between atoms: C9_12  and  N2_13 
REMARK    6  A    between atoms: N2_13  and  C10_15 
REMARK    7  A    between atoms: C10_15  and  C11_16 
REMARK    8  A    between atoms: C11_16  and  C12_17 
REMARK    9  A    between atoms: C11_16  and  C15_20 
REMARK   10  A    between atoms: C15_20  and  N3_21 
REMARK   11  A    between atoms: C15_20  and  C27_36 
REMARK       I    between atoms: N3_21  and  C16_22 
REMARK   12  A    between atoms: C16_22  and  C17_24 
REMARK   13  A    between atoms: C17_24  and  C18_25 
REMARK   14  A    between atoms: C18_25  and  C19_26 
REMARK   15  A    between atoms: C19_26  and  C20_27 
ROOT
HETATM    1  C11 UNL     1      -0.411  -0.118  -0.779  1.00  0.00    -0.025 C 
ENDROOT
BRANCH   1   2
HETATM    2  C10 UNL     1      -1.840  -0.377  -1.138  1.00  0.00     0.089 C 
BRANCH   2   3
HETATM    3  N2  UNL     1      -2.821   0.289  -0.384  1.00  0.00    -0.393 N 
ATOM      4  H2  UNL     1      -3.265   1.077  -0.855  1.00  0.00     0.159 HD
BRANCH   3   5
HETATM    5  C9  UNL     1      -3.271   0.046   0.877  1.00  0.00     0.090 C 
HETATM    6  C8  UNL     1      -4.102  -1.246   0.927  1.00  0.00     0.070 C 
HETATM    7  C7  UNL     1      -5.580  -0.905   0.801  1.00  0.00     0.068 C 
HETATM    8  N1  UNL     1      -5.830   0.313   0.140  1.00  0.00    -0.347 N 
HETATM    9  C32 UNL     1      -5.222   1.495   0.595  1.00  0.00     0.068 C 
HETATM   10  C31 UNL     1      -4.093   1.135   1.529  1.00  0.00     0.070 C 
BRANCH   8  11
HETATM   11  C6  UNL     1      -6.993   0.410  -0.677  1.00  0.00     0.227 C 
BRANCH  11  12
HETATM   12  C4  UNL     1      -8.278   0.245   0.065  1.00  0.00     0.034 C 
HETATM   13  C5  UNL     1      -8.468   1.401   1.010  1.00  0.00     0.015 C 
BRANCH  12  14
HETATM   14  C2  UNL     1      -9.491   0.204  -0.832  1.00  0.00    -0.015 C 
HETATM   15  C1  UNL     1      -9.472  -0.895  -1.843  1.00  0.00     0.010 C 
HETATM   16  C3  UNL     1     -10.714  -0.007   0.061  1.00  0.00     0.010 C 
ENDBRANCH  12  14
ENDBRANCH  11  12
BRANCH  11  17
HETATM   17  O1  UNL     1      -6.958   1.600  -1.415  1.00  0.00    -0.376 OA
ATOM     18  H1  UNL     1      -6.140   1.705  -1.887  1.00  0.00     0.212 HD
ENDBRANCH  11  17
ENDBRANCH   8  11
ENDBRANCH   3   5
ENDBRANCH   2   3
ENDBRANCH   1   2
BRANCH   1  19
HETATM   19  C12 UNL     1      -0.302   1.325  -0.911  1.00  0.00     0.011 C 
HETATM   20  C13 UNL     1       0.919   2.105  -0.675  1.00  0.00     0.014 C 
HETATM   21  C14 UNL     1      -0.747   1.699  -2.319  1.00  0.00     0.014 C 
ENDBRANCH   1  19
BRANCH   1  22
HETATM   22  C15 UNL     1       0.207  -0.952   0.200  1.00  0.00     0.205 C 
BRANCH  22  23
HETATM   23  N3  UNL     1       1.533  -0.638   0.636  1.00  0.00    -0.404 NA
HETATM   24  C16 UNL     1       2.750  -0.348   1.040  1.00  0.00     0.287 C 
HETATM   25  O2  UNL     1       3.046   0.154   2.195  1.00  0.00    -0.258 OA
BRANCH  24  26
HETATM   26  C17 UNL     1       4.102  -0.501   0.296  1.00  0.00     0.119 C 
BRANCH  26  27
HETATM   27  C18 UNL     1       4.710   0.834   0.143  1.00  0.00     0.011 C 
BRANCH  27  28
HETATM   28  C19 UNL     1       6.023   0.948  -0.453  1.00  0.00     0.005 C 
BRANCH  28  29
HETATM   29  C20 UNL     1       7.262   0.634   0.265  1.00  0.00    -0.011 C 
HETATM   30  C21 UNL     1       7.544  -0.667   0.853  1.00  0.00     0.024 C 
HETATM   31  C22 UNL     1       8.777  -0.510   1.760  1.00  0.00     0.115 C 
HETATM   32  N4  UNL     1       9.526   0.675   1.536  1.00  0.00    -0.413 N 
HETATM   33  C23 UNL     1       9.741   1.012   0.143  1.00  0.00     0.018 C 
ATOM     34  H4  UNL     1       9.886   1.247   2.300  1.00  0.00     0.153 HD
HETATM   35  C24 UNL     1      10.768   0.070  -0.488  1.00  0.00     0.037 C 
HETATM   36  C25 UNL     1      10.348   2.400   0.093  1.00  0.00     0.037 C 
HETATM   37  C26 UNL     1       8.477   1.021  -0.645  1.00  0.00     0.034 C 
ENDBRANCH  28  29
ENDBRANCH  27  28
ENDBRANCH  26  27
ENDBRANCH  24  26
ENDBRANCH  22  23
BRANCH  22  38
HETATM   38  C27 UNL     1       0.384  -2.439  -0.186  1.00  0.00    -0.015 C 
HETATM   39  C28 UNL     1       1.141  -2.724  -1.409  1.00  0.00     0.018 C 
HETATM   40  C29 UNL     1      -0.815  -3.308  -0.069  1.00  0.00     0.018 C 
HETATM   41  C30 UNL     1       1.319  -3.068   0.931  1.00  0.00     0.018 C 
ENDBRANCH  22  38
ENDBRANCH   1  22
TORSDOF 15
