REMARK  14 active torsions:
REMARK  status: ('A' for Active; 'I' for Inactive)
REMARK    1  A    between atoms: C2_2  and  C3_3 
REMARK    2  A    between atoms: C6_6  and  C7_7 
REMARK       I    between atoms: C7_7  and  N1_9 
REMARK    3  A    between atoms: N1_9  and  C8_11 
REMARK    4  A    between atoms: C8_11  and  C9_12 
REMARK    5  A    between atoms: C8_11  and  C16_19 
REMARK    6  A    between atoms: C9_12  and  C10_13 
REMARK       I    between atoms: C16_19  and  N2_21 
REMARK    7  A    between atoms: N2_21  and  C17_23 
REMARK    8  A    between atoms: C17_23  and  C18_24 
REMARK    9  A    between atoms: C17_23  and  C27_37 
REMARK   10  A    between atoms: C19_25  and  C20_26 
REMARK   11  A    between atoms: C20_26  and  C21_27 
REMARK   12  A    between atoms: C21_27  and  N3_28 
REMARK       I    between atoms: N3_28  and  C22_30 
REMARK   13  A    between atoms: C22_30  and  O4_32 
REMARK   14  A    between atoms: O4_32  and  C23_33 
ROOT
HETATM    1  C16 UNL     1      -0.564  -0.365  -0.343  1.00  0.00     0.241 C 
HETATM    2  O2  UNL     1      -0.477   0.881  -0.276  1.00  0.00    -0.271 OA
HETATM    3  N2  UNL     1       0.513  -1.148   0.116  1.00  0.00    -0.342 N 
ATOM      4  H2  UNL     1       0.454  -2.165   0.074  1.00  0.00     0.163 HD
ENDROOT
BRANCH   1   5
HETATM    5  C8  UNL     1      -1.796  -1.025  -0.898  1.00  0.00     0.177 C 
BRANCH   5   6
HETATM    6  N1  UNL     1      -2.913  -0.181  -0.509  1.00  0.00    -0.347 N 
HETATM    7  C7  UNL     1      -3.825  -0.579   0.486  1.00  0.00     0.222 C 
HETATM    8  O1  UNL     1      -3.649  -1.698   1.041  1.00  0.00    -0.273 OA
ATOM      9  H1  UNL     1      -3.039   0.721  -0.968  1.00  0.00     0.163 HD
BRANCH   7  10
HETATM   10  C6  UNL     1      -4.955   0.263   0.887  1.00  0.00     0.078 C 
HETATM   11  C5  UNL     1      -4.498   1.680   1.154  1.00  0.00     0.014 C 
HETATM   12  C4  UNL     1      -5.758   2.496   1.422  1.00  0.00     0.005 C 
HETATM   13  C3  UNL     1      -6.447   2.011   2.671  1.00  0.00    -0.015 C 
HETATM   14  C29 UNL     1      -5.794   0.762   3.215  1.00  0.00     0.005 C 
HETATM   15  C28 UNL     1      -5.536  -0.273   2.187  1.00  0.00     0.014 C 
BRANCH  13  16
HETATM   16  C2  UNL     1      -6.554   3.103   3.695  1.00  0.00     0.000 C 
HETATM   17  C1  UNL     1      -7.256   2.517   4.905  1.00  0.00     0.005 C 
ENDBRANCH  13  16
ENDBRANCH   7  10
ENDBRANCH   5   6
BRANCH   5  18
HETATM   18  C9  UNL     1      -1.730  -0.967  -2.404  1.00  0.00     0.039 C 
BRANCH  18  19
HETATM   19  C10 UNL     1      -2.961  -1.457  -3.097  1.00  0.00    -0.012 C 
HETATM   20  C11 UNL     1      -2.708  -1.316  -4.591  1.00  0.00     0.005 C 
HETATM   21  C12 UNL     1      -2.560  -2.677  -5.238  1.00  0.00     0.000 C 
HETATM   22  C13 UNL     1      -3.913  -3.366  -5.106  1.00  0.00     0.000 C 
HETATM   23  C14 UNL     1      -4.268  -3.516  -3.660  1.00  0.00     0.000 C 
HETATM   24  C15 UNL     1      -3.297  -2.881  -2.716  1.00  0.00     0.005 C 
ENDBRANCH  18  19
ENDBRANCH   5  18
ENDBRANCH   1   5
BRANCH   3  25
HETATM   25  C17 UNL     1       1.761  -0.489   0.673  1.00  0.00     0.208 C 
BRANCH  25  26
HETATM   26  C18 UNL     1       2.842  -1.417   0.357  1.00  0.00     0.005 C 
HETATM   27  C19 UNL     1       4.246  -1.213   0.526  1.00  0.00    -0.026 C 
BRANCH  27  28
HETATM   28  C20 UNL     1       4.873  -0.663   1.743  1.00  0.00     0.046 C 
BRANCH  28  29
HETATM   29  C21 UNL     1       4.760   0.843   1.844  1.00  0.00     0.128 C 
BRANCH  29  30
HETATM   30  N3  UNL     1       5.470   1.399   0.683  1.00  0.00    -0.337 N 
HETATM   31  C22 UNL     1       6.843   1.217   0.538  1.00  0.00     0.361 C 
HETATM   32  O3  UNL     1       7.528   0.609   1.369  1.00  0.00    -0.238 OA
ATOM     33  H3  UNL     1       4.952   1.923  -0.023  1.00  0.00     0.164 HD
BRANCH  31  34
HETATM   34  O4  UNL     1       7.552   1.711  -0.571  1.00  0.00    -0.294 OA
BRANCH  34  35
HETATM   35  C23 UNL     1       8.945   1.506  -0.707  1.00  0.00     0.061 C 
HETATM   36  C24 UNL     1       9.332   0.051  -0.770  1.00  0.00     0.046 C 
HETATM   37  C25 UNL     1       9.574   2.067   0.575  1.00  0.00     0.046 C 
HETATM   38  C26 UNL     1       9.517   2.301  -1.850  1.00  0.00     0.046 C 
ENDBRANCH  34  35
ENDBRANCH  31  34
ENDBRANCH  29  30
ENDBRANCH  28  29
ENDBRANCH  27  28
ENDBRANCH  25  26
BRANCH  25  39
HETATM   39  C27 UNL     1       1.428  -0.693   2.156  1.00  0.00     0.200 C 
HETATM   40  O5  UNL     1       0.998  -1.821   2.524  1.00  0.00    -0.646 OA
HETATM   41  O6  UNL     1       1.562   0.273   3.084  1.00  0.00    -0.646 OA
ENDBRANCH  25  39
ENDBRANCH   3  25
TORSDOF 14
