REMARK  9 active torsions:
REMARK  status: ('A' for Active; 'I' for Inactive)
REMARK    1  A    between atoms: C2_2  and  C3_3 
REMARK    2  A    between atoms: C6_6  and  C7_7 
REMARK    3  A    between atoms: C7_7  and  C8_8 
REMARK    4  A    between atoms: C8_8  and  C9_9 
REMARK    5  A    between atoms: C9_9  and  S1_10 
REMARK    6  A    between atoms: S1_10  and  N1_11 
REMARK    7  A    between atoms: S1_10  and  N6_28 
REMARK       I    between atoms: N1_11  and  C10_13 
REMARK       I    between atoms: C10_13  and  N2_15 
REMARK    8  A    between atoms: N3_19  and  N4_21 
REMARK    9  A    between atoms: N6_28  and  C16_29 
ROOT
HETATM    1  S1  UNL     1      -0.340  -0.450  -0.330  1.00  0.00    -0.033 SA
ENDROOT
BRANCH   1   2
HETATM    2  C9  UNL     1       0.182   0.538   1.083  1.00  0.00     0.103 C 
BRANCH   2   3
HETATM    3  C8  UNL     1       1.582   0.090   1.441  1.00  0.00     0.014 C 
BRANCH   3   4
HETATM    4  C7  UNL     1       2.476   0.375   0.262  1.00  0.00     0.026 C 
BRANCH   4   5
HETATM    5  C6  UNL     1       3.889  -0.084   0.592  1.00  0.00     0.085 C 
HETATM    6  C5  UNL     1       4.836   0.164  -0.525  1.00  0.00     0.048 C 
HETATM    7  C3  UNL     1       5.930   1.036   0.006  1.00  0.00     0.056 C 
HETATM    8  C4  UNL     1       7.302   0.507  -0.394  1.00  0.00     0.030 C 
HETATM    9  C20 UNL     1       5.760   0.905   1.474  1.00  0.00     0.230 C 
HETATM   10  N7  UNL     1       4.412   0.564   1.747  1.00  0.00    -0.355 N 
HETATM   11  O2  UNL     1       6.677   1.073   2.350  1.00  0.00    -0.272 OA
ATOM     12  H7  UNL     1       3.908   0.749   2.614  1.00  0.00     0.162 HD
BRANCH   7  13
HETATM   13  C2  UNL     1       5.773   2.429  -0.428  1.00  0.00    -0.018 C 
HETATM   14  C1  UNL     1       5.176   3.315   0.331  1.00  0.00     0.008 C 
ENDBRANCH   7  13
ENDBRANCH   4   5
ENDBRANCH   3   4
ENDBRANCH   2   3
ENDBRANCH   1   2
BRANCH   1  15
HETATM   15  N1  UNL     1      -1.963   0.148  -0.682  1.00  0.00    -0.278 N 
HETATM   16  C10 UNL     1      -2.986  -0.241   0.219  1.00  0.00     0.328 C 
HETATM   17  O1  UNL     1      -2.702  -0.981   1.213  1.00  0.00    -0.246 OA
HETATM   18  N2  UNL     1      -4.309   0.201  -0.005  1.00  0.00    -0.333 N 
HETATM   19  C11 UNL     1      -5.363  -0.194   0.907  1.00  0.00     0.133 C 
HETATM   20  C15 UNL     1      -4.628   1.032  -1.119  1.00  0.00     0.133 C 
HETATM   21  C12 UNL     1      -5.960   1.076   1.478  1.00  0.00     0.074 C 
HETATM   22  C13 UNL     1      -6.422   1.907   0.351  1.00  0.00     0.008 C 
HETATM   23  N3  UNL     1      -7.174   2.929   0.656  1.00  0.00    -0.295 N 
HETATM   24  C14 UNL     1      -6.040   1.588  -1.034  1.00  0.00     0.074 C 
ATOM     25  H3  UNL     1      -7.420   3.132   1.625  1.00  0.00     0.187 HD
ATOM     26  H1  UNL     1      -2.154   0.741  -1.490  1.00  0.00     0.179 HD
BRANCH  23  27
HETATM   27  N4  UNL     1      -7.629   3.733  -0.387  1.00  0.00    -0.249 N 
HETATM   28  N5  UNL     1      -8.660   3.345  -1.016  1.00  0.00    -0.331 N 
ATOM     29  H52 UNL     1      -9.126   2.476  -0.756  1.00  0.00     0.178 HD
ATOM     30  H51 UNL     1      -8.993   3.934  -1.780  1.00  0.00     0.178 HD
ATOM     31  H4  UNL     1      -7.152   4.600  -0.635  1.00  0.00     0.207 HD
ENDBRANCH  23  27
ENDBRANCH   1  15
BRANCH   1  32
HETATM   32  N6  UNL     1      -0.496  -2.074   0.264  1.00  0.00    -0.161 NA
BRANCH  32  33
HETATM   33  C16 UNL     1      -0.155  -3.080  -0.683  1.00  0.00     0.030 C 
HETATM   34  C17 UNL     1      -0.524  -4.426  -0.039  1.00  0.00     0.034 C 
HETATM   35  C18 UNL     1      -0.840  -3.005  -2.004  1.00  0.00     0.034 C 
HETATM   36  C19 UNL     1       1.352  -3.143  -0.936  1.00  0.00     0.034 C 
ENDBRANCH  32  33
ENDBRANCH   1  32
TORSDOF 9
