REMARK  6 active torsions:
REMARK  status: ('A' for Active; 'I' for Inactive)
REMARK       I    between atoms: C1_4  and  N2_5 
REMARK       I    between atoms: C1_4  and  N4_27 
REMARK    1  A    between atoms: N2_5  and  C2_7 
REMARK    2  A    between atoms: C4_11  and  C5_12 
REMARK    3  A    between atoms: N4_27  and  C18_29 
REMARK    4  A    between atoms: C18_29  and  C19_30 
REMARK    5  A    between atoms: C19_30  and  C20_31 
REMARK    6  A    between atoms: C21_32  and  C22_33 
ROOT
HETATM    1  C2  UNL     1       0.795  -0.219  -0.173  1.00  0.00     0.160 C 
HETATM    2  N3  UNL     1      -0.148   0.666  -0.563  1.00  0.00    -0.349 N 
ATOM      3  H3  UNL     1       0.185   1.601  -0.797  1.00  0.00     0.167 HD
HETATM    4  C3  UNL     1      -1.477   0.463  -0.681  1.00  0.00     0.101 C 
HETATM    5  C4  UNL     1      -2.298  -0.515  -0.151  1.00  0.00     0.016 C 
HETATM    6  C15 UNL     1      -1.816  -1.744   0.250  1.00  0.00     0.183 C 
HETATM    7  O1  UNL     1      -2.664  -2.567   0.584  1.00  0.00    -0.288 OA
HETATM    8  C16 UNL     1      -0.507  -2.234   0.349  1.00  0.00     0.101 C 
HETATM    9  C17 UNL     1       0.645  -1.578   0.003  1.00  0.00     0.164 C 
HETATM   10  F1  UNL     1       1.736  -2.336  -0.186  1.00  0.00    -0.202 F 
ENDROOT
BRANCH   1  11
HETATM   11  N2  UNL     1       1.922   0.301   0.039  1.00  0.00    -0.174 N 
HETATM   12  C1  UNL     1       3.130  -0.236   0.443  1.00  0.00     0.673 C 
HETATM   13  N1  UNL     1       3.332  -0.570   1.666  1.00  0.00    -0.235 N 
HETATM   14  N4  UNL     1       4.184  -0.426  -0.484  1.00  0.00    -0.226 N 
ATOM     15  H12 UNL     1       2.573  -0.433   2.334  1.00  0.00     0.174 HD
ATOM     16  H11 UNL     1       4.223  -0.966   1.964  1.00  0.00     0.174 HD
ATOM     17  H4  UNL     1       4.099  -1.091  -1.252  1.00  0.00     0.177 HD
ATOM     18  H2  UNL     1       1.949   1.309  -0.117  1.00  0.00     0.186 HD
BRANCH  14  19
HETATM   19  C18 UNL     1       5.391   0.363  -0.299  1.00  0.00     0.142 C 
BRANCH  19  20
HETATM   20  C19 UNL     1       6.424   0.070  -1.340  1.00  0.00     0.047 C 
BRANCH  20  21
HETATM   21  C20 UNL     1       7.694   0.775  -1.139  1.00  0.00    -0.028 C 
HETATM   22  C21 UNL     1       8.693   0.426  -0.155  1.00  0.00    -0.020 C 
BRANCH  22  23
HETATM   23  C22 UNL     1       8.500   0.184   1.265  1.00  0.00     0.112 C 
HETATM   24 BR1  UNL     1       7.580  -1.503   1.616  1.00  0.00    -0.092 Br
ENDBRANCH  22  23
ENDBRANCH  20  21
ENDBRANCH  19  20
ENDBRANCH  14  19
ENDBRANCH   1  11
BRANCH   5  25
HETATM   25  C5  UNL     1      -3.717  -0.219  -0.018  1.00  0.00    -0.007 C 
HETATM   26  C6  UNL     1      -3.967   1.216  -0.537  1.00  0.00     0.019 C 
HETATM   27  C7  UNL     1      -5.420   1.630  -0.257  1.00  0.00    -0.013 C 
HETATM   28  C8  UNL     1      -5.763   1.602   1.188  1.00  0.00     0.009 C 
HETATM   29  C12 UNL     1      -6.370   0.694  -0.993  1.00  0.00     0.009 C 
HETATM   30  C9  UNL     1      -5.517   0.199   1.699  1.00  0.00    -0.013 C 
HETATM   31  C10 UNL     1      -6.363  -0.816   0.984  1.00  0.00     0.009 C 
HETATM   32  C14 UNL     1      -4.076  -0.137   1.448  1.00  0.00     0.019 C 
HETATM   33  C11 UNL     1      -6.074  -0.692  -0.489  1.00  0.00    -0.013 C 
HETATM   34  C13 UNL     1      -4.654  -1.034  -0.845  1.00  0.00     0.019 C 
ENDBRANCH   5  25
TORSDOF 6
