REMARK  10 active torsions:
REMARK  status: ('A' for Active; 'I' for Inactive)
REMARK    1  A    between atoms: N1_1  and  C1_4 
REMARK    2  A    between atoms: C2_7  and  S1_8 
REMARK    3  A    between atoms: S1_8  and  S2_9 
REMARK    4  A    between atoms: S2_9  and  C3_10 
REMARK    5  A    between atoms: C3_10  and  C4_11 
REMARK    6  A    between atoms: C4_11  and  N3_12 
REMARK       I    between atoms: N3_12  and  C5_14 
REMARK       I    between atoms: C5_14  and  N4_16 
REMARK    7  A    between atoms: N4_16  and  S3_18 
REMARK    8  A    between atoms: S3_18  and  N5_21 
REMARK    9  A    between atoms: N5_21  and  O4_23 
REMARK   10  A    between atoms: O4_23  and  N6_24 
ROOT
HETATM    1  N3  UNL     1      -0.232   1.136   1.011  1.00  0.00    -0.342 N 
ATOM      2  H3  UNL     1      -0.311   1.537   1.945  1.00  0.00     0.164 HD
HETATM    3  C5  UNL     1      -1.381   0.512   0.489  1.00  0.00     0.330 C 
HETATM    4  O1  UNL     1      -1.371  -0.011  -0.645  1.00  0.00    -0.246 OA
HETATM    5  N4  UNL     1      -2.609   0.444   1.221  1.00  0.00    -0.217 N 
ATOM      6  H4  UNL     1      -2.657   0.858   2.152  1.00  0.00     0.185 HD
ENDROOT
BRANCH   1   7
HETATM    7  C4  UNL     1       1.049   1.264   0.354  1.00  0.00     0.135 C 
BRANCH   7   8
HETATM    8  C3  UNL     1       0.908   2.052  -0.893  1.00  0.00     0.106 C 
BRANCH   8   9
HETATM    9  S2  UNL     1       2.379   2.366  -1.833  1.00  0.00    -0.089 SA
BRANCH   9  10
HETATM   10  S1  UNL     1       3.170   0.608  -2.633  1.00  0.00    -0.039 SA
BRANCH  10  11
HETATM   11  C2  UNL     1       4.381  -0.050  -1.426  1.00  0.00     0.089 A 
HETATM   12  N2  UNL     1       4.125  -0.929  -0.498  1.00  0.00    -0.330 N 
HETATM   13  C1  UNL     1       5.102  -1.316   0.319  1.00  0.00     0.142 A 
ATOM     14  H2  UNL     1       3.186  -1.316  -0.399  1.00  0.00     0.168 HD
HETATM   15  S4  UNL     1       6.440  -0.418  -0.226  1.00  0.00    -0.064 SA
HETATM   16  C6  UNL     1       5.675   0.427  -1.496  1.00  0.00     0.091 A 
BRANCH  13  17
HETATM   17  N1  UNL     1       5.031  -2.186   1.305  1.00  0.00    -0.380 N 
ATOM     18  H12 UNL     1       4.229  -2.724   1.632  1.00  0.00     0.158 HD
ATOM     19  H11 UNL     1       5.780  -2.483   1.931  1.00  0.00     0.158 HD
ENDBRANCH  13  17
ENDBRANCH  10  11
ENDBRANCH   9  10
ENDBRANCH   8   9
ENDBRANCH   7   8
ENDBRANCH   1   7
BRANCH   5  20
HETATM   20  S3  UNL     1      -3.999  -0.315   0.573  1.00  0.00     0.347 S 
HETATM   21  O2  UNL     1      -5.163  -0.135   1.523  1.00  0.00    -0.180 OA
HETATM   22  O3  UNL     1      -4.442   0.347  -0.906  1.00  0.00    -0.180 OA
BRANCH  20  23
HETATM   23  N5  UNL     1      -3.812  -1.859   0.388  1.00  0.00    -0.150 N 
ATOM     24  H5  UNL     1      -2.910  -2.254   0.121  1.00  0.00     0.211 HD
BRANCH  23  25
HETATM   25  O4  UNL     1      -4.908  -2.662   0.599  1.00  0.00    -0.153 OA
BRANCH  25  26
HETATM   26  N6  UNL     1      -6.166  -2.140   0.415  1.00  0.00    -0.285 N 
ATOM     27  H62 UNL     1      -6.268  -1.167   0.125  1.00  0.00     0.186 HD
ATOM     28  H61 UNL     1      -6.979  -2.736   0.572  1.00  0.00     0.186 HD
ENDBRANCH  25  26
ENDBRANCH  23  25
ENDBRANCH  20  23
ENDBRANCH   5  20
TORSDOF 10
