REMARK  4 active torsions:
REMARK  status: ('A' for Active; 'I' for Inactive)
REMARK    1  A    between atoms: C2_2  and  N1_4 
REMARK    2  A    between atoms: N1_4  and  N2_6 
REMARK    3  A    between atoms: N2_6  and  C4_8 
REMARK    4  A    between atoms: C5_11  and  N4_12 
ROOT
HETATM    1  C4  UNL     1       1.320   0.028   0.144  1.00  0.00     0.712 A 
HETATM    2  N3  UNL     1       2.397   0.802  -0.077  1.00  0.00    -0.021 N 
ATOM      3  H3  UNL     1       2.278   1.815  -0.111  1.00  0.00     0.203 HD
HETATM    4  C5  UNL     1       3.636   0.280  -0.256  1.00  0.00     0.691 A 
HETATM    5  N5  UNL     1       3.783  -1.057  -0.208  1.00  0.00    -0.187 N 
ATOM      6  H5  UNL     1       4.701  -1.483  -0.338  1.00  0.00     0.185 HD
HETATM    7  C6  UNL     1       2.699  -1.822   0.015  1.00  0.00     0.215 A 
HETATM    8  N6  UNL     1       1.462  -1.308   0.192  1.00  0.00    -0.185 N 
ATOM      9  H6  UNL     1       0.660  -1.916   0.357  1.00  0.00     0.185 HD
ENDROOT
BRANCH   1  10
HETATM   10  N2  UNL     1       0.017   0.562   0.354  1.00  0.00    -0.135 N 
ATOM     11  H2  UNL     1      -0.336   0.558   1.311  1.00  0.00     0.205 HD
BRANCH  10  12
HETATM   12  N1  UNL     1      -0.807   1.081  -0.610  1.00  0.00    -0.318 N 
ATOM     13  H1  UNL     1      -0.446   1.682  -1.351  1.00  0.00     0.181 HD
BRANCH  12  14
HETATM   14  C2  UNL     1      -2.186   0.746  -0.532  1.00  0.00     0.091 C 
HETATM   15  C1  UNL     1      -2.851   1.122   0.768  1.00  0.00     0.033 C 
HETATM   16  C3  UNL     1      -2.527  -0.665  -0.899  1.00  0.00     0.033 C 
ENDBRANCH  12  14
ENDBRANCH  10  12
ENDBRANCH   1  10
BRANCH   4  17
HETATM   17  N4  UNL     1       4.622   1.054  -0.471  1.00  0.00    -0.234 N 
ATOM     18  H42 UNL     1       4.511   2.067  -0.507  1.00  0.00     0.174 HD
ATOM     19  H41 UNL     1       5.554   0.661  -0.606  1.00  0.00     0.174 HD
ENDBRANCH   4  17
TORSDOF 4
