REMARK  6 active torsions:
REMARK  status: ('A' for Active; 'I' for Inactive)
REMARK    1  A    between atoms: C3_3  and  O1_4 
REMARK    2  A    between atoms: O1_4  and  C4_5 
REMARK    3  A    between atoms: C4_5  and  C5_9 
REMARK    4  A    between atoms: C5_9  and  O2_10 
REMARK    5  A    between atoms: N2_12  and  O3_14 
REMARK    6  A    between atoms: C12_24  and  O6_25 
ROOT
HETATM    1  C1  UNL     1       0.066  -3.316  -0.174  1.00  0.00     0.015 C 
HETATM    2  C2  UNL     1       0.296  -2.154  -0.432  1.00  0.00    -0.073 C 
HETATM    3  C3  UNL     1       0.601  -0.718  -0.734  1.00  0.00     0.184 C 
HETATM    4  C6  UNL     1      -0.170  -0.435  -1.981  1.00  0.00     0.231 C 
HETATM    5  O4  UNL     1      -1.550  -0.711  -1.656  1.00  0.00    -0.344 OA
HETATM    6  C7  UNL     1      -2.138  -0.252  -0.501  1.00  0.00     0.103 A 
HETATM    7  C8  UNL     1      -3.444  -0.046  -0.079  1.00  0.00     0.071 A 
HETATM    8  C9  UNL     1      -3.383   0.441   1.209  1.00  0.00     0.052 A 
HETATM    9  C10 UNL     1      -4.550   0.803   2.056  1.00  0.00     0.077 C 
HETATM   10  O5  UNL     1      -2.136   0.522   1.538  1.00  0.00    -0.314 OA
HETATM   11  C11 UNL     1      -1.355   0.120   0.550  1.00  0.00     0.119 A 
HETATM   12  C12 UNL     1       0.105   0.036   0.464  1.00  0.00     0.227 C 
ENDROOT
BRANCH   3  13
HETATM   13  O1  UNL     1       1.971  -0.634  -0.779  1.00  0.00    -0.303 OA
BRANCH  13  14
HETATM   14  C4  UNL     1       2.714   0.481  -1.031  1.00  0.00     0.192 C 
HETATM   15  N1  UNL     1       2.233   1.268  -1.928  1.00  0.00    -0.376 N 
ATOM     16  H12 UNL     1       1.359   1.070  -2.415  1.00  0.00     0.158 HD
ATOM     17  H11 UNL     1       2.789   2.102  -2.117  1.00  0.00     0.158 HD
BRANCH  14  18
HETATM   18  C5  UNL     1       3.957   0.763  -0.338  1.00  0.00     0.212 C 
HETATM   19  N2  UNL     1       4.389  -0.060   0.545  1.00  0.00    -0.244 N 
ATOM     20  H2  UNL     1       5.261   0.122   1.041  1.00  0.00     0.196 HD
BRANCH  18  21
HETATM   21  O2  UNL     1       4.668   1.937  -0.650  1.00  0.00    -0.342 OA
ATOM     22  H2  UNL     1       5.482   2.122  -0.196  1.00  0.00     0.219 HD
ENDBRANCH  18  21
BRANCH  19  23
HETATM   23  O3  UNL     1       3.659  -1.187   0.810  1.00  0.00    -0.288 OA
ATOM     24  H3  UNL     1       3.979  -1.797   1.464  1.00  0.00     0.244 HD
ENDBRANCH  19  23
ENDBRANCH  14  18
ENDBRANCH  13  14
ENDBRANCH   3  13
BRANCH  12  25
HETATM   25  O6  UNL     1       0.596   1.336   0.569  1.00  0.00    -0.385 OA
ATOM     26  H6  UNL     1       0.282   1.814   1.328  1.00  0.00     0.210 HD
ENDBRANCH  12  25
TORSDOF 6
