REMARK  5 active torsions:
REMARK  status: ('A' for Active; 'I' for Inactive)
REMARK    1  A    between atoms: O1_2  and  C2_3 
REMARK    2  A    between atoms: C6_7  and  C7_8 
REMARK    3  A    between atoms: C7_8  and  N1_9 
REMARK    4  A    between atoms: N1_9  and  N2_11 
REMARK    5  A    between atoms: N2_11  and  C8_13 
ROOT
HETATM    1  N1  UNL     1       1.524   1.018   0.097  1.00  0.00    -0.309 N 
ATOM      2  H1  UNL     1       2.170   1.800  -0.006  1.00  0.00     0.186 HD
ENDROOT
BRANCH   1   3
HETATM    3  C7  UNL     1       0.378   1.381  -0.157  1.00  0.00     0.118 C 
BRANCH   3   4
HETATM    4  C6  UNL     1      -0.808   0.547  -0.118  1.00  0.00    -0.017 A 
HETATM    5  C5  UNL     1      -0.810  -0.784   0.215  1.00  0.00     0.013 A 
HETATM    6  C4  UNL     1      -1.993  -1.510   0.228  1.00  0.00     0.004 A 
HETATM    7  C3  UNL     1      -3.195  -0.923  -0.090  1.00  0.00     0.037 A 
HETATM    8  C2  UNL     1      -3.226   0.433  -0.434  1.00  0.00     0.069 A 
HETATM    9  C11 UNL     1      -2.056   1.118  -0.438  1.00  0.00     0.049 A 
BRANCH   8  10
HETATM   10  O1  UNL     1      -4.429   1.045  -0.758  1.00  0.00    -0.356 OA
HETATM   11  C1  UNL     1      -5.653   0.359  -0.761  1.00  0.00     0.210 C 
ENDBRANCH   8  10
ENDBRANCH   3   4
ENDBRANCH   1   3
BRANCH   1  12
HETATM   12  N2  UNL     1       2.194  -0.089   0.469  1.00  0.00    -0.285 N 
ATOM     13  H2  UNL     1       1.693  -0.855   0.918  1.00  0.00     0.188 HD
BRANCH  12  14
HETATM   14  C8  UNL     1       3.473  -0.191   0.262  1.00  0.00     0.135 A 
HETATM   15  C9  UNL     1       4.286   0.770  -0.338  1.00  0.00     0.070 A 
HETATM   16  C10 UNL     1       5.565   0.256  -0.357  1.00  0.00     0.111 A 
HETATM   17  N3  UNL     1       5.538  -0.963   0.205  1.00  0.00    -0.310 N 
HETATM   18  N4  UNL     1       4.295  -1.209   0.564  1.00  0.00    -0.285 N 
ATOM     19  H3  UNL     1       6.336  -1.586   0.331  1.00  0.00     0.186 HD
ATOM     20  H4  UNL     1       3.992  -2.071   1.018  1.00  0.00     0.188 HD
ENDBRANCH  12  14
ENDBRANCH   1  12
TORSDOF 5
