REMARK  8 active torsions:
REMARK  status: ('A' for Active; 'I' for Inactive)
REMARK    1  A    between atoms: C2_2  and  C3_3 
REMARK    2  A    between atoms: C3_3  and  C4_4 
REMARK    3  A    between atoms: C4_4  and  C5_5 
REMARK    4  A    between atoms: C5_5  and  C6_6 
REMARK    5  A    between atoms: C7_7  and  C8_8 
REMARK    6  A    between atoms: C8_8  and  N1_9 
REMARK    7  A    between atoms: C18_22  and  C19_23 
REMARK    8  A    between atoms: C19_23  and  C20_24 
ROOT
HETATM    1  N1  UNL     1      -0.149  -0.634  -1.277  1.00  0.00    -0.348 N 
HETATM    2  C9  UNL     1      -0.514   0.674  -1.142  1.00  0.00     0.106 A 
HETATM    3  C10 UNL     1      -1.474   1.087  -0.242  1.00  0.00     0.021 A 
HETATM    4  C11 UNL     1      -2.065   0.113   0.533  1.00  0.00     0.053 A 
HETATM    5  N2  UNL     1      -2.964   0.698   1.340  1.00  0.00    -0.354 N 
ATOM      6  H2  UNL     1      -3.549   0.214   2.021  1.00  0.00     0.166 HD
HETATM    7  C12 UNL     1      -2.972   2.043   1.107  1.00  0.00     0.046 A 
HETATM    8  C13 UNL     1      -3.667   3.115   1.620  1.00  0.00     0.047 A 
HETATM    9  C14 UNL     1      -3.440   4.398   1.158  1.00  0.00     0.092 A 
HETATM   10  N3  UNL     1      -2.524   4.597   0.193  1.00  0.00    -0.370 N 
HETATM   11  C15 UNL     1      -2.269   5.941  -0.307  1.00  0.00     0.154 C 
HETATM   12  C16 UNL     1      -1.827   3.572  -0.330  1.00  0.00     0.104 A 
HETATM   13  C17 UNL     1      -2.046   2.291   0.122  1.00  0.00     0.020 A 
HETATM   14  C18 UNL     1      -1.701  -1.218   0.403  1.00  0.00    -0.006 A 
HETATM   15  C22 UNL     1      -0.724  -1.589  -0.522  1.00  0.00     0.017 A 
HETATM   16  C23 UNL     1      -0.287  -2.967  -0.724  1.00  0.00     0.069 C 
ENDROOT
BRANCH  14  17
HETATM   17  C19 UNL     1      -2.353  -2.222   1.242  1.00  0.00     0.078 C 
BRANCH  17  18
HETATM   18  C20 UNL     1      -3.768  -2.561   0.744  1.00  0.00     0.191 C 
HETATM   19  N4  UNL     1      -3.748  -3.079  -0.583  1.00  0.00    -0.288 N 
HETATM   20  S1  UNL     1      -4.830  -4.428  -0.606  1.00  0.00     0.322 S 
ATOM     21  H4  UNL     1      -3.202  -2.723  -1.367  1.00  0.00     0.174 HD
HETATM   22  O1  UNL     1      -4.094  -5.716  -0.829  1.00  0.00    -0.182 OA
HETATM   23  O2  UNL     1      -5.989  -4.238  -1.501  1.00  0.00    -0.182 OA
HETATM   24  N5  UNL     1      -5.289  -4.403   1.083  1.00  0.00    -0.236 N 
HETATM   25  C21 UNL     1      -4.341  -3.524   1.673  1.00  0.00     0.256 C 
ATOM     26  H5  UNL     1      -6.055  -4.901   1.536  1.00  0.00     0.183 HD
HETATM   27  O3  UNL     1      -4.035  -3.594   2.911  1.00  0.00    -0.270 OA
ENDBRANCH  17  18
ENDBRANCH  14  17
BRANCH   1  28
HETATM   28  C8  UNL     1       0.874  -0.969  -2.253  1.00  0.00     0.221 C 
BRANCH  28  29
HETATM   29  C7  UNL     1       2.171  -0.887  -1.541  1.00  0.00    -0.086 C 
HETATM   30  C6  UNL     1       3.228  -0.841  -0.961  1.00  0.00    -0.105 C 
BRANCH  30  31
HETATM   31  C5  UNL     1       4.505  -0.809  -0.247  1.00  0.00     0.094 C 
BRANCH  31  32
HETATM   32  C4  UNL     1       5.521  -0.110  -1.125  1.00  0.00     0.012 C 
BRANCH  32  33
HETATM   33  C3  UNL     1       6.872  -0.028  -0.470  1.00  0.00     0.000 C 
BRANCH  33  34
HETATM   34  C2  UNL     1       6.870   0.718   0.825  1.00  0.00    -0.005 C 
HETATM   35  C1  UNL     1       6.427   2.130   0.740  1.00  0.00     0.005 C 
ENDBRANCH  33  34
ENDBRANCH  32  33
ENDBRANCH  31  32
ENDBRANCH  30  31
ENDBRANCH  28  29
ENDBRANCH   1  28
TORSDOF 8
