REMARK  9 active torsions:
REMARK  status: ('A' for Active; 'I' for Inactive)
REMARK    1  A    between atoms: C3_3  and  N1_4 
REMARK    2  A    between atoms: N2_7  and  C6_8 
REMARK    3  A    between atoms: C7_9  and  O1_10 
REMARK    4  A    between atoms: C7_9  and  N3_12 
REMARK    5  A    between atoms: N3_12  and  C8_14 
REMARK    6  A    between atoms: C13_19  and  C14_20 
REMARK    7  A    between atoms: C14_20  and  S1_21 
REMARK    8  A    between atoms: S1_21  and  N4_22 
REMARK    9  A    between atoms: C22_33  and  O3_34 
ROOT
HETATM    1  C1  UNL     1       7.269   2.406   0.539  1.00  0.00     0.013 C 
HETATM    2  C2  UNL     1       6.132   2.305   0.136  1.00  0.00    -0.089 C 
HETATM    3  C3  UNL     1       4.755   2.205  -0.337  1.00  0.00     0.332 C 
ENDROOT
BRANCH   3   4
HETATM    4  N1  UNL     1       4.392   0.927  -0.795  1.00  0.00    -0.027 N 
HETATM    5  C4  UNL     1       3.334   0.917  -1.795  1.00  0.00     0.269 C 
HETATM    6  C5  UNL     1       3.054  -0.594  -1.829  1.00  0.00     0.276 C 
HETATM    7  N2  UNL     1       3.553  -1.092  -0.589  1.00  0.00     0.011 N 
HETATM    8  C21 UNL     1       3.722   0.091   0.225  1.00  0.00     0.483 C 
HETATM    9  C22 UNL     1       5.010  -1.359  -0.809  1.00  0.00     0.357 C 
HETATM   10  C23 UNL     1       5.433   0.048  -1.220  1.00  0.00     0.302 C 
BRANCH   7  11
HETATM   11  C6  UNL     1       2.929  -2.196  -0.004  1.00  0.00     0.263 C 
HETATM   12  C7  UNL     1       1.525  -2.112   0.337  1.00  0.00     0.160 C 
BRANCH  12  13
HETATM   13  O1  UNL     1       1.058  -3.212   0.879  1.00  0.00    -0.345 OA
ATOM     14  H1  UNL     1       0.136  -3.157   1.103  1.00  0.00     0.219 HD
ENDBRANCH  12  13
BRANCH  12  15
HETATM   15  N3  UNL     1       0.585  -1.082   0.196  1.00  0.00    -0.365 N 
ATOM     16  H3  UNL     1       0.870  -0.194  -0.217  1.00  0.00     0.162 HD
BRANCH  15  17
HETATM   17  C8  UNL     1      -0.819  -1.267   0.639  1.00  0.00     0.088 C 
HETATM   18  C9  UNL     1      -1.011  -0.334   1.788  1.00  0.00     0.030 C 
HETATM   19  C10 UNL     1      -2.345  -0.390   2.445  1.00  0.00    -0.012 C 
HETATM   20  C11 UNL     1      -3.157   0.869   2.373  1.00  0.00     0.005 C 
HETATM   21  C17 UNL     1      -3.154  -1.611   2.093  1.00  0.00     0.009 C 
HETATM   22  C12 UNL     1      -3.135   1.576   1.071  1.00  0.00     0.011 C 
HETATM   23  C13 UNL     1      -3.473   0.712  -0.113  1.00  0.00    -0.027 C 
HETATM   24  C15 UNL     1      -4.390  -0.372   0.296  1.00  0.00     0.015 C 
HETATM   25  C20 UNL     1      -2.228   0.238  -0.830  1.00  0.00     0.017 C 
HETATM   26  C16 UNL     1      -3.741  -1.659   0.745  1.00  0.00    -0.013 C 
HETATM   27  C18 UNL     1      -2.852  -2.138  -0.349  1.00  0.00     0.011 C 
HETATM   28  C19 UNL     1      -1.748  -1.112  -0.510  1.00  0.00     0.009 C 
BRANCH  23  29
HETATM   29  C14 UNL     1      -4.201   1.590  -1.112  1.00  0.00     0.141 C 
BRANCH  29  30
HETATM   30  S1  UNL     1      -5.667   2.305  -0.574  1.00  0.00     0.108 S 
HETATM   31  O2  UNL     1      -6.185   2.131   0.944  1.00  0.00    -0.236 OA
BRANCH  30  32
HETATM   32  N4  UNL     1      -6.517   3.288  -1.634  1.00  0.00    -0.350 N 
ATOM     33  H42 UNL     1      -6.190   3.398  -2.594  1.00  0.00     0.166 HD
ATOM     34  H41 UNL     1      -7.388   3.713  -1.314  1.00  0.00     0.166 HD
ENDBRANCH  30  32
ENDBRANCH  29  30
ENDBRANCH  23  29
ENDBRANCH  15  17
ENDBRANCH  12  15
ENDBRANCH   7  11
BRANCH   9  35
HETATM   35  O3  UNL     1       5.584  -1.632   0.426  1.00  0.00    -0.368 OA
ATOM     36  H3  UNL     1       6.508  -1.801   0.286  1.00  0.00     0.212 HD
ENDBRANCH   9  35
ENDBRANCH   3   4
TORSDOF 9
