REMARK  7 active torsions:
REMARK  status: ('A' for Active; 'I' for Inactive)
REMARK    1  A    between atoms: N1_2  and  C2_4 
REMARK    2  A    between atoms: C3_7  and  N3_8 
REMARK    3  A    between atoms: C4_14  and  N6_15 
REMARK    4  A    between atoms: C5_20  and  N8_21 
REMARK    5  A    between atoms: N8_21  and  C6_23 
REMARK    6  A    between atoms: C6_23  and  C7_24 
REMARK    7  A    between atoms: C7_24  and  N9_25 
ROOT
HETATM    1  C2  UNL     1      -3.113  -0.798  -0.142  1.00  0.00     0.164 A 
HETATM    2  N2  UNL     1      -4.342  -0.204  -0.167  1.00  0.00    -0.172 N 
ATOM      3  H2  UNL     1      -5.173  -0.785  -0.277  1.00  0.00     0.186 HD
HETATM    4  C3  UNL     1      -4.484   1.126  -0.050  1.00  0.00     0.693 A 
HETATM    5  N4  UNL     1      -3.399   1.901   0.096  1.00  0.00    -0.109 N 
ATOM      6  H4  UNL     1      -3.507   2.911   0.185  1.00  0.00     0.207 HD
HETATM    7  N5  UNL     1      -2.194   1.366   0.125  1.00  0.00    -0.051 N 
HETATM    8  C4  UNL     1      -1.085   2.137   0.273  1.00  0.00     0.714 A 
HETATM    9  N7  UNL     1       0.112   1.560   0.297  1.00  0.00    -0.021 N 
ATOM     10  H7  UNL     1       0.931   2.158   0.407  1.00  0.00     0.203 HD
HETATM   11  C5  UNL     1       0.310   0.218   0.183  1.00  0.00     0.694 A 
HETATM   12  N10 UNL     1      -0.787  -0.525   0.038  1.00  0.00    -0.170 N 
ATOM     13  H10 UNL     1      -0.690  -1.536  -0.054  1.00  0.00     0.186 HD
HETATM   14  C9  UNL     1      -2.016   0.017   0.009  1.00  0.00     0.205 A 
ENDROOT
BRANCH  11  15
HETATM   15  N8  UNL     1       1.503  -0.276   0.215  1.00  0.00    -0.224 N 
ATOM     16  H8  UNL     1       1.649  -1.282   0.129  1.00  0.00     0.177 HD
BRANCH  15  17
HETATM   17  C6  UNL     1       2.614   0.607   0.373  1.00  0.00     0.165 C 
BRANCH  17  18
HETATM   18  C7  UNL     1       3.938  -0.117   0.431  1.00  0.00     0.252 C 
BRANCH  18  19
HETATM   19  N9  UNL     1       4.221  -0.880  -0.747  1.00  0.00    -0.077 N 
HETATM   20  C8  UNL     1       5.506  -1.520  -0.569  1.00  0.00     0.267 C 
ATOM     21  H92 UNL     1       3.479  -1.542  -0.976  1.00  0.00     0.276 HD
ATOM     22  H91 UNL     1       4.174  -0.322  -1.599  1.00  0.00     0.276 HD
ENDBRANCH  18  19
ENDBRANCH  17  18
ENDBRANCH  15  17
ENDBRANCH  11  15
BRANCH   8  23
HETATM   23  N6  UNL     1      -1.232   3.425   0.386  1.00  0.00    -0.232 N 
ATOM     24  H62 UNL     1      -2.151   3.868   0.368  1.00  0.00     0.174 HD
ATOM     25  H61 UNL     1      -0.399   4.004   0.497  1.00  0.00     0.174 HD
ENDBRANCH   8  23
BRANCH   1  26
HETATM   26  N1  UNL     1      -3.102  -2.059  -0.262  1.00  0.00    -0.377 N 
HETATM   27  C1  UNL     1      -2.004  -2.961  -0.275  1.00  0.00     0.148 C 
ATOM     28  H1  UNL     1      -4.020  -2.492  -0.365  1.00  0.00     0.160 HD
ENDBRANCH   1  26
BRANCH   4  29
HETATM   29  N3  UNL     1      -5.665   1.664  -0.077  1.00  0.00    -0.233 N 
ATOM     30  H32 UNL     1      -6.490   1.075  -0.188  1.00  0.00     0.174 HD
ATOM     31  H31 UNL     1      -5.773   2.674   0.012  1.00  0.00     0.174 HD
ENDBRANCH   4  29
TORSDOF 7
