REMARK  9 active torsions:
REMARK  status: ('A' for Active; 'I' for Inactive)
REMARK    1  A    between atoms: C2_5  and  N2_6 
REMARK       I    between atoms: N2_6  and  C3_8 
REMARK    2  A    between atoms: C3_8  and  C4_10 
REMARK    3  A    between atoms: C4_10  and  N3_11 
REMARK    4  A    between atoms: C4_10  and  C5_15 
REMARK    5  A    between atoms: C8_22  and  C9_23 
REMARK    6  A    between atoms: N7_28  and  C10_29 
REMARK    7  A    between atoms: C10_29  and  C11_30 
REMARK    8  A    between atoms: C11_30  and  N8_31 
REMARK    9  A    between atoms: C15_43  and  C16_44 
ROOT
HETATM    1  N1  UNL     1      -4.796   2.153   1.512  1.00  0.00    -0.387 N 
ATOM      2  H11 UNL     1      -4.794   2.951   2.147  1.00  0.00     0.157 HD
ATOM      3  H12 UNL     1      -5.814   2.184   1.576  1.00  0.00     0.157 HD
HETATM    4  C1  UNL     1      -3.952   1.430   0.903  1.00  0.00     0.106 C 
HETATM    5  C2  UNL     1      -3.955   0.251  -0.035  1.00  0.00     0.202 C 
HETATM    6  C6  UNL     1      -2.749   0.971  -0.588  1.00  0.00     0.323 C 
HETATM    7  N4  UNL     1      -1.628   0.108  -0.947  1.00  0.00    -0.047 N 
ATOM      8  H41 UNL     1      -1.736  -0.356  -1.849  1.00  0.00     0.280 HD
ATOM      9  H42 UNL     1      -1.564  -0.741  -0.385  1.00  0.00     0.280 HD
HETATM   10  C7  UNL     1      -0.469   0.951  -0.862  1.00  0.00     0.280 C 
HETATM   11  C8  UNL     1      -0.211   1.323   0.595  1.00  0.00     0.048 C 
HETATM   12  C15 UNL     1      -1.241   1.526   1.368  1.00  0.00     0.127 C 
HETATM   13  N13 UNL     1      -2.556   1.388   0.815  1.00  0.00    -0.297 N 
ENDROOT
BRANCH  11  14
HETATM   14  C9  UNL     1       1.183   1.493   0.968  1.00  0.00     0.147 A 
HETATM   15  N5  UNL     1       1.857   2.516   1.461  1.00  0.00    -0.268 N 
HETATM   16  N6  UNL     1       3.129   2.156   1.640  1.00  0.00    -0.224 N 
ATOM     17  H5  UNL     1       1.467   3.435   1.671  1.00  0.00     0.190 HD
HETATM   18  N7  UNL     1       3.277   0.903   1.263  1.00  0.00    -0.216 N 
ATOM     19  H6  UNL     1       3.868   2.755   2.009  1.00  0.00     0.210 HD
HETATM   20  N12 UNL     1       2.112   0.490   0.856  1.00  0.00    -0.266 N 
ATOM     21  H12 UNL     1       1.917  -0.447   0.504  1.00  0.00     0.190 HD
BRANCH  18  22
HETATM   22  C10 UNL     1       4.510   0.077   1.282  1.00  0.00     0.191 C 
BRANCH  22  23
HETATM   23  C11 UNL     1       5.188   0.245  -0.023  1.00  0.00     0.149 C 
BRANCH  23  24
HETATM   24  N8  UNL     1       6.414  -0.409  -0.263  1.00  0.00    -0.344 N 
HETATM   25  C12 UNL     1       6.970  -0.240  -1.638  1.00  0.00     0.229 C 
HETATM   26  C13 UNL     1       8.451  -0.203  -1.546  1.00  0.00     0.254 C 
HETATM   27  O2  UNL     1       9.084   0.515  -2.356  1.00  0.00    -0.270 OA
HETATM   28  N9  UNL     1       9.111  -0.974  -0.552  1.00  0.00    -0.266 N 
HETATM   29  N10 UNL     1       8.407  -1.432   0.539  1.00  0.00    -0.271 N 
ATOM     30  H9  UNL     1      10.104  -1.188  -0.646  1.00  0.00     0.190 HD
HETATM   31  C14 UNL     1       7.134  -1.164   0.673  1.00  0.00     0.205 C 
ATOM     32  H10 UNL     1       8.883  -1.986   1.250  1.00  0.00     0.189 HD
HETATM   33  N11 UNL     1       6.472  -1.673   1.820  1.00  0.00    -0.062 NA
ENDBRANCH  23  24
ENDBRANCH  22  23
ENDBRANCH  18  22
ENDBRANCH  11  14
BRANCH  12  34
HETATM   34  C16 UNL     1      -1.091   1.875   2.769  1.00  0.00     0.227 C 
HETATM   35  O3  UNL     1      -2.160   2.081   3.468  1.00  0.00    -0.643 OA
HETATM   36  O4  UNL     1       0.084   2.010   3.448  1.00  0.00    -0.643 OA
ENDBRANCH  12  34
BRANCH   5  37
HETATM   37  N2  UNL     1      -5.081   0.203  -0.908  1.00  0.00    -0.344 N 
HETATM   38  C3  UNL     1      -5.798  -0.991  -1.111  1.00  0.00     0.249 C 
HETATM   39  O1  UNL     1      -5.434  -2.030  -0.512  1.00  0.00    -0.271 OA
ATOM     40  H2  UNL     1      -5.373   1.050  -1.395  1.00  0.00     0.163 HD
BRANCH  38  41
HETATM   41  C4  UNL     1      -6.970  -1.064  -2.012  1.00  0.00     0.284 C 
BRANCH  41  42
HETATM   42  N3  UNL     1      -7.513  -2.406  -2.047  1.00  0.00    -0.066 N 
ATOM     43  H33 UNL     1      -6.802  -3.093  -2.297  1.00  0.00     0.275 HD
ATOM     44  H32 UNL     1      -7.735  -2.747  -1.112  1.00  0.00     0.275 HD
ATOM     45  H31 UNL     1      -8.321  -2.456  -2.668  1.00  0.00     0.275 HD
ENDBRANCH  41  42
BRANCH  41  46
HETATM   46  C5  UNL     1      -8.076  -0.156  -1.517  1.00  0.00     0.128 C 
HETATM   47  S1  UNL     1      -8.536  -0.728   0.158  1.00  0.00    -0.095 SA
ENDBRANCH  41  46
ENDBRANCH  38  41
ENDBRANCH   5  37
TORSDOF 9
