REMARK  15 active torsions:
REMARK  status: ('A' for Active; 'I' for Inactive)
REMARK    1  A    between atoms: C2_2  and  C3_3 
REMARK    2  A    between atoms: C3_3  and  O1_4 
REMARK    3  A    between atoms: C3_3  and  C4_6 
REMARK    4  A    between atoms: C4_6  and  C5_7 
REMARK    5  A    between atoms: C4_6  and  C7_9 
REMARK    6  A    between atoms: C7_9  and  N1_10 
REMARK    7  A    between atoms: C7_9  and  C23_34 
REMARK    8  A    between atoms: N1_10  and  C8_13 
REMARK    9  A    between atoms: C8_13  and  C9_14 
REMARK   10  A    between atoms: C8_13  and  C16_21 
REMARK   11  A    between atoms: C9_14  and  C10_15 
REMARK       I    between atoms: C16_21  and  N2_23 
REMARK   12  A    between atoms: N2_23  and  C17_25 
REMARK   13  A    between atoms: C17_25  and  C19_27 
REMARK       I    between atoms: C19_27  and  N3_29 
REMARK   14  A    between atoms: N3_29  and  C20_31 
REMARK   15  A    between atoms: C23_34  and  C24_36 
ROOT
HETATM    1  C8  UNL     1      -0.645  -0.143  -0.173  1.00  0.00     0.278 C 
ENDROOT
BRANCH   1   2
HETATM    2  N1  UNL     1      -1.872  -0.736   0.296  1.00  0.00    -0.050 N 
ATOM      3  H12 UNL     1      -2.048  -0.470   1.265  1.00  0.00     0.279 HD
ATOM      4  H11 UNL     1      -1.760  -1.744   0.409  1.00  0.00     0.279 HD
BRANCH   2   5
HETATM    5  C7  UNL     1      -3.028  -0.445  -0.526  1.00  0.00     0.269 C 
BRANCH   5   6
HETATM    6  C4  UNL     1      -4.287  -0.920   0.188  1.00  0.00     0.053 C 
BRANCH   6   7
HETATM    7  C3  UNL     1      -4.316  -2.378   0.480  1.00  0.00     0.124 C 
BRANCH   7   8
HETATM    8  C2  UNL     1      -5.654  -2.814   1.090  1.00  0.00     0.027 C 
HETATM    9  C1  UNL     1      -5.490  -4.308   1.400  1.00  0.00     0.007 C 
ENDBRANCH   7   8
BRANCH   7  10
HETATM   10  O1  UNL     1      -4.173  -3.176  -0.649  1.00  0.00    -0.395 OA
ATOM     11  H1  UNL     1      -3.344  -2.906  -1.027  1.00  0.00     0.210 HD
ENDBRANCH   7  10
ENDBRANCH   6   7
BRANCH   6  12
HETATM   12  C5  UNL     1      -4.505  -0.133   1.474  1.00  0.00     0.005 C 
HETATM   13  C6  UNL     1      -4.468   1.372   1.199  1.00  0.00     0.005 C 
ENDBRANCH   6  12
ENDBRANCH   5   6
BRANCH   5  14
HETATM   14  C23 UNL     1      -2.957  -1.065  -1.845  1.00  0.00     0.215 C 
HETATM   15  O4  UNL     1      -2.060  -1.955  -2.082  1.00  0.00    -0.288 OA
BRANCH  14  16
HETATM   16  C24 UNL     1      -3.843  -0.740  -2.937  1.00  0.00     0.160 C 
HETATM   17  N4  UNL     1      -3.692  -1.420  -4.192  1.00  0.00    -0.086 NA
HETATM   18  S1  UNL     1      -5.019   0.392  -2.783  1.00  0.00    -0.060 SA
ENDBRANCH  14  16
ENDBRANCH   5  14
ENDBRANCH   2   5
ENDBRANCH   1   2
BRANCH   1  19
HETATM   19  C9  UNL     1      -0.718   1.366  -0.129  1.00  0.00     0.047 C 
BRANCH  19  20
HETATM   20  C10 UNL     1       0.501   2.078  -0.593  1.00  0.00    -0.012 C 
HETATM   21  C11 UNL     1       0.191   3.581  -0.432  1.00  0.00     0.005 C 
HETATM   22  C12 UNL     1       1.206   4.410  -1.149  1.00  0.00     0.000 C 
HETATM   23  C13 UNL     1       2.451   3.597  -1.462  1.00  0.00     0.000 C 
HETATM   24  C14 UNL     1       2.032   2.552  -2.471  1.00  0.00     0.000 C 
HETATM   25  C15 UNL     1       0.703   1.907  -2.090  1.00  0.00     0.005 C 
ENDBRANCH  19  20
ENDBRANCH   1  19
BRANCH   1  26
HETATM   26  C16 UNL     1       0.480  -0.647   0.667  1.00  0.00     0.249 C 
HETATM   27  O2  UNL     1       0.216  -1.011   1.835  1.00  0.00    -0.271 OA
HETATM   28  N2  UNL     1       1.811  -0.735   0.218  1.00  0.00    -0.346 N 
ATOM     29  H2  UNL     1       2.018  -0.450  -0.739  1.00  0.00     0.163 HD
BRANCH  28  30
HETATM   30  C17 UNL     1       2.906  -1.211   1.048  1.00  0.00     0.172 C 
HETATM   31  C18 UNL     1       3.345  -2.609   0.563  1.00  0.00     0.042 C 
BRANCH  30  32
HETATM   32  C19 UNL     1       4.094  -0.357   0.914  1.00  0.00     0.240 C 
HETATM   33  O3  UNL     1       4.011   0.626   0.102  1.00  0.00    -0.271 OA
HETATM   34  N3  UNL     1       5.300  -0.551   1.613  1.00  0.00    -0.355 N 
ATOM     35  H3  UNL     1       5.373  -1.331   2.266  1.00  0.00     0.162 HD
BRANCH  34  36
HETATM   36  C20 UNL     1       6.436   0.320   1.434  1.00  0.00     0.076 C 
HETATM   37  C21 UNL     1       6.834   1.059   2.676  1.00  0.00     0.032 C 
HETATM   38  C22 UNL     1       7.642  -0.401   0.879  1.00  0.00     0.032 C 
ENDBRANCH  34  36
ENDBRANCH  30  32
ENDBRANCH  28  30
ENDBRANCH   1  26
TORSDOF 15
