REMARK  8 active torsions:
REMARK  status: ('A' for Active; 'I' for Inactive)
REMARK    1  A    between atoms: N1_1  and  N2_4 
REMARK    2  A    between atoms: N2_4  and  N3_6 
REMARK    3  A    between atoms: N3_6  and  C1_8 
REMARK    4  A    between atoms: C2_11  and  C3_12 
REMARK    5  A    between atoms: C3_12  and  N5_13 
REMARK    6  A    between atoms: N5_13  and  C4_16 
REMARK    7  A    between atoms: C4_16  and  C5_17 
REMARK    8  A    between atoms: C9_22  and  N7_23 
ROOT
HETATM    1  C1  UNL     1       2.937   1.015   0.498  1.00  0.00     0.697 C 
HETATM    2  N4  UNL     1       2.063   0.378  -0.183  1.00  0.00    -0.212 N 
ATOM      3  H4  UNL     1       1.455   0.999  -0.717  1.00  0.00     0.178 HD
HETATM    4  C2  UNL     1       1.738  -1.004  -0.372  1.00  0.00     0.190 C 
HETATM    5  C10 UNL     1       2.948  -1.893  -0.358  1.00  0.00     0.120 C 
HETATM    6  N9  UNL     1       2.845  -3.022  -1.222  1.00  0.00    -0.085 NA
HETATM    7  N10 UNL     1       4.016  -1.745   0.327  1.00  0.00    -0.320 N 
ATOM      8  H10 UNL     1       4.711  -2.476   0.179  1.00  0.00     0.169 HD
HETATM    9  C11 UNL     1       4.415  -0.738   1.266  1.00  0.00     0.208 C 
HETATM   10  N11 UNL     1       5.421  -1.147   2.154  1.00  0.00    -0.063 NA
HETATM   11  N12 UNL     1       3.954   0.473   1.357  1.00  0.00    -0.162 N 
ATOM     12  H12 UNL     1       4.338   1.077   2.084  1.00  0.00     0.187 HD
ENDROOT
BRANCH   4  13
HETATM   13  C3  UNL     1       0.769  -1.429   0.715  1.00  0.00     0.265 C 
BRANCH  13  14
HETATM   14  N5  UNL     1      -0.420  -0.633   0.634  1.00  0.00    -0.068 N 
ATOM     15  H52 UNL     1      -0.971  -0.681   1.491  1.00  0.00     0.277 HD
ATOM     16  H51 UNL     1      -0.213   0.366   0.646  1.00  0.00     0.277 HD
BRANCH  14  17
HETATM   17  C4  UNL     1      -1.188  -1.010  -0.523  1.00  0.00     0.289 C 
BRANCH  17  18
HETATM   18  C5  UNL     1      -2.462  -0.258  -0.661  1.00  0.00     0.036 A 
HETATM   19  C6  UNL     1      -2.895   0.225  -1.882  1.00  0.00     0.029 A 
HETATM   20  C7  UNL     1      -4.097   0.897  -2.003  1.00  0.00     0.033 A 
HETATM   21  C8  UNL     1      -4.902   1.106  -0.902  1.00  0.00     0.096 A 
HETATM   22  N6  UNL     1      -6.158   1.792  -0.990  1.00  0.00    -0.098 NA
HETATM   23  C9  UNL     1      -4.440   0.613   0.312  1.00  0.00     0.198 A 
HETATM   24  N8  UNL     1      -3.257  -0.040   0.392  1.00  0.00    -0.338 N 
ATOM     25  H8  UNL     1      -2.956  -0.384   1.304  1.00  0.00     0.167 HD
BRANCH  23  26
HETATM   26  N7  UNL     1      -5.243   0.809   1.454  1.00  0.00    -0.096 N 
HETATM   27  O1  UNL     1      -4.713   0.866   2.574  1.00  0.00    -0.530 OA
HETATM   28  O2  UNL     1      -6.606   0.935   1.332  1.00  0.00    -0.530 OA
ENDBRANCH  23  26
ENDBRANCH  17  18
ENDBRANCH  14  17
ENDBRANCH  13  14
ENDBRANCH   4  13
BRANCH   1  29
HETATM   29  N3  UNL     1       2.887   2.428   0.380  1.00  0.00    -0.118 N 
ATOM     30  H3  UNL     1       2.202   2.956   0.921  1.00  0.00     0.207 HD
BRANCH  29  31
HETATM   31  N2  UNL     1       3.759   3.096  -0.462  1.00  0.00    -0.235 N 
ATOM     32  H2  UNL     1       4.127   2.633  -1.293  1.00  0.00     0.208 HD
BRANCH  31  33
HETATM   33  N1  UNL     1       4.103   4.308  -0.188  1.00  0.00    -0.330 N 
ATOM     34  H12 UNL     1       3.726   4.757   0.647  1.00  0.00     0.178 HD
ATOM     35  H11 UNL     1       4.746   4.800  -0.809  1.00  0.00     0.178 HD
ENDBRANCH  31  33
ENDBRANCH  29  31
ENDBRANCH   1  29
TORSDOF 8
