REMARK  9 active torsions:
REMARK  status: ('A' for Active; 'I' for Inactive)
REMARK    1  A    between atoms: C3_4  and  O2_5 
REMARK    2  A    between atoms: O2_5  and  C4_6 
REMARK    3  A    between atoms: C18_20  and  C19_21 
REMARK       I    between atoms: C19_21  and  N1_23 
REMARK    4  A    between atoms: N1_23  and  C20_25 
REMARK    5  A    between atoms: C20_25  and  C21_26 
REMARK    6  A    between atoms: C21_26  and  C22_27 
REMARK    7  A    between atoms: C22_27  and  C23_28 
REMARK    8  A    between atoms: C29_36  and  O6_37 
REMARK    9  A    between atoms: C30_39  and  O7_40 
ROOT
HETATM    1  C4  UNL     1      -3.842  -0.591  -0.566  1.00  0.00     0.128 C 
HETATM    2  C5  UNL     1      -2.989  -0.516   0.682  1.00  0.00     0.033 C 
HETATM    3  C6  UNL     1      -1.684  -1.251   0.347  1.00  0.00     0.016 C 
HETATM    4  C7  UNL     1      -0.875  -0.477  -0.657  1.00  0.00    -0.017 C 
HETATM    5  C8  UNL     1      -0.418  -1.364  -1.795  1.00  0.00     0.020 C 
HETATM    6  C9  UNL     1      -1.804   0.526  -1.287  1.00  0.00    -0.072 C 
HETATM    7  C10 UNL     1      -1.448   1.784  -1.494  1.00  0.00    -0.023 C 
HETATM    8  C11 UNL     1      -0.120   2.355  -1.142  1.00  0.00     0.033 C 
HETATM    9  C12 UNL     1       0.856   1.167  -1.060  1.00  0.00    -0.001 C 
HETATM   10  C13 UNL     1       0.276   0.261  -0.017  1.00  0.00     0.003 C 
HETATM   11  C14 UNL     1       1.236  -0.671   0.597  1.00  0.00     0.007 C 
HETATM   12  C15 UNL     1       2.582  -0.103   0.930  1.00  0.00     0.011 C 
HETATM   13  C16 UNL     1       2.904   1.240   0.431  1.00  0.00    -0.028 C 
HETATM   14  C17 UNL     1       2.816   2.342   1.486  1.00  0.00     0.016 C 
HETATM   15  C18 UNL     1       4.355   1.252  -0.053  1.00  0.00     0.086 C 
HETATM   16  C24 UNL     1       4.242   0.479  -1.336  1.00  0.00     0.015 C 
HETATM   17  C25 UNL     1       3.081   1.214  -1.998  1.00  0.00     0.007 C 
HETATM   18  C26 UNL     1       2.208   1.682  -0.824  1.00  0.00    -0.001 C 
HETATM   19  C27 UNL     1      -3.177   0.040  -1.706  1.00  0.00     0.066 C 
ENDROOT
BRANCH   1  20
HETATM   20  O2  UNL     1      -5.112  -0.190  -0.259  1.00  0.00    -0.356 OA
BRANCH  20  21
HETATM   21  C3  UNL     1      -6.075  -1.175  -0.333  1.00  0.00     0.263 C 
HETATM   22  O1  UNL     1      -6.591  -1.360   0.951  1.00  0.00    -0.354 OA
HETATM   23  C2  UNL     1      -6.915  -0.147   1.506  1.00  0.00     0.151 C 
HETATM   24  C1  UNL     1      -7.551  -0.396   2.862  1.00  0.00     0.042 C 
HETATM   25  C30 UNL     1      -7.917   0.629   0.689  1.00  0.00     0.175 C 
HETATM   26  C29 UNL     1      -8.405  -0.255  -0.435  1.00  0.00     0.154 C 
HETATM   27  C28 UNL     1      -7.227  -0.740  -1.208  1.00  0.00     0.095 C 
BRANCH  25  28
HETATM   28  O7  UNL     1      -7.291   1.716   0.112  1.00  0.00    -0.390 OA
ATOM     29  H7  UNL     1      -7.922   2.205  -0.403  1.00  0.00     0.210 HD
ENDBRANCH  25  28
BRANCH  26  30
HETATM   30  O6  UNL     1      -9.117  -1.366   0.029  1.00  0.00    -0.393 OA
ATOM     31  H6  UNL     1      -9.868  -1.057   0.522  1.00  0.00     0.210 HD
ENDBRANCH  26  30
ENDBRANCH  20  21
ENDBRANCH   1  20
BRANCH  15  32
HETATM   32  C19 UNL     1       5.309   0.667   0.892  1.00  0.00     0.222 C 
HETATM   33  O3  UNL     1       4.964   0.382   2.058  1.00  0.00    -0.273 OA
HETATM   34  N1  UNL     1       6.635   0.419   0.488  1.00  0.00    -0.361 N 
ATOM     35  H1  UNL     1       6.927   0.647  -0.462  1.00  0.00     0.162 HD
BRANCH  34  36
HETATM   36  C20 UNL     1       7.580  -0.155   1.409  1.00  0.00     0.123 C 
BRANCH  36  37
HETATM   37  C21 UNL     1       8.944  -0.341   0.770  1.00  0.00     0.030 C 
BRANCH  37  38
HETATM   38  C22 UNL     1       8.872  -1.253  -0.429  1.00  0.00     0.114 C 
BRANCH  38  39
HETATM   39  C23 UNL     1       8.374  -2.592  -0.095  1.00  0.00     0.172 C 
HETATM   40  O4  UNL     1       9.134  -3.427   0.422  1.00  0.00    -0.648 OA
HETATM   41  O5  UNL     1       7.056  -2.971  -0.341  1.00  0.00    -0.648 OA
ENDBRANCH  38  39
ENDBRANCH  37  38
ENDBRANCH  36  37
ENDBRANCH  34  36
ENDBRANCH  15  32
TORSDOF 9
