REMARK  9 active torsions:
REMARK  status: ('A' for Active; 'I' for Inactive)
REMARK       I    between atoms: N1_2  and  C2_4 
REMARK       I    between atoms: C2_4  and  N2_6 
REMARK    1  A    between atoms: C6_10  and  C7_11 
REMARK       I    between atoms: C7_11  and  N3_13 
REMARK    2  A    between atoms: N3_13  and  C8_15 
REMARK       I    between atoms: N4_25  and  C17_26 
REMARK       I    between atoms: C17_26  and  N5_28 
REMARK    3  A    between atoms: N5_28  and  C18_30 
REMARK    4  A    between atoms: C18_30  and  C19_31 
REMARK    5  A    between atoms: C19_31  and  C20_32 
REMARK    6  A    between atoms: C20_32  and  C21_33 
REMARK    7  A    between atoms: C21_33  and  C22_34 
REMARK    8  A    between atoms: C22_34  and  N6_35 
REMARK       I    between atoms: N6_35  and  C23_37 
REMARK    9  A    between atoms: C23_37  and  C24_39 
ROOT
HETATM    1  C8  UNL     1      -5.145   0.355   1.061  1.00  0.00     0.035 A 
HETATM    2  C9  UNL     1      -3.968   0.993   1.510  1.00  0.00     0.032 A 
HETATM    3  C10 UNL     1      -2.816   0.274   1.640  1.00  0.00     0.033 A 
HETATM    4  C11 UNL     1      -2.731  -1.069   1.350  1.00  0.00     0.052 A 
HETATM    5  C12 UNL     1      -3.869  -1.708   0.911  1.00  0.00     0.039 A 
HETATM    6  C13 UNL     1      -5.060  -0.978   0.775  1.00  0.00     0.047 A 
HETATM    7  C14 UNL     1      -3.782  -3.133   0.621  1.00  0.00     0.163 C 
HETATM    8  O3  UNL     1      -4.814  -3.675   0.123  1.00  0.00    -0.292 OA
HETATM    9  C15 UNL     1      -2.551  -3.909   0.894  1.00  0.00     0.104 C 
HETATM   10  C16 UNL     1      -1.733  -3.216   1.934  1.00  0.00     0.142 C 
HETATM   11  N4  UNL     1      -1.562  -1.830   1.474  1.00  0.00    -0.299 N 
HETATM   12  C17 UNL     1      -0.316  -1.297   1.124  1.00  0.00     0.322 C 
HETATM   13  O4  UNL     1       0.685  -2.005   1.537  1.00  0.00    -0.247 OA
HETATM   14  N5  UNL     1      -0.018  -0.138   0.405  1.00  0.00    -0.343 N 
ATOM     15  H5  UNL     1      -0.804   0.420   0.073  1.00  0.00     0.164 HD
ENDROOT
BRANCH  14  16
HETATM   16  C18 UNL     1       1.320   0.342   0.089  1.00  0.00     0.124 C 
BRANCH  16  17
HETATM   17  C19 UNL     1       2.030  -0.638  -0.765  1.00  0.00     0.020 C 
BRANCH  17  18
HETATM   18  C20 UNL     1       3.457  -0.121  -1.116  1.00  0.00     0.007 C 
BRANCH  18  19
HETATM   19  C21 UNL     1       4.147  -1.119  -1.969  1.00  0.00     0.044 C 
BRANCH  19  20
HETATM   20  C22 UNL     1       5.495  -0.846  -2.486  1.00  0.00     0.064 C 
BRANCH  20  21
HETATM   21  N6  UNL     1       6.578  -0.598  -1.628  1.00  0.00    -0.340 N 
HETATM   22  C23 UNL     1       6.850   0.459  -0.754  1.00  0.00     0.231 C 
HETATM   23  O5  UNL     1       6.070   1.425  -0.641  1.00  0.00    -0.272 OA
ATOM     24  H6  UNL     1       7.298  -1.321  -1.645  1.00  0.00     0.167 HD
BRANCH  22  25
HETATM   25  C24 UNL     1       8.069   0.520   0.100  1.00  0.00     0.060 C 
HETATM   26  C25 UNL     1       8.147  -0.647   1.070  1.00  0.00     0.047 C 
HETATM   27  C26 UNL     1       9.617  -0.512   1.497  1.00  0.00     0.096 C 
HETATM   28  C27 UNL     1      10.275  -0.506   0.113  1.00  0.00     0.032 C 
HETATM   29  N8  UNL     1       9.879   0.732   2.120  1.00  0.00    -0.350 N 
HETATM   30  C28 UNL     1       9.346   0.397  -0.680  1.00  0.00     0.008 C 
HETATM   31  C29 UNL     1      10.051   1.727  -0.849  1.00  0.00     0.022 C 
HETATM   32  C30 UNL     1      10.314   2.392   0.481  1.00  0.00     0.113 C 
HETATM   33  N7  UNL     1       9.445   1.861   1.498  1.00  0.00    -0.234 NA
HETATM   34  C31 UNL     1       8.114   1.772   0.945  1.00  0.00     0.133 C 
ATOM     35  H8  UNL     1      10.378   0.780   3.008  1.00  0.00     0.174 HD
ENDBRANCH  22  25
ENDBRANCH  20  21
ENDBRANCH  19  20
ENDBRANCH  18  19
ENDBRANCH  17  18
ENDBRANCH  16  17
ENDBRANCH  14  16
BRANCH   1  36
HETATM   36  N3  UNL     1      -6.326   1.127   0.945  1.00  0.00    -0.325 N 
HETATM   37  C7  UNL     1      -7.536   0.690   0.432  1.00  0.00     0.245 C 
HETATM   38  O2  UNL     1      -7.820  -0.438  -0.020  1.00  0.00    -0.271 OA
ATOM     39  H3  UNL     1      -6.282   2.093   1.269  1.00  0.00     0.169 HD
BRANCH  37  40
HETATM   40  C6  UNL     1      -8.683   1.670   0.397  1.00  0.00     0.181 C 
HETATM   41  N2  UNL     1      -9.884   1.110  -0.133  1.00  0.00    -0.321 N 
HETATM   42  C2  UNL     1     -10.749   0.201   0.523  1.00  0.00     0.318 C 
HETATM   43  C3  UNL     1     -10.111   1.616  -1.491  1.00  0.00     0.129 C 
HETATM   44  N1  UNL     1     -11.920  -0.292  -0.108  1.00  0.00    -0.347 N 
HETATM   45  O1  UNL     1     -10.434  -0.158   1.702  1.00  0.00    -0.247 OA
HETATM   46  C1  UNL     1     -12.776  -1.212   0.585  1.00  0.00     0.151 C 
ATOM     47  H1  UNL     1     -12.154   0.008  -1.055  1.00  0.00     0.163 HD
HETATM   48  C4  UNL     1      -9.263   2.854  -1.611  1.00  0.00     0.022 C 
HETATM   49  C5  UNL     1      -8.281   2.813  -0.482  1.00  0.00     0.037 C 
ENDBRANCH  37  40
ENDBRANCH   1  36
TORSDOF 9
