REMARK  8 active torsions:
REMARK  status: ('A' for Active; 'I' for Inactive)
REMARK    1  A    between atoms: O1_2  and  N1_3 
REMARK    2  A    between atoms: C2_5  and  C3_6 
REMARK    3  A    between atoms: C2_5  and  C6_11 
REMARK       I    between atoms: C3_6  and  N2_8 
REMARK    4  A    between atoms: C7_14  and  N4_15 
REMARK    5  A    between atoms: N4_15  and  C8_16 
REMARK    6  A    between atoms: N4_15  and  C12_20 
REMARK    7  A    between atoms: C8_16  and  C9_17 
REMARK    8  A    between atoms: C12_20  and  C13_21 
ROOT
HETATM    1  C6  UNL     1       2.333  -1.120   0.187  1.00  0.00     0.170 A 
HETATM    2  N3  UNL     1       1.134  -0.634  -0.292  1.00  0.00    -0.172 N 
ATOM      3  H3  UNL     1       0.975   0.373  -0.307  1.00  0.00     0.186 HD
HETATM    4  C7  UNL     1       0.187  -1.445  -0.732  1.00  0.00     0.704 A 
HETATM    5  N5  UNL     1       0.434  -2.769  -0.698  1.00  0.00    -0.022 N 
ATOM      6  H5  UNL     1      -0.283  -3.412  -1.034  1.00  0.00     0.203 HD
HETATM    7  C19 UNL     1       1.583  -3.269  -0.241  1.00  0.00     0.692 A 
HETATM    8  N6  UNL     1       1.773  -4.548  -0.228  1.00  0.00    -0.234 N 
ATOM      9  H61 UNL     1       2.652  -4.930   0.121  1.00  0.00     0.174 HD
ATOM     10  H62 UNL     1       1.046  -5.178  -0.566  1.00  0.00     0.174 HD
HETATM   11  N7  UNL     1       2.561  -2.421   0.214  1.00  0.00    -0.173 N 
ATOM     12  H7  UNL     1       3.446  -2.787   0.566  1.00  0.00     0.186 HD
ENDROOT
BRANCH   4  13
HETATM   13  N4  UNL     1      -1.116  -0.970  -1.235  1.00  0.00    -0.175 N 
BRANCH  13  14
HETATM   14  C8  UNL     1      -1.985  -2.019  -1.642  1.00  0.00     0.091 C 
BRANCH  14  15
HETATM   15  C9  UNL     1      -3.130  -2.456  -0.835  1.00  0.00     0.017 C 
HETATM   16  C10 UNL     1      -2.713  -2.927   0.565  1.00  0.00     0.015 C 
HETATM   17  C11 UNL     1      -3.627  -3.771  -1.563  1.00  0.00     0.015 C 
ENDBRANCH  14  15
ENDBRANCH  13  14
BRANCH  13  18
HETATM   18  C12 UNL     1      -1.334   0.412  -1.229  1.00  0.00     0.092 C 
BRANCH  18  19
HETATM   19  C13 UNL     1      -2.196   1.165  -0.323  1.00  0.00     0.031 C 
HETATM   20  C14 UNL     1      -2.000   2.689  -0.719  1.00  0.00     0.013 C 
HETATM   21  C15 UNL     1      -2.443   3.500   0.455  1.00  0.00     0.044 C 
HETATM   22  C16 UNL     1      -3.893   3.248   0.691  1.00  0.00     0.242 C 
HETATM   23  F1  UNL     1      -4.073   3.019   2.063  1.00  0.00    -0.243 F 
HETATM   24  C17 UNL     1      -4.509   2.170  -0.129  1.00  0.00     0.274 C 
HETATM   25  F2  UNL     1      -5.659   1.766   0.569  1.00  0.00    -0.203 F 
HETATM   26  F3  UNL     1      -4.995   2.621  -1.355  1.00  0.00    -0.203 F 
HETATM   27  C18 UNL     1      -3.665   0.942  -0.322  1.00  0.00     0.092 C 
ENDBRANCH  18  19
ENDBRANCH  13  18
ENDBRANCH   4  13
BRANCH   1  28
HETATM   28  C2  UNL     1       3.345  -0.160   0.654  1.00  0.00     0.167 C 
HETATM   29  N1  UNL     1       3.078   1.081   0.503  1.00  0.00    -0.258 N 
ATOM     30  H1  UNL     1       3.789   1.723   0.853  1.00  0.00     0.194 HD
BRANCH  29  31
HETATM   31  O1  UNL     1       2.018   1.658  -0.039  1.00  0.00    -0.285 OA
HETATM   32  C1  UNL     1       2.195   2.889  -0.751  1.00  0.00     0.237 C 
ENDBRANCH  29  31
BRANCH  28  33
HETATM   33  C3  UNL     1       4.601  -0.527   1.292  1.00  0.00     0.275 C 
HETATM   34  O2  UNL     1       4.937  -1.747   1.485  1.00  0.00    -0.266 OA
HETATM   35  N2  UNL     1       5.508   0.451   1.727  1.00  0.00    -0.355 N 
HETATM   36  C4  UNL     1       5.334   1.850   1.609  1.00  0.00     0.152 C 
HETATM   37  C5  UNL     1       6.755  -0.016   2.364  1.00  0.00     0.152 C 
ENDBRANCH  28  33
ENDBRANCH   1  28
TORSDOF 8
