REMARK  10 active torsions:
REMARK  status: ('A' for Active; 'I' for Inactive)
REMARK    1  A    between atoms: C2_2  and  C3_3 
REMARK    2  A    between atoms: C3_3  and  N1_4 
REMARK    3  A    between atoms: N1_4  and  C4_5 
REMARK    4  A    between atoms: N1_4  and  C6_8 
REMARK    5  A    between atoms: C4_5  and  C5_6 
REMARK    6  A    between atoms: C6_8  and  C7_13 
REMARK    7  A    between atoms: N2_9  and  O1_11 
REMARK    8  A    between atoms: N3_15  and  C9_16 
REMARK    9  A    between atoms: C12_20  and  N4_21 
REMARK   10  A    between atoms: C14_23  and  O2_24 
ROOT
HETATM    1  C7  UNL     1      -1.623   1.475   0.127  1.00  0.00     0.120 C 
HETATM    2  C8  UNL     1      -0.814   0.205  -0.229  1.00  0.00     0.141 C 
HETATM    3  N3  UNL     1       0.306   0.256   0.703  1.00  0.00    -0.374 N 
HETATM    4  C18 UNL     1      -0.267   0.691   1.932  1.00  0.00     0.176 C 
HETATM    5  C19 UNL     1      -1.313   1.652   1.520  1.00  0.00     0.013 C 
HETATM    6  N5  UNL     1      -1.824   2.500   2.314  1.00  0.00    -0.399 N 
ATOM      7  H5  UNL     1      -1.479   2.478   3.274  1.00  0.00     0.158 HD
HETATM    8  C20 UNL     1      -2.809   3.469   2.035  1.00  0.00     0.145 C 
ENDROOT
BRANCH   3   9
HETATM    9  C9  UNL     1       1.662  -0.051   0.455  1.00  0.00     0.036 A 
HETATM   10  C10 UNL     1       2.076  -0.496  -0.785  1.00  0.00     0.074 A 
HETATM   11  C11 UNL     1       3.392  -0.783  -1.033  1.00  0.00     0.150 A 
HETATM   12  F1  UNL     1       3.799  -1.225  -2.268  1.00  0.00    -0.203 F 
HETATM   13  C12 UNL     1       4.343  -0.633  -0.035  1.00  0.00     0.134 A 
HETATM   14  C16 UNL     1       3.917  -0.192   1.189  1.00  0.00     0.150 A 
HETATM   15  F2  UNL     1       4.788  -0.019   2.216  1.00  0.00    -0.203 F 
HETATM   16  C17 UNL     1       2.594   0.101   1.448  1.00  0.00     0.074 A 
BRANCH  13  17
HETATM   17  N4  UNL     1       5.718  -0.924  -0.290  1.00  0.00    -0.250 N 
HETATM   18  C13 UNL     1       6.804  -0.817   0.636  1.00  0.00     0.190 C 
HETATM   19  C14 UNL     1       8.036  -1.244  -0.158  1.00  0.00     0.164 C 
HETATM   20  C15 UNL     1       7.383  -1.946  -1.337  1.00  0.00     0.234 C 
HETATM   21  O3  UNL     1       6.160  -1.349  -1.499  1.00  0.00    -0.275 OA
BRANCH  19  22
HETATM   22  O2  UNL     1       8.730  -0.135  -0.584  1.00  0.00    -0.392 OA
ATOM     23  H2  UNL     1       9.497  -0.401  -1.078  1.00  0.00     0.210 HD
ENDBRANCH  19  22
ENDBRANCH  13  17
ENDBRANCH   3   9
BRANCH   1  24
HETATM   24  C6  UNL     1      -2.967   1.233  -0.318  1.00  0.00     0.114 C 
HETATM   25  N2  UNL     1      -3.463   2.106  -1.136  1.00  0.00    -0.256 N 
ATOM     26  H2  UNL     1      -4.417   1.952  -1.463  1.00  0.00     0.195 HD
BRANCH  24  27
HETATM   27  N1  UNL     1      -3.866   0.168  -0.003  1.00  0.00    -0.347 N 
BRANCH  27  28
HETATM   28  C3  UNL     1      -4.231  -0.687  -1.108  1.00  0.00     0.129 C 
BRANCH  28  29
HETATM   29  C2  UNL     1      -5.708  -0.563  -1.476  1.00  0.00     0.016 C 
HETATM   30  C1  UNL     1      -5.936  -1.512  -2.648  1.00  0.00     0.006 C 
ENDBRANCH  28  29
ENDBRANCH  27  28
BRANCH  27  31
HETATM   31  C4  UNL     1      -4.411  -0.096   1.267  1.00  0.00     0.080 C 
BRANCH  31  32
HETATM   32  C5  UNL     1      -3.947  -1.333   1.961  1.00  0.00     0.159 C 
HETATM   33 CL1  UNL     1      -4.310  -2.862   1.209  1.00  0.00    -0.125 Cl
ENDBRANCH  31  32
ENDBRANCH  27  31
ENDBRANCH  24  27
BRANCH  25  34
HETATM   34  O1  UNL     1      -2.816   3.213  -1.595  1.00  0.00    -0.288 OA
ATOM     35  H1  UNL     1      -3.180   3.853  -2.195  1.00  0.00     0.244 HD
ENDBRANCH  25  34
ENDBRANCH   1  24
TORSDOF 10
