REMARK  5 active torsions:
REMARK  status: ('A' for Active; 'I' for Inactive)
REMARK    1  A    between atoms: C4_4  and  C5_5 
REMARK    2  A    between atoms: C5_5  and  C6_6 
REMARK    3  A    between atoms: C6_6  and  C7_7 
REMARK    4  A    between atoms: C7_7  and  C8_8 
REMARK    5  A    between atoms: C7_7  and  C12_13 
ROOT
HETATM    1  C7  UNL     1      -0.521  -1.252   0.842  1.00  0.00     0.078 C 
ENDROOT
BRANCH   1   2
HETATM    2  C6  UNL     1       0.840  -0.769   0.399  1.00  0.00     0.021 C 
BRANCH   2   3
HETATM    3  C5  UNL     1       1.342   0.390   1.186  1.00  0.00     0.039 C 
BRANCH   3   4
HETATM    4  C4  UNL     1       2.694   0.746   0.625  1.00  0.00    -0.058 A 
HETATM    5  C3  UNL     1       2.825   1.658  -0.407  1.00  0.00     0.007 A 
HETATM    6  C2  UNL     1       4.057   1.995  -0.932  1.00  0.00     0.001 A 
HETATM    7  C1  UNL     1       5.200   1.415  -0.426  1.00  0.00     0.000 A 
HETATM    8  C21 UNL     1       5.084   0.504   0.603  1.00  0.00     0.001 A 
HETATM    9  C20 UNL     1       3.844   0.172   1.125  1.00  0.00     0.007 A 
ENDBRANCH   3   4
ENDBRANCH   2   3
ENDBRANCH   1   2
BRANCH   1  10
HETATM   10  C8  UNL     1      -0.945  -2.403   0.005  1.00  0.00     0.061 A 
HETATM   11  C9  UNL     1      -1.662  -3.493   0.448  1.00  0.00     0.035 A 
HETATM   12  C10 UNL     1      -1.852  -4.329  -0.625  1.00  0.00     0.027 A 
HETATM   13  C11 UNL     1      -1.240  -3.718  -1.694  1.00  0.00     0.142 A 
HETATM   14  O1  UNL     1      -0.725  -2.594  -1.270  1.00  0.00    -0.326 OA
ENDBRANCH   1  10
BRANCH   1  15
HETATM   15  C12 UNL     1      -1.528  -0.201   0.980  1.00  0.00    -0.020 A 
HETATM   16  C13 UNL     1      -2.205   0.124   2.132  1.00  0.00     0.097 A 
HETATM   17  N1  UNL     1      -3.036   1.141   1.839  1.00  0.00    -0.365 N 
HETATM   18  C14 UNL     1      -2.946   1.504   0.566  1.00  0.00     0.042 A 
ATOM     19  H1  UNL     1      -3.661   1.580   2.515  1.00  0.00     0.165 HD
HETATM   20  C15 UNL     1      -3.601   2.481  -0.150  1.00  0.00     0.030 A 
HETATM   21  C19 UNL     1      -1.987   0.659  -0.005  1.00  0.00    -0.001 A 
HETATM   22  C16 UNL     1      -3.300   2.632  -1.479  1.00  0.00     0.002 A 
HETATM   23  C17 UNL     1      -2.360   1.812  -2.057  1.00  0.00     0.001 A 
HETATM   24  C18 UNL     1      -1.718   0.845  -1.332  1.00  0.00     0.014 A 
ENDBRANCH   1  15
TORSDOF 5
