REMARK  15 active torsions:
REMARK  status: ('A' for Active; 'I' for Inactive)
REMARK    1  A    between atoms: N1_1  and  N2_4 
REMARK    2  A    between atoms: N2_4  and  C1_5 
REMARK    3  A    between atoms: C2_9  and  S1_10 
REMARK    4  A    between atoms: S1_10  and  S2_11 
REMARK    5  A    between atoms: S2_11  and  C3_12 
REMARK    6  A    between atoms: C4_13  and  C5_14 
REMARK    7  A    between atoms: C5_14  and  O1_15 
REMARK    8  A    between atoms: C5_14  and  O2_17 
REMARK    9  A    between atoms: C6_20  and  O4_21 
REMARK   10  A    between atoms: C6_20  and  C7_23 
REMARK   11  A    between atoms: C7_23  and  O5_24 
REMARK   12  A    between atoms: C8_26  and  O6_27 
REMARK   13  A    between atoms: C9_30  and  C10_31 
REMARK       I    between atoms: C10_31  and  N4_33 
REMARK   14  A    between atoms: N4_33  and  N5_34 
REMARK   15  A    between atoms: N4_33  and  O9_37 
ROOT
HETATM    1  C1  UNL     1       2.232   1.243   0.526  1.00  0.00     0.502 C 
HETATM    2  N3  UNL     1       1.228   0.515  -0.281  1.00  0.00     0.006 N 
ATOM      3  H31 UNL     1       1.258   0.760  -1.271  1.00  0.00     0.285 HD
ATOM      4  H32 UNL     1       0.272   0.820  -0.098  1.00  0.00     0.285 HD
HETATM    5  C2  UNL     1       1.424  -0.883  -0.044  1.00  0.00     0.403 C 
HETATM    6  O7  UNL     1       2.698  -1.282  -0.416  1.00  0.00    -0.310 OA
HETATM    7  C9  UNL     1       3.668  -0.559   0.465  1.00  0.00     0.419 C 
HETATM    8  N6  UNL     1       3.494   0.775   0.001  1.00  0.00     0.005 N 
ATOM      9  H61 UNL     1       4.277   1.386   0.235  1.00  0.00     0.285 HD
ATOM     10  H62 UNL     1       3.562   0.859  -1.013  1.00  0.00     0.285 HD
ENDROOT
BRANCH   5  11
HETATM   11  S1  UNL     1       0.159  -1.983  -0.621  1.00  0.00    -0.032 SA
BRANCH  11  12
HETATM   12  S2  UNL     1      -1.459  -2.184   0.612  1.00  0.00    -0.052 SA
BRANCH  12  13
HETATM   13  C3  UNL     1      -2.790  -1.036   0.309  1.00  0.00     0.058 C 
HETATM   14  C4  UNL     1      -4.051  -1.333   0.539  1.00  0.00     0.121 C 
HETATM   15  O3  UNL     1      -4.903  -0.309   0.258  1.00  0.00    -0.307 OA
HETATM   16  C6  UNL     1      -4.185   0.691  -0.440  1.00  0.00     0.220 C 
HETATM   17  C8  UNL     1      -2.770   0.283  -0.378  1.00  0.00     0.226 C 
BRANCH  14  18
HETATM   18  C5  UNL     1      -4.551  -2.653   1.077  1.00  0.00     0.313 C 
BRANCH  18  19
HETATM   19  O1  UNL     1      -4.226  -3.675   0.156  1.00  0.00    -0.365 OA
ATOM     20  H1  UNL     1      -4.540  -4.505   0.494  1.00  0.00     0.213 HD
ENDBRANCH  18  19
BRANCH  18  21
HETATM   21  O2  UNL     1      -3.983  -2.835   2.314  1.00  0.00    -0.365 OA
ATOM     22  H2  UNL     1      -4.297  -3.665   2.652  1.00  0.00     0.213 HD
ENDBRANCH  18  21
ENDBRANCH  14  18
BRANCH  16  23
HETATM   23  O4  UNL     1      -4.745   0.592  -1.758  1.00  0.00    -0.361 OA
ATOM     24  H4  UNL     1      -4.263   1.263  -2.227  1.00  0.00     0.213 HD
ENDBRANCH  16  23
BRANCH  16  25
HETATM   25  C7  UNL     1      -4.484   2.090   0.017  1.00  0.00     0.236 C 
BRANCH  25  26
HETATM   26  O5  UNL     1      -4.360   2.221   1.418  1.00  0.00    -0.395 OA
ATOM     27  H5  UNL     1      -4.549   3.106   1.707  1.00  0.00     0.209 HD
ENDBRANCH  25  26
ENDBRANCH  16  25
BRANCH  17  28
HETATM   28  O6  UNL     1      -2.238   0.117  -1.680  1.00  0.00    -0.385 OA
ATOM     29  H6  UNL     1      -2.225   0.959  -2.119  1.00  0.00     0.210 HD
ENDBRANCH  17  28
ENDBRANCH  12  13
ENDBRANCH  11  12
ENDBRANCH   5  11
BRANCH   1  30
HETATM   30  N2  UNL     1       2.057   2.656   0.352  1.00  0.00    -0.087 NA
BRANCH  30  31
HETATM   31  N1  UNL     1       2.362   3.022  -0.953  1.00  0.00    -0.345 N 
ATOM     32  H12 UNL     1       2.666   2.367  -1.674  1.00  0.00     0.172 HD
ATOM     33  H11 UNL     1       2.238   4.027  -1.077  1.00  0.00     0.172 HD
ENDBRANCH  30  31
ENDBRANCH   1  30
BRANCH   7  34
HETATM   34  C10 UNL     1       4.948  -1.186   0.039  1.00  0.00     0.298 C 
HETATM   35  O8  UNL     1       4.970  -2.385  -0.188  1.00  0.00    -0.271 OA
HETATM   36  N4  UNL     1       6.175  -0.494  -0.160  1.00  0.00    -0.037 NA
BRANCH  36  37
HETATM   37  N5  UNL     1       6.531  -0.531  -1.540  1.00  0.00    -0.333 NA
ATOM     38  H52 UNL     1       6.608  -1.512  -1.809  1.00  0.00     0.173 HD
ATOM     39  H51 UNL     1       7.411  -0.035  -1.683  1.00  0.00     0.173 HD
ENDBRANCH  36  37
BRANCH  36  40
HETATM   40  O9  UNL     1       6.073   0.813   0.199  1.00  0.00    -0.287 OA
ATOM     41  H9  UNL     1       6.892   1.275   0.066  1.00  0.00     0.239 HD
ENDBRANCH  36  40
ENDBRANCH   7  34
TORSDOF 15
