REMARK  7 active torsions:
REMARK  status: ('A' for Active; 'I' for Inactive)
REMARK    1  A    between atoms: C2_2  and  C3_3 
REMARK       I    between atoms: C3_3  and  N1_5 
REMARK    2  A    between atoms: N1_5  and  C4_7 
REMARK    3  A    between atoms: C4_7  and  C5_8 
REMARK    4  A    between atoms: C5_8  and  N2_9 
REMARK    5  A    between atoms: C8_15  and  C9_16 
REMARK    6  A    between atoms: C9_16  and  C10_17 
REMARK    7  A    between atoms: C18_25  and  C19_26 
ROOT
HETATM    1  C4  UNL     1      -1.739  -0.412  -0.373  1.00  0.00     0.065 C 
HETATM    2  C16 UNL     1      -2.682  -0.363   0.830  1.00  0.00     0.037 C 
HETATM    3  C17 UNL     1      -3.101   0.948   1.314  1.00  0.00     0.008 C 
HETATM    4  C18 UNL     1      -3.063   2.125   0.427  1.00  0.00    -0.011 C 
HETATM    5  C22 UNL     1      -2.536   1.880  -0.947  1.00  0.00     0.008 C 
HETATM    6  C23 UNL     1      -2.487   0.506  -1.412  1.00  0.00     0.037 C 
ENDROOT
BRANCH   1   7
HETATM    7  N1  UNL     1      -1.857  -1.739  -0.913  1.00  0.00    -0.347 N 
HETATM    8  C3  UNL     1      -1.624  -2.958  -0.266  1.00  0.00     0.218 C 
HETATM    9  O1  UNL     1      -1.277  -3.039   0.940  1.00  0.00    -0.274 OA
ATOM     10  H1  UNL     1      -2.147  -1.800  -1.889  1.00  0.00     0.163 HD
BRANCH   8  11
HETATM   11  C2  UNL     1      -1.786  -4.243  -1.007  1.00  0.00     0.098 C 
HETATM   12  C1  UNL     1      -1.473  -5.366  -0.072  1.00  0.00     0.014 C 
ENDBRANCH   8  11
ENDBRANCH   1   7
BRANCH   1  13
HETATM   13  C5  UNL     1      -0.455   0.211  -0.164  1.00  0.00     0.098 C 
BRANCH  13  14
HETATM   14  N2  UNL     1       0.638  -0.288   0.587  1.00  0.00    -0.329 N 
HETATM   15  C6  UNL     1       0.928   0.130   1.944  1.00  0.00     0.174 C 
HETATM   16  S1  UNL     1       0.558   1.550   2.623  1.00  0.00    -0.041 SA
HETATM   17  N3  UNL     1       1.606  -0.947   2.579  1.00  0.00    -0.365 N 
HETATM   18  C7  UNL     1       2.200  -1.807   1.552  1.00  0.00     0.147 C 
ATOM     19  H3  UNL     1       1.669  -1.097   3.586  1.00  0.00     0.161 HD
HETATM   20  C8  UNL     1       1.677  -1.272   0.280  1.00  0.00     0.109 C 
BRANCH  20  21
HETATM   21  C9  UNL     1       2.661  -0.749  -0.703  1.00  0.00     0.032 C 
BRANCH  21  22
HETATM   22  C10 UNL     1       3.463   0.441  -0.399  1.00  0.00    -0.013 C 
HETATM   23  C11 UNL     1       4.411   0.373   0.754  1.00  0.00     0.005 C 
HETATM   24  C12 UNL     1       5.530   1.432   0.588  1.00  0.00     0.000 C 
HETATM   25  C13 UNL     1       6.442   1.105  -0.544  1.00  0.00     0.000 C 
HETATM   26  C14 UNL     1       5.680   0.298  -1.565  1.00  0.00     0.000 C 
HETATM   27  C15 UNL     1       4.258   0.804  -1.651  1.00  0.00     0.005 C 
ENDBRANCH  21  22
ENDBRANCH  20  21
ENDBRANCH  13  14
ENDBRANCH   1  13
BRANCH   4  28
HETATM   28  C19 UNL     1      -4.351   2.930   0.385  1.00  0.00    -0.019 C 
HETATM   29  C20 UNL     1      -4.738   3.466   1.725  1.00  0.00     0.010 C 
HETATM   30  C21 UNL     1      -5.494   2.218  -0.260  1.00  0.00     0.010 C 
ENDBRANCH   4  28
TORSDOF 7
