REMARK  4 active torsions:
REMARK  status: ('A' for Active; 'I' for Inactive)
REMARK    1  A    between atoms: C2_5  and  S1_6 
REMARK    2  A    between atoms: S1_6  and  N3_9 
REMARK    3  A    between atoms: C9_22  and  N6_23 
REMARK    4  A    between atoms: N6_23  and  O4_25 
ROOT
HETATM    1  N1  UNL     1       5.196   0.789   0.177  1.00  0.00    -0.080 NA
HETATM    2  C1  UNL     1       3.900   0.182   0.155  1.00  0.00     0.152 A 
HETATM    3  N2  UNL     1       2.986   0.508  -0.772  1.00  0.00    -0.318 N 
ATOM      4  H2  UNL     1       3.219   1.206  -1.479  1.00  0.00     0.169 HD
HETATM    5  C2  UNL     1       1.768  -0.065  -0.790  1.00  0.00     0.228 A 
HETATM    6  N5  UNL     1       1.504  -0.979   0.160  1.00  0.00    -0.296 N 
ATOM      7  H5  UNL     1       0.587  -1.425   0.162  1.00  0.00     0.171 HD
HETATM    8  C8  UNL     1       2.388  -1.333   1.105  1.00  0.00     0.279 A 
HETATM    9  O3  UNL     1       2.133  -2.189   1.990  1.00  0.00    -0.265 OA
HETATM   10  C9  UNL     1       3.641  -0.759   1.141  1.00  0.00     0.163 A 
ENDROOT
BRANCH   5  11
HETATM   11  S1  UNL     1       0.566   0.351  -1.994  1.00  0.00     0.296 S 
HETATM   12  O1  UNL     1       1.133   0.010  -3.359  1.00  0.00    -0.197 OA
HETATM   13  O2  UNL     1       0.311   1.819  -1.991  1.00  0.00    -0.197 OA
BRANCH  11  14
HETATM   14  N3  UNL     1      -0.852  -0.577  -1.698  1.00  0.00    -0.267 N 
HETATM   15  C3  UNL     1      -1.709  -0.242  -0.798  1.00  0.00     0.086 C 
HETATM   16  C4  UNL     1      -2.890  -1.134  -0.647  1.00  0.00     0.077 C 
HETATM   17  N4  UNL     1      -1.523   0.907  -0.009  1.00  0.00    -0.379 N 
HETATM   18  C5  UNL     1      -3.993  -0.467   0.136  1.00  0.00     0.009 C 
HETATM   19  C6  UNL     1      -3.970   1.038   0.003  1.00  0.00     0.020 C 
HETATM   20  C7  UNL     1      -2.669   1.639   0.482  1.00  0.00     0.121 C 
ATOM     21  H4  UNL     1      -0.580   1.224   0.217  1.00  0.00     0.160 HD
ATOM     22  H3  UNL     1      -1.018  -1.417  -2.252  1.00  0.00     0.180 HD
ENDBRANCH  11  14
ENDBRANCH   5  11
BRANCH  10  23
HETATM   23  N6  UNL     1       4.627  -1.086   2.111  1.00  0.00    -0.261 N 
ATOM     24  H6  UNL     1       4.997  -0.382   2.750  1.00  0.00     0.194 HD
BRANCH  23  25
HETATM   25  O4  UNL     1       5.022  -2.271   2.149  1.00  0.00    -0.289 OA
ATOM     26  H4  UNL     1       5.681  -2.490   2.797  1.00  0.00     0.244 HD
ENDBRANCH  23  25
ENDBRANCH  10  23
TORSDOF 4
