REMARK  8 active torsions:
REMARK  status: ('A' for Active; 'I' for Inactive)
REMARK    1  A    between atoms: N1_1  and  C1_4 
REMARK    2  A    between atoms: C2_8  and  N3_9 
REMARK    3  A    between atoms: N3_9  and  S2_11 
REMARK    4  A    between atoms: C3_15  and  C4_16 
REMARK    5  A    between atoms: C4_16  and  O4_17 
REMARK    6  A    between atoms: C4_16  and  O5_19 
REMARK    7  A    between atoms: C5_21  and  N4_22 
REMARK    8  A    between atoms: N4_22  and  O6_24 
ROOT
HETATM    1  C1  UNL     1      -2.571  -0.140  -0.360  1.00  0.00     0.135 A 
HETATM    2  N2  UNL     1      -2.481   1.217  -0.231  1.00  0.00    -0.309 N 
ATOM      3  H2  UNL     1      -3.310   1.810  -0.266  1.00  0.00     0.176 HD
HETATM    4  S1  UNL     1      -0.962   1.861  -0.014  1.00  0.00     0.007 SA
HETATM    5  C2  UNL     1       0.273   0.704   0.015  1.00  0.00     0.116 A 
HETATM    6  C3  UNL     1      -0.151  -0.583  -0.143  1.00  0.00     0.064 A 
HETATM    7  C5  UNL     1      -1.440  -0.975  -0.314  1.00  0.00     0.112 A 
ENDROOT
BRANCH   5   8
HETATM    8  N3  UNL     1       1.543   0.978   0.198  1.00  0.00    -0.258 N 
ATOM      9  H3  UNL     1       2.210   0.206   0.197  1.00  0.00     0.182 HD
BRANCH   8  10
HETATM   10  S2  UNL     1       2.135   2.562   0.437  1.00  0.00     0.209 S 
HETATM   11  O1  UNL     1       1.329   3.348   1.437  1.00  0.00    -0.578 OA
HETATM   12  O2  UNL     1       2.217   3.350  -0.846  1.00  0.00    -0.578 OA
HETATM   13  O3  UNL     1       3.699   2.441   1.084  1.00  0.00    -0.578 OA
ENDBRANCH   8  10
ENDBRANCH   5   8
BRANCH   6  14
HETATM   14  C4  UNL     1       0.906  -1.696  -0.129  1.00  0.00     0.293 C 
BRANCH  14  15
HETATM   15  O4  UNL     1       0.552  -2.541  -1.191  1.00  0.00    -0.367 OA
ATOM     16  H4  UNL     1       1.206  -3.230  -1.182  1.00  0.00     0.213 HD
ENDBRANCH  14  15
BRANCH  14  17
HETATM   17  O5  UNL     1       2.147  -1.192  -0.354  1.00  0.00    -0.367 OA
ATOM     18  H5  UNL     1       2.801  -1.881  -0.345  1.00  0.00     0.213 HD
ENDBRANCH  14  17
ENDBRANCH   6  14
BRANCH   7  19
HETATM   19  N4  UNL     1      -1.760  -2.383  -0.454  1.00  0.00    -0.265 N 
ATOM     20  H4  UNL     1      -1.638  -2.910  -1.319  1.00  0.00     0.194 HD
BRANCH  19  21
HETATM   21  O6  UNL     1      -2.208  -2.883   0.621  1.00  0.00    -0.289 OA
ATOM     22  H6  UNL     1      -2.418  -3.805   0.529  1.00  0.00     0.244 HD
ENDBRANCH  19  21
ENDBRANCH   7  19
BRANCH   1  23
HETATM   23  N1  UNL     1      -3.707  -0.616  -0.504  1.00  0.00    -0.383 N 
ATOM     24  H12 UNL     1      -4.527  -0.010  -0.537  1.00  0.00     0.157 HD
ATOM     25  H11 UNL     1      -3.774  -1.629  -0.600  1.00  0.00     0.157 HD
ENDBRANCH   1  23
TORSDOF 8
