REMARK  5 active torsions:
REMARK  status: ('A' for Active; 'I' for Inactive)
REMARK    1  A    between atoms: O1_2  and  C2_3 
REMARK    2  A    between atoms: C3_6  and  S1_7 
REMARK    3  A    between atoms: C6_12  and  N3_13 
REMARK    4  A    between atoms: N3_13  and  N4_15 
REMARK    5  A    between atoms: C7_18  and  N5_19 
ROOT
HETATM    1  C2  UNL     1       2.173  -0.152  -0.316  1.00  0.00     0.236 A 
HETATM    2  N1  UNL     1       2.222   1.069   0.236  1.00  0.00    -0.313 N 
ATOM      3  H1  UNL     1       3.071   1.627   0.331  1.00  0.00     0.170 HD
HETATM    4  C3  UNL     1       1.010   1.458   0.645  1.00  0.00     0.118 A 
HETATM    5  C5  UNL     1       0.148   0.430   0.337  1.00  0.00     0.155 A 
HETATM    6  N2  UNL     1      -1.190   0.484   0.617  1.00  0.00    -0.322 N 
ATOM      7  H2  UNL     1      -1.545   1.362   0.996  1.00  0.00     0.169 HD
HETATM    8  C6  UNL     1      -2.078  -0.501   0.442  1.00  0.00     0.166 C 
HETATM    9  C7  UNL     1      -1.838  -1.808   0.100  1.00  0.00     0.149 C 
HETATM   10  N6  UNL     1      -0.752  -2.348  -0.495  1.00  0.00    -0.291 N 
ATOM     11  H6  UNL     1      -0.833  -3.314  -0.811  1.00  0.00     0.172 HD
HETATM   12  C8  UNL     1       0.424  -1.737  -0.711  1.00  0.00     0.337 C 
HETATM   13  O2  UNL     1       1.246  -2.339  -1.447  1.00  0.00    -0.246 OA
HETATM   14  N7  UNL     1       0.871  -0.556  -0.253  1.00  0.00    -0.210 N 
ENDROOT
BRANCH   8  15
HETATM   15  N3  UNL     1      -3.293  -0.166   0.619  1.00  0.00    -0.289 N 
ATOM     16  H3  UNL     1      -3.470   0.806   0.874  1.00  0.00     0.188 HD
BRANCH  15  17
HETATM   17  N4  UNL     1      -4.405  -0.997   0.499  1.00  0.00    -0.344 N 
ATOM     18  H42 UNL     1      -4.208  -1.965   0.244  1.00  0.00     0.176 HD
ATOM     19  H41 UNL     1      -5.379  -0.729   0.641  1.00  0.00     0.176 HD
ENDBRANCH  15  17
ENDBRANCH   8  15
BRANCH   9  20
HETATM   20  N5  UNL     1      -2.789  -2.613   0.395  1.00  0.00    -0.382 N 
ATOM     21  H52 UNL     1      -3.609  -2.205   0.844  1.00  0.00     0.157 HD
ATOM     22  H51 UNL     1      -2.611  -3.585   0.141  1.00  0.00     0.157 HD
ENDBRANCH   9  20
BRANCH   4  23
HETATM   23  S1  UNL     1       0.534   2.987   1.438  1.00  0.00    -0.113 SA
HETATM   24  C4  UNL     1       0.078   4.256   0.226  1.00  0.00     0.097 C 
ENDBRANCH   4  23
BRANCH   1  25
HETATM   25  O1  UNL     1       3.173  -0.939  -0.868  1.00  0.00    -0.326 OA
HETATM   26  C1  UNL     1       4.511  -0.565  -0.951  1.00  0.00     0.213 C 
ENDBRANCH   1  25
TORSDOF 5
