REMARK  7 active torsions:
REMARK  status: ('A' for Active; 'I' for Inactive)
REMARK    1  A    between atoms: O1_2  and  C2_3 
REMARK    2  A    between atoms: C2_3  and  C3_4 
REMARK    3  A    between atoms: C3_4  and  C4_5 
REMARK    4  A    between atoms: C4_5  and  C5_6 
REMARK    5  A    between atoms: C5_6  and  O2_7 
REMARK    6  A    between atoms: N1_11  and  C8_12 
REMARK    7  A    between atoms: C8_12  and  C9_13 
ROOT
HETATM    1  C5  UNL     1       1.059   0.173  -0.272  1.00  0.00     0.064 C 
HETATM    2  C6  UNL     1      -0.055   0.537   0.659  1.00  0.00     0.058 C 
HETATM    3  C7  UNL     1      -0.832  -0.733   1.031  1.00  0.00     0.130 C 
HETATM    4  N1  UNL     1      -1.428  -1.219  -0.142  1.00  0.00    -0.371 N 
HETATM    5  C13 UNL     1      -0.605  -1.436  -1.265  1.00  0.00     0.066 C 
HETATM    6  C14 UNL     1       0.838  -1.064  -1.077  1.00  0.00     0.082 C 
ENDROOT
BRANCH   1   7
HETATM    7  C4  UNL     1       2.291  -0.106   0.604  1.00  0.00     0.040 C 
BRANCH   7   8
HETATM    8  C3  UNL     1       3.438  -0.345  -0.332  1.00  0.00     0.029 C 
BRANCH   8   9
HETATM    9  C2  UNL     1       4.722  -0.648   0.378  1.00  0.00     0.167 C 
BRANCH   9  10
HETATM   10  O1  UNL     1       5.108   0.369   1.224  1.00  0.00    -0.396 OA
HETATM   11  C1  UNL     1       5.308   1.592   0.629  1.00  0.00     0.201 C 
ENDBRANCH   9  10
ENDBRANCH   8   9
ENDBRANCH   7   8
ENDBRANCH   1   7
BRANCH   1  12
HETATM   12  O2  UNL     1       1.313   1.292  -1.071  1.00  0.00    -0.389 OA
ATOM     13  H2  UNL     1       0.552   1.464  -1.612  1.00  0.00     0.210 HD
ENDBRANCH   1  12
BRANCH   4  14
HETATM   14  C8  UNL     1      -2.736  -1.694  -0.162  1.00  0.00     0.095 C 
BRANCH  14  15
HETATM   15  C9  UNL     1      -3.758  -0.606  -0.011  1.00  0.00     0.160 C 
HETATM   16  C10 UNL     1      -3.787   0.360  -1.176  1.00  0.00     0.039 C 
HETATM   17  C11 UNL     1      -4.148   1.677  -0.537  1.00  0.00     0.029 C 
HETATM   18  C12 UNL     1      -4.398   1.312   0.906  1.00  0.00     0.168 C 
HETATM   19  O3  UNL     1      -3.698   0.132   1.137  1.00  0.00    -0.381 OA
ENDBRANCH  14  15
ENDBRANCH   4  14
TORSDOF 7
