REMARK  16 active torsions:
REMARK  status: ('A' for Active; 'I' for Inactive)
REMARK    1  A    between atoms: C2_2  and  C4_4 
REMARK    2  A    between atoms: C5_6  and  O2_7 
REMARK    3  A    between atoms: O2_7  and  C6_8 
REMARK    4  A    between atoms: C7_9  and  O3_10 
REMARK    5  A    between atoms: C8_12  and  N1_13 
REMARK    6  A    between atoms: C10_18  and  N2_19 
REMARK    7  A    between atoms: C11_23  and  O4_24 
REMARK    8  A    between atoms: O4_24  and  C12_25 
REMARK    9  A    between atoms: C13_26  and  N3_27 
REMARK   10  A    between atoms: C15_32  and  N4_33 
REMARK   11  A    between atoms: C17_38  and  N5_39 
REMARK   12  A    between atoms: C18_43  and  N6_44 
REMARK   13  A    between atoms: C20_50  and  N7_51 
REMARK   14  A    between atoms: N7_51  and  C21_53 
REMARK   15  A    between atoms: C21_53  and  C22_54 
REMARK   16  A    between atoms: C22_54  and  C23_55 
ROOT
HETATM    1  C6  UNL     1      -0.419  -2.321  -0.130  1.00  0.00     0.186 C 
HETATM    2  C7  UNL     1      -0.145  -3.737  -0.525  1.00  0.00     0.180 C 
HETATM    3  C8  UNL     1      -0.807  -4.188  -1.768  1.00  0.00     0.216 C 
HETATM    4  C9  UNL     1      -2.213  -3.701  -1.854  1.00  0.00     0.071 C 
HETATM    5  C10 UNL     1      -2.699  -3.186  -0.505  1.00  0.00     0.217 C 
HETATM    6  C11 UNL     1      -1.915  -1.962  -0.129  1.00  0.00     0.184 C 
ENDROOT
BRANCH   1   7
HETATM    7  O2  UNL     1       0.049  -2.002   1.112  1.00  0.00    -0.348 OA
BRANCH   7   8
HETATM    8  C5  UNL     1       1.032  -1.022   1.230  1.00  0.00     0.299 C 
HETATM    9  O1  UNL     1       0.578   0.049   1.953  1.00  0.00    -0.347 OA
HETATM   10  C4  UNL     1       1.453   1.078   2.174  1.00  0.00     0.182 C 
HETATM   11  C20 UNL     1       2.886   0.732   1.811  1.00  0.00     0.186 C 
HETATM   12  C19 UNL     1       3.092  -0.611   2.479  1.00  0.00     0.187 C 
HETATM   13  C18 UNL     1       2.177  -1.673   1.961  1.00  0.00     0.309 C 
HETATM   14  O5  UNL     1       3.886  -0.820   3.325  1.00  0.00    -0.293 OA
BRANCH  10  15
HETATM   15  C2  UNL     1       1.348   1.500   3.631  1.00  0.00    -0.062 C 
HETATM   16  C1  UNL     1       0.627   0.778   4.474  1.00  0.00     0.016 C 
HETATM   17  C3  UNL     1       2.025   2.708   4.163  1.00  0.00     0.045 C 
ENDBRANCH  10  15
BRANCH  11  18
HETATM   18  N7  UNL     1       3.862   1.675   2.041  1.00  0.00    -0.388 N 
ATOM     19  H7  UNL     1       4.564   1.487   2.756  1.00  0.00     0.159 HD
BRANCH  18  20
HETATM   20  C21 UNL     1       3.930   2.880   1.334  1.00  0.00     0.056 C 
BRANCH  20  21
HETATM   21  C22 UNL     1       4.429   2.963  -0.051  1.00  0.00     0.044 C 
BRANCH  21  22
HETATM   22  C23 UNL     1       3.774   2.184  -1.136  1.00  0.00     0.001 C 
HETATM   23  C24 UNL     1       4.483   2.583  -2.451  1.00  0.00     0.005 C 
ENDBRANCH  21  22
ENDBRANCH  20  21
ENDBRANCH  18  20
ENDBRANCH  11  18
BRANCH  13  24
HETATM   24  N6  UNL     1       2.937  -2.475   1.004  1.00  0.00    -0.063 N 
ATOM     25  H63 UNL     1       2.355  -3.149   0.507  1.00  0.00     0.275 HD
ATOM     26  H62 UNL     1       3.244  -1.934   0.195  1.00  0.00     0.275 HD
ATOM     27  H61 UNL     1       3.712  -2.916   1.499  1.00  0.00     0.275 HD
ENDBRANCH  13  24
ENDBRANCH   7   8
ENDBRANCH   1   7
BRANCH   2  28
HETATM   28  O3  UNL     1      -0.305  -4.676   0.479  1.00  0.00    -0.391 OA
ATOM     29  H3  UNL     1      -0.131  -5.576   0.228  1.00  0.00     0.210 HD
ENDBRANCH   2  28
BRANCH   6  30
HETATM   30  O4  UNL     1      -2.218  -0.843  -0.871  1.00  0.00    -0.372 OA
BRANCH  30  31
HETATM   31  C12 UNL     1      -2.689   0.243  -0.152  1.00  0.00     0.182 C 
HETATM   32  C13 UNL     1      -1.740   1.417  -0.458  1.00  0.00     0.216 C 
HETATM   33  C14 UNL     1      -2.127   2.152  -1.689  1.00  0.00     0.068 C 
HETATM   34  C15 UNL     1      -2.951   1.452  -2.696  1.00  0.00     0.187 C 
HETATM   35  C16 UNL     1      -4.055   0.584  -2.114  1.00  0.00     0.068 C 
HETATM   36  C17 UNL     1      -4.023   0.782  -0.627  1.00  0.00     0.216 C 
BRANCH  32  37
HETATM   37  N3  UNL     1      -1.943   2.332   0.658  1.00  0.00    -0.072 N 
ATOM     38  H33 UNL     1      -2.915   2.605   0.806  1.00  0.00     0.274 HD
ATOM     39  H32 UNL     1      -1.807   1.910   1.577  1.00  0.00     0.274 HD
ATOM     40  H31 UNL     1      -1.315   3.109   0.455  1.00  0.00     0.274 HD
ENDBRANCH  32  37
BRANCH  34  41
HETATM   41  N4  UNL     1      -3.675   2.477  -3.470  1.00  0.00    -0.075 N 
ATOM     42  H43 UNL     1      -4.219   3.108  -2.882  1.00  0.00     0.274 HD
ATOM     43  H42 UNL     1      -3.056   3.176  -3.880  1.00  0.00     0.274 HD
ATOM     44  H41 UNL     1      -4.244   1.994  -4.165  1.00  0.00     0.274 HD
ENDBRANCH  34  41
BRANCH  36  45
HETATM   45  N5  UNL     1      -5.160   0.357   0.100  1.00  0.00    -0.072 N 
ATOM     46  H53 UNL     1      -5.190  -0.662   0.130  1.00  0.00     0.274 HD
ATOM     47  H52 UNL     1      -5.035   0.567   1.090  1.00  0.00     0.274 HD
ATOM     48  H51 UNL     1      -6.058   0.720  -0.220  1.00  0.00     0.274 HD
ENDBRANCH  36  45
ENDBRANCH  30  31
ENDBRANCH   6  30
BRANCH   3  49
HETATM   49  N1  UNL     1      -0.028  -3.994  -2.981  1.00  0.00    -0.072 N 
ATOM     50  H13 UNL     1       0.255  -3.018  -3.066  1.00  0.00     0.274 HD
ATOM     51  H12 UNL     1       0.886  -4.436  -2.888  1.00  0.00     0.274 HD
ATOM     52  H11 UNL     1      -0.485  -4.305  -3.838  1.00  0.00     0.274 HD
ENDBRANCH   3  49
BRANCH   5  53
HETATM   53  N2  UNL     1      -4.105  -2.953  -0.653  1.00  0.00    -0.072 N 
ATOM     54  H23 UNL     1      -4.335  -2.335  -1.431  1.00  0.00     0.274 HD
ATOM     55  H22 UNL     1      -4.619  -3.768  -0.986  1.00  0.00     0.274 HD
ATOM     56  H21 UNL     1      -4.430  -2.608   0.250  1.00  0.00     0.274 HD
ENDBRANCH   5  53
TORSDOF 16
