REMARK  14 active torsions:
REMARK  status: ('A' for Active; 'I' for Inactive)
REMARK    1  A    between atoms: O1_2  and  C2_3 
REMARK    2  A    between atoms: C2_3  and  C3_4 
REMARK    3  A    between atoms: C3_4  and  O2_5 
REMARK    4  A    between atoms: C3_4  and  C4_7 
REMARK    5  A    between atoms: C4_7  and  O3_8 
REMARK    6  A    between atoms: C8_17  and  O4_18 
REMARK    7  A    between atoms: C9_20  and  O5_21 
REMARK    8  A    between atoms: C10_23  and  C11_24 
REMARK    9  A    between atoms: C11_24  and  C12_25 
REMARK   10  A    between atoms: C12_25  and  C13_26 
REMARK   11  A    between atoms: C17_30  and  N3_31 
REMARK   12  A    between atoms: C17_30  and  C18_35 
REMARK   13  A    between atoms: C20_39  and  O8_40 
REMARK   14  A    between atoms: C20_39  and  C21_42 
ROOT
HETATM    1  C2  UNL     1      -2.401   1.426  -0.147  1.00  0.00     0.160 C 
HETATM    2  C5  UNL     1      -1.923   0.493  -1.245  1.00  0.00     0.078 C 
HETATM    3  C6  UNL     1      -1.107  -0.458  -0.966  1.00  0.00     0.039 C 
HETATM    4  S1  UNL     1      -0.809  -1.290  -2.560  1.00  0.00    -0.002 SA
HETATM    5  N1  UNL     1      -1.360   0.137  -3.503  1.00  0.00    -0.061 NA
HETATM    6  N2  UNL     1      -2.335   0.553  -2.588  1.00  0.00    -0.293 N 
ATOM      7  H2  UNL     1      -3.262   0.871  -2.871  1.00  0.00     0.183 HD
HETATM    8  C7  UNL     1      -0.468  -0.863   0.286  1.00  0.00     0.073 C 
HETATM    9  C8  UNL     1      -1.002  -0.028   1.380  1.00  0.00     0.168 C 
HETATM   10  C9  UNL     1      -1.506   1.318   1.050  1.00  0.00     0.191 C 
HETATM   11  C10 UNL     1       1.012  -1.013   0.094  1.00  0.00     0.053 C 
HETATM   12  C17 UNL     1       1.468  -2.398   0.300  1.00  0.00     0.218 C 
HETATM   13  C19 UNL     1       0.179  -3.186   0.073  1.00  0.00     0.101 C 
HETATM   14  C20 UNL     1      -0.870  -2.301   0.623  1.00  0.00     0.163 C 
ENDROOT
BRANCH   9  15
HETATM   15  O4  UNL     1      -0.245   0.078   2.533  1.00  0.00    -0.392 OA
ATOM     16  H4  UNL     1      -0.589   0.615   3.237  1.00  0.00     0.210 HD
ENDBRANCH   9  15
BRANCH  11  17
HETATM   17  C11 UNL     1       1.884   0.107   0.477  1.00  0.00     0.013 C 
BRANCH  17  18
HETATM   18  C12 UNL     1       3.363  -0.200   0.191  1.00  0.00     0.028 C 
BRANCH  18  19
HETATM   19  C13 UNL     1       4.099   1.051   0.620  1.00  0.00    -0.025 C 
HETATM   20  C14 UNL     1       4.830   1.757  -0.233  1.00  0.00    -0.091 C 
HETATM   21  C15 UNL     1       5.559   2.988   0.174  1.00  0.00     0.042 C 
HETATM   22  C16 UNL     1       4.901   1.265  -1.647  1.00  0.00     0.042 C 
ENDBRANCH  18  19
ENDBRANCH  17  18
ENDBRANCH  11  17
BRANCH  14  23
HETATM   23  O8  UNL     1      -0.813  -2.387   2.072  1.00  0.00    -0.377 OA
ATOM     24  H8  UNL     1      -1.062  -3.279   2.281  1.00  0.00     0.211 HD
ENDBRANCH  14  23
BRANCH  14  25
HETATM   25  C21 UNL     1      -2.191  -2.733   0.283  1.00  0.00     0.210 C 
HETATM   26  O9  UNL     1      -3.056  -2.953   1.202  1.00  0.00    -0.646 OA
HETATM   27  O10 UNL     1      -2.648  -2.949  -0.986  1.00  0.00    -0.646 OA
ENDBRANCH  14  25
BRANCH  10  28
HETATM   28  O5  UNL     1      -0.443   2.276   0.964  1.00  0.00    -0.389 OA
ATOM     29  H5  UNL     1       0.124   2.208   1.723  1.00  0.00     0.210 HD
ENDBRANCH  10  28
BRANCH  12  30
HETATM   30  N3  UNL     1       2.317  -2.861  -0.850  1.00  0.00    -0.060 N 
ATOM     31  H33 UNL     1       1.834  -2.752  -1.742  1.00  0.00     0.275 HD
ATOM     32  H32 UNL     1       3.099  -2.228  -1.019  1.00  0.00     0.275 HD
ATOM     33  H31 UNL     1       2.633  -3.820  -0.707  1.00  0.00     0.275 HD
ENDBRANCH  12  30
BRANCH  12  34
HETATM   34  C18 UNL     1       2.110  -2.820   1.512  1.00  0.00     0.211 C 
HETATM   35  O6  UNL     1       1.865  -2.513   2.694  1.00  0.00    -0.646 OA
HETATM   36  O7  UNL     1       3.200  -3.730   1.430  1.00  0.00    -0.646 OA
ENDBRANCH  12  34
BRANCH   1  37
HETATM   37  O1  UNL     1      -2.336   2.744  -0.481  1.00  0.00    -0.373 OA
HETATM   38  C1  UNL     1      -2.967   3.309  -1.495  1.00  0.00     0.203 C 
ENDBRANCH   1  37
BRANCH   1  39
HETATM   39  C3  UNL     1      -3.787   0.946   0.182  1.00  0.00     0.185 C 
BRANCH  39  40
HETATM   40  O2  UNL     1      -4.636   1.072  -0.940  1.00  0.00    -0.390 OA
ATOM     41  H2  UNL     1      -5.512   0.769  -0.732  1.00  0.00     0.210 HD
ENDBRANCH  39  40
BRANCH  39  42
HETATM   42  C4  UNL     1      -4.400   1.673   1.359  1.00  0.00     0.199 C 
BRANCH  42  43
HETATM   43  O3  UNL     1      -5.691   1.161   1.617  1.00  0.00    -0.398 OA
ATOM     44  H3  UNL     1      -6.076   1.617   2.356  1.00  0.00     0.209 HD
ENDBRANCH  42  43
ENDBRANCH  39  42
ENDBRANCH   1  39
TORSDOF 14
