REMARK  6 active torsions:
REMARK  status: ('A' for Active; 'I' for Inactive)
REMARK    1  A    between atoms: O1_2  and  C2_3 
REMARK       I    between atoms: N1_7  and  C6_8 
REMARK    2  A    between atoms: C6_8  and  C7_10 
REMARK    3  A    between atoms: C7_10  and  N2_12 
REMARK       I    between atoms: N2_12  and  C9_14 
REMARK    4  A    between atoms: C9_14  and  C10_16 
REMARK    5  A    between atoms: N5_29  and  C20_30 
REMARK    6  A    between atoms: C20_30  and  C21_31 
ROOT
HETATM    1  C2  UNL     1      -2.352  -1.494  -1.315  1.00  0.00     0.183 C 
HETATM    2  C3  UNL     1      -1.094  -1.994  -1.975  1.00  0.00     0.034 C 
HETATM    3  C4  UNL     1      -0.899  -1.209  -3.252  1.00  0.00     0.014 C 
HETATM    4  C5  UNL     1       0.117  -1.941  -1.072  1.00  0.00     0.155 C 
HETATM    5  N1  UNL     1       0.250  -0.653  -0.476  1.00  0.00    -0.260 N 
HETATM    6  C6  UNL     1       1.478  -0.005  -0.210  1.00  0.00     0.257 C 
HETATM    7  O2  UNL     1       1.538   1.142   0.342  1.00  0.00    -0.270 OA
HETATM    8  N3  UNL     1      -0.895   0.066  -0.100  1.00  0.00    -0.090 NA
HETATM    9  C16 UNL     1      -2.067  -0.730  -0.045  1.00  0.00     0.278 C 
HETATM   10  C17 UNL     1      -2.015  -1.691   1.139  1.00  0.00     0.115 C 
HETATM   11  C18 UNL     1      -3.173  -0.903   1.733  1.00  0.00     0.335 C 
HETATM   12  C19 UNL     1      -2.695  -0.168   2.897  1.00  0.00     0.095 C 
HETATM   13  N4  UNL     1      -2.316   0.405   3.825  1.00  0.00    -0.195 NA
HETATM   14  N5  UNL     1      -3.246  -0.166   0.493  1.00  0.00     0.136 N 
ENDROOT
BRANCH  14  15
HETATM   15  C20 UNL     1      -3.339   1.253   0.602  1.00  0.00     0.281 C 
BRANCH  15  16
HETATM   16  C21 UNL     1      -4.682   1.659   1.172  1.00  0.00     0.006 C 
HETATM   17  C22 UNL     1      -4.780   3.177   1.292  1.00  0.00     0.011 C 
HETATM   18  C23 UNL     1      -5.810   1.270   0.206  1.00  0.00     0.011 C 
ENDBRANCH  15  16
ENDBRANCH  14  15
BRANCH   1  19
HETATM   19  O1  UNL     1      -3.121  -0.707  -2.169  1.00  0.00    -0.386 OA
HETATM   20  C1  UNL     1      -4.377  -1.251  -2.400  1.00  0.00     0.202 C 
ENDBRANCH   1  19
BRANCH   6  21
HETATM   21  C7  UNL     1       2.766  -0.637  -0.564  1.00  0.00     0.174 C 
HETATM   22  C8  UNL     1       2.944  -0.661  -2.089  1.00  0.00     0.042 C 
BRANCH  21  23
HETATM   23  N2  UNL     1       3.888   0.181  -0.076  1.00  0.00    -0.344 N 
HETATM   24  C9  UNL     1       4.818  -0.417   0.790  1.00  0.00     0.252 C 
HETATM   25  O3  UNL     1       4.700  -1.634   1.151  1.00  0.00    -0.268 OA
ATOM     26  H2  UNL     1       3.987   1.156  -0.359  1.00  0.00     0.163 HD
BRANCH  24  27
HETATM   27  C10 UNL     1       5.969   0.343   1.316  1.00  0.00     0.033 A 
HETATM   28  C11 UNL     1       6.791  -0.213   2.284  1.00  0.00     0.017 A 
HETATM   29  C12 UNL     1       7.876   0.460   2.795  1.00  0.00     0.002 A 
HETATM   30  C13 UNL     1       8.190   1.732   2.356  1.00  0.00     0.019 A 
HETATM   31  C14 UNL     1       7.386   2.302   1.395  1.00  0.00     0.011 A 
HETATM   32 BR1  UNL     1       7.795   4.055   0.769  1.00  0.00    -0.051 Br
HETATM   33  C15 UNL     1       6.286   1.610   0.882  1.00  0.00     0.036 A 
ENDBRANCH  24  27
ENDBRANCH  21  23
ENDBRANCH   6  21
TORSDOF 6
