REMARK  8 active torsions:
REMARK  status: ('A' for Active; 'I' for Inactive)
REMARK    1  A    between atoms: C2_2  and  C4_4 
REMARK    2  A    between atoms: C7_7  and  N1_8 
REMARK       I    between atoms: N2_11  and  C10_12 
REMARK       I    between atoms: C10_12  and  N3_14 
REMARK    3  A    between atoms: N3_14  and  C11_16 
REMARK    4  A    between atoms: C11_16  and  C12_17 
REMARK    5  A    between atoms: C13_21  and  C14_22 
REMARK    6  A    between atoms: C14_22  and  C15_23 
REMARK    7  A    between atoms: C15_23  and  C16_24 
REMARK    8  A    between atoms: C16_24  and  C17_25 
ROOT
HETATM    1  N1  UNL     1       0.427  -0.730  -0.001  1.00  0.00    -0.375 N 
HETATM    2  C8  UNL     1       0.122  -1.852   0.852  1.00  0.00     0.143 C 
HETATM    3  C9  UNL     1      -1.095  -1.508   1.728  1.00  0.00     0.148 C 
HETATM    4  N2  UNL     1      -2.138  -1.164   0.809  1.00  0.00    -0.326 N 
HETATM    5  C10 UNL     1      -3.343  -1.945   0.696  1.00  0.00     0.318 C 
HETATM    6  O1  UNL     1      -4.146  -1.477  -0.166  1.00  0.00    -0.247 OA
HETATM    7  N3  UNL     1      -3.566  -3.080   1.464  1.00  0.00    -0.339 N 
ATOM      8  H3  UNL     1      -2.836  -3.333   2.131  1.00  0.00     0.164 HD
HETATM    9  C13 UNL     1      -1.918   0.020  -0.015  1.00  0.00     0.106 C 
HETATM   10  C19 UNL     1      -0.634  -0.109  -0.748  1.00  0.00     0.148 C 
ENDROOT
BRANCH   1  11
HETATM   11  C7  UNL     1       1.760  -0.273  -0.080  1.00  0.00     0.069 A 
HETATM   12  C6  UNL     1       2.088   1.018   0.280  1.00  0.00     0.033 A 
HETATM   13  C5  UNL     1       3.382   1.487   0.211  1.00  0.00     0.010 A 
HETATM   14  C4  UNL     1       4.417   0.686  -0.222  1.00  0.00    -0.052 A 
HETATM   15  C21 UNL     1       4.101  -0.606  -0.584  1.00  0.00     0.052 A 
HETATM   16  C20 UNL     1       2.806  -1.077  -0.516  1.00  0.00     0.143 A 
HETATM   17  F1  UNL     1       2.477  -2.357  -0.872  1.00  0.00    -0.204 F 
BRANCH  14  18
HETATM   18  C2  UNL     1       5.813   1.209  -0.291  1.00  0.00     0.010 C 
HETATM   19  C1  UNL     1       6.760   0.441   0.584  1.00  0.00     0.015 C 
HETATM   20  C3  UNL     1       6.346   1.171  -1.706  1.00  0.00     0.015 C 
ENDBRANCH  14  18
ENDBRANCH   1  11
BRANCH   9  21
HETATM   21  C14 UNL     1      -2.095   1.226   0.817  1.00  0.00     0.027 C 
BRANCH  21  22
HETATM   22  C15 UNL     1      -1.905   2.533   0.114  1.00  0.00     0.006 C 
BRANCH  22  23
HETATM   23  C16 UNL     1      -2.875   2.727  -1.041  1.00  0.00     0.028 C 
BRANCH  23  24
HETATM   24  C17 UNL     1      -2.546   4.075  -1.625  1.00  0.00    -0.015 C 
HETATM   25  C18 UNL     1      -3.416   5.053  -1.681  1.00  0.00     0.080 C 
HETATM   26 CL4  UNL     1      -5.054   4.941  -1.097  1.00  0.00    -0.097 Cl
ENDBRANCH  23  24
ENDBRANCH  22  23
ENDBRANCH  21  22
ENDBRANCH   9  21
BRANCH   7  27
HETATM   27  C11 UNL     1      -4.704  -3.923   1.416  1.00  0.00     0.183 C 
BRANCH  27  28
HETATM   28  C12 UNL     1      -4.943  -4.693   0.167  1.00  0.00     0.204 C 
HETATM   29 CL1  UNL     1      -3.551  -5.749  -0.211  1.00  0.00    -0.082 Cl
HETATM   30 CL2  UNL     1      -6.310  -5.866   0.462  1.00  0.00    -0.082 Cl
HETATM   31 CL3  UNL     1      -5.395  -3.786  -1.246  1.00  0.00    -0.082 Cl
ENDBRANCH  27  28
ENDBRANCH   7  27
TORSDOF 8
