REMARK  2 active torsions:
REMARK  status: ('A' for Active; 'I' for Inactive)
REMARK    1  A    between atoms: C10_14  and  C11_15 
REMARK    2  A    between atoms: N2_22  and  C18_24 
ROOT
HETATM    1  C11 UNL     1       0.817  -0.624  -0.712  1.00  0.00    -0.034 A 
HETATM    2  C12 UNL     1       1.056  -1.897  -1.164  1.00  0.00     0.012 A 
HETATM    3  C13 UNL     1       0.005  -2.756  -1.410  1.00  0.00     0.014 A 
HETATM    4  C14 UNL     1      -1.292  -2.357  -1.208  1.00  0.00    -0.012 A 
HETATM    5  C15 UNL     1      -1.574  -1.066  -0.747  1.00  0.00     0.003 A 
HETATM    6  C16 UNL     1      -0.512  -0.221  -0.507  1.00  0.00     0.026 A 
HETATM    7  C17 UNL     1      -3.008  -0.915  -0.628  1.00  0.00     0.055 A 
HETATM    8  N2  UNL     1      -3.685   0.057  -0.263  1.00  0.00    -0.355 N 
ATOM      9  H2  UNL     1      -4.687  -0.135  -0.282  1.00  0.00     0.166 HD
HETATM   10  C24 UNL     1      -3.591  -2.206  -1.048  1.00  0.00     0.003 A 
HETATM   11  C25 UNL     1      -4.894  -2.642  -1.139  1.00  0.00     0.014 A 
HETATM   12  C26 UNL     1      -5.181  -3.927  -1.570  1.00  0.00     0.001 A 
HETATM   13  C27 UNL     1      -4.153  -4.766  -1.909  1.00  0.00     0.001 A 
HETATM   14  C28 UNL     1      -2.830  -4.363  -1.831  1.00  0.00     0.013 A 
HETATM   15  C29 UNL     1      -2.576  -3.067  -1.394  1.00  0.00    -0.013 A 
ENDROOT
BRANCH   1  16
HETATM   16  C10 UNL     1       1.914   0.283  -0.456  1.00  0.00     0.029 C 
HETATM   17  C9  UNL     1       2.827   0.188   0.474  1.00  0.00     0.044 A 
HETATM   18  C1  UNL     1       2.893  -0.890   1.460  1.00  0.00     0.259 A 
HETATM   19  C8  UNL     1       3.912   1.210   0.528  1.00  0.00    -0.005 A 
HETATM   20  O1  UNL     1       2.014  -1.788   1.487  1.00  0.00    -0.267 OA
HETATM   21  N1  UNL     1       3.947  -0.966   2.428  1.00  0.00    -0.289 N 
HETATM   22  C2  UNL     1       4.940   0.034   2.420  1.00  0.00     0.259 A 
ATOM     23  H1  UNL     1       3.978  -1.726   3.107  1.00  0.00     0.172 HD
HETATM   24  O2  UNL     1       5.860  -0.073   3.299  1.00  0.00    -0.267 OA
HETATM   25  C3  UNL     1       4.928   1.131   1.468  1.00  0.00     0.043 A 
HETATM   26  C4  UNL     1       5.942   2.055   1.549  1.00  0.00     0.018 A 
HETATM   27  C5  UNL     1       5.983   3.115   0.679  1.00  0.00     0.001 A 
HETATM   28  C6  UNL     1       5.002   3.232  -0.264  1.00  0.00     0.001 A 
HETATM   29  C7  UNL     1       3.974   2.282  -0.334  1.00  0.00     0.013 A 
ENDBRANCH   1  16
BRANCH   8  30
HETATM   30  C18 UNL     1      -3.399   1.340   0.164  1.00  0.00     0.032 A 
HETATM   31  C19 UNL     1      -3.276   2.431  -0.690  1.00  0.00     0.029 A 
HETATM   32  C20 UNL     1      -2.998   3.691  -0.235  1.00  0.00     0.002 A 
HETATM   33  C21 UNL     1      -2.825   3.930   1.113  1.00  0.00     0.000 A 
HETATM   34  C22 UNL     1      -2.942   2.867   1.984  1.00  0.00     0.002 A 
HETATM   35  C23 UNL     1      -3.224   1.599   1.508  1.00  0.00     0.029 A 
ENDBRANCH   8  30
TORSDOF 2
