REMARK  7 active torsions:
REMARK  status: ('A' for Active; 'I' for Inactive)
REMARK    1  A    between atoms: C5_10  and  N3_11 
REMARK    2  A    between atoms: N3_11  and  N4_13 
REMARK    3  A    between atoms: N4_13  and  C6_15 
REMARK    4  A    between atoms: C7_22  and  N8_23 
REMARK    5  A    between atoms: N8_23  and  N9_25 
REMARK    6  A    between atoms: N9_25  and  C8_27 
REMARK    7  A    between atoms: C8_27  and  O2_28 
ROOT
HETATM    1  C6  UNL     1       0.815   0.910   0.408  1.00  0.00     0.727 A 
HETATM    2  N5  UNL     1       0.660   2.221   0.631  1.00  0.00    -0.115 N 
ATOM      3  H5  UNL     1      -0.262   2.603   0.841  1.00  0.00     0.207 HD
HETATM    4  N6  UNL     1       1.711   3.010   0.576  1.00  0.00    -0.214 N 
ATOM      5  H6  UNL     1       1.586   4.008   0.746  1.00  0.00     0.209 HD
HETATM    6  N7  UNL     1       2.922   2.556   0.308  1.00  0.00    -0.115 N 
ATOM      7  H7  UNL     1       3.710   3.203   0.274  1.00  0.00     0.207 HD
HETATM    8  C7  UNL     1       3.126   1.227   0.076  1.00  0.00     0.727 A 
HETATM    9  N10 UNL     1       2.043   0.443   0.136  1.00  0.00    -0.017 N 
ATOM     10  H10 UNL     1       2.157  -0.556  -0.033  1.00  0.00     0.203 HD
ENDROOT
BRANCH   1  11
HETATM   11  N4  UNL     1      -0.318   0.023   0.472  1.00  0.00    -0.130 N 
ATOM     12  H4  UNL     1      -0.197  -0.968   0.263  1.00  0.00     0.205 HD
BRANCH  11  13
HETATM   13  N3  UNL     1      -1.558   0.500   0.812  1.00  0.00    -0.280 N 
ATOM     14  H3  UNL     1      -1.605   1.033   1.681  1.00  0.00     0.188 HD
BRANCH  13  15
HETATM   15  C5  UNL     1      -2.769   0.352   0.124  1.00  0.00     0.139 A 
HETATM   16  C2  UNL     1      -3.470  -0.821   0.293  1.00  0.00     0.040 A 
HETATM   17  C1  UNL     1      -2.951  -1.896   1.140  1.00  0.00     0.071 C 
HETATM   18  N1  UNL     1      -4.661  -1.044  -0.317  1.00  0.00    -0.354 N 
HETATM   19  C3  UNL     1      -5.199  -0.106  -1.119  1.00  0.00     0.183 A 
ATOM     20  H1  UNL     1      -5.151  -1.926  -0.167  1.00  0.00     0.166 HD
HETATM   21  N2  UNL     1      -4.536   1.050  -1.303  1.00  0.00    -0.318 N 
HETATM   22  C4  UNL     1      -3.342   1.300  -0.705  1.00  0.00     0.276 A 
ATOM     23  H2  UNL     1      -4.943   1.761  -1.911  1.00  0.00     0.169 HD
HETATM   24  O1  UNL     1      -2.728   2.372  -0.875  1.00  0.00    -0.266 OA
ENDBRANCH  13  15
ENDBRANCH  11  13
ENDBRANCH   1  11
BRANCH   8  25
HETATM   25  N8  UNL     1       4.321   0.840  -0.171  1.00  0.00    -0.128 N 
ATOM     26  H8  UNL     1       5.037   1.566  -0.174  1.00  0.00     0.205 HD
BRANCH  25  27
HETATM   27  N9  UNL     1       4.753  -0.437  -0.432  1.00  0.00    -0.256 N 
ATOM     28  H9  UNL     1       4.282  -0.989  -1.149  1.00  0.00     0.190 HD
BRANCH  27  29
HETATM   29  C8  UNL     1       5.860  -1.009   0.290  1.00  0.00     0.227 C 
HETATM   30  S1  UNL     1       6.558  -0.053   1.429  1.00  0.00    -0.032 SA
BRANCH  29  31
HETATM   31  O2  UNL     1       6.314  -2.293   0.041  1.00  0.00    -0.336 OA
ATOM     32  H2  UNL     1       7.044  -2.670   0.517  1.00  0.00     0.220 HD
ENDBRANCH  29  31
ENDBRANCH  27  29
ENDBRANCH  25  27
ENDBRANCH   8  25
TORSDOF 7
