REMARK  7 active torsions:
REMARK  status: ('A' for Active; 'I' for Inactive)
REMARK    1  A    between atoms: N1_1  and  C1_4 
REMARK    2  A    between atoms: C5_14  and  C6_15 
REMARK    3  A    between atoms: N7_19  and  C7_20 
REMARK    4  A    between atoms: C7_20  and  C8_21 
REMARK    5  A    between atoms: C8_21  and  C9_22 
REMARK    6  A    between atoms: C9_22  and  C10_23 
REMARK    7  A    between atoms: C10_23  and  O1_24 
ROOT
HETATM    1  C1  UNL     1      -5.423  -0.474  -1.079  1.00  0.00     0.132 A 
HETATM    2  N2  UNL     1      -6.400  -1.276  -0.619  1.00  0.00    -0.337 N 
ATOM      3  H2  UNL     1      -7.309  -1.278  -1.081  1.00  0.00     0.168 HD
HETATM    4  C2  UNL     1      -6.193  -2.076   0.444  1.00  0.00     0.183 A 
HETATM    5  N3  UNL     1      -4.983  -2.060   1.042  1.00  0.00    -0.336 N 
ATOM      6  H3  UNL     1      -4.821  -2.664   1.848  1.00  0.00     0.168 HD
HETATM    7  C3  UNL     1      -3.974  -1.263   0.603  1.00  0.00     0.140 A 
HETATM    8  N4  UNL     1      -2.711  -1.044   0.986  1.00  0.00    -0.323 N 
ATOM      9  H4  UNL     1      -2.260  -1.510   1.773  1.00  0.00     0.169 HD
HETATM   10  C4  UNL     1      -2.111  -0.130   0.200  1.00  0.00     0.160 A 
HETATM   11  C5  UNL     1      -0.952   0.586  -0.065  1.00  0.00     0.138 A 
HETATM   12  N9  UNL     1      -1.197   1.361  -1.116  1.00  0.00    -0.277 N 
ATOM     13  H9  UNL     1      -0.540   2.008  -1.553  1.00  0.00     0.184 HD
HETATM   14  N10 UNL     1      -2.449   1.142  -1.494  1.00  0.00    -0.013 NA
HETATM   15  N11 UNL     1      -3.034   0.245  -0.720  1.00  0.00    -0.214 N 
HETATM   16  C11 UNL     1      -4.170  -0.435  -0.487  1.00  0.00     0.144 A 
ENDROOT
BRANCH  11  17
HETATM   17  C6  UNL     1       0.296   0.472   0.709  1.00  0.00     0.166 A 
HETATM   18  N5  UNL     1       0.526  -0.319   1.772  1.00  0.00    -0.265 N 
HETATM   19  N6  UNL     1       1.772  -0.121   2.172  1.00  0.00    -0.002 NA
ATOM     20  H5  UNL     1      -0.144  -0.960   2.196  1.00  0.00     0.186 HD
HETATM   21  N7  UNL     1       2.355   0.777   1.396  1.00  0.00    -0.213 N 
HETATM   22  N8  UNL     1       1.448   1.135   0.504  1.00  0.00    -0.267 N 
ATOM     23  H8  UNL     1       1.600   1.819  -0.237  1.00  0.00     0.190 HD
BRANCH  21  24
HETATM   24  C7  UNL     1       3.728   1.260   1.519  1.00  0.00     0.194 C 
BRANCH  24  25
HETATM   25  C8  UNL     1       4.655   0.426   0.721  1.00  0.00    -0.006 C 
BRANCH  25  26
HETATM   26  C9  UNL     1       5.379   0.967  -0.256  1.00  0.00    -0.004 C 
BRANCH  26  27
HETATM   27  C10 UNL     1       6.313   0.137  -1.064  1.00  0.00     0.191 C 
BRANCH  27  28
HETATM   28  O1  UNL     1       5.985   0.154  -2.410  1.00  0.00    -0.397 OA
ATOM     29  H1  UNL     1       6.581  -0.376  -2.926  1.00  0.00     0.209 HD
ENDBRANCH  27  28
ENDBRANCH  26  27
ENDBRANCH  25  26
ENDBRANCH  24  25
ENDBRANCH  21  24
ENDBRANCH  11  17
BRANCH   1  30
HETATM   30  N1  UNL     1      -5.649   0.273  -2.089  1.00  0.00    -0.383 N 
ATOM     31  H12 UNL     1      -6.571   0.244  -2.525  1.00  0.00     0.157 HD
ATOM     32  H11 UNL     1      -4.908   0.881  -2.438  1.00  0.00     0.157 HD
ENDBRANCH   1  30
TORSDOF 7
