REMARK  8 active torsions:
REMARK  status: ('A' for Active; 'I' for Inactive)
REMARK    1  A    between atoms: C3_3  and  S1_4 
REMARK    2  A    between atoms: S1_4  and  C4_5 
REMARK    3  A    between atoms: C4_5  and  N1_6 
REMARK    4  A    between atoms: N1_6  and  C5_8 
REMARK    5  A    between atoms: C7_12  and  C8_13 
REMARK    6  A    between atoms: C8_13  and  N3_14 
REMARK    7  A    between atoms: C8_13  and  O1_18 
REMARK    8  A    between atoms: C11_27  and  N7_28 
ROOT
HETATM    1  C1  UNL     1       6.064   0.765   1.660  1.00  0.00     0.013 C 
HETATM    2  C2  UNL     1       5.415  -0.218   1.397  1.00  0.00    -0.107 C 
HETATM    3  C3  UNL     1       4.639  -1.438   1.078  1.00  0.00     0.168 C 
ENDROOT
BRANCH   3   4
HETATM    4  S1  UNL     1       4.247  -1.435  -0.687  1.00  0.00    -0.137 SA
BRANCH   4   5
HETATM    5  C4  UNL     1       3.110  -0.054  -1.044  1.00  0.00     0.213 C 
BRANCH   5   6
HETATM    6  N1  UNL     1       1.881  -0.306  -0.400  1.00  0.00    -0.217 N 
ATOM      7  H1  UNL     1       1.962  -0.659   0.553  1.00  0.00     0.178 HD
BRANCH   6   8
HETATM    8  C5  UNL     1       0.687  -0.163  -0.818  1.00  0.00     0.694 C 
HETATM    9  N2  UNL     1      -0.297  -0.500   0.064  1.00  0.00    -0.185 N 
HETATM   10  C6  UNL     1      -1.567  -0.007   0.150  1.00  0.00     0.123 A 
ATOM     11  H2  UNL     1      -0.052  -1.214   0.750  1.00  0.00     0.184 HD
HETATM   12  C7  UNL     1      -2.471  -0.376   1.130  1.00  0.00     0.112 A 
HETATM   13  C10 UNL     1      -2.169   0.912  -0.687  1.00  0.00     0.167 A 
HETATM   14  N4  UNL     1      -3.583   0.321   0.866  1.00  0.00    -0.295 N 
HETATM   15  N5  UNL     1      -3.410   1.083  -0.205  1.00  0.00    -0.278 N 
ATOM     16  H4  UNL     1      -4.443   0.273   1.412  1.00  0.00     0.187 HD
HETATM   17  C9  UNL     1      -4.399   1.961  -0.770  1.00  0.00     0.179 C 
HETATM   18  N6  UNL     1      -1.637   1.533  -1.780  1.00  0.00    -0.173 N 
HETATM   19  C11 UNL     1      -0.560   1.101  -2.467  1.00  0.00     0.692 C 
ATOM     20  H6  UNL     1      -2.089   2.389  -2.102  1.00  0.00     0.186 HD
HETATM   21  N8  UNL     1       0.442   0.293  -2.056  1.00  0.00    -0.023 N 
ATOM     22  H8  UNL     1       1.095  -0.009  -2.779  1.00  0.00     0.203 HD
BRANCH  12  23
HETATM   23  C8  UNL     1      -2.150  -1.345   2.186  1.00  0.00     0.371 C 
BRANCH  23  24
HETATM   24  N3  UNL     1      -1.470  -2.524   1.689  1.00  0.00    -0.047 N 
ATOM     25  H33 UNL     1      -2.007  -2.965   0.942  1.00  0.00     0.277 HD
ATOM     26  H32 UNL     1      -0.633  -2.267   1.165  1.00  0.00     0.277 HD
ATOM     27  H31 UNL     1      -1.247  -3.197   2.422  1.00  0.00     0.277 HD
ENDBRANCH  23  24
BRANCH  23  28
HETATM   28  O1  UNL     1      -3.256  -1.698   2.951  1.00  0.00    -0.365 OA
ATOM     29  H1  UNL     1      -3.048  -2.325   3.634  1.00  0.00     0.212 HD
ENDBRANCH  23  28
ENDBRANCH  12  23
BRANCH  19  30
HETATM   30  N7  UNL     1      -0.507   1.533  -3.677  1.00  0.00    -0.234 N 
ATOM     31  H72 UNL     1      -1.263   2.143  -3.987  1.00  0.00     0.174 HD
ATOM     32  H71 UNL     1       0.308   1.206  -4.197  1.00  0.00     0.174 HD
ENDBRANCH  19  30
ENDBRANCH   6   8
ENDBRANCH   5   6
ENDBRANCH   4   5
ENDBRANCH   3   4
TORSDOF 8
