REMARK  8 active torsions:
REMARK  status: ('A' for Active; 'I' for Inactive)
REMARK    1  A    between atoms: C1_2  and  C2_3 
REMARK       I    between atoms: C1_2  and  N4_24 
REMARK    2  A    between atoms: C2_3  and  S1_4 
REMARK    3  A    between atoms: S1_4  and  C3_5 
REMARK    4  A    between atoms: C4_10  and  C5_11 
REMARK    5  A    between atoms: C10_21  and  O4_22 
REMARK    6  A    between atoms: N4_24  and  N5_25 
REMARK    7  A    between atoms: N5_25  and  C11_27 
REMARK    8  A    between atoms: C11_27  and  O5_28 
ROOT
HETATM    1  C3  UNL     1      -0.678   1.559  -0.063  1.00  0.00     0.118 A 
HETATM    2  N1  UNL     1      -1.386   2.199   0.923  1.00  0.00    -0.291 N 
ATOM      3  H1  UNL     1      -0.937   2.926   1.481  1.00  0.00     0.187 HD
HETATM    4  N2  UNL     1      -2.633   1.881   1.150  1.00  0.00    -0.300 N 
ATOM      5  H2  UNL     1      -3.157   2.346   1.891  1.00  0.00     0.187 HD
HETATM    6  C4  UNL     1      -3.237   0.902   0.371  1.00  0.00     0.052 A 
HETATM    7  C9  UNL     1      -2.517   0.278  -0.623  1.00  0.00     0.070 A 
HETATM    8  C10 UNL     1      -1.165   0.619  -0.850  1.00  0.00     0.102 A 
ENDROOT
BRANCH   1   9
HETATM    9  S1  UNL     1       1.129   1.774   0.164  1.00  0.00    -0.098 SA
BRANCH   9  10
HETATM   10  C2  UNL     1       1.522   0.378   1.282  1.00  0.00     0.202 C 
BRANCH  10  11
HETATM   11  C1  UNL     1       2.013  -0.797   0.353  1.00  0.00     0.322 C 
HETATM   12  O1  UNL     1       1.535  -1.929   0.542  1.00  0.00    -0.254 OA
HETATM   13  N4  UNL     1       2.921  -0.359  -0.500  1.00  0.00    -0.284 NA
BRANCH  13  14
HETATM   14  N5  UNL     1       3.870   0.070  -1.398  1.00  0.00    -0.206 N 
ATOM     15  H5  UNL     1       3.679   0.431  -2.333  1.00  0.00     0.204 HD
BRANCH  14  16
HETATM   16  C11 UNL     1       5.136  -0.067  -0.826  1.00  0.00     0.213 C 
HETATM   17  C12 UNL     1       6.503  -0.035  -0.740  1.00  0.00     0.188 A 
HETATM   18  N6  UNL     1       7.131  -0.220   0.552  1.00  0.00    -0.263 N 
HETATM   19  N9  UNL     1       7.562   0.098  -1.416  1.00  0.00    -0.268 N 
HETATM   20  N7  UNL     1       8.468  -0.164   0.396  1.00  0.00    -0.005 NA
ATOM     21  H6  UNL     1       6.642  -0.368   1.435  1.00  0.00     0.186 HD
HETATM   22  N8  UNL     1       8.681   0.060  -1.051  1.00  0.00    -0.225 N 
ATOM     23  H8  UNL     1       9.548   0.154  -1.580  1.00  0.00     0.205 HD
ATOM     24  H9  UNL     1       7.430   0.260  -2.414  1.00  0.00     0.190 HD
BRANCH  16  25
HETATM   25  O5  UNL     1       4.694  -0.587   0.511  1.00  0.00    -0.342 OA
ATOM     26  H5  UNL     1       5.556  -0.680   0.900  1.00  0.00     0.219 HD
ENDBRANCH  16  25
ENDBRANCH  14  16
ENDBRANCH  13  14
ENDBRANCH  10  11
ENDBRANCH   9  10
ENDBRANCH   1   9
BRANCH   8  27
HETATM   27  O4  UNL     1      -0.470  -0.035  -1.837  1.00  0.00    -0.358 OA
ATOM     28  H4  UNL     1      -0.821  -0.712  -2.404  1.00  0.00     0.217 HD
ENDBRANCH   8  27
BRANCH   6  29
HETATM   29  C5  UNL     1      -4.398   0.235   0.914  1.00  0.00     0.055 C 
HETATM   30  C6  UNL     1      -5.594   0.109   0.537  1.00  0.00     0.080 C 
HETATM   31  S2  UNL     1      -6.745  -0.929   1.655  1.00  0.00    -0.024 SA
HETATM   32  C8  UNL     1      -6.542   0.493  -0.447  1.00  0.00     0.266 C 
HETATM   33  C7  UNL     1      -7.444  -1.664   0.056  1.00  0.00     0.291 C 
HETATM   34  O2  UNL     1      -7.601  -2.846  -0.061  1.00  0.00    -0.260 OA
HETATM   35  N3  UNL     1      -7.571  -0.513  -0.696  1.00  0.00    -0.283 N 
ATOM     36  H3  UNL     1      -8.323  -0.376  -1.371  1.00  0.00     0.172 HD
HETATM   37  O3  UNL     1      -6.536   1.602  -1.055  1.00  0.00    -0.267 OA
ENDBRANCH   6  29
TORSDOF 8
