REMARK  15 active torsions:
REMARK  status: ('A' for Active; 'I' for Inactive)
REMARK    1  A    between atoms: O1_2  and  C2_3 
REMARK    2  A    between atoms: C7_8  and  O2_9 
REMARK    3  A    between atoms: C9_12  and  O3_13 
REMARK    4  A    between atoms: C9_12  and  C10_15 
REMARK    5  A    between atoms: C12_20  and  N1_21 
REMARK    6  A    between atoms: C13_23  and  C14_24 
REMARK    7  A    between atoms: C14_24  and  N2_25 
REMARK    8  A    between atoms: C15_29  and  O7_30 
REMARK    9  A    between atoms: C16_32  and  C17_33 
REMARK   10  A    between atoms: C17_33  and  O8_34 
REMARK   11  A    between atoms: C17_33  and  C18_36 
REMARK   12  A    between atoms: C18_36  and  O9_37 
REMARK   13  A    between atoms: C18_36  and  C19_39 
REMARK   14  A    between atoms: C19_39  and  O10_40 
REMARK   15  A    between atoms: C19_39  and  O11_42 
ROOT
HETATM    1  C2  UNL     1      -3.498  -2.052  -0.276  1.00  0.00     0.101 A 
HETATM    2  C3  UNL     1      -3.670  -2.018   1.074  1.00  0.00     0.040 A 
HETATM    3  C4  UNL     1      -2.749  -1.436   1.911  1.00  0.00     0.021 A 
HETATM    4  C5  UNL     1      -1.624  -0.878   1.353  1.00  0.00     0.049 A 
HETATM    5  C6  UNL     1      -1.399  -0.893  -0.034  1.00  0.00     0.005 A 
HETATM    6  C7  UNL     1      -2.353  -1.486  -0.871  1.00  0.00     0.106 A 
HETATM    7  C8  UNL     1      -0.158  -0.333  -0.579  1.00  0.00     0.116 C 
HETATM    8  C9  UNL     1       0.899  -1.351  -0.763  1.00  0.00     0.219 C 
HETATM    9  C11 UNL     1       2.184  -0.727  -1.262  1.00  0.00     0.197 C 
HETATM   10  O6  UNL     1       2.787  -1.078  -2.235  1.00  0.00    -0.292 OA
HETATM   11  C12 UNL     1       2.684   0.399  -0.441  1.00  0.00     0.186 C 
HETATM   12  C15 UNL     1       1.524   1.406  -0.415  1.00  0.00     0.187 C 
HETATM   13  C16 UNL     1       0.300   0.888   0.240  1.00  0.00     0.139 C 
HETATM   14  O12 UNL     1       0.419   0.451   1.552  1.00  0.00    -0.300 OA
HETATM   15  C20 UNL     1      -0.645  -0.156   2.189  1.00  0.00     0.295 C 
HETATM   16  O13 UNL     1      -0.837  -0.137   3.423  1.00  0.00    -0.259 OA
ENDROOT
BRANCH  13  17
HETATM   17  C17 UNL     1      -0.766   1.941   0.158  1.00  0.00     0.190 C 
BRANCH  17  18
HETATM   18  O8  UNL     1      -0.876   2.433  -1.122  1.00  0.00    -0.390 OA
ATOM     19  H8  UNL     1      -1.551   3.100  -1.174  1.00  0.00     0.210 HD
ENDBRANCH  17  18
BRANCH  17  20
HETATM   20  C18 UNL     1      -0.617   2.977   1.230  1.00  0.00     0.204 C 
BRANCH  20  21
HETATM   21  O9  UNL     1       0.486   3.799   1.067  1.00  0.00    -0.388 OA
ATOM     22  H9  UNL     1       0.580   4.456   1.747  1.00  0.00     0.210 HD
ENDBRANCH  20  21
BRANCH  20  23
HETATM   23  C19 UNL     1      -1.872   3.865   1.311  1.00  0.00     0.285 C 
BRANCH  23  24
HETATM   24  O10 UNL     1      -3.008   3.086   1.476  1.00  0.00    -0.369 OA
ATOM     25  H10 UNL     1      -3.782   3.634   1.526  1.00  0.00     0.212 HD
ENDBRANCH  23  24
BRANCH  23  26
HETATM   26  O11 UNL     1      -1.958   4.729   0.246  1.00  0.00    -0.369 OA
ATOM     27  H11 UNL     1      -2.732   5.277   0.296  1.00  0.00     0.212 HD
ENDBRANCH  23  26
ENDBRANCH  20  23
ENDBRANCH  17  20
ENDBRANCH  13  17
BRANCH  12  28
HETATM   28  O7  UNL     1       1.210   1.590  -1.788  1.00  0.00    -0.390 OA
ATOM     29  H7  UNL     1       0.493   2.213  -1.772  1.00  0.00     0.210 HD
ENDBRANCH  12  28
BRANCH   8  30
HETATM   30  O3  UNL     1       0.489  -2.216  -1.820  1.00  0.00    -0.371 OA
ATOM     31  H3  UNL     1       1.168  -2.870  -1.938  1.00  0.00     0.211 HD
ENDBRANCH   8  30
BRANCH   8  32
HETATM   32  C10 UNL     1       1.194  -2.274   0.346  1.00  0.00     0.218 C 
HETATM   33  O4  UNL     1       1.995  -1.983   1.257  1.00  0.00    -0.645 OA
HETATM   34  O5  UNL     1       0.594  -3.541   0.452  1.00  0.00    -0.645 OA
ENDBRANCH   8  32
BRANCH  11  35
HETATM   35  N1  UNL     1       3.770   1.089  -1.078  1.00  0.00    -0.387 N 
HETATM   36  C13 UNL     1       4.994   0.685  -0.955  1.00  0.00     0.083 C 
ATOM     37  H1  UNL     1       3.573   1.917  -1.641  1.00  0.00     0.159 HD
BRANCH  36  38
HETATM   38  C14 UNL     1       5.371  -0.511  -0.156  1.00  0.00     0.273 C 
BRANCH  38  39
HETATM   39  N2  UNL     1       6.391  -1.217  -0.909  1.00  0.00    -0.075 N 
ATOM     40  H23 UNL     1       6.102  -1.445  -1.860  1.00  0.00     0.274 HD
ATOM     41  H22 UNL     1       7.188  -0.630  -1.153  1.00  0.00     0.274 HD
ATOM     42  H21 UNL     1       6.650  -2.037  -0.361  1.00  0.00     0.274 HD
ENDBRANCH  38  39
ENDBRANCH  36  38
ENDBRANCH  11  35
BRANCH   6  43
HETATM   43  O2  UNL     1      -2.282  -1.560  -2.218  1.00  0.00    -0.357 OA
ATOM     44  H2  UNL     1      -1.510  -1.178  -2.619  1.00  0.00     0.217 HD
ENDBRANCH   6  43
BRANCH   1  45
HETATM   45  O1  UNL     1      -4.447  -2.647  -1.113  1.00  0.00    -0.353 OA
HETATM   46  C1  UNL     1      -5.607  -3.223  -0.537  1.00  0.00     0.210 C 
ENDBRANCH   1  45
TORSDOF 15
