REMARK  3 active torsions:
REMARK  status: ('A' for Active; 'I' for Inactive)
REMARK    1  A    between atoms: N1_1  and  C1_4 
REMARK    2  A    between atoms: C4_9  and  N3_10 
REMARK    3  A    between atoms: N4_13  and  N5_14 
ROOT
HETATM    1  C1  UNL     1      -0.432  -1.161   0.034  1.00  0.00     0.139 A 
HETATM    2  C2  UNL     1       0.890  -1.561   0.026  1.00  0.00     0.068 A 
HETATM    3  C3  UNL     1       1.925  -0.648  -0.011  1.00  0.00     0.110 A 
HETATM    4  N2  UNL     1       1.606   0.654  -0.039  1.00  0.00    -0.200 N 
ATOM      5  H2  UNL     1       2.345   1.357  -0.067  1.00  0.00     0.183 HD
HETATM    6  C4  UNL     1       0.319   1.037  -0.031  1.00  0.00     0.698 A 
HETATM    7  N4  UNL     1      -0.683   0.155   0.005  1.00  0.00    -0.077 N 
ENDROOT
BRANCH   1   8
HETATM    8  N1  UNL     1      -1.398  -2.047   0.070  1.00  0.00    -0.383 N 
ATOM      9  H12 UNL     1      -1.207  -3.049   0.092  1.00  0.00     0.157 HD
ATOM     10  H11 UNL     1      -2.374  -1.752   0.076  1.00  0.00     0.157 HD
ENDBRANCH   1   8
BRANCH   7  11
HETATM   11  N5  UNL     1      -2.017   0.606   0.012  1.00  0.00    -0.323 N 
ATOM     12  H52 UNL     1      -2.782  -0.068   0.039  1.00  0.00     0.178 HD
ATOM     13  H51 UNL     1      -2.208   1.608  -0.010  1.00  0.00     0.178 HD
ENDBRANCH   7  11
BRANCH   6  14
HETATM   14  N3  UNL     1      -0.003   2.311  -0.058  1.00  0.00    -0.233 N 
ATOM     15  H32 UNL     1       0.762   2.985  -0.085  1.00  0.00     0.174 HD
ATOM     16  H31 UNL     1      -0.981   2.602  -0.052  1.00  0.00     0.174 HD
ENDBRANCH   6  14
TORSDOF 3
