REMARK  14 active torsions:
REMARK  status: ('A' for Active; 'I' for Inactive)
REMARK    1  A    between atoms: C5_5  and  C6_6 
REMARK    2  A    between atoms: C6_6  and  C7_7 
REMARK    3  A    between atoms: C7_7  and  C8_8 
REMARK    4  A    between atoms: C8_8  and  O1_9 
REMARK    5  A    between atoms: C8_8  and  C9_11 
REMARK    6  A    between atoms: C9_11  and  O2_12 
REMARK    7  A    between atoms: C9_11  and  C10_14 
REMARK    8  A    between atoms: C11_15  and  C12_16 
REMARK    9  A    between atoms: N1_18  and  C14_19 
REMARK   10  A    between atoms: C14_19  and  C15_20 
REMARK       I    between atoms: C15_20  and  N2_22 
REMARK   11  A    between atoms: N2_22  and  C16_24 
REMARK   12  A    between atoms: C23_32  and  C24_33 
REMARK   13  A    between atoms: C24_33  and  O5_34 
REMARK   14  A    between atoms: C24_33  and  C25_36 
ROOT
HETATM    1  C12 UNL     1      -0.867   0.685  -0.717  1.00  0.00     0.033 C 
HETATM    2  C13 UNL     1      -1.573  -0.615  -0.533  1.00  0.00     0.135 C 
HETATM    3  N1  UNL     1      -2.997  -0.518  -0.360  1.00  0.00    -0.343 N 
HETATM    4  C21 UNL     1      -3.489   0.510   0.474  1.00  0.00     0.220 C 
HETATM    5  O4  UNL     1      -4.659   0.518   0.908  1.00  0.00    -0.273 OA
HETATM    6  C22 UNL     1      -2.495   1.604   0.806  1.00  0.00     0.110 C 
HETATM    7  C23 UNL     1      -1.765   1.902  -0.473  1.00  0.00     0.033 C 
ENDROOT
BRANCH   1   8
HETATM    8  C11 UNL     1       0.326   0.719   0.147  1.00  0.00    -0.021 C 
HETATM    9  C10 UNL     1       1.579   0.732  -0.307  1.00  0.00     0.003 C 
BRANCH   9  10
HETATM   10  C9  UNL     1       2.727   0.766   0.597  1.00  0.00     0.169 C 
BRANCH  10  11
HETATM   11  C8  UNL     1       4.016   0.393  -0.120  1.00  0.00     0.151 C 
BRANCH  11  12
HETATM   12  C7  UNL     1       3.987  -0.984  -0.660  1.00  0.00     0.039 C 
BRANCH  12  13
HETATM   13  C6  UNL     1       5.213  -1.366  -1.397  1.00  0.00     0.041 C 
BRANCH  13  14
HETATM   14  C5  UNL     1       6.452  -1.335  -0.645  1.00  0.00    -0.058 A 
HETATM   15  C4  UNL     1       6.821  -2.400   0.182  1.00  0.00     0.007 A 
HETATM   16  C3  UNL     1       8.005  -2.440   0.879  1.00  0.00     0.007 A 
HETATM   17  C2  UNL     1       8.893  -1.396   0.779  1.00  0.00    -0.062 A 
HETATM   18  C1  UNL     1      10.159  -1.472   1.545  1.00  0.00     0.048 C 
HETATM   19  C32 UNL     1       8.570  -0.330  -0.023  1.00  0.00     0.007 A 
HETATM   20  C31 UNL     1       7.388  -0.304  -0.710  1.00  0.00     0.007 A 
ENDBRANCH  13  14
ENDBRANCH  12  13
ENDBRANCH  11  12
BRANCH  11  21
HETATM   21  O1  UNL     1       5.046   0.554   0.790  1.00  0.00    -0.393 OA
ATOM     22  H1  UNL     1       5.065   1.438   1.137  1.00  0.00     0.210 HD
ENDBRANCH  11  21
ENDBRANCH  10  11
BRANCH  10  23
HETATM   23  O2  UNL     1       2.630  -0.110   1.673  1.00  0.00    -0.389 OA
ATOM     24  H2  UNL     1       1.825   0.123   2.121  1.00  0.00     0.210 HD
ENDBRANCH  10  23
ENDBRANCH   9  10
ENDBRANCH   1   8
BRANCH   7  25
HETATM   25  C24 UNL     1      -0.935   3.127  -0.485  1.00  0.00     0.127 C 
BRANCH  25  26
HETATM   26  O5  UNL     1       0.016   3.210   0.511  1.00  0.00    -0.395 OA
ATOM     27  H5  UNL     1       0.549   3.996   0.503  1.00  0.00     0.210 HD
ENDBRANCH  25  26
BRANCH  25  28
HETATM   28  C25 UNL     1      -1.580   4.438  -0.755  1.00  0.00     0.015 C 
HETATM   29  C26 UNL     1      -0.482   5.482  -0.710  1.00  0.00     0.007 C 
HETATM   30  C27 UNL     1      -0.970   6.866  -0.534  1.00  0.00     0.000 C 
HETATM   31  C28 UNL     1      -2.104   7.066   0.408  1.00  0.00     0.000 C 
HETATM   32  C29 UNL     1      -3.237   6.162  -0.034  1.00  0.00     0.000 C 
HETATM   33  C30 UNL     1      -2.708   4.730   0.146  1.00  0.00     0.007 C 
ENDBRANCH  25  28
ENDBRANCH   7  25
BRANCH   3  34
HETATM   34  C14 UNL     1      -3.888  -1.446  -1.005  1.00  0.00     0.228 C 
BRANCH  34  35
HETATM   35  C15 UNL     1      -4.143  -2.648  -0.211  1.00  0.00     0.235 C 
HETATM   36  O3  UNL     1      -3.588  -2.787   0.904  1.00  0.00    -0.272 OA
HETATM   37  N2  UNL     1      -5.007  -3.663  -0.679  1.00  0.00    -0.355 N 
ATOM     38  H2  UNL     1      -5.456  -3.542  -1.587  1.00  0.00     0.162 HD
BRANCH  37  39
HETATM   39  C16 UNL     1      -5.280  -4.858   0.070  1.00  0.00     0.084 C 
HETATM   40  C17 UNL     1      -6.724  -4.871   0.542  1.00  0.00     0.025 C 
HETATM   41  C18 UNL     1      -6.852  -6.294   1.045  1.00  0.00     0.002 C 
HETATM   42  C19 UNL     1      -5.831  -7.117   0.291  1.00  0.00     0.002 C 
HETATM   43  C20 UNL     1      -5.179  -6.132  -0.690  1.00  0.00     0.025 C 
ENDBRANCH  37  39
ENDBRANCH  34  35
ENDBRANCH   3  34
TORSDOF 14
