REMARK  3 active torsions:
REMARK  status: ('A' for Active; 'I' for Inactive)
REMARK    1  A    between atoms: N1_1  and  C1_5 
REMARK    2  A    between atoms: C1_5  and  O1_6 
REMARK    3  A    between atoms: N2_12  and  O2_13 
ROOT
HETATM    1  C1  UNL     1       0.951  -0.020  -0.354  1.00  0.00     0.304 C 
HETATM    2  C2  UNL     1       0.399  -1.148   0.408  1.00  0.00     0.088 C 
HETATM    3  C3  UNL     1      -1.047  -1.404   0.321  1.00  0.00     0.007 C 
HETATM    4  C4  UNL     1      -1.902  -0.273  -0.127  1.00  0.00     0.017 C 
HETATM    5  C5  UNL     1      -1.101   1.014   0.061  1.00  0.00     0.126 C 
HETATM    6  N2  UNL     1      -0.023   0.890  -0.888  1.00  0.00    -0.140 NA
ENDROOT
BRANCH   1   7
HETATM    7  N1  UNL     1       1.847   0.775   0.498  1.00  0.00    -0.031 N 
ATOM      8  H13 UNL     1       2.696   0.284   0.778  1.00  0.00     0.279 HD
ATOM      9  H12 UNL     1       2.312   1.540   0.010  1.00  0.00     0.279 HD
ATOM     10  H11 UNL     1       1.266   1.075   1.280  1.00  0.00     0.279 HD
ENDBRANCH   1   7
BRANCH   1  11
HETATM   11  O1  UNL     1       1.756  -0.436  -1.437  1.00  0.00    -0.352 OA
ATOM     12  H1  UNL     1       1.177  -0.950  -1.988  1.00  0.00     0.214 HD
ENDBRANCH   1  11
BRANCH   6  13
HETATM   13  O2  UNL     1       0.450   2.008  -1.367  1.00  0.00    -0.309 OA
ATOM     14  H2  UNL     1      -0.194   2.610  -1.720  1.00  0.00     0.237 HD
ENDBRANCH   6  13
TORSDOF 3
