REMARK  15 active torsions:
REMARK  status: ('A' for Active; 'I' for Inactive)
REMARK    1  A    between atoms: O1_2  and  C2_3 
REMARK    2  A    between atoms: C4_5  and  O2_6 
REMARK    3  A    between atoms: C5_8  and  O3_9 
REMARK    4  A    between atoms: O3_9  and  C6_10 
REMARK    5  A    between atoms: C7_12  and  O5_13 
REMARK    6  A    between atoms: O5_13  and  S1_14 
REMARK    7  A    between atoms: C8_18  and  O9_19 
REMARK    8  A    between atoms: C8_18  and  C9_21 
REMARK    9  A    between atoms: C10_24  and  O12_25 
REMARK   10  A    between atoms: O12_25  and  S2_26 
REMARK   11  A    between atoms: C11_30  and  O16_31 
REMARK   12  A    between atoms: C12_33  and  O17_34 
REMARK   13  A    between atoms: O17_34  and  S3_35 
REMARK   14  A    between atoms: C13_39  and  O21_40 
REMARK   15  A    between atoms: O21_40  and  S4_41 
ROOT
HETATM    1  C6  UNL     1      -1.045   0.164  -0.316  1.00  0.00     0.301 C 
HETATM    2  O4  UNL     1      -1.324  -1.113  -0.632  1.00  0.00    -0.323 OA
HETATM    3  C7  UNL     1      -2.563  -1.623  -0.429  1.00  0.00     0.332 C 
HETATM    4  C8  UNL     1      -3.567  -0.553  -0.867  1.00  0.00     0.227 C 
HETATM    5  C10 UNL     1      -3.500   0.457   0.271  1.00  0.00     0.229 C 
HETATM    6  C11 UNL     1      -2.115   1.040   0.210  1.00  0.00     0.208 C 
ENDROOT
BRANCH   1   7
HETATM    7  O3  UNL     1       0.135   0.167   0.511  1.00  0.00    -0.312 OA
BRANCH   7   8
HETATM    8  C5  UNL     1       1.337   0.702   0.137  1.00  0.00     0.143 A 
HETATM    9  C4  UNL     1       1.585   2.018   0.432  1.00  0.00     0.104 A 
HETATM   10  C3  UNL     1       2.780   2.613   0.078  1.00  0.00     0.079 A 
HETATM   11  C2  UNL     1       3.733   1.910  -0.568  1.00  0.00     0.108 A 
HETATM   12  C13 UNL     1       3.544   0.557  -0.901  1.00  0.00     0.160 A 
HETATM   13  C12 UNL     1       2.343  -0.000  -0.533  1.00  0.00     0.165 A 
BRANCH   9  14
HETATM   14  O2  UNL     1       0.646   2.802   1.099  1.00  0.00    -0.358 OA
ATOM     15  H2  UNL     1      -0.176   2.393   1.343  1.00  0.00     0.217 HD
ENDBRANCH   9  14
BRANCH  11  16
HETATM   16  O1  UNL     1       4.926   2.525  -0.916  1.00  0.00    -0.353 OA
HETATM   17  C1  UNL     1       5.210   3.873  -0.628  1.00  0.00     0.210 C 
ENDBRANCH  11  16
BRANCH  12  18
HETATM   18  O21 UNL     1       4.562  -0.075  -1.562  1.00  0.00    -0.227 OA
BRANCH  18  19
HETATM   19  S4  UNL     1       5.899  -0.864  -0.960  1.00  0.00     0.266 S 
HETATM   20  C14 UNL     1       5.899  -1.153   0.771  1.00  0.00     0.194 C 
HETATM   21  O22 UNL     1       6.084  -2.202  -1.659  1.00  0.00    -0.199 OA
HETATM   22  O23 UNL     1       7.187  -0.107  -1.281  1.00  0.00    -0.199 OA
ENDBRANCH  18  19
ENDBRANCH  12  18
BRANCH  13  23
HETATM   23  O17 UNL     1       2.047  -1.318  -0.812  1.00  0.00    -0.208 OA
BRANCH  23  24
HETATM   24  S3  UNL     1       2.305  -2.653   0.161  1.00  0.00     0.257 S 
HETATM   25  O18 UNL     1       3.378  -3.574  -0.272  1.00  0.00    -0.572 OA
HETATM   26  O19 UNL     1       2.534  -2.183   1.581  1.00  0.00    -0.572 OA
HETATM   27  O20 UNL     1       0.869  -3.580   0.108  1.00  0.00    -0.572 OA
ENDBRANCH  23  24
ENDBRANCH  13  23
ENDBRANCH   7   8
ENDBRANCH   1   7
BRANCH   6  28
HETATM   28  O16 UNL     1      -2.264   2.241  -0.528  1.00  0.00    -0.388 OA
ATOM     29  H16 UNL     1      -2.951   2.803  -0.190  1.00  0.00     0.210 HD
ENDBRANCH   6  28
BRANCH   3  30
HETATM   30  O5  UNL     1      -2.744  -1.931   0.916  1.00  0.00    -0.220 OA
BRANCH  30  31
HETATM   31  S1  UNL     1      -3.133  -3.518   1.207  1.00  0.00     0.254 S 
HETATM   32  O6  UNL     1      -4.292  -3.577   2.194  1.00  0.00    -0.572 OA
HETATM   33  O7  UNL     1      -1.959  -4.173   1.893  1.00  0.00    -0.572 OA
HETATM   34  O8  UNL     1      -3.561  -4.371  -0.160  1.00  0.00    -0.572 OA
ENDBRANCH  30  31
ENDBRANCH   3  30
BRANCH   5  35
HETATM   35  O12 UNL     1      -4.455   1.438   0.169  1.00  0.00    -0.245 OA
BRANCH  35  36
HETATM   36  S2  UNL     1      -5.443   1.572   1.514  1.00  0.00     0.252 S 
HETATM   37  O13 UNL     1      -5.332   0.413   2.432  1.00  0.00    -0.572 OA
HETATM   38  O14 UNL     1      -6.881   1.754   1.135  1.00  0.00    -0.572 OA
HETATM   39  O15 UNL     1      -4.938   2.947   2.359  1.00  0.00    -0.572 OA
ENDBRANCH  35  36
ENDBRANCH   5  35
BRANCH   4  40
HETATM   40  O9  UNL     1      -2.972   0.074  -1.988  1.00  0.00    -0.373 OA
ATOM     41  H9  UNL     1      -3.595   0.738  -2.260  1.00  0.00     0.211 HD
ENDBRANCH   4  40
BRANCH   4  42
HETATM   42  C9  UNL     1      -4.895  -1.051  -1.156  1.00  0.00     0.217 C 
HETATM   43  O10 UNL     1      -5.559  -1.627  -0.274  1.00  0.00    -0.645 OA
HETATM   44  O11 UNL     1      -5.445  -0.897  -2.408  1.00  0.00    -0.645 OA
ENDBRANCH   4  42
TORSDOF 15
