REMARK  16 active torsions:
REMARK  status: ('A' for Active; 'I' for Inactive)
REMARK    1  A    between atoms: C3_3  and  C4_4 
REMARK    2  A    between atoms: C8_9  and  C9_10 
REMARK    3  A    between atoms: C9_10  and  O2_11 
REMARK    4  A    between atoms: C10_18  and  C11_19 
REMARK    5  A    between atoms: C11_19  and  N3_20 
REMARK    6  A    between atoms: C11_19  and  C20_48 
REMARK    7  A    between atoms: C12_22  and  C13_23 
REMARK    8  A    between atoms: C12_22  and  C14_26 
REMARK    9  A    between atoms: C14_26  and  O6_27 
REMARK   10  A    between atoms: C14_26  and  N4_29 
REMARK   11  A    between atoms: C17_37  and  N7_38 
REMARK       I    between atoms: N7_38  and  C18_40 
REMARK   12  A    between atoms: C21_51  and  N11_52 
REMARK   13  A    between atoms: N11_52  and  C22_53 
REMARK   14  A    between atoms: C22_53  and  C23_54 
REMARK   15  A    between atoms: C22_53  and  C24_57 
REMARK   16  A    between atoms: C24_57  and  O12_59 
ROOT
HETATM    1  C11 UNL     1       0.292   0.159  -2.288  1.00  0.00     0.239 C 
ENDROOT
BRANCH   1   2
HETATM    2  C10 UNL     1      -0.841   0.728  -1.475  1.00  0.00     0.100 A 
HETATM    3  N2  UNL     1      -0.909   1.998  -1.157  1.00  0.00    -0.298 N 
HETATM    4  N1  UNL     1      -1.902   2.511  -0.416  1.00  0.00    -0.297 N 
ATOM      5  H2  UNL     1      -0.174   2.623  -1.488  1.00  0.00     0.186 HD
HETATM    6  C3  UNL     1      -2.889   1.731   0.042  1.00  0.00     0.091 A 
ATOM      7  H1  UNL     1      -1.905   3.508  -0.199  1.00  0.00     0.187 HD
HETATM    8  C2  UNL     1      -2.885   0.370  -0.258  1.00  0.00     0.012 A 
HETATM    9  C1  UNL     1      -3.993  -0.516   0.173  1.00  0.00     0.054 C 
HETATM   10  C21 UNL     1      -1.833  -0.160  -1.037  1.00  0.00     0.142 A 
BRANCH   6  11
HETATM   11  C4  UNL     1      -3.933   2.301   0.904  1.00  0.00     0.108 A 
HETATM   12  C5  UNL     1      -3.953   3.671   1.108  1.00  0.00     0.094 A 
HETATM   13  C6  UNL     1      -4.937   4.249   1.927  1.00  0.00     0.177 A 
HETATM   14  O1  UNL     1      -4.971   5.502   2.127  1.00  0.00    -0.288 OA
HETATM   15  C7  UNL     1      -5.858   3.419   2.504  1.00  0.00     0.089 A 
HETATM   16  C8  UNL     1      -5.770   2.059   2.249  1.00  0.00     0.081 A 
HETATM   17  O3  UNL     1      -4.838   1.582   1.483  1.00  0.00    -0.310 OA
BRANCH  16  18
HETATM   18  C9  UNL     1      -6.819   1.209   2.919  1.00  0.00     0.229 C 
BRANCH  18  19
HETATM   19  O2  UNL     1      -7.970   1.331   2.112  1.00  0.00    -0.394 OA
ATOM     20  H2  UNL     1      -8.631   0.795   2.534  1.00  0.00     0.209 HD
ENDBRANCH  18  19
ENDBRANCH  16  18
ENDBRANCH   6  11
BRANCH  10  21
HETATM   21  N11 UNL     1      -1.729  -1.317  -1.292  1.00  0.00    -0.398 NA
BRANCH  21  22
HETATM   22  C22 UNL     1      -1.593  -2.589  -1.587  1.00  0.00     0.189 C 
BRANCH  22  23
HETATM   23  C23 UNL     1      -1.996  -3.643  -0.560  1.00  0.00     0.239 C 
HETATM   24  O10 UNL     1      -1.300  -3.837   0.468  1.00  0.00    -0.642 OA
HETATM   25  O11 UNL     1      -3.129  -4.419  -0.719  1.00  0.00    -0.642 OA
ENDBRANCH  22  23
BRANCH  22  26
HETATM   26  C24 UNL     1      -2.065  -3.076  -2.965  1.00  0.00     0.185 C 
HETATM   27  C25 UNL     1      -3.488  -2.761  -3.238  1.00  0.00     0.047 C 
BRANCH  26  28
HETATM   28  O12 UNL     1      -1.828  -4.421  -3.023  1.00  0.00    -0.389 OA
ATOM     29  H12 UNL     1      -2.120  -4.722  -3.875  1.00  0.00     0.210 HD
ENDBRANCH  26  28
ENDBRANCH  22  26
ENDBRANCH  21  22
ENDBRANCH  10  21
ENDBRANCH   1   2
BRANCH   1  30
HETATM   30  N3  UNL     1       1.460   0.091  -1.588  1.00  0.00    -0.362 N 
HETATM   31  C12 UNL     1       2.581  -0.542  -1.800  1.00  0.00     0.160 C 
ATOM     32  H3  UNL     1       1.457   0.643  -0.730  1.00  0.00     0.161 HD
BRANCH  31  33
HETATM   33  C13 UNL     1       2.791  -1.370  -2.946  1.00  0.00     0.231 C 
HETATM   34  O4  UNL     1       1.842  -1.501  -3.800  1.00  0.00    -0.643 OA
HETATM   35  O5  UNL     1       3.961  -2.050  -3.202  1.00  0.00    -0.643 OA
ENDBRANCH  31  33
BRANCH  31  36
HETATM   36  C14 UNL     1       3.585  -0.327  -0.769  1.00  0.00     0.199 C 
BRANCH  36  37
HETATM   37  O6  UNL     1       3.149   0.471   0.174  1.00  0.00    -0.343 OA
ATOM     38  H6  UNL     1       3.805   0.611   0.847  1.00  0.00     0.219 HD
ENDBRANCH  36  37
BRANCH  36  39
HETATM   39  N4  UNL     1       4.867  -0.791  -0.605  1.00  0.00    -0.198 N 
HETATM   40  N5  UNL     1       5.644  -1.584  -1.303  1.00  0.00    -0.232 N 
HETATM   41  N6  UNL     1       6.826  -1.777  -0.791  1.00  0.00    -0.280 N 
ATOM     42  H5  UNL     1       5.346  -2.016  -2.178  1.00  0.00     0.209 HD
HETATM   43  C15 UNL     1       6.884  -1.066   0.356  1.00  0.00     0.118 A 
ATOM     44  H6  UNL     1       7.569  -2.356  -1.183  1.00  0.00     0.188 HD
HETATM   45  C16 UNL     1       7.869  -0.887   1.315  1.00  0.00     0.180 A 
HETATM   46  C19 UNL     1       5.662  -0.447   0.479  1.00  0.00     0.164 A 
HETATM   47  O7  UNL     1       7.583  -0.110   2.331  1.00  0.00    -0.289 OA
HETATM   48  C17 UNL     1       6.426   0.476   2.446  1.00  0.00     0.232 A 
HETATM   49  N10 UNL     1       5.436   0.336   1.546  1.00  0.00    -0.304 N 
ATOM     50  H10 UNL     1       4.541   0.810   1.670  1.00  0.00     0.171 HD
BRANCH  48  51
HETATM   51  N7  UNL     1       6.206   1.221   3.458  1.00  0.00    -0.296 N 
HETATM   52  C18 UNL     1       7.147   1.470   4.496  1.00  0.00     0.189 C 
HETATM   53  N8  UNL     1       7.036   2.541   5.222  1.00  0.00    -0.373 N 
HETATM   54  N9  UNL     1       8.228   0.602   4.796  1.00  0.00    -0.064 NA
ATOM     55  H82 UNL     1       6.259   3.165   5.006  1.00  0.00     0.158 HD
ATOM     56  H81 UNL     1       7.711   2.719   5.966  1.00  0.00     0.158 HD
ATOM     57  H7  UNL     1       5.292   1.669   3.528  1.00  0.00     0.172 HD
ENDBRANCH  48  51
ENDBRANCH  36  39
ENDBRANCH  31  36
ENDBRANCH   1  30
BRANCH   1  58
HETATM   58  C20 UNL     1       0.440   1.160  -3.422  1.00  0.00     0.203 C 
HETATM   59  O8  UNL     1       1.492   1.823  -3.504  1.00  0.00    -0.646 OA
HETATM   60  O9  UNL     1      -0.586   1.299  -4.312  1.00  0.00    -0.646 OA
ENDBRANCH   1  58
TORSDOF 16
