REMARK  3 active torsions:
REMARK  status: ('A' for Active; 'I' for Inactive)
REMARK    1  A    between atoms: C2_2  and  C3_6 
REMARK    2  A    between atoms: C3_6  and  C4_7 
REMARK    3  A    between atoms: C6_16  and  N4_17 
REMARK       I    between atoms: N4_17  and  C7_19 
ROOT
HETATM    1  C3  UNL     1      -0.869   0.129  -0.327  1.00  0.00     0.149 C 
HETATM    2  C5  UNL     1      -1.178   0.736  -1.664  1.00  0.00     0.196 C 
HETATM    3  S1  UNL     1      -0.012   2.075  -1.723  1.00  0.00     0.233 S 
HETATM    4  O2  UNL     1      -0.630   3.400  -1.404  1.00  0.00    -0.206 OA
HETATM    5  O3  UNL     1       0.696   2.095  -3.048  1.00  0.00    -0.206 OA
HETATM    6  N3  UNL     1       1.024   1.491  -0.494  1.00  0.00    -0.272 N 
ATOM      7  H3  UNL     1       1.950   1.864  -0.285  1.00  0.00     0.180 HD
HETATM    8  C6  UNL     1       0.475   0.528   0.119  1.00  0.00     0.117 C 
ENDROOT
BRANCH   1   9
HETATM    9  C2  UNL     1      -0.959  -1.348  -0.465  1.00  0.00     0.002 C 
HETATM   10  C1  UNL     1      -0.827  -2.268   0.697  1.00  0.00     0.064 C 
HETATM   11  N1  UNL     1      -1.155  -1.859  -1.617  1.00  0.00    -0.404 N 
ATOM     12  H12 UNL     1      -1.217  -2.873  -1.712  1.00  0.00     0.155 HD
ATOM     13  H11 UNL     1      -1.245  -1.228  -2.414  1.00  0.00     0.155 HD
ENDBRANCH   1   9
BRANCH   1  14
HETATM   14  C4  UNL     1      -1.929   0.644   0.599  1.00  0.00     0.254 C 
HETATM   15  N2  UNL     1      -2.013   2.031   0.886  1.00  0.00    -0.061 NA
HETATM   16  O1  UNL     1      -2.771  -0.103   1.151  1.00  0.00    -0.275 OA
ENDBRANCH   1  14
BRANCH   8  17
HETATM   17  N4  UNL     1       1.220  -0.103   1.208  1.00  0.00    -0.319 N 
HETATM   18  C7  UNL     1       2.550  -0.520   1.056  1.00  0.00     0.187 C 
HETATM   19  N5  UNL     1       2.981  -1.548   1.681  1.00  0.00    -0.373 N 
HETATM   20  N6  UNL     1       3.437   0.183   0.215  1.00  0.00    -0.064 NA
ATOM     21  H52 UNL     1       2.339  -2.057   2.289  1.00  0.00     0.158 HD
ATOM     22  H51 UNL     1       3.949  -1.851   1.570  1.00  0.00     0.158 HD
ATOM     23  H4  UNL     1       0.758  -0.244   2.106  1.00  0.00     0.169 HD
ENDBRANCH   8  17
TORSDOF 3
