REMARK  8 active torsions:
REMARK  status: ('A' for Active; 'I' for Inactive)
REMARK    1  A    between atoms: C3_3  and  C4_4 
REMARK    2  A    between atoms: C4_4  and  O2_6 
REMARK    3  A    between atoms: O2_6  and  C5_7 
REMARK    4  A    between atoms: C9_15  and  N3_16 
REMARK       I    between atoms: N3_16  and  C10_18 
REMARK       I    between atoms: C10_18  and  N6_23 
REMARK    5  A    between atoms: N6_23  and  O3_25 
REMARK    6  A    between atoms: O3_25  and  C12_26 
REMARK    7  A    between atoms: C12_26  and  C13_27 
REMARK    8  A    between atoms: C13_27  and  N7_28 
ROOT
HETATM    1  C5  UNL     1       3.604  -2.036  -3.864  1.00  0.00     0.302 C 
HETATM    2  C6  UNL     1       5.063  -2.003  -3.985  1.00  0.00     0.085 C 
HETATM    3  N1  UNL     1       6.215  -1.962  -4.094  1.00  0.00    -0.195 NA
ENDROOT
BRANCH   1   4
HETATM    4  O2  UNL     1       3.110  -1.141  -2.913  1.00  0.00    -0.304 OA
BRANCH   4   5
HETATM    5  C4  UNL     1       3.387  -1.110  -1.594  1.00  0.00     0.290 C 
HETATM    6  O1  UNL     1       4.211  -2.035  -1.208  1.00  0.00    -0.260 OA
BRANCH   5   7
HETATM    7  C3  UNL     1       2.911  -0.226  -0.601  1.00  0.00     0.024 C 
HETATM    8  C2  UNL     1       2.073   0.726  -0.955  1.00  0.00    -0.062 C 
HETATM    9  C1  UNL     1       1.742   0.732  -2.380  1.00  0.00     0.045 C 
HETATM   10  C15 UNL     1       1.376   1.828  -0.202  1.00  0.00     0.110 C 
HETATM   11  S1  UNL     1      -0.040   1.242   0.727  1.00  0.00    -0.128 SA
HETATM   12  C14 UNL     1       0.461   0.419   2.256  1.00  0.00     0.300 C 
HETATM   13  C9  UNL     1       0.146  -1.055   2.091  1.00  0.00     0.342 C 
HETATM   14  N8  UNL     1       1.911   0.515   2.342  1.00  0.00    -0.029 N 
HETATM   15  N2  UNL     1       1.299  -1.515   1.380  1.00  0.00    -0.022 N 
HETATM   16  C8  UNL     1       2.407  -0.706   1.802  1.00  0.00     0.391 C 
ATOM     17  H22 UNL     1       1.169  -1.519   0.368  1.00  0.00     0.282 HD
ATOM     18  H21 UNL     1       1.467  -2.514   1.495  1.00  0.00     0.282 HD
HETATM   19  C7  UNL     1       3.481  -0.553   0.757  1.00  0.00     0.107 C 
ATOM     20  H82 UNL     1       2.253   0.717   3.281  1.00  0.00     0.281 HD
ATOM     21  H81 UNL     1       2.294   1.347   1.893  1.00  0.00     0.281 HD
BRANCH  13  22
HETATM   22  N3  UNL     1      -1.051  -1.222   1.296  1.00  0.00    -0.191 N 
HETATM   23  C10 UNL     1      -2.289  -0.683   1.702  1.00  0.00     0.708 C 
HETATM   24  N4  UNL     1      -2.410  -0.162   2.860  1.00  0.00    -0.124 N 
HETATM   25  N6  UNL     1      -3.395  -0.718   0.830  1.00  0.00    -0.096 N 
HETATM   26  C11 UNL     1      -3.602   0.394   3.337  1.00  0.00     0.196 C 
ATOM     27  H4  UNL     1      -1.594  -0.150   3.471  1.00  0.00     0.197 HD
HETATM   28  N5  UNL     1      -4.603   0.846   3.746  1.00  0.00    -0.171 NA
ATOM     29  H6  UNL     1      -3.439  -1.487   0.161  1.00  0.00     0.213 HD
ATOM     30  H3  UNL     1      -0.998  -1.742   0.420  1.00  0.00     0.180 HD
BRANCH  25  31
HETATM   31  O3  UNL     1      -4.388   0.170   0.807  1.00  0.00    -0.265 OA
BRANCH  31  32
HETATM   32  C12 UNL     1      -4.110   1.271   0.002  1.00  0.00     0.229 C 
BRANCH  32  33
HETATM   33  C13 UNL     1      -5.237   2.264  -0.015  1.00  0.00     0.258 C 
BRANCH  33  34
HETATM   34  N7  UNL     1      -6.452   1.681  -0.513  1.00  0.00    -0.077 N 
ATOM     35  H73 UNL     1      -6.313   1.260  -1.432  1.00  0.00     0.274 HD
ATOM     36  H72 UNL     1      -6.703   0.842   0.010  1.00  0.00     0.274 HD
ATOM     37  H71 UNL     1      -7.217   2.355  -0.525  1.00  0.00     0.274 HD
ENDBRANCH  33  34
ENDBRANCH  32  33
ENDBRANCH  31  32
ENDBRANCH  25  31
ENDBRANCH  13  22
ENDBRANCH   5   7
ENDBRANCH   4   5
ENDBRANCH   1   4
TORSDOF 8
