REMARK  21 active torsions:
REMARK  status: ('A' for Active; 'I' for Inactive)
REMARK       I    between atoms: N1_2  and  C2_4 
REMARK    1  A    between atoms: C2_4  and  C3_6 
REMARK    2  A    between atoms: C3_6  and  C4_7 
REMARK    3  A    between atoms: C3_6  and  N2_14 
REMARK    4  A    between atoms: C4_7  and  C5_8 
REMARK       I    between atoms: N2_14  and  C11_16 
REMARK    5  A    between atoms: C11_16  and  C12_18 
REMARK    6  A    between atoms: C12_18  and  N3_20 
REMARK       I    between atoms: N3_20  and  C14_22 
REMARK    7  A    between atoms: C14_22  and  C15_24 
REMARK    8  A    between atoms: C15_24  and  C16_26 
REMARK    9  A    between atoms: C16_26  and  C17_27 
REMARK   10  A    between atoms: C17_27  and  O5_28 
REMARK   11  A    between atoms: C17_27  and  C18_30 
REMARK   12  A    between atoms: C18_30  and  C19_31 
REMARK   13  A    between atoms: C18_30  and  N4_35 
REMARK   14  A    between atoms: C19_31  and  C20_32 
REMARK   15  A    between atoms: N4_35  and  C23_37 
REMARK   16  A    between atoms: C23_37  and  C24_38 
REMARK   17  A    between atoms: C23_37  and  C26_41 
REMARK   18  A    between atoms: C26_41  and  C27_42 
REMARK   19  A    between atoms: C26_41  and  N5_46 
REMARK       I    between atoms: N5_46  and  C31_48 
REMARK   20  A    between atoms: C31_48  and  O8_50 
REMARK   21  A    between atoms: O8_50  and  C32_51 
ROOT
HETATM    1  C17 UNL     1      -1.422   1.317   0.136  1.00  0.00     0.171 C 
ENDROOT
BRANCH   1   2
HETATM    2  C16 UNL     1      -0.249   0.897  -0.750  1.00  0.00     0.126 C 
BRANCH   2   3
HETATM    3  C15 UNL     1       1.043   1.429  -0.274  1.00  0.00     0.219 C 
HETATM    4  O4  UNL     1       1.124   2.121   0.756  1.00  0.00    -0.287 OA
BRANCH   3   5
HETATM    5  C14 UNL     1       2.223   1.130  -1.030  1.00  0.00     0.288 C 
HETATM    6  N3  UNL     1       3.502   1.565  -0.590  1.00  0.00    -0.342 N 
ATOM      7  H3  UNL     1       3.591   2.099   0.274  1.00  0.00     0.163 HD
HETATM    8  O3  UNL     1       2.158   0.475  -2.096  1.00  0.00    -0.264 OA
BRANCH   6   9
HETATM    9  C12 UNL     1       4.698   1.242  -1.385  1.00  0.00     0.173 C 
HETATM   10  C13 UNL     1       5.499   2.527  -1.483  1.00  0.00     0.042 C 
BRANCH   9  11
HETATM   11  C11 UNL     1       5.460   0.236  -0.555  1.00  0.00     0.240 C 
HETATM   12  N2  UNL     1       6.401  -0.592  -1.195  1.00  0.00    -0.346 N 
ATOM     13  H2  UNL     1       6.560  -0.506  -2.199  1.00  0.00     0.163 HD
HETATM   14  O2  UNL     1       5.269   0.124   0.677  1.00  0.00    -0.271 OA
BRANCH  12  15
HETATM   15  C3  UNL     1       7.144  -1.568  -0.422  1.00  0.00     0.177 C 
BRANCH  15  16
HETATM   16  C2  UNL     1       6.427  -2.884  -0.666  1.00  0.00     0.240 C 
HETATM   17  N1  UNL     1       6.934  -4.025  -0.010  1.00  0.00    -0.364 N 
HETATM   18  C1  UNL     1       6.311  -5.316  -0.188  1.00  0.00     0.149 C 
ATOM     19  H1  UNL     1       7.749  -3.938   0.597  1.00  0.00     0.161 HD
HETATM   20  O1  UNL     1       5.432  -2.907  -1.425  1.00  0.00    -0.271 OA
ENDBRANCH  15  16
BRANCH  15  21
HETATM   21  C4  UNL     1       8.533  -1.632  -0.961  1.00  0.00     0.039 C 
BRANCH  21  22
HETATM   22  C5  UNL     1       9.246  -0.339  -0.723  1.00  0.00    -0.012 C 
HETATM   23  C6  UNL     1      10.650  -0.430  -1.315  1.00  0.00     0.005 C 
HETATM   24  C7  UNL     1      11.358   0.919  -1.140  1.00  0.00     0.000 C 
HETATM   25  C8  UNL     1      11.419   1.243   0.319  1.00  0.00     0.000 C 
HETATM   26  C9  UNL     1      10.759   0.243   1.213  1.00  0.00     0.000 C 
HETATM   27  C10 UNL     1       9.334  -0.061   0.768  1.00  0.00     0.005 C 
ENDBRANCH  21  22
ENDBRANCH  15  21
ENDBRANCH  12  15
ENDBRANCH   9  11
ENDBRANCH   6   9
ENDBRANCH   3   5
ENDBRANCH   2   3
ENDBRANCH   1   2
BRANCH   1  28
HETATM   28  O5  UNL     1      -1.151   0.839   1.409  1.00  0.00    -0.389 OA
ATOM     29  H5  UNL     1      -1.880   1.100   1.960  1.00  0.00     0.210 HD
ENDBRANCH   1  28
BRANCH   1  30
HETATM   30  C18 UNL     1      -2.725   0.869  -0.434  1.00  0.00     0.016 C 
BRANCH  30  31
HETATM   31  C19 UNL     1      -2.588  -0.611  -0.899  1.00  0.00     0.059 C 
BRANCH  31  32
HETATM   32  C20 UNL     1      -2.260  -1.621   0.078  1.00  0.00    -0.017 C 
HETATM   33  C21 UNL     1      -3.148  -1.891   1.233  1.00  0.00     0.010 C 
HETATM   34  C22 UNL     1      -1.996  -2.994  -0.578  1.00  0.00     0.010 C 
ENDBRANCH  31  32
ENDBRANCH  30  31
BRANCH  30  35
HETATM   35  N4  UNL     1      -3.960   1.110   0.040  1.00  0.00    -0.356 N 
ATOM     36  H4  UNL     1      -4.438   0.254   0.321  1.00  0.00     0.166 HD
BRANCH  35  37
HETATM   37  C23 UNL     1      -4.767   2.269   0.247  1.00  0.00     0.105 C 
BRANCH  37  38
HETATM   38  C24 UNL     1      -4.347   3.060   1.371  1.00  0.00     0.174 C 
HETATM   39  C25 UNL     1      -5.156   3.510   2.543  1.00  0.00     0.098 C 
HETATM   40  O6  UNL     1      -3.190   3.440   1.464  1.00  0.00    -0.291 OA
ENDBRANCH  37  38
BRANCH  37  41
HETATM   41  C26 UNL     1      -6.176   1.914  -0.074  1.00  0.00     0.067 C 
BRANCH  41  42
HETATM   42  C27 UNL     1      -7.311   2.759  -0.185  1.00  0.00     0.034 C 
HETATM   43  C28 UNL     1      -8.128   3.676   0.510  1.00  0.00    -0.085 C 
HETATM   44  C29 UNL     1      -8.881   3.390   1.760  1.00  0.00     0.043 C 
HETATM   45  C30 UNL     1      -7.768   5.150   0.486  1.00  0.00     0.043 C 
ENDBRANCH  41  42
BRANCH  41  46
HETATM   46  N5  UNL     1      -6.511   0.617   0.592  1.00  0.00    -0.300 N 
HETATM   47  C31 UNL     1      -6.735  -0.581  -0.100  1.00  0.00     0.366 C 
HETATM   48  O7  UNL     1      -6.657  -0.629  -1.376  1.00  0.00    -0.238 OA
ATOM     49  H5  UNL     1      -6.580   0.604   1.610  1.00  0.00     0.171 HD
BRANCH  47  50
HETATM   50  O8  UNL     1      -7.051  -1.770   0.504  1.00  0.00    -0.294 OA
BRANCH  50  51
HETATM   51  C32 UNL     1      -7.297  -2.996  -0.066  1.00  0.00     0.061 C 
HETATM   52  C33 UNL     1      -7.618  -4.076   0.955  1.00  0.00     0.046 C 
HETATM   53  C34 UNL     1      -8.550  -2.860  -0.943  1.00  0.00     0.046 C 
HETATM   54  C35 UNL     1      -6.238  -3.555  -0.982  1.00  0.00     0.046 C 
ENDBRANCH  50  51
ENDBRANCH  47  50
ENDBRANCH  41  46
ENDBRANCH  37  41
ENDBRANCH  35  37
ENDBRANCH  30  35
ENDBRANCH   1  30
TORSDOF 21
