REMARK  13 active torsions:
REMARK  status: ('A' for Active; 'I' for Inactive)
REMARK    1  A    between atoms: C2_2  and  C4_4 
REMARK    2  A    between atoms: C5_6  and  N1_7 
REMARK       I    between atoms: N1_7  and  C6_9 
REMARK    3  A    between atoms: C6_9  and  C7_11 
REMARK    4  A    between atoms: C7_11  and  C8_12 
REMARK    5  A    between atoms: C8_12  and  C9_13 
REMARK    6  A    between atoms: C9_13  and  C10_14 
REMARK    7  A    between atoms: C13_21  and  N4_22 
REMARK    8  A    between atoms: C16_31  and  C17_32 
REMARK    9  A    between atoms: C17_32  and  C18_33 
REMARK   10  A    between atoms: C18_33  and  O3_34 
REMARK   11  A    between atoms: O3_34  and  C19_35 
REMARK   12  A    between atoms: C19_35  and  C20_36 
REMARK   13  A    between atoms: C20_36  and  O4_37 
ROOT
HETATM    1  N1  UNL     1       0.548   0.937   1.101  1.00  0.00    -0.316 N 
ATOM      2  H1  UNL     1       0.834   1.568   1.850  1.00  0.00     0.170 HD
HETATM    3  C6  UNL     1       1.463   0.505   0.073  1.00  0.00     0.222 C 
HETATM    4  O1  UNL     1       1.678   1.250  -0.876  1.00  0.00    -0.273 OA
ENDROOT
BRANCH   3   5
HETATM    5  C7  UNL     1       2.080  -0.820   0.237  1.00  0.00     0.103 C 
BRANCH   5   6
HETATM    6  C8  UNL     1       2.859  -1.317  -0.911  1.00  0.00     0.014 C 
BRANCH   6   7
HETATM    7  C9  UNL     1       4.060  -0.516  -1.240  1.00  0.00     0.042 C 
BRANCH   7   8
HETATM    8  C10 UNL     1       5.053  -0.589  -0.138  1.00  0.00    -0.023 A 
HETATM    9  C11 UNL     1       5.123  -1.429   0.953  1.00  0.00     0.098 A 
HETATM   10  N2  UNL     1       6.239  -1.134   1.656  1.00  0.00    -0.350 N 
HETATM   11  C12 UNL     1       6.899  -0.134   1.064  1.00  0.00     0.137 A 
ATOM     12  H2  UNL     1       6.534  -1.605   2.511  1.00  0.00     0.166 HD
HETATM   13  N3  UNL     1       8.052   0.530   1.334  1.00  0.00    -0.176 N 
HETATM   14  C15 UNL     1       6.178   0.223  -0.058  1.00  0.00     0.085 A 
HETATM   15  C13 UNL     1       8.457   1.513   0.502  1.00  0.00     0.680 A 
ATOM     16  H3  UNL     1       8.606   0.289   2.156  1.00  0.00     0.186 HD
HETATM   17  N5  UNL     1       7.777   1.871  -0.582  1.00  0.00    -0.155 N 
HETATM   18  C14 UNL     1       6.611   1.228  -0.889  1.00  0.00     0.274 A 
ATOM     19  H5  UNL     1       8.123   2.621  -1.181  1.00  0.00     0.187 HD
HETATM   20  O2  UNL     1       5.977   1.580  -1.922  1.00  0.00    -0.267 OA
BRANCH  15  21
HETATM   21  N4  UNL     1       9.557   2.112   0.788  1.00  0.00    -0.234 N 
ATOM     22  H42 UNL     1      10.079   1.837   1.620  1.00  0.00     0.174 HD
ATOM     23  H41 UNL     1       9.863   2.855   0.159  1.00  0.00     0.174 HD
ENDBRANCH  15  21
ENDBRANCH   7   8
ENDBRANCH   6   7
ENDBRANCH   5   6
ENDBRANCH   3   5
BRANCH   1  24
HETATM   24  C5  UNL     1      -0.644   0.481   1.016  1.00  0.00     0.119 A 
HETATM   25  S1  UNL     1      -1.199  -0.568  -0.195  1.00  0.00    -0.064 SA
HETATM   26  C4  UNL     1      -2.861  -0.959   0.088  1.00  0.00     0.025 A 
HETATM   27  C16 UNL     1      -3.329  -0.331   1.216  1.00  0.00     0.005 A 
HETATM   28  S2  UNL     1      -2.075   0.605   1.914  1.00  0.00    -0.068 SA
BRANCH  26  29
HETATM   29  C2  UNL     1      -3.543  -1.830  -0.858  1.00  0.00    -0.053 C 
HETATM   30  C1  UNL     1      -4.356  -2.807  -0.559  1.00  0.00     0.020 C 
HETATM   31  C3  UNL     1      -3.292  -1.531  -2.322  1.00  0.00     0.049 C 
ENDBRANCH  26  29
BRANCH  27  32
HETATM   32  C17 UNL     1      -4.681  -0.418   1.794  1.00  0.00     0.074 C 
BRANCH  32  33
HETATM   33  C18 UNL     1      -5.703   0.359   0.968  1.00  0.00     0.172 C 
BRANCH  33  34
HETATM   34  O3  UNL     1      -6.961   0.265   1.492  1.00  0.00    -0.389 OA
BRANCH  34  35
HETATM   35  C19 UNL     1      -7.958   0.877   0.794  1.00  0.00     0.193 C 
BRANCH  35  36
HETATM   36  C20 UNL     1      -7.839   2.344   0.583  1.00  0.00     0.190 C 
BRANCH  36  37
HETATM   37  O4  UNL     1      -8.951   2.778  -0.149  1.00  0.00    -0.399 OA
ATOM     38  H4  UNL     1      -8.875   3.715  -0.284  1.00  0.00     0.209 HD
ENDBRANCH  36  37
ENDBRANCH  35  36
ENDBRANCH  34  35
ENDBRANCH  33  34
ENDBRANCH  32  33
ENDBRANCH  27  32
ENDBRANCH   1  24
TORSDOF 13
