REMARK  17 active torsions:
REMARK  status: ('A' for Active; 'I' for Inactive)
REMARK    1  A    between atoms: C2_2  and  C4_4 
REMARK    2  A    between atoms: C5_5  and  C6_6 
REMARK    3  A    between atoms: C6_6  and  C22_34 
REMARK    4  A    between atoms: C7_7  and  C8_8 
REMARK    5  A    between atoms: C9_9  and  C10_10 
REMARK    6  A    between atoms: C10_10  and  C12_12 
REMARK    7  A    between atoms: C12_12  and  C13_13 
REMARK    8  A    between atoms: C13_13  and  C14_14 
REMARK    9  A    between atoms: C14_14  and  C15_15 
REMARK       I    between atoms: C15_15  and  N1_17 
REMARK   10  A    between atoms: N1_17  and  C16_19 
REMARK   11  A    between atoms: C17_20  and  O2_21 
REMARK   12  A    between atoms: C18_24  and  C19_25 
REMARK   13  A    between atoms: C19_25  and  O4_26 
REMARK   14  A    between atoms: C20_28  and  O5_29 
REMARK   15  A    between atoms: C21_31  and  O6_32 
REMARK   16  A    between atoms: C22_34  and  O7_35 
REMARK   17  A    between atoms: C22_34  and  C23_37 
ROOT
HETATM    1  C14 UNL     1       2.502  -0.016   0.814  1.00  0.00     0.106 C 
ENDROOT
BRANCH   1   2
HETATM    2  C13 UNL     1       1.617  -1.161   1.283  1.00  0.00     0.037 C 
BRANCH   2   3
HETATM    3  C12 UNL     1       0.355  -0.624   1.743  1.00  0.00    -0.020 C 
BRANCH   3   4
HETATM    4  C10 UNL     1      -0.842  -0.658   1.119  1.00  0.00    -0.066 C 
HETATM    5  C11 UNL     1      -1.002  -1.295  -0.187  1.00  0.00     0.048 C 
BRANCH   4   6
HETATM    6  C9  UNL     1      -1.945  -0.044   1.822  1.00  0.00     0.006 C 
HETATM    7  C8  UNL     1      -3.167   0.127   1.515  1.00  0.00     0.001 C 
BRANCH   7   8
HETATM    8  C7  UNL     1      -3.947  -0.190   0.392  1.00  0.00     0.014 C 
HETATM    9  C6  UNL     1      -5.305   0.064   0.243  1.00  0.00    -0.007 C 
BRANCH   9  10
HETATM   10  C5  UNL     1      -5.957   0.679   1.325  1.00  0.00     0.014 C 
HETATM   11  C4  UNL     1      -7.183   1.069   1.500  1.00  0.00     0.007 C 
BRANCH  11  12
HETATM   12  C2  UNL     1      -7.561   1.692   2.804  1.00  0.00    -0.071 C 
HETATM   13  C1  UNL     1      -8.730   2.116   3.075  1.00  0.00     0.018 C 
HETATM   14  C3  UNL     1      -6.454   1.763   3.831  1.00  0.00     0.047 C 
ENDBRANCH  11  12
ENDBRANCH   9  10
BRANCH   9  15
HETATM   15  C22 UNL     1      -5.869  -0.408  -0.998  1.00  0.00     0.057 C 
BRANCH  15  16
HETATM   16  O7  UNL     1      -5.014  -0.925  -1.859  1.00  0.00    -0.364 OA
ATOM     17  H7  UNL     1      -5.385  -1.236  -2.676  1.00  0.00     0.217 HD
ENDBRANCH  15  16
BRANCH  15  18
HETATM   18  C23 UNL     1      -7.237  -0.428  -1.483  1.00  0.00     0.035 C 
HETATM   19  C24 UNL     1      -8.126  -1.446  -0.799  1.00  0.00     0.016 C 
HETATM   20  C25 UNL     1      -7.278  -0.757  -2.985  1.00  0.00     0.016 C 
ENDBRANCH  15  18
ENDBRANCH   9  15
ENDBRANCH   7   8
ENDBRANCH   4   6
ENDBRANCH   3   4
ENDBRANCH   2   3
ENDBRANCH   1   2
BRANCH   1  21
HETATM   21  C15 UNL     1       3.853  -0.437   0.438  1.00  0.00     0.218 C 
HETATM   22  O1  UNL     1       4.330  -1.517   0.847  1.00  0.00    -0.274 OA
HETATM   23  N1  UNL     1       4.650   0.385  -0.398  1.00  0.00    -0.349 N 
ATOM     24  H1  UNL     1       4.255   1.255  -0.755  1.00  0.00     0.163 HD
BRANCH  23  25
HETATM   25  C16 UNL     1       6.007   0.031  -0.763  1.00  0.00     0.170 C 
HETATM   26  C17 UNL     1       6.034  -0.610  -2.129  1.00  0.00     0.282 C 
HETATM   27  O3  UNL     1       7.274  -0.869  -2.613  1.00  0.00    -0.349 OA
HETATM   28  C18 UNL     1       8.359  -0.572  -1.860  1.00  0.00     0.179 C 
HETATM   29  C20 UNL     1       8.333   0.592  -0.952  1.00  0.00     0.180 C 
HETATM   30  C21 UNL     1       6.948   1.202  -0.796  1.00  0.00     0.177 C 
BRANCH  26  31
HETATM   31  O2  UNL     1       5.318  -1.819  -2.014  1.00  0.00    -0.369 OA
ATOM     32  H2  UNL     1       5.335  -2.223  -2.874  1.00  0.00     0.212 HD
ENDBRANCH  26  31
BRANCH  28  33
HETATM   33  C19 UNL     1       9.545  -0.396  -2.827  1.00  0.00     0.198 C 
BRANCH  33  34
HETATM   34  O4  UNL     1      10.705  -0.080  -2.135  1.00  0.00    -0.398 OA
ATOM     35  H4  UNL     1      11.436   0.029  -2.731  1.00  0.00     0.209 HD
ENDBRANCH  33  34
ENDBRANCH  28  33
BRANCH  29  36
HETATM   36  O5  UNL     1       9.199   1.633  -1.284  1.00  0.00    -0.390 OA
ATOM     37  H5  UNL     1       9.182   2.382  -0.700  1.00  0.00     0.210 HD
ENDBRANCH  29  36
BRANCH  30  38
HETATM   38  O6  UNL     1       6.897   1.987   0.330  1.00  0.00    -0.391 OA
ATOM     39  H6  UNL     1       7.492   2.727   0.309  1.00  0.00     0.210 HD
ENDBRANCH  30  38
ENDBRANCH  23  25
ENDBRANCH   1  21
TORSDOF 17
