REMARK  10 active torsions:
REMARK  status: ('A' for Active; 'I' for Inactive)
REMARK    1  A    between atoms: N1_2  and  C2_4 
REMARK    2  A    between atoms: C3_7  and  N3_8 
REMARK    3  A    between atoms: C5_14  and  N5_15 
REMARK       I    between atoms: N5_15  and  C6_17 
REMARK       I    between atoms: C6_17  and  N6_19 
REMARK    4  A    between atoms: N6_19  and  O2_21 
REMARK    5  A    between atoms: O2_21  and  C7_22 
REMARK    6  A    between atoms: C7_22  and  C8_23 
REMARK    7  A    between atoms: C8_23  and  O3_24 
REMARK    8  A    between atoms: O3_24  and  C9_25 
REMARK    9  A    between atoms: C9_25  and  N7_26 
REMARK   10  A    between atoms: C9_25  and  O4_30 
ROOT
HETATM    1  C2  UNL     1      -5.033   0.376   0.378  1.00  0.00     0.715 A 
HETATM    2  N2  UNL     1      -5.237  -0.484   1.381  1.00  0.00    -0.021 N 
ATOM      3  H2  UNL     1      -6.185  -0.601   1.740  1.00  0.00     0.203 HD
HETATM    4  C3  UNL     1      -4.238  -1.206   1.940  1.00  0.00     0.692 A 
HETATM    5  N4  UNL     1      -2.989  -1.056   1.470  1.00  0.00    -0.170 N 
ATOM      6  H4  UNL     1      -2.222  -1.592   1.877  1.00  0.00     0.186 HD
HETATM    7  C4  UNL     1      -2.751  -0.200   0.464  1.00  0.00     0.204 A 
HETATM    8  C5  UNL     1      -1.468  -0.028  -0.027  1.00  0.00     0.158 A 
HETATM    9  N8  UNL     1      -1.265   0.830  -1.018  1.00  0.00    -0.334 N 
ATOM     10  H8  UNL     1      -0.326   0.966  -1.392  1.00  0.00     0.168 HD
HETATM   11  C10 UNL     1      -2.307   1.524  -1.532  1.00  0.00     0.200 A 
HETATM   12  N9  UNL     1      -3.552   1.367  -1.066  1.00  0.00    -0.273 N 
ATOM     13  H9  UNL     1      -4.327   1.897  -1.465  1.00  0.00     0.189 HD
HETATM   14  N10 UNL     1      -3.759   0.512  -0.079  1.00  0.00    -0.064 N 
ENDROOT
BRANCH   8  15
HETATM   15  N5  UNL     1      -0.559  -0.718   0.501  1.00  0.00    -0.290 N 
HETATM   16  C6  UNL     1       0.827  -0.748   0.206  1.00  0.00     0.345 C 
HETATM   17  O1  UNL     1       1.300  -1.640  -0.561  1.00  0.00    -0.245 OA
HETATM   18  N6  UNL     1       1.684   0.213   0.765  1.00  0.00    -0.216 N 
ATOM     19  H6  UNL     1       1.264   0.915   1.375  1.00  0.00     0.199 HD
ATOM     20  H5  UNL     1      -0.862  -1.344   1.247  1.00  0.00     0.172 HD
BRANCH  18  21
HETATM   21  O2  UNL     1       2.977   0.285   0.570  1.00  0.00    -0.274 OA
BRANCH  21  22
HETATM   22  C7  UNL     1       3.307   0.614  -0.724  1.00  0.00     0.227 C 
BRANCH  22  23
HETATM   23  C8  UNL     1       4.820   0.749  -0.890  1.00  0.00     0.201 C 
BRANCH  23  24
HETATM   24  O3  UNL     1       5.482  -0.409  -0.576  1.00  0.00    -0.337 OA
BRANCH  24  25
HETATM   25  C9  UNL     1       6.864  -0.307  -0.741  1.00  0.00     0.464 C 
BRANCH  25  26
HETATM   26  N7  UNL     1       7.619  -0.557   0.447  1.00  0.00    -0.029 N 
ATOM     27  H73 UNL     1       7.305   0.051   1.203  1.00  0.00     0.280 HD
ATOM     28  H72 UNL     1       7.373  -1.465   0.840  1.00  0.00     0.280 HD
ATOM     29  H71 UNL     1       8.629  -0.482   0.326  1.00  0.00     0.280 HD
ENDBRANCH  25  26
BRANCH  25  30
HETATM   30  O4  UNL     1       7.202  -1.272  -1.690  1.00  0.00    -0.350 OA
ATOM     31  H4  UNL     1       8.143  -1.203  -1.802  1.00  0.00     0.214 HD
ENDBRANCH  25  30
ENDBRANCH  24  25
ENDBRANCH  23  24
ENDBRANCH  22  23
ENDBRANCH  21  22
ENDBRANCH  18  21
ENDBRANCH   8  15
BRANCH   4  32
HETATM   32  N3  UNL     1      -4.457  -2.021   2.897  1.00  0.00    -0.234 N 
ATOM     33  H32 UNL     1      -5.406  -2.135   3.254  1.00  0.00     0.174 HD
ATOM     34  H31 UNL     1      -3.704  -2.565   3.318  1.00  0.00     0.174 HD
ENDBRANCH   4  32
BRANCH   1  35
HETATM   35  N1  UNL     1      -5.943   1.063  -0.185  1.00  0.00    -0.228 N 
HETATM   36  C1  UNL     1      -7.348   1.060   0.132  1.00  0.00     0.165 C 
ATOM     37  H1  UNL     1      -5.647   1.681  -0.940  1.00  0.00     0.177 HD
ENDBRANCH   1  35
TORSDOF 10
