REMARK  8 active torsions:
REMARK  status: ('A' for Active; 'I' for Inactive)
REMARK    1  A    between atoms: N1_1  and  S1_4 
REMARK    2  A    between atoms: S1_4  and  N2_6 
REMARK    3  A    between atoms: N2_6  and  N3_8 
REMARK    4  A    between atoms: C1_10  and  C2_11 
REMARK    5  A    between atoms: C3_12  and  N4_13 
REMARK    6  A    between atoms: N4_13  and  C4_15 
REMARK    7  A    between atoms: C5_16  and  O2_17 
REMARK    8  A    between atoms: C7_25  and  N7_26 
ROOT
HETATM    1  C2  UNL     1       1.756  -0.171  -0.206  1.00  0.00     0.066 A 
HETATM    2  C3  UNL     1       0.355  -0.129  -0.183  1.00  0.00     0.103 A 
HETATM    3  C8  UNL     1       0.409   0.558  -1.370  1.00  0.00     0.250 A 
HETATM    4  O4  UNL     1      -0.441   1.054  -2.168  1.00  0.00    -0.282 OA
HETATM    5  C9  UNL     1       1.803   0.514  -1.391  1.00  0.00     0.238 A 
HETATM    6  O5  UNL     1       2.662   0.952  -2.206  1.00  0.00    -0.283 OA
ENDROOT
BRANCH   2   7
HETATM    7  N4  UNL     1      -0.675  -0.590   0.684  1.00  0.00    -0.346 N 
ATOM      8  H4  UNL     1      -0.437  -1.095   1.538  1.00  0.00     0.166 HD
BRANCH   7   9
HETATM    9  C4  UNL     1      -2.018  -0.348   0.361  1.00  0.00     0.128 A 
HETATM   10  C5  UNL     1      -2.695   0.801   0.781  1.00  0.00     0.175 A 
HETATM   11  N5  UNL     1      -3.978   0.973   0.439  1.00  0.00    -0.287 N 
HETATM   12  C6  UNL     1      -4.632   0.060  -0.302  1.00  0.00     0.327 A 
ATOM     13  H5  UNL     1      -4.469   1.813   0.746  1.00  0.00     0.172 HD
HETATM   14  O3  UNL     1      -5.849   0.228  -0.623  1.00  0.00    -0.247 OA
HETATM   15  N6  UNL     1      -4.030  -1.063  -0.732  1.00  0.00    -0.293 N 
HETATM   16  C7  UNL     1      -2.724  -1.253  -0.393  1.00  0.00     0.134 A 
ATOM     17  H6  UNL     1      -4.534  -1.750  -1.293  1.00  0.00     0.172 HD
BRANCH  10  18
HETATM   18  O2  UNL     1      -1.985   1.727   1.548  1.00  0.00    -0.344 OA
ATOM     19  H2  UNL     1      -2.445   2.508   1.833  1.00  0.00     0.219 HD
ENDBRANCH  10  18
BRANCH  16  20
HETATM   20  N7  UNL     1      -2.159  -2.328  -0.809  1.00  0.00    -0.383 N 
ATOM     21  H72 UNL     1      -1.181  -2.470  -0.555  1.00  0.00     0.157 HD
ATOM     22  H71 UNL     1      -2.683  -3.000  -1.369  1.00  0.00     0.157 HD
ENDBRANCH  16  20
ENDBRANCH   7   9
ENDBRANCH   2   7
BRANCH   1  23
HETATM   23  C1  UNL     1       2.729  -0.750   0.726  1.00  0.00     0.126 C 
HETATM   24  N3  UNL     1       3.977  -0.721   0.592  1.00  0.00    -0.302 N 
ATOM     25  H3  UNL     1       4.444  -1.189   1.369  1.00  0.00     0.186 HD
BRANCH  24  26
HETATM   26  N2  UNL     1       4.849  -0.251  -0.278  1.00  0.00    -0.232 N 
ATOM     27  H2  UNL     1       4.829  -0.429  -1.282  1.00  0.00     0.199 HD
BRANCH  26  28
HETATM   28  S1  UNL     1       6.077   0.749   0.567  1.00  0.00     0.229 S 
HETATM   29  O1  UNL     1       4.949   1.782   0.149  1.00  0.00    -0.211 OA
BRANCH  28  30
HETATM   30  N1  UNL     1       7.158   0.675   1.136  1.00  0.00    -0.331 N 
ATOM     31  H12 UNL     1       7.856   1.243   1.616  1.00  0.00     0.168 HD
ATOM     32  H11 UNL     1       7.884   0.010   1.405  1.00  0.00     0.168 HD
ENDBRANCH  28  30
ENDBRANCH  26  28
ENDBRANCH  24  26
ENDBRANCH   1  23
TORSDOF 8
