REMARK  8 active torsions:
REMARK  status: ('A' for Active; 'I' for Inactive)
REMARK    1  A    between atoms: N1_2  and  C2_4 
REMARK    2  A    between atoms: C2_4  and  C3_8 
REMARK    3  A    between atoms: C3_8  and  C4_9 
REMARK    4  A    between atoms: C4_9  and  C5_10 
REMARK       I    between atoms: C5_10  and  N3_12 
REMARK    5  A    between atoms: N3_12  and  N4_14 
REMARK       I    between atoms: N4_14  and  C6_16 
REMARK       I    between atoms: C6_16  and  N9_33 
REMARK       I    between atoms: N5_17  and  C7_19 
REMARK       I    between atoms: C7_19  and  N7_23 
REMARK    6  A    between atoms: N8_26  and  C10_27 
REMARK    7  A    between atoms: C10_27  and  C11_28 
REMARK    8  A    between atoms: N9_33  and  C16_35 
ROOT
HETATM    1  N4  UNL     1      -1.266  -0.491  -1.355  1.00  0.00    -0.129 N 
ATOM      2  H4  UNL     1      -0.673  -0.388  -2.178  1.00  0.00     0.205 HD
HETATM    3  C6  UNL     1      -0.871  -1.463  -0.389  1.00  0.00     0.712 C 
HETATM    4  N5  UNL     1      -0.047  -1.330   0.530  1.00  0.00    -0.021 N 
ATOM      5  H5  UNL     1       0.022  -2.202   1.055  1.00  0.00     0.203 HD
HETATM    6  C7  UNL     1       0.792  -0.408   1.067  1.00  0.00     0.688 C 
HETATM    7  N6  UNL     1       1.009  -0.467   2.382  1.00  0.00    -0.234 N 
ATOM      8  H61 UNL     1       1.639   0.226   2.786  1.00  0.00     0.174 HD
ATOM      9  H62 UNL     1       0.499  -1.223   2.839  1.00  0.00     0.174 HD
HETATM   10  N7  UNL     1       1.492   0.629   0.440  1.00  0.00    -0.214 N 
HETATM   11  C8  UNL     1       1.731   1.918   1.120  1.00  0.00     0.161 C 
HETATM   12  C9  UNL     1       3.242   2.080   1.325  1.00  0.00     0.142 C 
HETATM   13  N8  UNL     1       3.903   1.332   0.339  1.00  0.00    -0.390 N 
HETATM   14  C14 UNL     1       3.375   1.286  -0.966  1.00  0.00     0.142 C 
HETATM   15  C15 UNL     1       2.035   0.509  -0.888  1.00  0.00     0.161 C 
HETATM   16  N9  UNL     1      -1.562  -2.730  -0.547  1.00  0.00    -0.187 N 
ATOM     17  H9  UNL     1      -2.578  -2.766  -0.463  1.00  0.00     0.184 HD
ENDROOT
BRANCH   1  18
HETATM   18  N3  UNL     1      -2.372   0.318  -1.277  1.00  0.00    -0.256 N 
HETATM   19  C5  UNL     1      -3.159   0.536  -0.135  1.00  0.00     0.236 C 
HETATM   20  O1  UNL     1      -2.816  -0.072   0.939  1.00  0.00    -0.272 OA
ATOM     21  H3  UNL     1      -2.648   0.807  -2.129  1.00  0.00     0.190 HD
BRANCH  19  22
HETATM   22  C4  UNL     1      -4.354   1.424  -0.096  1.00  0.00     0.112 C 
BRANCH  22  23
HETATM   23  C3  UNL     1      -4.924   1.498   1.304  1.00  0.00     0.085 C 
BRANCH  23  24
HETATM   24  C2  UNL     1      -6.115   2.378   1.350  1.00  0.00     0.070 C 
HETATM   25  N2  UNL     1      -6.063   3.437   2.073  1.00  0.00    -0.389 N 
ATOM     26  H22 UNL     1      -6.883   4.043   2.105  1.00  0.00     0.157 HD
ATOM     27  H21 UNL     1      -5.201   3.625   2.584  1.00  0.00     0.157 HD
BRANCH  24  28
HETATM   28  N1  UNL     1      -7.315   2.116   0.639  1.00  0.00    -0.384 N 
HETATM   29  C1  UNL     1      -7.721   2.948  -0.465  1.00  0.00     0.147 C 
ATOM     30  H1  UNL     1      -7.899   1.326   0.914  1.00  0.00     0.160 HD
ENDBRANCH  24  28
ENDBRANCH  23  24
ENDBRANCH  22  23
ENDBRANCH  19  22
ENDBRANCH   1  18
BRANCH  16  31
HETATM   31  C16 UNL     1      -0.841  -3.912  -0.816  1.00  0.00     0.087 A 
HETATM   32  C17 UNL     1       0.532  -3.993  -0.962  1.00  0.00     0.033 A 
HETATM   33  C18 UNL     1       1.158  -5.200  -1.220  1.00  0.00     0.002 A 
HETATM   34  C19 UNL     1       0.463  -6.402  -1.350  1.00  0.00     0.003 A 
HETATM   35  C20 UNL     1      -0.901  -6.301  -1.201  1.00  0.00     0.044 A 
HETATM   36  C21 UNL     1      -1.532  -5.107  -0.945  1.00  0.00     0.143 A 
HETATM   37  F1  UNL     1      -2.894  -5.048  -0.804  1.00  0.00    -0.204 F 
ENDBRANCH  16  31
BRANCH  13  38
HETATM   38  C10 UNL     1       5.136   0.732   0.605  1.00  0.00     0.063 C 
BRANCH  38  39
HETATM   39  C11 UNL     1       6.289   1.653   0.818  1.00  0.00     0.024 A 
HETATM   40  C12 UNL     1       7.649   1.130   1.104  1.00  0.00     0.010 A 
HETATM   41  C13 UNL     1       7.345   1.624  -0.278  1.00  0.00     0.010 A 
ENDBRANCH  38  39
ENDBRANCH  13  38
TORSDOF 8
