REMARK  12 active torsions:
REMARK  status: ('A' for Active; 'I' for Inactive)
REMARK    1  A    between atoms: C4_4  and  C5_5 
REMARK    2  A    between atoms: C5_5  and  C6_6 
REMARK    3  A    between atoms: C9_9  and  O1_10 
REMARK    4  A    between atoms: C9_9  and  C10_12 
REMARK    5  A    between atoms: C10_12  and  C11_13 
REMARK    6  A    between atoms: C12_14  and  C13_15 
REMARK    7  A    between atoms: C15_19  and  N2_20 
REMARK    8  A    between atoms: C16_25  and  C17_26 
REMARK    9  A    between atoms: C17_26  and  C18_27 
REMARK   10  A    between atoms: C18_27  and  C19_28 
REMARK   11  A    between atoms: C19_28  and  C20_29 
REMARK   12  A    between atoms: C20_29  and  N4_30 
REMARK       I    between atoms: N4_30  and  C21_32 
ROOT
HETATM    1  C10 UNL     1       0.735   1.143   0.203  1.00  0.00     0.033 C 
HETATM    2  C16 UNL     1       1.683   0.383  -0.254  1.00  0.00    -0.007 C 
ENDROOT
BRANCH   1   3
HETATM    3  C9  UNL     1      -0.653   0.707   0.299  1.00  0.00     0.148 C 
HETATM    4  C8  UNL     1      -1.510   1.569  -0.636  1.00  0.00     0.017 C 
HETATM    5  C7  UNL     1      -2.606   1.105  -1.226  1.00  0.00    -0.007 C 
HETATM    6  C6  UNL     1      -3.105  -0.321  -1.023  1.00  0.00     0.070 C 
HETATM    7  C25 UNL     1      -2.220  -1.354  -1.644  1.00  0.00     0.143 C 
HETATM    8  C26 UNL     1      -2.593  -0.537   0.339  1.00  0.00     0.180 C 
HETATM    9  C24 UNL     1      -1.877  -2.523  -0.702  1.00  0.00     0.037 C 
HETATM   10  O2  UNL     1      -1.040  -0.648  -1.441  1.00  0.00    -0.362 OA
HETATM   11  C23 UNL     1      -0.789  -1.934   0.255  1.00  0.00     0.053 C 
HETATM   12  C22 UNL     1      -1.100  -0.580  -0.011  1.00  0.00     0.162 C 
HETATM   13  O3  UNL     1      -3.128  -0.645   1.364  1.00  0.00    -0.293 OA
BRANCH   6  14
HETATM   14  C5  UNL     1      -4.544  -0.450  -1.241  1.00  0.00     0.051 C 
BRANCH  14  15
HETATM   15  C4  UNL     1      -5.001  -1.825  -1.045  1.00  0.00    -0.023 C 
HETATM   16  C2  UNL     1      -5.907  -2.240  -0.187  1.00  0.00    -0.091 C 
HETATM   17  C1  UNL     1      -6.633  -1.355   0.746  1.00  0.00     0.042 C 
HETATM   18  C3  UNL     1      -6.252  -3.697  -0.124  1.00  0.00     0.042 C 
ENDBRANCH  14  15
ENDBRANCH   6  14
BRANCH   3  19
HETATM   19  O1  UNL     1      -1.107   1.112   1.585  1.00  0.00    -0.377 OA
ATOM     20  H1  UNL     1      -0.576   0.578   2.164  1.00  0.00     0.211 HD
ENDBRANCH   3  19
ENDBRANCH   1   3
BRANCH   1  21
HETATM   21  C11 UNL     1       1.023   2.514   0.635  1.00  0.00    -0.061 C 
HETATM   22  C12 UNL     1       1.236   3.646   0.999  1.00  0.00    -0.042 C 
BRANCH  22  23
HETATM   23  C13 UNL     1       1.471   4.989   1.449  1.00  0.00     0.119 A 
HETATM   24  C14 UNL     1       0.836   6.126   0.998  1.00  0.00     0.145 A 
HETATM   25  N1  UNL     1       1.343   7.182   1.671  1.00  0.00    -0.199 N 
HETATM   26  C15 UNL     1       2.276   6.719   2.527  1.00  0.00     0.676 A 
ATOM     27  H1  UNL     1       1.068   8.157   1.552  1.00  0.00     0.183 HD
HETATM   28  N3  UNL     1       2.352   5.375   2.388  1.00  0.00    -0.183 N 
ATOM     29  H3  UNL     1       2.974   4.757   2.909  1.00  0.00     0.185 HD
BRANCH  26  30
HETATM   30  N2  UNL     1       3.004   7.390   3.359  1.00  0.00    -0.234 N 
ATOM     31  H22 UNL     1       2.947   8.403   3.464  1.00  0.00     0.174 HD
ATOM     32  H21 UNL     1       3.710   7.040   4.007  1.00  0.00     0.174 HD
ENDBRANCH  26  30
ENDBRANCH  22  23
ENDBRANCH   1  21
BRANCH   2  33
HETATM   33  C17 UNL     1       3.080   0.941  -0.305  1.00  0.00     0.028 C 
BRANCH  33  34
HETATM   34  C18 UNL     1       3.946   0.104   0.576  1.00  0.00     0.005 C 
BRANCH  34  35
HETATM   35  C19 UNL     1       3.976  -1.329   0.139  1.00  0.00     0.020 C 
BRANCH  35  36
HETATM   36  C20 UNL     1       4.522  -1.417  -1.261  1.00  0.00     0.122 C 
BRANCH  36  37
HETATM   37  N4  UNL     1       4.602  -2.772  -1.736  1.00  0.00    -0.365 N 
HETATM   38  C21 UNL     1       5.517  -3.695  -1.177  1.00  0.00     0.181 C 
HETATM   39  N5  UNL     1       5.401  -4.978  -1.394  1.00  0.00    -0.374 N 
HETATM   40  N6  UNL     1       6.617  -3.315  -0.351  1.00  0.00    -0.064 NA
ATOM     41  H52 UNL     1       4.615  -5.250  -1.984  1.00  0.00     0.158 HD
ATOM     42  H51 UNL     1       6.061  -5.643  -0.991  1.00  0.00     0.158 HD
ATOM     43  H4  UNL     1       3.987  -3.074  -2.491  1.00  0.00     0.162 HD
ENDBRANCH  36  37
ENDBRANCH  35  36
ENDBRANCH  34  35
ENDBRANCH  33  34
ENDBRANCH   2  33
TORSDOF 12
