REMARK  10 active torsions:
REMARK  status: ('A' for Active; 'I' for Inactive)
REMARK    1  A    between atoms: C5_5  and  N1_6 
REMARK    2  A    between atoms: N1_6  and  C6_8 
REMARK    3  A    between atoms: C6_8  and  N2_10 
REMARK    4  A    between atoms: N2_10  and  C7_12 
REMARK    5  A    between atoms: C7_12  and  C8_13 
REMARK       I    between atoms: C8_13  and  N3_15 
REMARK    6  A    between atoms: N3_15  and  C9_17 
REMARK       I    between atoms: N4_21  and  C13_22 
REMARK       I    between atoms: C13_22  and  N6_26 
REMARK    7  A    between atoms: N6_26  and  C14_28 
REMARK    8  A    between atoms: C14_28  and  C15_29 
REMARK    9  A    between atoms: C15_29  and  C16_30 
REMARK   10  A    between atoms: C18_32  and  O2_33 
ROOT
HETATM    1  C1  UNL     1       6.840  -4.459  -2.402  1.00  0.00     0.018 C 
HETATM    2  C2  UNL     1       7.048  -3.479  -1.733  1.00  0.00    -0.076 C 
HETATM    3  C3  UNL     1       7.276  -2.321  -0.924  1.00  0.00     0.040 A 
HETATM    4  C4  UNL     1       6.574  -1.127  -1.085  1.00  0.00     0.052 A 
HETATM    5  C5  UNL     1       6.772  -0.010  -0.325  1.00  0.00     0.035 A 
HETATM    6  C19 UNL     1       7.750  -0.110   0.664  1.00  0.00     0.031 A 
HETATM    7  C20 UNL     1       8.459  -1.247   0.859  1.00  0.00     0.027 A 
HETATM    8  C21 UNL     1       8.225  -2.363   0.065  1.00  0.00     0.052 A 
HETATM    9 CL1  UNL     1       9.188  -3.795   0.384  1.00  0.00    -0.083 Cl
ENDROOT
BRANCH   5  10
HETATM   10  N1  UNL     1       6.044   1.191  -0.460  1.00  0.00    -0.333 N 
ATOM     11  H1  UNL     1       6.543   2.071  -0.329  1.00  0.00     0.168 HD
BRANCH  10  12
HETATM   12  C6  UNL     1       4.676   1.248  -0.764  1.00  0.00     0.172 C 
HETATM   13  S1  UNL     1       3.789  -0.087  -0.942  1.00  0.00    -0.041 SA
BRANCH  12  14
HETATM   14  N2  UNL     1       4.031   2.537  -0.899  1.00  0.00    -0.358 N 
ATOM     15  H2  UNL     1       4.578   3.390  -0.778  1.00  0.00     0.162 HD
BRANCH  14  16
HETATM   16  C7  UNL     1       2.641   2.628  -1.199  1.00  0.00     0.224 C 
BRANCH  16  17
HETATM   17  C8  UNL     1       1.736   2.194  -0.112  1.00  0.00     0.235 C 
HETATM   18  O1  UNL     1       2.242   1.794   0.965  1.00  0.00    -0.272 OA
HETATM   19  N3  UNL     1       0.333   2.213  -0.240  1.00  0.00    -0.351 N 
ATOM     20  H3  UNL     1      -0.069   2.538  -1.119  1.00  0.00     0.163 HD
BRANCH  19  21
HETATM   21  C9  UNL     1      -0.569   1.793   0.816  1.00  0.00     0.134 C 
HETATM   22  C10 UNL     1      -1.360   2.948   1.368  1.00  0.00     0.031 C 
HETATM   23  C11 UNL     1      -2.113   2.409   2.590  1.00  0.00     0.023 C 
HETATM   24  C12 UNL     1      -3.106   1.354   2.171  1.00  0.00     0.144 C 
HETATM   25  N4  UNL     1      -2.809   0.910   0.816  1.00  0.00    -0.190 N 
HETATM   26  C13 UNL     1      -3.895   0.738  -0.072  1.00  0.00     0.671 C 
HETATM   27  C18 UNL     1      -1.455   0.663   0.446  1.00  0.00     0.260 C 
HETATM   28  N5  UNL     1      -4.237   1.724  -0.845  1.00  0.00    -0.235 N 
HETATM   29  N6  UNL     1      -4.644  -0.455  -0.173  1.00  0.00    -0.227 N 
ATOM     30  H52 UNL     1      -3.696   2.586  -0.772  1.00  0.00     0.174 HD
ATOM     31  H51 UNL     1      -5.021   1.600  -1.486  1.00  0.00     0.174 HD
ATOM     32  H6  UNL     1      -4.822  -0.872  -1.086  1.00  0.00     0.177 HD
BRANCH  29  33
HETATM   33  C14 UNL     1      -5.153  -1.077   1.016  1.00  0.00     0.138 C 
BRANCH  33  34
HETATM   34  C15 UNL     1      -5.928  -2.339   0.700  1.00  0.00     0.020 C 
BRANCH  34  35
HETATM   35  C16 UNL     1      -7.097  -2.011  -0.195  1.00  0.00    -0.003 C 
HETATM   36  C17 UNL     1      -7.827  -3.308  -0.473  1.00  0.00     0.005 C 
ENDBRANCH  34  35
ENDBRANCH  33  34
ENDBRANCH  29  33
BRANCH  27  37
HETATM   37  O2  UNL     1      -1.438   0.376  -0.922  1.00  0.00    -0.374 OA
ATOM     38  H2  UNL     1      -2.006  -0.348  -1.159  1.00  0.00     0.212 HD
ENDBRANCH  27  37
ENDBRANCH  19  21
ENDBRANCH  16  17
ENDBRANCH  14  16
ENDBRANCH  12  14
ENDBRANCH  10  12
ENDBRANCH   5  10
TORSDOF 10
