REMARK  7 active torsions:
REMARK  status: ('A' for Active; 'I' for Inactive)
REMARK    1  A    between atoms: N1_2  and  C2_4 
REMARK    2  A    between atoms: C2_4  and  N2_6 
REMARK    3  A    between atoms: N2_6  and  N3_8 
REMARK    4  A    between atoms: N3_8  and  C3_10 
REMARK    5  A    between atoms: C3_10  and  N4_12 
REMARK    6  A    between atoms: N4_12  and  C4_14 
REMARK    7  A    between atoms: C4_14  and  C5_15 
ROOT
HETATM    1  C3  UNL     1      -0.334   2.043   1.958  1.00  0.00     0.186 C 
HETATM    2  S2  UNL     1      -0.182   3.393   2.913  1.00  0.00    -0.040 SA
ENDROOT
BRANCH   1   3
HETATM    3  N3  UNL     1      -1.538   1.327   2.014  1.00  0.00    -0.274 N 
ATOM      4  H3  UNL     1      -2.248   1.686   2.652  1.00  0.00     0.189 HD
BRANCH   3   5
HETATM    5  N2  UNL     1      -1.874   0.182   1.298  1.00  0.00    -0.274 N 
ATOM      6  H2  UNL     1      -1.343  -0.679   1.433  1.00  0.00     0.189 HD
BRANCH   5   7
HETATM    7  C2  UNL     1      -2.953   0.213   0.383  1.00  0.00     0.186 C 
HETATM    8  S1  UNL     1      -3.793   1.575   0.169  1.00  0.00    -0.040 SA
BRANCH   7   9
HETATM    9  N1  UNL     1      -3.288  -0.961  -0.346  1.00  0.00    -0.370 N 
HETATM   10  C1  UNL     1      -4.396  -0.936  -1.284  1.00  0.00     0.148 C 
ATOM     11  H1  UNL     1      -2.752  -1.818  -0.210  1.00  0.00     0.161 HD
ENDBRANCH   7   9
ENDBRANCH   5   7
ENDBRANCH   3   5
ENDBRANCH   1   3
BRANCH   1  12
HETATM   12  N4  UNL     1       0.746   1.693   1.151  1.00  0.00    -0.364 N 
ATOM     13  H4  UNL     1       1.573   2.290   1.181  1.00  0.00     0.162 HD
BRANCH  12  14
HETATM   14  C4  UNL     1       0.778   0.567   0.292  1.00  0.00     0.154 C 
BRANCH  14  15
HETATM   15  C5  UNL     1       2.108   0.566  -0.505  1.00  0.00     0.139 C 
HETATM   16  C6  UNL     1       2.105  -0.717  -1.297  1.00  0.00     0.035 C 
HETATM   17  C7  UNL     1       2.874  -1.627  -0.327  1.00  0.00     0.029 C 
HETATM   18  C8  UNL     1       3.906  -0.603   0.172  1.00  0.00     0.168 C 
HETATM   19  O1  UNL     1       3.140   0.504   0.402  1.00  0.00    -0.384 OA
ENDBRANCH  14  15
ENDBRANCH  12  14
ENDBRANCH   1  12
TORSDOF 7
