REMARK  6 active torsions:
REMARK  status: ('A' for Active; 'I' for Inactive)
REMARK    1  A    between atoms: C2_2  and  C3_3 
REMARK    2  A    between atoms: C3_3  and  C4_4 
REMARK       I    between atoms: C4_4  and  N1_6 
REMARK    3  A    between atoms: N1_6  and  C5_8 
REMARK    4  A    between atoms: C5_8  and  N2_10 
REMARK    5  A    between atoms: N2_10  and  N3_12 
REMARK       I    between atoms: N3_12  and  C6_14 
REMARK       I    between atoms: C6_14  and  N4_16 
REMARK    6  A    between atoms: N4_16  and  C7_18 
ROOT
HETATM    1  N3  UNL     1       1.623   1.199   1.265  1.00  0.00    -0.249 N 
ATOM      2  H3  UNL     1       1.870   0.235   1.491  1.00  0.00     0.192 HD
HETATM    3  C6  UNL     1       0.287   1.570   0.981  1.00  0.00     0.335 C 
HETATM    4  O2  UNL     1      -0.032   2.747   0.701  1.00  0.00    -0.246 OA
HETATM    5  N4  UNL     1      -0.717   0.566   1.019  1.00  0.00    -0.337 N 
ATOM      6  H4  UNL     1      -0.451  -0.392   1.248  1.00  0.00     0.164 HD
ENDROOT
BRANCH   1   7
HETATM    7  N2  UNL     1       2.593   2.209   1.223  1.00  0.00    -0.272 N 
ATOM      8  H2  UNL     1       2.397   3.139   1.593  1.00  0.00     0.189 HD
BRANCH   7   9
HETATM    9  C5  UNL     1       3.848   1.905   0.656  1.00  0.00     0.193 C 
HETATM   10  S1  UNL     1       4.991   3.053   0.602  1.00  0.00    -0.039 SA
BRANCH   9  11
HETATM   11  N1  UNL     1       4.105   0.620   0.149  1.00  0.00    -0.302 N 
HETATM   12  C4  UNL     1       5.368   0.231  -0.442  1.00  0.00     0.227 C 
HETATM   13  O1  UNL     1       6.226   1.124  -0.471  1.00  0.00    -0.273 OA
ATOM     14  H1  UNL     1       3.361  -0.076   0.200  1.00  0.00     0.171 HD
BRANCH  12  15
HETATM   15  C3  UNL     1       5.530  -1.125  -0.937  1.00  0.00     0.129 C 
BRANCH  15  16
HETATM   16  C2  UNL     1       6.824  -1.462  -1.480  1.00  0.00    -0.028 C 
HETATM   17  C1  UNL     1       7.904  -0.777  -1.606  1.00  0.00     0.007 C 
ENDBRANCH  15  16
ENDBRANCH  12  15
ENDBRANCH   9  11
ENDBRANCH   7   9
ENDBRANCH   1   7
BRANCH   5  18
HETATM   18  C7  UNL     1      -2.107   0.862   0.742  1.00  0.00     0.091 C 
HETATM   19  C8  UNL     1      -2.926   0.425   1.900  1.00  0.00     0.030 C 
HETATM   20  C9  UNL     1      -4.256  -0.114   1.416  1.00  0.00    -0.012 C 
HETATM   21  C10 UNL     1      -4.170  -1.564   1.043  1.00  0.00     0.009 C 
HETATM   22  C14 UNL     1      -4.744   0.788   0.336  1.00  0.00     0.010 C 
HETATM   23  C11 UNL     1      -3.669  -1.794  -0.359  1.00  0.00    -0.013 C 
HETATM   24  C12 UNL     1      -4.442  -0.926  -1.331  1.00  0.00     0.010 C 
HETATM   25  C16 UNL     1      -2.262  -1.270  -0.562  1.00  0.00     0.011 C 
HETATM   26  C13 UNL     1      -3.933   0.442  -0.923  1.00  0.00    -0.008 C 
HETATM   27  C15 UNL     1      -2.480   0.213  -0.557  1.00  0.00     0.013 C 
ENDBRANCH   5  18
TORSDOF 6
