REMARK  3 active torsions:
REMARK  status: ('A' for Active; 'I' for Inactive)
REMARK    1  A    between atoms: C6_6  and  N1_7 
REMARK       I    between atoms: N1_7  and  C7_9 
REMARK       I    between atoms: N3_11  and  C8_13 
REMARK       I    between atoms: C8_13  and  N6_24 
REMARK       I    between atoms: N4_14  and  C9_16 
REMARK       I    between atoms: C9_16  and  N5_18 
REMARK    2  A    between atoms: N5_18  and  C10_20 
REMARK    3  A    between atoms: N6_24  and  C14_26 
ROOT
HETATM    1  N1  UNL     1      -0.899  -0.829  -0.024  1.00  0.00    -0.359 N 
ATOM      2  H1  UNL     1      -0.457  -1.690  -0.346  1.00  0.00     0.162 HD
HETATM    3  C7  UNL     1      -0.232   0.011   0.908  1.00  0.00     0.203 C 
HETATM    4  N2  UNL     1      -0.677  -0.028   2.257  1.00  0.00    -0.063 NA
HETATM    5  N3  UNL     1       0.718   0.739   0.482  1.00  0.00    -0.164 N 
ATOM      6  H3  UNL     1       0.930   0.662  -0.513  1.00  0.00     0.187 HD
HETATM    7  C8  UNL     1       1.507   1.632   1.209  1.00  0.00     0.684 C 
HETATM    8  N4  UNL     1       2.711   1.364   1.557  1.00  0.00    -0.141 N 
ATOM      9  H4  UNL     1       3.248   2.049   2.089  1.00  0.00     0.189 HD
HETATM   10  C9  UNL     1       3.304   0.123   1.208  1.00  0.00     0.335 C 
HETATM   11  O1  UNL     1       3.861  -0.506   2.167  1.00  0.00    -0.246 OA
HETATM   12  N5  UNL     1       3.303  -0.420  -0.108  1.00  0.00    -0.334 N 
ATOM     13  H5  UNL     1       2.856   0.085  -0.873  1.00  0.00     0.165 HD
HETATM   14  N6  UNL     1       0.912   2.892   1.559  1.00  0.00    -0.222 N 
ATOM     15  H6  UNL     1       0.304   2.949   2.376  1.00  0.00     0.178 HD
ENDROOT
BRANCH  14  16
HETATM   16  C14 UNL     1       1.162   4.085   0.770  1.00  0.00     0.091 C 
HETATM   17  C15 UNL     1       0.431   5.258   1.336  1.00  0.00     0.032 C 
HETATM   18  C16 UNL     1       0.718   3.901  -0.666  1.00  0.00     0.032 C 
ENDBRANCH  14  16
BRANCH   1  19
HETATM   19  C6  UNL     1      -2.215  -0.455  -0.516  1.00  0.00     0.084 C 
HETATM   20  C5  UNL     1      -3.148  -0.355   0.637  1.00  0.00     0.025 C 
HETATM   21  C4  UNL     1      -4.606  -0.442   0.250  1.00  0.00     0.002 C 
HETATM   22  C3  UNL     1      -4.809  -0.491  -1.231  1.00  0.00     0.004 C 
HETATM   23  C2  UNL     1      -4.039  -1.663  -1.784  1.00  0.00    -0.017 C 
HETATM   24  C1  UNL     1      -4.503  -2.969  -1.198  1.00  0.00     0.010 C 
HETATM   25  C17 UNL     1      -2.583  -1.441  -1.577  1.00  0.00     0.029 C 
ENDBRANCH   1  19
BRANCH  12  26
HETATM   26  C10 UNL     1       3.937  -1.685  -0.349  1.00  0.00     0.023 C 
HETATM   27  C11 UNL     1       3.266  -2.734   0.524  1.00  0.00     0.037 C 
HETATM   28  C12 UNL     1       5.408  -1.532  -0.053  1.00  0.00     0.037 C 
HETATM   29  C13 UNL     1       3.691  -2.098  -1.787  1.00  0.00     0.037 C 
ENDBRANCH  12  26
TORSDOF 3
