REMARK  2 active torsions:
REMARK  status: ('A' for Active; 'I' for Inactive)
REMARK       I    between atoms: C2_2  and  N1_4 
REMARK       I    between atoms: C3_6  and  N3_8 
REMARK    1  A    between atoms: N3_8  and  C4_10 
REMARK    2  A    between atoms: C4_10  and  C5_11 
REMARK       I    between atoms: N4_21  and  C14_22 
ROOT
HETATM    1  C5  UNL     1       0.336  -0.066  -0.354  1.00  0.00     0.005 C 
HETATM    2  C6  UNL     1       0.388  -1.374   0.321  1.00  0.00     0.010 C 
HETATM    3  C7  UNL     1      -0.304  -2.483  -0.510  1.00  0.00     0.027 C 
HETATM    4  C8  UNL     1      -1.140  -3.379   0.318  1.00  0.00    -0.031 C 
HETATM    5  C9  UNL     1      -2.577  -3.359   0.286  1.00  0.00    -0.031 C 
HETATM    6  C10 UNL     1      -3.353  -2.809  -0.840  1.00  0.00     0.027 C 
HETATM    7  C11 UNL     1      -4.287  -1.638  -0.433  1.00  0.00     0.008 C 
HETATM    8  C12 UNL     1      -3.351  -0.541  -0.172  1.00  0.00     0.059 C 
HETATM    9  C13 UNL     1      -3.754   0.819   0.153  1.00  0.00     0.273 C 
HETATM   10  F1  UNL     1      -4.588   1.443  -0.723  1.00  0.00    -0.227 F 
HETATM   11  N4  UNL     1      -2.486   1.582   0.166  1.00  0.00    -0.325 N 
HETATM   12  C14 UNL     1      -2.290   2.703  -0.682  1.00  0.00     0.186 C 
HETATM   13  N5  UNL     1      -1.993   2.558  -1.929  1.00  0.00    -0.374 N 
ATOM     14  H51 UNL     1      -1.852   3.364  -2.538  1.00  0.00     0.158 HD
ATOM     15  H52 UNL     1      -1.893   1.628  -2.335  1.00  0.00     0.158 HD
HETATM   16  N6  UNL     1      -2.430   3.999  -0.116  1.00  0.00    -0.064 NA
HETATM   17  C15 UNL     1      -1.373   1.232   1.041  1.00  0.00     0.129 C 
HETATM   18  C16 UNL     1      -0.057   1.126   0.388  1.00  0.00     0.026 C 
ENDROOT
BRANCH   1  19
HETATM   19  C4  UNL     1       1.717   0.217  -0.967  1.00  0.00     0.127 C 
BRANCH  19  20
HETATM   20  N3  UNL     1       2.729   0.244   0.069  1.00  0.00    -0.364 N 
HETATM   21  C3  UNL     1       4.099   0.483  -0.198  1.00  0.00     0.190 C 
HETATM   22  N1  UNL     1       4.618   1.574   0.244  1.00  0.00    -0.302 N 
HETATM   23  N2  UNL     1       4.935  -0.405  -0.923  1.00  0.00    -0.063 NA
HETATM   24  C2  UNL     1       5.980   1.909   0.032  1.00  0.00     0.220 C 
ATOM     25  H1  UNL     1       4.028   2.222   0.766  1.00  0.00     0.171 HD
HETATM   26  C1  UNL     1       6.850   2.368   1.152  1.00  0.00     0.117 C 
HETATM   27  O1  UNL     1       6.531   1.838  -1.111  1.00  0.00    -0.274 OA
ATOM     28  H3  UNL     1       2.442   0.084   1.035  1.00  0.00     0.162 HD
ENDBRANCH  19  20
ENDBRANCH   1  19
TORSDOF 2
