REMARK  1 active torsions:
REMARK  status: ('A' for Active; 'I' for Inactive)
REMARK       I    between atoms: C2_4  and  N2_5 
REMARK       I    between atoms: C2_4  and  N5_12 
REMARK       I    between atoms: N2_5  and  C3_7 
REMARK    1  A    between atoms: N5_12  and  C4_14 
ROOT
HETATM    1  C1  UNL     1       3.020  -2.594   0.411  1.00  0.00     0.165 C 
HETATM    2  N1  UNL     1       1.978  -1.684   0.830  1.00  0.00    -0.231 N 
ATOM      3  H1  UNL     1       1.325  -1.958   1.564  1.00  0.00     0.177 HD
HETATM    4  C2  UNL     1       1.875  -0.532   0.278  1.00  0.00     0.676 C 
HETATM    5  N2  UNL     1       2.797  -0.164  -0.747  1.00  0.00    -0.164 N 
ATOM      6  H2  UNL     1       2.728  -0.649  -1.642  1.00  0.00     0.187 HD
HETATM    7  C3  UNL     1       3.799   0.824  -0.612  1.00  0.00     0.200 C 
HETATM    8  N3  UNL     1       4.491   0.868   0.466  1.00  0.00    -0.373 N 
ATOM      9  H31 UNL     1       5.214   1.581   0.563  1.00  0.00     0.158 HD
ATOM     10  H32 UNL     1       4.288   0.179   1.190  1.00  0.00     0.158 HD
HETATM   11  N4  UNL     1       4.080   1.778  -1.614  1.00  0.00    -0.063 NA
HETATM   12  N5  UNL     1       0.847   0.370   0.709  1.00  0.00    -0.219 N 
ATOM     13  H5  UNL     1       1.110   1.350   0.815  1.00  0.00     0.178 HD
ENDROOT
BRANCH  12  14
HETATM   14  C4  UNL     1      -0.499   0.034   1.003  1.00  0.00     0.130 C 
HETATM   15  C5  UNL     1      -1.077   1.401   1.647  1.00  0.00     0.057 C 
HETATM   16 BR1  UNL     1      -0.178   2.108   3.011  1.00  0.00    -0.079 Br
HETATM   17  C6  UNL     1      -1.432   2.028   0.478  1.00  0.00    -0.008 C 
HETATM   18  C11 UNL     1      -2.507   0.803   2.124  1.00  0.00     0.028 C 
HETATM   19  C7  UNL     1      -1.867   2.073  -0.360  1.00  0.00    -0.029 C 
HETATM   20  C8  UNL     1      -2.647   1.528  -1.340  1.00  0.00     0.032 C 
HETATM   21  C9  UNL     1      -2.756   0.098  -0.333  1.00  0.00    -0.001 C 
HETATM   22  C10 UNL     1      -3.364   0.619   0.890  1.00  0.00     0.007 C 
HETATM   23  C12 UNL     1      -1.380  -0.371  -0.141  1.00  0.00    -0.021 C 
HETATM   24  C13 UNL     1      -0.633  -0.379  -1.491  1.00  0.00     0.017 C 
HETATM   25  C14 UNL     1      -1.584  -1.936   0.053  1.00  0.00     0.017 C 
ENDBRANCH  12  14
TORSDOF 1
