REMARK  4 active torsions:
REMARK  status: ('A' for Active; 'I' for Inactive)
REMARK    1  A    between atoms: C6_9  and  N2_10 
REMARK       I    between atoms: N2_10  and  C7_12 
REMARK       I    between atoms: C7_12  and  N4_16 
REMARK    2  A    between atoms: N4_16  and  C8_18 
REMARK    3  A    between atoms: C8_18  and  C9_19 
REMARK    4  A    between atoms: C9_19  and  C10_20 
ROOT
HETATM    1  C1  UNL     1       6.466   0.932  -0.291  1.00  0.00     0.050 C 
HETATM    2  C2  UNL     1       5.086   0.837  -0.821  1.00  0.00    -0.032 A 
HETATM    3  C3  UNL     1       4.600   1.370  -2.016  1.00  0.00     0.096 A 
HETATM    4  N1  UNL     1       3.308   1.082  -2.156  1.00  0.00    -0.363 N 
ATOM      5  H1  UNL     1       2.711   1.352  -2.938  1.00  0.00     0.165 HD
HETATM    6  C4  UNL     1       2.933   0.369  -1.077  1.00  0.00     0.066 A 
HETATM    7  C5  UNL     1       1.690  -0.175  -0.738  1.00  0.00     0.083 A 
HETATM    8 BR1  UNL     1       0.233   0.089  -1.945  1.00  0.00    -0.045 Br
HETATM    9  C6  UNL     1       1.577  -0.869   0.439  1.00  0.00     0.141 A 
HETATM   10  N5  UNL     1       2.684  -0.997   1.228  1.00  0.00    -0.344 N 
ATOM     11  H5  UNL     1       2.581  -1.515   2.101  1.00  0.00     0.167 HD
HETATM   12  C13 UNL     1       3.883  -0.501   0.950  1.00  0.00     0.020 A 
HETATM   13  C14 UNL     1       5.058  -0.661   1.829  1.00  0.00     0.069 C 
HETATM   14  C15 UNL     1       4.016   0.200  -0.229  1.00  0.00     0.022 A 
ENDROOT
BRANCH   9  15
HETATM   15  N2  UNL     1       0.488  -1.391   0.817  1.00  0.00    -0.176 N 
HETATM   16  C7  UNL     1      -0.777  -1.461   0.302  1.00  0.00     0.673 C 
HETATM   17  N3  UNL     1      -1.102  -2.490  -0.448  1.00  0.00    -0.235 N 
HETATM   18  N4  UNL     1      -1.813  -0.486   0.543  1.00  0.00    -0.226 N 
ATOM     19  H32 UNL     1      -0.370  -3.179  -0.618  1.00  0.00     0.174 HD
ATOM     20  H31 UNL     1      -2.045  -2.542  -0.832  1.00  0.00     0.174 HD
ATOM     21  H4  UNL     1      -1.587   0.386   1.021  1.00  0.00     0.177 HD
ATOM     22  H2  UNL     1       0.573  -1.871   1.713  1.00  0.00     0.186 HD
BRANCH  18  23
HETATM   23  C8  UNL     1      -3.153  -0.735   0.116  1.00  0.00     0.138 C 
BRANCH  23  24
HETATM   24  C9  UNL     1      -4.088   0.414   0.471  1.00  0.00     0.024 C 
BRANCH  24  25
HETATM   25  C10 UNL     1      -5.493   0.124   0.010  1.00  0.00    -0.021 C 
HETATM   26  C11 UNL     1      -5.598  -0.078  -1.465  1.00  0.00     0.009 C 
HETATM   27  C12 UNL     1      -6.370   1.296   0.402  1.00  0.00     0.009 C 
ENDBRANCH  24  25
ENDBRANCH  23  24
ENDBRANCH  18  23
ENDBRANCH   9  15
TORSDOF 4
