REMARK  4 active torsions:
REMARK  status: ('A' for Active; 'I' for Inactive)
REMARK       I    between atoms: C2_2  and  N1_4 
REMARK    1  A    between atoms: N1_4  and  C3_6 
REMARK    2  A    between atoms: C5_13  and  C6_14 
REMARK    3  A    between atoms: C6_14  and  N4_16 
REMARK    4  A    between atoms: N5_20  and  N6_21 
REMARK       I    between atoms: N6_21  and  C8_23 
ROOT
HETATM    1  C3  UNL     1       1.090  -0.154  -0.563  1.00  0.00     0.712 A 
HETATM    2  N2  UNL     1       1.283  -1.290  -1.331  1.00  0.00    -0.139 N 
ATOM      3  H2  UNL     1       2.227  -1.561  -1.606  1.00  0.00     0.189 HD
HETATM    4  C4  UNL     1       0.244  -2.033  -1.714  1.00  0.00     0.340 A 
HETATM    5  O2  UNL     1       0.452  -3.057  -2.409  1.00  0.00    -0.246 OA
HETATM    6  N3  UNL     1      -0.965  -1.629  -1.326  1.00  0.00    -0.294 N 
ATOM      7  H3  UNL     1      -1.771  -2.186  -1.610  1.00  0.00     0.172 HD
HETATM    8  C5  UNL     1      -1.189  -0.521  -0.576  1.00  0.00     0.156 A 
HETATM    9  N5  UNL     1      -0.115   0.251  -0.175  1.00  0.00    -0.067 N 
ENDROOT
BRANCH   8  10
HETATM   10  C6  UNL     1      -2.565  -0.170  -0.215  1.00  0.00     0.249 C 
HETATM   11  C7  UNL     1      -2.987  -0.738   1.105  1.00  0.00     0.048 C 
BRANCH  10  12
HETATM   12  N4  UNL     1      -3.405  -0.695  -1.312  1.00  0.00    -0.069 N 
ATOM     13  H43 UNL     1      -3.126  -0.366  -2.236  1.00  0.00     0.275 HD
ATOM     14  H42 UNL     1      -3.269  -1.690  -1.493  1.00  0.00     0.275 HD
ATOM     15  H41 UNL     1      -4.363  -0.451  -1.061  1.00  0.00     0.275 HD
ENDBRANCH  10  12
ENDBRANCH   8  10
BRANCH   9  16
HETATM   16  N6  UNL     1      -0.375   1.367   0.568  1.00  0.00    -0.231 N 
HETATM   17  C8  UNL     1       0.351   2.441   1.018  1.00  0.00     0.348 C 
HETATM   18  N7  UNL     1      -0.389   3.430   1.825  1.00  0.00    -0.038 NA
HETATM   19  O3  UNL     1       1.523   2.732   0.868  1.00  0.00    -0.249 OA
ATOM     20  H6  UNL     1      -1.351   1.414   0.861  1.00  0.00     0.192 HD
ENDBRANCH   9  16
BRANCH   1  21
HETATM   21  N1  UNL     1       2.139   0.496  -0.211  1.00  0.00    -0.158 N 
HETATM   22  C2  UNL     1       3.417   0.041  -0.609  1.00  0.00     0.232 C 
HETATM   23  C1  UNL     1       4.223  -0.931   0.190  1.00  0.00     0.118 C 
HETATM   24  O1  UNL     1       3.949   0.444  -1.682  1.00  0.00    -0.273 OA
ATOM     25  H1  UNL     1       2.051   1.340   0.355  1.00  0.00     0.187 HD
ENDBRANCH   1  21
TORSDOF 4
