REMARK  6 active torsions:
REMARK  status: ('A' for Active; 'I' for Inactive)
REMARK    1  A    between atoms: O1_2  and  C2_3 
REMARK    2  A    between atoms: C2_3  and  C3_4 
REMARK    3  A    between atoms: C4_6  and  C5_7 
REMARK    4  A    between atoms: C7_16  and  C8_17 
REMARK    5  A    between atoms: C9_20  and  O6_21 
REMARK    6  A    between atoms: C10_23  and  O7_24 
ROOT
HETATM    1  C5  UNL     1       1.366   0.140   0.120  1.00  0.00     0.125 C 
HETATM    2  O3  UNL     1       2.421   0.989  -0.159  1.00  0.00    -0.278 OA
HETATM    3  C6  UNL     1       3.682   0.437  -0.275  1.00  0.00     0.234 C 
HETATM    4  N1  UNL     1       4.689   1.187  -0.533  1.00  0.00    -0.364 N 
ATOM      5  H11 UNL     1       5.620   0.779  -0.619  1.00  0.00     0.159 HD
ATOM      6  H12 UNL     1       4.586   2.194  -0.657  1.00  0.00     0.159 HD
HETATM    7  N2  UNL     1       3.825  -0.964  -0.103  1.00  0.00    -0.268 N 
ATOM      8  H2  UNL     1       4.758  -1.376  -0.114  1.00  0.00     0.186 HD
HETATM    9  N3  UNL     1       2.713  -1.793   0.081  1.00  0.00    -0.115 NA
HETATM   10  C7  UNL     1       1.763  -1.074   0.908  1.00  0.00     0.260 C 
ENDROOT
BRANCH   1  11
HETATM   11  C4  UNL     1       0.114   0.332  -0.247  1.00  0.00     0.144 A 
HETATM   12  O2  UNL     1      -0.885  -0.484   0.024  1.00  0.00    -0.300 OA
HETATM   13  C3  UNL     1      -2.016  -0.054  -0.456  1.00  0.00     0.134 A 
HETATM   14  C10 UNL     1      -1.752   1.128  -1.091  1.00  0.00     0.138 A 
HETATM   15  C9  UNL     1      -0.379   1.385  -0.960  1.00  0.00     0.138 A 
BRANCH  13  16
HETATM   16  C2  UNL     1      -3.217  -0.604  -0.382  1.00  0.00     0.174 C 
BRANCH  16  17
HETATM   17  O1  UNL     1      -4.313  -0.012  -0.950  1.00  0.00    -0.365 OA
HETATM   18  C1  UNL     1      -5.636  -0.236  -0.501  1.00  0.00     0.209 C 
ENDBRANCH  16  17
ENDBRANCH  13  16
BRANCH  14  19
HETATM   19  O7  UNL     1      -2.617   1.982  -1.764  1.00  0.00    -0.356 OA
ATOM     20  H7  UNL     1      -2.434   2.803  -2.205  1.00  0.00     0.218 HD
ENDBRANCH  14  19
BRANCH  15  21
HETATM   21  O6  UNL     1       0.275   2.499  -1.475  1.00  0.00    -0.356 OA
ATOM     22  H6  UNL     1      -0.068   3.232  -1.972  1.00  0.00     0.218 HD
ENDBRANCH  15  21
ENDBRANCH   1  11
BRANCH  10  23
HETATM   23  C8  UNL     1       2.283  -0.738   2.233  1.00  0.00     0.201 C 
HETATM   24  O4  UNL     1       3.450  -1.071   2.565  1.00  0.00    -0.646 OA
HETATM   25  O5  UNL     1       1.499  -0.056   3.127  1.00  0.00    -0.646 OA
ENDBRANCH  10  23
TORSDOF 6
