REMARK  9 active torsions:
REMARK  status: ('A' for Active; 'I' for Inactive)
REMARK       I    between atoms: C2_4  and  N2_5 
REMARK       I    between atoms: C2_4  and  N12_41 
REMARK       I    between atoms: C3_7  and  N4_9 
REMARK    1  A    between atoms: N4_9  and  C4_11 
REMARK    2  A    between atoms: C4_11  and  C5_12 
REMARK    3  A    between atoms: C5_12  and  N5_13 
REMARK       I    between atoms: N5_13  and  C6_15 
REMARK    4  A    between atoms: C6_15  and  C7_17 
REMARK    5  A    between atoms: C7_17  and  S1_18 
REMARK    6  A    between atoms: S1_18  and  C8_19 
REMARK    7  A    between atoms: C9_22  and  C10_23 
REMARK    8  A    between atoms: N7_28  and  C14_29 
REMARK    9  A    between atoms: C15_35  and  N10_36 
ROOT
HETATM    1  C1  UNL     1       8.315  -1.127   0.090  1.00  0.00     0.165 C 
HETATM    2  N1  UNL     1       7.926   0.248   0.201  1.00  0.00    -0.230 N 
ATOM      3  H1  UNL     1       8.393   0.834   0.893  1.00  0.00     0.177 HD
HETATM    4  C2  UNL     1       7.020   0.768  -0.529  1.00  0.00     0.689 C 
HETATM    5  N2  UNL     1       6.346  -0.009  -1.497  1.00  0.00    -0.163 N 
ATOM      6  H2  UNL     1       6.882  -0.292  -2.317  1.00  0.00     0.187 HD
HETATM    7  C3  UNL     1       5.143  -0.386  -1.442  1.00  0.00     0.202 C 
HETATM    8  N3  UNL     1       4.543  -1.157  -2.461  1.00  0.00    -0.063 NA
HETATM    9  N4  UNL     1       4.321  -0.061  -0.275  1.00  0.00    -0.362 N 
ATOM     10  H4  UNL     1       3.849   0.837  -0.163  1.00  0.00     0.162 HD
HETATM   11  N12 UNL     1       6.666   2.138  -0.400  1.00  0.00    -0.126 N 
ATOM     12  H12 UNL     1       6.693   2.758  -1.210  1.00  0.00     0.197 HD
HETATM   13  C16 UNL     1       6.284   2.619   0.838  1.00  0.00     0.196 C 
HETATM   14  N13 UNL     1       5.963   3.012   1.867  1.00  0.00    -0.171 NA
ENDROOT
BRANCH   9  15
HETATM   15  C4  UNL     1       4.237  -1.086   0.674  1.00  0.00     0.142 C 
BRANCH  15  16
HETATM   16  C5  UNL     1       3.322  -0.998   1.808  1.00  0.00     0.142 C 
BRANCH  16  17
HETATM   17  N5  UNL     1       1.933  -0.952   1.567  1.00  0.00    -0.359 N 
HETATM   18  C6  UNL     1       1.173   0.070   1.008  1.00  0.00     0.227 C 
HETATM   19  O1  UNL     1       1.566   1.180   0.630  1.00  0.00    -0.273 OA
ATOM     20  H5  UNL     1       1.413  -1.785   1.841  1.00  0.00     0.162 HD
BRANCH  18  21
HETATM   21  C7  UNL     1      -0.311  -0.167   0.829  1.00  0.00     0.185 C 
BRANCH  21  22
HETATM   22  S1  UNL     1      -1.164   1.388   0.509  1.00  0.00    -0.083 SA
BRANCH  22  23
HETATM   23  C8  UNL     1      -2.906   0.975   0.233  1.00  0.00     0.161 A 
HETATM   24  N6  UNL     1      -3.542   0.755  -0.924  1.00  0.00    -0.319 N 
HETATM   25  C9  UNL     1      -4.848   0.417  -0.681  1.00  0.00     0.148 A 
ATOM     26  H6  UNL     1      -3.118   0.828  -1.849  1.00  0.00     0.169 HD
HETATM   27  N7  UNL     1      -5.008   0.429   0.641  1.00  0.00    -0.215 N 
HETATM   28  N11 UNL     1      -3.821   0.772   1.185  1.00  0.00    -0.270 N 
ATOM     29  H11 UNL     1      -3.647   0.864   2.186  1.00  0.00     0.190 HD
BRANCH  25  30
HETATM   30  C10 UNL     1      -5.782   0.144  -1.773  1.00  0.00     0.051 A 
HETATM   31  C11 UNL     1      -7.103  -0.181  -1.759  1.00  0.00     0.023 A 
HETATM   32  C12 UNL     1      -7.718  -0.376  -2.935  1.00  0.00     0.009 A 
HETATM   33  C13 UNL     1      -6.974  -0.236  -4.072  1.00  0.00     0.050 A 
HETATM   34  S2  UNL     1      -5.433   0.167  -3.463  1.00  0.00    -0.098 SA
ENDBRANCH  25  30
BRANCH  27  35
HETATM   35  C14 UNL     1      -6.162   0.117   1.413  1.00  0.00     0.196 A 
HETATM   36  N8  UNL     1      -6.618  -1.088   1.822  1.00  0.00    -0.220 N 
HETATM   37  O2  UNL     1      -7.693  -0.895   2.523  1.00  0.00    -0.153 OA
ATOM     38  H8  UNL     1      -6.192  -1.991   1.616  1.00  0.00     0.198 HD
HETATM   39  N9  UNL     1      -8.001   0.359   2.618  1.00  0.00    -0.222 N 
HETATM   40  C15 UNL     1      -7.058   1.035   1.931  1.00  0.00     0.169 A 
ATOM     41  H9  UNL     1      -8.799   0.757   3.114  1.00  0.00     0.198 HD
BRANCH  40  42
HETATM   42  N10 UNL     1      -7.059   2.329   1.822  1.00  0.00    -0.381 N 
ATOM     43 2H10 UNL     1      -6.346   2.840   1.302  1.00  0.00     0.157 HD
ATOM     44 1H10 UNL     1      -7.720   3.006   2.204  1.00  0.00     0.157 HD
ENDBRANCH  40  42
ENDBRANCH  27  35
ENDBRANCH  22  23
ENDBRANCH  21  22
ENDBRANCH  18  21
ENDBRANCH  16  17
ENDBRANCH  15  16
ENDBRANCH   9  15
TORSDOF 9
