REMARK  2 active torsions:
REMARK  status: ('A' for Active; 'I' for Inactive)
REMARK    1  A    between atoms: N1_1  and  C1_4 
REMARK    2  A    between atoms: N6_14  and  O1_15 
ROOT
HETATM    1  C1  UNL     1       0.707   0.898  -0.113  1.00  0.00     0.134 A 
HETATM    2  N2  UNL     1       1.974   0.401  -0.140  1.00  0.00    -0.337 N 
ATOM      3  H2  UNL     1       2.789   1.007  -0.235  1.00  0.00     0.168 HD
HETATM    4  C2  UNL     1       2.088  -0.932  -0.035  1.00  0.00     0.183 A 
HETATM    5  N3  UNL     1       1.027  -1.748   0.090  1.00  0.00    -0.336 N 
ATOM      6  H3  UNL     1       1.177  -2.754   0.165  1.00  0.00     0.168 HD
HETATM    7  C3  UNL     1      -0.225  -1.266   0.118  1.00  0.00     0.154 A 
HETATM    8  N4  UNL     1      -1.457  -1.803   0.229  1.00  0.00    -0.265 N 
ATOM      9  H4  UNL     1      -1.647  -2.801   0.322  1.00  0.00     0.186 HD
HETATM   10  N5  UNL     1      -2.385  -0.863   0.201  1.00  0.00     0.008 NA
HETATM   11  N6  UNL     1      -1.730   0.277   0.070  1.00  0.00    -0.140 N 
HETATM   12  C4  UNL     1      -0.404   0.097   0.014  1.00  0.00     0.167 A 
ENDROOT
BRANCH   1  13
HETATM   13  N1  UNL     1       0.585   2.152  -0.211  1.00  0.00    -0.383 N 
ATOM     14  H12 UNL     1       1.409   2.746  -0.305  1.00  0.00     0.157 HD
ATOM     15  H11 UNL     1      -0.364   2.524  -0.191  1.00  0.00     0.157 HD
ENDBRANCH   1  13
BRANCH  11  16
HETATM   16  O1  UNL     1      -2.361   1.490   0.003  1.00  0.00    -0.269 OA
ATOM     17  H1  UNL     1      -1.890   2.310  -0.091  1.00  0.00     0.246 HD
ENDBRANCH  11  16
TORSDOF 2
