REMARK  0 active torsions:
REMARK  status: ('A' for Active; 'I' for Inactive)
ROOT
HETATM    1  C1  UNL     1       0.597  -2.170   2.139  1.00  0.00     0.171 C 
HETATM    2  N1  UNL     1       0.452  -1.618   0.872  1.00  0.00    -0.330 N 
HETATM    3  N2  UNL     1       1.403  -1.708  -0.051  1.00  0.00    -0.329 N 
ATOM      4  H2  UNL     1       1.628  -2.611  -0.468  1.00  0.00     0.180 HD
HETATM    5  C2  UNL     1       2.104  -0.542  -0.454  1.00  0.00     0.042 C 
HETATM    6  C3  UNL     1       3.125  -0.128   0.592  1.00  0.00     0.040 C 
HETATM    7  C4  UNL     1       2.890  -0.879  -1.714  1.00  0.00     0.040 C 
HETATM    8  C5  UNL     1       1.183   0.630  -0.660  1.00  0.00     0.022 C 
HETATM    9  C6  UNL     1       0.377   0.561  -1.916  1.00  0.00     0.012 C 
HETATM   10  C7  UNL     1      -1.042   0.960  -1.743  1.00  0.00    -0.013 C 
HETATM   11  C8  UNL     1      -1.294   2.077  -0.789  1.00  0.00     0.014 C 
HETATM   12  C9  UNL     1      -0.580   1.934   0.499  1.00  0.00    -0.041 C 
HETATM   13  C10 UNL     1       0.428   3.093   0.589  1.00  0.00     0.015 C 
HETATM   14  C11 UNL     1      -1.444   2.055   1.718  1.00  0.00     0.015 C 
HETATM   15  C12 UNL     1       0.220   0.675   0.495  1.00  0.00     0.025 C 
HETATM   16  C13 UNL     1      -0.543  -0.584   0.715  1.00  0.00     0.114 C 
HETATM   17  C14 UNL     1      -1.597  -0.979  -0.195  1.00  0.00    -0.025 C 
HETATM   18  C15 UNL     1      -1.323  -2.429  -0.666  1.00  0.00     0.017 C 
HETATM   19  C16 UNL     1      -2.927  -1.184   0.569  1.00  0.00     0.017 C 
HETATM   20  C17 UNL     1      -1.917  -0.207  -1.398  1.00  0.00     0.015 C 
ENDROOT
TORSDOF 0
