REMARK  0 active torsions:
REMARK  status: ('A' for Active; 'I' for Inactive)
ROOT
HETATM    1  O1  UNL     1      -1.208   3.973   1.099  1.00  0.00    -0.274 OA
HETATM    2  C1  UNL     1      -1.302   2.879   0.499  1.00  0.00     0.219 C 
HETATM    3  C2  UNL     1      -0.038   2.240   0.069  1.00  0.00     0.103 C 
HETATM    4  C3  UNL     1       1.119   3.183   0.089  1.00  0.00     0.009 C 
HETATM    5  C4  UNL     1       2.325   2.433  -0.481  1.00  0.00     0.000 C 
HETATM    6  C5  UNL     1       2.940   1.546   0.571  1.00  0.00     0.000 C 
HETATM    7  C6  UNL     1       3.744   0.423  -0.005  1.00  0.00     0.000 C 
HETATM    8  C7  UNL     1       2.905  -0.685  -0.583  1.00  0.00     0.000 C 
HETATM    9  C8  UNL     1       2.159  -1.472   0.452  1.00  0.00     0.000 C 
HETATM   10  C9  UNL     1       1.638  -2.742  -0.182  1.00  0.00     0.000 C 
HETATM   11  C10 UNL     1       0.232  -2.557  -0.737  1.00  0.00     0.000 C 
HETATM   12  C11 UNL     1      -0.772  -3.054   0.258  1.00  0.00     0.002 C 
HETATM   13  C12 UNL     1      -1.664  -1.971   0.798  1.00  0.00     0.032 C 
HETATM   14  C13 UNL     1      -2.290  -1.125  -0.273  1.00  0.00     0.124 C 
HETATM   15  C14 UNL     1      -3.775  -1.047  -0.198  1.00  0.00     0.036 C 
HETATM   16  C15 UNL     1      -4.066   0.430  -0.211  1.00  0.00     0.056 C 
HETATM   17  C16 UNL     1      -2.741   1.056  -0.485  1.00  0.00     0.223 C 
HETATM   18  N1  UNL     1      -2.562   2.292   0.251  1.00  0.00    -0.335 N 
ATOM     19  H1  UNL     1      -3.392   2.764   0.610  1.00  0.00     0.165 HD
HETATM   20  O2  UNL     1      -1.761   0.126  -0.225  1.00  0.00    -0.361 OA
ENDROOT
TORSDOF 0
