REMARK  6 active torsions:
REMARK  status: ('A' for Active; 'I' for Inactive)
REMARK       I    between atoms: C1_2  and  N1_3 
REMARK       I    between atoms: C1_2  and  N5_30 
REMARK    1  A    between atoms: N1_3  and  C2_5 
REMARK    2  A    between atoms: C6_9  and  O2_10 
REMARK    3  A    between atoms: O2_10  and  C7_11 
REMARK    4  A    between atoms: C10_14  and  C11_15 
REMARK    5  A    between atoms: N5_30  and  C20_32 
REMARK    6  A    between atoms: C22_36  and  C23_37 
ROOT
HETATM    1  C2  UNL     1      -1.022  -0.474   2.244  1.00  0.00     0.039 A 
HETATM    2  C3  UNL     1      -0.180  -0.289   3.364  1.00  0.00     0.030 A 
HETATM    3  C4  UNL     1       1.160  -0.149   3.278  1.00  0.00     0.005 A 
HETATM    4  C5  UNL     1       1.768  -0.184   2.038  1.00  0.00     0.037 A 
HETATM    5  C6  UNL     1       1.005  -0.360   0.932  1.00  0.00     0.078 A 
HETATM    6  C19 UNL     1      -0.385  -0.504   1.041  1.00  0.00     0.066 A 
ENDROOT
BRANCH   5   7
HETATM    7  O2  UNL     1       1.568  -0.404  -0.349  1.00  0.00    -0.309 OA
BRANCH   7   8
HETATM    8  C7  UNL     1       2.948  -0.263  -0.479  1.00  0.00     0.091 A 
HETATM    9  C8  UNL     1       3.489   0.992  -0.641  1.00  0.00     0.041 A 
HETATM   10  C9  UNL     1       4.855   1.105  -0.767  1.00  0.00     0.036 A 
HETATM   11  C10 UNL     1       5.662  -0.009  -0.733  1.00  0.00     0.076 A 
HETATM   12  N4  UNL     1       5.113  -1.226  -0.574  1.00  0.00    -0.360 N 
HETATM   13  C18 UNL     1       3.784  -1.377  -0.448  1.00  0.00     0.125 A 
ATOM     14  H4  UNL     1       5.716  -2.048  -0.549  1.00  0.00     0.165 HD
BRANCH  11  15
HETATM   15  C11 UNL     1       7.123   0.135  -0.870  1.00  0.00     0.133 A 
HETATM   16  N2  UNL     1       8.046  -0.837  -0.859  1.00  0.00    -0.339 N 
HETATM   17  C12 UNL     1       9.282  -0.281  -1.015  1.00  0.00     0.060 A 
ATOM     18  H2  UNL     1       7.855  -1.833  -0.751  1.00  0.00     0.167 HD
HETATM   19  C13 UNL     1      10.552  -0.845  -1.071  1.00  0.00     0.032 A 
HETATM   20  C17 UNL     1       9.097   1.078  -1.125  1.00  0.00     0.060 A 
HETATM   21  C14 UNL     1      11.651  -0.030  -1.239  1.00  0.00     0.002 A 
HETATM   22  C15 UNL     1      11.488   1.326  -1.350  1.00  0.00     0.002 A 
HETATM   23  C16 UNL     1      10.220   1.865  -1.292  1.00  0.00     0.032 A 
HETATM   24  N3  UNL     1       7.777   1.286  -1.032  1.00  0.00    -0.339 N 
ATOM     25  H3  UNL     1       7.331   2.202  -1.079  1.00  0.00     0.167 HD
ENDBRANCH  11  15
ENDBRANCH   7   8
ENDBRANCH   5   7
BRANCH   1  26
HETATM   26  N1  UNL     1      -2.405  -0.632   2.482  1.00  0.00    -0.309 N 
HETATM   27  C1  UNL     1      -3.423  -0.400   1.518  1.00  0.00     0.325 C 
HETATM   28  O1  UNL     1      -3.101  -0.022   0.380  1.00  0.00    -0.247 OA
HETATM   29  N5  UNL     1      -4.775  -0.592   1.839  1.00  0.00    -0.301 N 
ATOM     30  H5  UNL     1      -5.001  -0.902   2.784  1.00  0.00     0.171 HD
ATOM     31  H1  UNL     1      -2.694  -0.934   3.412  1.00  0.00     0.170 HD
BRANCH  29  32
HETATM   32  C20 UNL     1      -5.839  -0.384   0.942  1.00  0.00     0.095 A 
HETATM   33  C21 UNL     1      -5.889   0.018  -0.356  1.00  0.00     0.126 A 
HETATM   34  N6  UNL     1      -7.047   0.121  -0.934  1.00  0.00    -0.357 N 
HETATM   35  C22 UNL     1      -8.146  -0.161  -0.271  1.00  0.00     0.086 A 
ATOM     36  H6  UNL     1      -7.104   0.422  -1.907  1.00  0.00     0.166 HD
HETATM   37  S1  UNL     1      -7.543  -0.601   1.267  1.00  0.00    -0.052 SA
BRANCH  35  38
HETATM   38  C23 UNL     1      -9.549  -0.110  -0.739  1.00  0.00    -0.002 A 
HETATM   39  C24 UNL     1     -10.574  -0.446   0.112  1.00  0.00     0.014 A 
HETATM   40  C25 UNL     1     -11.904  -0.397  -0.331  1.00  0.00     0.001 A 
HETATM   41  C26 UNL     1     -12.186  -0.012  -1.624  1.00  0.00     0.000 A 
HETATM   42  C27 UNL     1     -11.129   0.317  -2.447  1.00  0.00     0.001 A 
HETATM   43  C28 UNL     1      -9.800   0.269  -2.008  1.00  0.00     0.014 A 
ENDBRANCH  35  38
ENDBRANCH  29  32
ENDBRANCH   1  26
TORSDOF 6
