REMARK  12 active torsions:
REMARK  status: ('A' for Active; 'I' for Inactive)
REMARK    1  A    between atoms: C2_2  and  C3_3 
REMARK    2  A    between atoms: C3_3  and  C4_4 
REMARK    3  A    between atoms: C8_8  and  C9_9 
REMARK    4  A    between atoms: C13_14  and  O2_15 
REMARK    5  A    between atoms: O2_15  and  C14_16 
REMARK    6  A    between atoms: C15_18  and  C16_19 
REMARK    7  A    between atoms: C16_19  and  O4_20 
REMARK    8  A    between atoms: C17_22  and  O5_23 
REMARK    9  A    between atoms: C18_25  and  O6_26 
REMARK   10  A    between atoms: C19_28  and  N1_29 
REMARK       I    between atoms: N1_29  and  C20_31 
REMARK   11  A    between atoms: C20_31  and  C21_33 
REMARK   12  A    between atoms: C21_33  and  N2_34 
ROOT
HETATM    1  C14 UNL     1      -2.943  -1.829   0.033  1.00  0.00     0.286 C 
HETATM    2  O3  UNL     1      -3.306  -3.080   0.511  1.00  0.00    -0.349 OA
HETATM    3  C15 UNL     1      -4.647  -3.318   0.555  1.00  0.00     0.179 C 
HETATM    4  C17 UNL     1      -5.352  -2.369   1.451  1.00  0.00     0.180 C 
HETATM    5  C18 UNL     1      -4.562  -1.135   1.794  1.00  0.00     0.177 C 
HETATM    6  C19 UNL     1      -3.656  -0.702   0.666  1.00  0.00     0.170 C 
ENDROOT
BRANCH   1   7
HETATM    7  O2  UNL     1      -1.565  -1.686   0.166  1.00  0.00    -0.351 OA
BRANCH   7   8
HETATM    8  C13 UNL     1      -0.893  -1.700  -1.045  1.00  0.00     0.158 C 
HETATM    9  C12 UNL     1       0.162  -2.824  -1.124  1.00  0.00     0.069 C 
HETATM   10  C11 UNL     1       0.944  -1.855  -1.989  1.00  0.00     0.155 C 
HETATM   11  O1  UNL     1       2.294  -1.827  -1.769  1.00  0.00    -0.381 OA
HETATM   12  C22 UNL     1       0.262  -0.749  -1.208  1.00  0.00     0.180 C 
HETATM   13  C10 UNL     1       2.661  -0.462  -1.627  1.00  0.00     0.200 C 
HETATM   14  C9  UNL     1       2.280  -0.086  -0.250  1.00  0.00     0.150 C 
HETATM   15  O8  UNL     1       0.944  -0.471  -0.054  1.00  0.00    -0.373 OA
BRANCH  14  16
HETATM   16  C8  UNL     1       2.419   1.318   0.176  1.00  0.00     0.025 C 
HETATM   17  C4  UNL     1       3.765   1.967   0.314  1.00  0.00    -0.038 C 
HETATM   18  C5  UNL     1       3.650   3.152   1.290  1.00  0.00     0.015 C 
HETATM   19  C6  UNL     1       3.622   2.476  -1.080  1.00  0.00     0.010 C 
HETATM   20  C7  UNL     1       2.111   2.347  -0.915  1.00  0.00     0.009 C 
BRANCH  17  21
HETATM   21  C3  UNL     1       4.930   1.101   0.554  1.00  0.00     0.009 C 
BRANCH  21  22
HETATM   22  C2  UNL     1       6.289   1.749   0.471  1.00  0.00    -0.004 C 
HETATM   23  C1  UNL     1       6.627   2.335  -0.856  1.00  0.00     0.005 C 
ENDBRANCH  21  22
ENDBRANCH  17  21
ENDBRANCH  14  16
ENDBRANCH   7   8
ENDBRANCH   1   7
BRANCH   6  24
HETATM   24  N1  UNL     1      -2.707   0.223   1.262  1.00  0.00    -0.348 N 
HETATM   25  C20 UNL     1      -2.573   1.577   0.949  1.00  0.00     0.243 C 
HETATM   26  O7  UNL     1      -3.306   2.102   0.076  1.00  0.00    -0.272 OA
ATOM     27  H1  UNL     1      -2.081  -0.151   1.975  1.00  0.00     0.163 HD
BRANCH  25  28
HETATM   28  C21 UNL     1      -1.572   2.416   1.637  1.00  0.00     0.332 C 
BRANCH  28  29
HETATM   29  N2  UNL     1      -0.818   1.679   2.613  1.00  0.00    -0.071 N 
ATOM     30  H23 UNL     1      -1.434   1.218   3.282  1.00  0.00     0.274 HD
ATOM     31  H22 UNL     1      -0.384   0.855   2.197  1.00  0.00     0.274 HD
ATOM     32  H21 UNL     1      -0.126   2.259   3.088  1.00  0.00     0.274 HD
ENDBRANCH  28  29
ENDBRANCH  25  28
ENDBRANCH   6  24
BRANCH   3  33
HETATM   33  C16 UNL     1      -5.204  -3.379  -0.840  1.00  0.00     0.198 C 
BRANCH  33  34
HETATM   34  O4  UNL     1      -6.573  -3.630  -0.855  1.00  0.00    -0.398 OA
ATOM     35  H4  UNL     1      -6.925  -3.669  -1.737  1.00  0.00     0.209 HD
ENDBRANCH  33  34
ENDBRANCH   3  33
BRANCH   5  36
HETATM   36  O6  UNL     1      -5.457  -0.115   2.083  1.00  0.00    -0.391 OA
ATOM     37  H6  UNL     1      -4.958   0.664   2.300  1.00  0.00     0.210 HD
ENDBRANCH   5  36
BRANCH   4  38
HETATM   38  O5  UNL     1      -6.627  -2.023   1.003  1.00  0.00    -0.390 OA
ATOM     39  H5  UNL     1      -7.079  -1.415   1.577  1.00  0.00     0.210 HD
ENDBRANCH   4  38
TORSDOF 12
