REMARK  17 active torsions:
REMARK  status: ('A' for Active; 'I' for Inactive)
REMARK    1  A    between atoms: O1_2  and  C2_3 
REMARK    2  A    between atoms: C2_3  and  C3_5 
REMARK    3  A    between atoms: C4_6  and  C5_7 
REMARK    4  A    between atoms: C6_12  and  N2_13 
REMARK    5  A    between atoms: N2_13  and  N3_14 
REMARK       I    between atoms: N2_13  and  C11_26 
REMARK    6  A    between atoms: N3_14  and  C7_16 
REMARK    7  A    between atoms: C7_16  and  C8_17 
REMARK    8  A    between atoms: C7_16  and  C10_21 
REMARK    9  A    between atoms: C8_17  and  O6_19 
REMARK   10  A    between atoms: C10_21  and  O7_22 
REMARK   11  A    between atoms: C10_21  and  O8_24 
REMARK   12  A    between atoms: C11_26  and  C12_28 
REMARK   13  A    between atoms: C12_28  and  N4_30 
REMARK   14  A    between atoms: C14_31  and  S1_32 
REMARK   15  A    between atoms: C15_39  and  C16_40 
REMARK   16  A    between atoms: C18_42  and  O13_43 
REMARK   17  A    between atoms: C20_47  and  N8_48 
ROOT
HETATM    1  N2  UNL     1      -1.725  -0.150  -1.009  1.00  0.00    -0.053 N 
HETATM    2  C11 UNL     1      -0.379  -0.129  -1.302  1.00  0.00     0.281 C 
HETATM    3  O9  UNL     1      -0.037  -0.811  -2.342  1.00  0.00    -0.268 OA
ENDROOT
BRANCH   1   4
HETATM    4  C6  UNL     1      -2.340   0.626   0.037  1.00  0.00     0.709 A 
HETATM    5  N1  UNL     1      -3.176   1.656  -0.303  1.00  0.00    -0.180 N 
HETATM    6  C4  UNL     1      -3.656   2.238   0.852  1.00  0.00     0.159 A 
ATOM      7  H1  UNL     1      -3.406   1.945  -1.254  1.00  0.00     0.184 HD
HETATM    8  C3  UNL     1      -3.092   1.540   1.883  1.00  0.00     0.160 A 
HETATM    9  N10 UNL     1      -2.291   0.557   1.352  1.00  0.00    -0.177 N 
HETATM   10  C21 UNL     1      -1.544  -0.378   2.143  1.00  0.00     0.176 C 
BRANCH   6  11
HETATM   11  C5  UNL     1      -4.575   3.350   0.856  1.00  0.00     0.230 C 
HETATM   12  O3  UNL     1      -4.952   3.842  -0.266  1.00  0.00    -0.643 OA
HETATM   13  O4  UNL     1      -5.091   3.938   1.958  1.00  0.00    -0.643 OA
ENDBRANCH   6  11
BRANCH   8  14
HETATM   14  C2  UNL     1      -3.240   1.735   3.317  1.00  0.00     0.312 C 
HETATM   15  O2  UNL     1      -2.631   0.947   4.107  1.00  0.00    -0.258 OA
BRANCH  14  16
HETATM   16  O1  UNL     1      -3.979   2.700   3.948  1.00  0.00    -0.321 OA
HETATM   17  C1  UNL     1      -4.088   2.848   5.344  1.00  0.00     0.213 C 
ENDBRANCH  14  16
ENDBRANCH   8  14
ENDBRANCH   1   4
BRANCH   1  18
HETATM   18  N3  UNL     1      -2.710  -0.881  -1.677  1.00  0.00    -0.293 N 
ATOM     19  H3  UNL     1      -3.550  -0.406  -2.007  1.00  0.00     0.182 HD
BRANCH  18  20
HETATM   20  C7  UNL     1      -2.566  -2.236  -1.898  1.00  0.00     0.254 C 
BRANCH  20  21
HETATM   21  C8  UNL     1      -3.758  -2.833  -2.607  1.00  0.00     0.287 C 
HETATM   22  O5  UNL     1      -4.710  -2.115  -2.960  1.00  0.00    -0.263 OA
BRANCH  21  23
HETATM   23  O6  UNL     1      -3.758  -4.214  -2.851  1.00  0.00    -0.325 OA
HETATM   24  C9  UNL     1      -4.843  -4.801  -3.499  1.00  0.00     0.213 C 
ENDBRANCH  21  23
ENDBRANCH  20  21
BRANCH  20  25
HETATM   25  C10 UNL     1      -2.306  -3.010  -0.621  1.00  0.00     0.287 C 
BRANCH  25  26
HETATM   26  O7  UNL     1      -3.328  -2.893   0.287  1.00  0.00    -0.369 OA
ATOM     27  H7  UNL     1      -3.165  -3.378   1.087  1.00  0.00     0.212 HD
ENDBRANCH  25  26
BRANCH  25  28
HETATM   28  O8  UNL     1      -2.123  -4.365  -0.931  1.00  0.00    -0.369 OA
ATOM     29  H8  UNL     1      -1.960  -4.850  -0.131  1.00  0.00     0.212 HD
ENDBRANCH  25  28
ENDBRANCH  20  25
ENDBRANCH  18  20
ENDBRANCH   1  18
BRANCH   2  30
HETATM   30  C12 UNL     1       0.709   0.535  -0.632  1.00  0.00     0.179 C 
HETATM   31  C13 UNL     1       0.517   2.045  -0.587  1.00  0.00     0.043 C 
BRANCH  30  32
HETATM   32  N4  UNL     1       2.008   0.324  -1.233  1.00  0.00    -0.316 N 
HETATM   33  C14 UNL     1       2.699  -0.873  -1.452  1.00  0.00     0.237 C 
HETATM   34  N5  UNL     1       3.448  -0.679  -2.529  1.00  0.00    -0.275 N 
HETATM   35  N6  UNL     1       3.259   0.618  -3.009  1.00  0.00    -0.107 NA
ATOM     36  H5  UNL     1       4.069  -1.373  -2.944  1.00  0.00     0.184 HD
HETATM   37  C15 UNL     1       2.907   1.354  -1.770  1.00  0.00     0.252 C 
BRANCH  33  38
HETATM   38  S1  UNL     1       2.627  -2.309  -0.525  1.00  0.00     0.173 S 
HETATM   39  O10 UNL     1       3.976  -3.014  -0.680  1.00  0.00    -0.589 OA
HETATM   40  O11 UNL     1       2.462  -2.108   0.949  1.00  0.00    -0.589 OA
HETATM   41  O12 UNL     1       1.487  -3.430  -1.020  1.00  0.00    -0.589 OA
ENDBRANCH  33  38
BRANCH  37  42
HETATM   42  C16 UNL     1       4.194   1.366  -0.997  1.00  0.00     0.071 A 
HETATM   43  C17 UNL     1       4.245   1.254   0.383  1.00  0.00     0.085 A 
HETATM   44  C18 UNL     1       5.440   1.274   1.059  1.00  0.00     0.158 A 
HETATM   45  N7  UNL     1       6.586   1.404   0.392  1.00  0.00    -0.171 N 
HETATM   46  C20 UNL     1       6.561   1.516  -0.953  1.00  0.00     0.678 A 
ATOM     47  H7  UNL     1       7.474   1.419   0.893  1.00  0.00     0.186 HD
HETATM   48  N9  UNL     1       5.387   1.496  -1.628  1.00  0.00    -0.192 N 
ATOM     49  H9  UNL     1       5.401   1.582  -2.644  1.00  0.00     0.184 HD
BRANCH  44  50
HETATM   50  O13 UNL     1       5.429   1.155   2.453  1.00  0.00    -0.340 OA
HETATM   51  C19 UNL     1       6.617   1.170   3.194  1.00  0.00     0.211 C 
ENDBRANCH  44  50
BRANCH  46  52
HETATM   52  N8  UNL     1       7.676   1.644  -1.573  1.00  0.00    -0.234 N 
ATOM     53  H82 UNL     1       8.560   1.659  -1.065  1.00  0.00     0.174 HD
ATOM     54  H81 UNL     1       7.657   1.729  -2.589  1.00  0.00     0.174 HD
ENDBRANCH  46  52
ENDBRANCH  37  42
ENDBRANCH  30  32
ENDBRANCH   2  30
TORSDOF 17
