REMARK  3 active torsions:
REMARK  status: ('A' for Active; 'I' for Inactive)
REMARK    1  A    between atoms: C2_2  and  C3_3 
REMARK    2  A    between atoms: C3_3  and  N1_4 
REMARK    3  A    between atoms: N2_7  and  N3_8 
REMARK       I    between atoms: N3_8  and  C6_10 
ROOT
HETATM    1  N1  UNL     1      -1.436  -0.878  -0.341  1.00  0.00    -0.384 N 
HETATM    2  C4  UNL     1      -0.562  -1.866   0.146  1.00  0.00     0.104 C 
HETATM    3  C5  UNL     1       0.754  -1.471   0.676  1.00  0.00     0.127 C 
HETATM    4  N2  UNL     1       1.258  -0.214   0.293  1.00  0.00    -0.298 N 
HETATM    5  C7  UNL     1       0.306   0.792  -0.006  1.00  0.00     0.168 C 
HETATM    6  C8  UNL     1      -0.794   0.274  -0.874  1.00  0.00     0.144 C 
ENDROOT
BRANCH   4   7
HETATM    7  N3  UNL     1       2.439  -0.189  -0.386  1.00  0.00    -0.272 N 
HETATM    8  C6  UNL     1       3.559   0.498   0.144  1.00  0.00     0.200 C 
HETATM    9  N4  UNL     1       4.369  -0.116   0.928  1.00  0.00    -0.372 N 
HETATM   10  N5  UNL     1       3.797   1.849  -0.180  1.00  0.00    -0.062 NA
ATOM     11  H42 UNL     1       4.197  -1.094   1.162  1.00  0.00     0.158 HD
ATOM     12  H41 UNL     1       5.175   0.379   1.310  1.00  0.00     0.158 HD
ATOM     13  H3  UNL     1       2.517  -0.669  -1.283  1.00  0.00     0.190 HD
ENDBRANCH   4   7
BRANCH   1  14
HETATM   14  C3  UNL     1      -2.632  -0.631   0.397  1.00  0.00     0.148 C 
BRANCH  14  15
HETATM   15  C2  UNL     1      -3.525   0.293  -0.367  1.00  0.00    -0.018 C 
HETATM   16  C1  UNL     1      -3.922   1.471   0.075  1.00  0.00     0.008 C 
ENDBRANCH  14  15
ENDBRANCH   1  14
TORSDOF 3
