REMARK  12 active torsions:
REMARK  status: ('A' for Active; 'I' for Inactive)
REMARK    1  A    between atoms: N1_2  and  C2_4 
REMARK    2  A    between atoms: C2_4  and  C5_7 
REMARK    3  A    between atoms: C5_7  and  O1_8 
REMARK    4  A    between atoms: C5_7  and  C6_10 
REMARK    5  A    between atoms: C6_10  and  C7_11 
REMARK    6  A    between atoms: C6_10  and  N2_14 
REMARK    7  A    between atoms: C7_11  and  O2_12 
REMARK    8  A    between atoms: N2_14  and  C8_16 
REMARK    9  A    between atoms: C10_18  and  O3_19 
REMARK   10  A    between atoms: C15_25  and  O5_26 
REMARK   11  A    between atoms: N3_29  and  O7_30 
REMARK   12  A    between atoms: C16_32  and  O8_33 
ROOT
HETATM    1  C8  UNL     1       0.694  -0.691  -0.880  1.00  0.00     0.069 C 
HETATM    2  C9  UNL     1       1.351   0.447  -1.278  1.00  0.00     0.073 C 
HETATM    3  C10 UNL     1       2.619   0.948  -1.039  1.00  0.00     0.123 C 
HETATM    4  C12 UNL     1       3.662   0.307  -0.394  1.00  0.00     0.237 C 
HETATM    5  O4  UNL     1       4.749   0.970  -0.343  1.00  0.00    -0.283 OA
HETATM    6  C13 UNL     1       3.645  -0.928   0.175  1.00  0.00     0.159 A 
HETATM    7  C14 UNL     1       2.649  -1.909   0.136  1.00  0.00     0.095 A 
HETATM    8  C15 UNL     1       3.145  -2.949   0.883  1.00  0.00     0.223 A 
HETATM    9  O6  UNL     1       4.336  -2.623   1.331  1.00  0.00    -0.183 OA
HETATM   10  N3  UNL     1       4.650  -1.425   0.921  1.00  0.00    -0.114 N 
HETATM   11  C16 UNL     1       1.421  -1.850  -0.511  1.00  0.00     0.110 C 
ENDROOT
BRANCH   1  12
HETATM   12  N2  UNL     1      -0.686  -0.820  -0.838  1.00  0.00    -0.357 N 
ATOM     13  H2  UNL     1      -0.990  -1.778  -0.665  1.00  0.00     0.166 HD
BRANCH  12  14
HETATM   14  C6  UNL     1      -1.762   0.079  -0.981  1.00  0.00     0.042 C 
BRANCH  14  15
HETATM   15  C5  UNL     1      -1.889   1.149   0.075  1.00  0.00     0.193 C 
BRANCH  15  16
HETATM   16  C2  UNL     1      -2.360   0.580   1.399  1.00  0.00     0.052 C 
HETATM   17  C3  UNL     1      -2.823   1.754   2.255  1.00  0.00     0.041 C 
HETATM   18  C4  UNL     1      -1.280  -0.129   2.144  1.00  0.00     0.041 C 
BRANCH  16  19
HETATM   19  N1  UNL     1      -3.461  -0.294   1.200  1.00  0.00    -0.397 N 
HETATM   20  C1  UNL     1      -3.972  -0.909   2.200  1.00  0.00     0.112 C 
ATOM     21  H1  UNL     1      -3.843  -0.431   0.264  1.00  0.00     0.158 HD
ENDBRANCH  16  19
ENDBRANCH  15  16
BRANCH  15  22
HETATM   22  O1  UNL     1      -0.833   1.997   0.201  1.00  0.00    -0.387 OA
ATOM     23  H1  UNL     1      -0.538   2.354  -0.629  1.00  0.00     0.210 HD
ENDBRANCH  15  22
ENDBRANCH  14  15
BRANCH  14  24
HETATM   24  C7  UNL     1      -2.015   0.667  -2.327  1.00  0.00     0.219 C 
BRANCH  24  25
HETATM   25  O2  UNL     1      -2.266  -0.335  -3.296  1.00  0.00    -0.395 OA
ATOM     26  H2  UNL     1      -2.427   0.040  -4.154  1.00  0.00     0.209 HD
ENDBRANCH  24  25
ENDBRANCH  14  24
ENDBRANCH  12  14
ENDBRANCH   1  12
BRANCH  11  27
HETATM   27  O8  UNL     1       0.864  -3.048  -0.817  1.00  0.00    -0.357 OA
ATOM     28  H8  UNL     1       1.351  -3.825  -0.570  1.00  0.00     0.217 HD
ENDBRANCH  11  27
BRANCH   3  29
HETATM   29  O3  UNL     1       2.860   2.225  -1.497  1.00  0.00    -0.352 OA
HETATM   30  C11 UNL     1       1.942   3.032  -2.170  1.00  0.00     0.210 C 
ENDBRANCH   3  29
BRANCH   8  31
HETATM   31  O5  UNL     1       2.492  -4.145   1.122  1.00  0.00    -0.339 OA
ATOM     32  H5  UNL     1       2.835  -4.864   1.639  1.00  0.00     0.220 HD
ENDBRANCH   8  31
BRANCH  10  33
HETATM   33  O7  UNL     1       5.808  -0.720   1.173  1.00  0.00    -0.262 OA
ATOM     34  H7  UNL     1       6.517  -1.071   1.699  1.00  0.00     0.247 HD
ENDBRANCH  10  33
TORSDOF 12
