REMARK  12 active torsions:
REMARK  status: ('A' for Active; 'I' for Inactive)
REMARK    1  A    between atoms: C2_2  and  O1_4 
REMARK    2  A    between atoms: C2_2  and  C4_6 
REMARK    3  A    between atoms: C4_6  and  C5_8 
REMARK    4  A    between atoms: C5_8  and  N3_19 
REMARK    5  A    between atoms: N1_9  and  O3_11 
REMARK    6  A    between atoms: O3_11  and  C6_12 
REMARK    7  A    between atoms: C6_12  and  C7_14 
REMARK    8  A    between atoms: C7_14  and  N2_15 
REMARK    9  A    between atoms: N3_19  and  N4_21 
REMARK   10  A    between atoms: N4_21  and  C8_23 
REMARK   11  A    between atoms: C11_26  and  N5_27 
REMARK   12  A    between atoms: C13_31  and  N6_32 
ROOT
HETATM    1  C5  UNL     1      -1.424  -0.362  -0.224  1.00  0.00     0.190 C 
HETATM    2  N1  UNL     1      -2.507   0.274   0.067  1.00  0.00    -0.237 N 
ATOM      3  H1  UNL     1      -3.384  -0.244   0.126  1.00  0.00     0.197 HD
ENDROOT
BRANCH   1   4
HETATM    4  C4  UNL     1      -1.378  -1.786  -0.475  1.00  0.00     0.229 C 
HETATM    5  O2  UNL     1      -0.290  -2.342  -0.754  1.00  0.00    -0.286 OA
BRANCH   4   6
HETATM    6  C2  UNL     1      -2.585  -2.624  -0.412  1.00  0.00     0.118 C 
HETATM    7  C1  UNL     1      -2.431  -3.675   0.681  1.00  0.00     0.054 C 
HETATM    8  C3  UNL     1      -2.734  -3.323  -1.747  1.00  0.00     0.054 C 
BRANCH   6   9
HETATM    9  O1  UNL     1      -3.694  -1.875  -0.096  1.00  0.00    -0.382 OA
ATOM     10  H1  UNL     1      -3.790  -1.220  -0.777  1.00  0.00     0.211 HD
ENDBRANCH   6   9
ENDBRANCH   4   6
ENDBRANCH   1   4
BRANCH   1  11
HETATM   11  N3  UNL     1      -0.216   0.384  -0.302  1.00  0.00    -0.281 N 
ATOM     12  H3  UNL     1       0.065   0.769  -1.204  1.00  0.00     0.188 HD
BRANCH  11  13
HETATM   13  N4  UNL     1       0.607   0.612   0.817  1.00  0.00    -0.297 N 
ATOM     14  H4  UNL     1       0.194   0.907   1.702  1.00  0.00     0.187 HD
BRANCH  13  15
HETATM   15  C8  UNL     1       2.010   0.432   0.715  1.00  0.00     0.081 A 
HETATM   16  C9  UNL     1       2.516  -0.024  -0.507  1.00  0.00     0.036 A 
HETATM   17  C10 UNL     1       3.851  -0.248  -0.728  1.00  0.00     0.038 A 
HETATM   18  C11 UNL     1       4.726  -0.010   0.310  1.00  0.00     0.105 A 
HETATM   19  C12 UNL     1       4.244   0.437   1.512  1.00  0.00     0.074 A 
HETATM   20  C13 UNL     1       2.878   0.672   1.752  1.00  0.00     0.133 A 
BRANCH  18  21
HETATM   21  N5  UNL     1       6.136  -0.232   0.126  1.00  0.00    -0.116 N 
HETATM   22  O5  UNL     1       6.902  -0.008   1.082  1.00  0.00    -0.532 OA
HETATM   23  O6  UNL     1       6.616  -0.680  -1.082  1.00  0.00    -0.532 OA
ENDBRANCH  18  21
BRANCH  20  24
HETATM   24  N6  UNL     1       2.461   1.131   3.025  1.00  0.00    -0.113 N 
HETATM   25  O7  UNL     1       1.526   1.906   3.218  1.00  0.00    -0.532 OA
HETATM   26  O8  UNL     1       3.150   0.725   4.164  1.00  0.00    -0.532 OA
ENDBRANCH  20  24
ENDBRANCH  13  15
ENDBRANCH  11  13
ENDBRANCH   1  11
BRANCH   2  27
HETATM   27  O3  UNL     1      -2.517   1.619   0.298  1.00  0.00    -0.196 OA
BRANCH  27  28
HETATM   28  C6  UNL     1      -2.459   2.532  -0.738  1.00  0.00     0.306 C 
HETATM   29  O4  UNL     1      -2.394   2.173  -1.938  1.00  0.00    -0.261 OA
BRANCH  28  30
HETATM   30  C7  UNL     1      -2.472   3.989  -0.426  1.00  0.00     0.342 C 
BRANCH  30  31
HETATM   31  N2  UNL     1      -2.403   4.803  -1.599  1.00  0.00    -0.070 N 
ATOM     32  H23 UNL     1      -1.593   4.557  -2.168  1.00  0.00     0.274 HD
ATOM     33  H22 UNL     1      -3.145   4.562  -2.256  1.00  0.00     0.274 HD
ATOM     34  H21 UNL     1      -2.412   5.800  -1.385  1.00  0.00     0.274 HD
ENDBRANCH  30  31
ENDBRANCH  28  30
ENDBRANCH  27  28
ENDBRANCH   2  27
TORSDOF 12
