REMARK  2 active torsions:
REMARK  status: ('A' for Active; 'I' for Inactive)
REMARK    1  A    between atoms: N1_4  and  O1_6 
REMARK    2  A    between atoms: C7_15  and  C8_16 
ROOT
HETATM    1  C1  UNL     1      -0.405   1.434  -1.323  1.00  0.00     0.018 C 
HETATM    2  C2  UNL     1      -0.542   0.957   0.095  1.00  0.00     0.067 C 
HETATM    3  C3  UNL     1      -1.983   0.859   0.423  1.00  0.00     0.049 C 
HETATM    4  N1  UNL     1      -2.462   1.941   0.899  1.00  0.00    -0.274 N 
ATOM      5  H1  UNL     1      -1.859   2.755   1.017  1.00  0.00     0.193 HD
HETATM    6  C4  UNL     1      -2.985  -0.223   0.314  1.00  0.00     0.219 C 
HETATM    7  F1  UNL     1      -4.110   0.278  -0.358  1.00  0.00    -0.243 F 
HETATM    8  C5  UNL     1      -2.519  -1.392  -0.514  1.00  0.00     0.071 C 
HETATM    9  C6  UNL     1      -1.332  -2.041   0.123  1.00  0.00     0.236 C 
HETATM   10  N2  UNL     1      -0.164  -1.410  -0.478  1.00  0.00    -0.066 N 
ATOM     11  H21 UNL     1      -0.315  -1.134  -1.448  1.00  0.00     0.278 HD
ATOM     12  H22 UNL     1       0.601  -2.064  -0.645  1.00  0.00     0.278 HD
HETATM   13  C7  UNL     1       0.208  -0.317   0.363  1.00  0.00     0.228 C 
ENDROOT
BRANCH  13  14
HETATM   14  C8  UNL     1       1.680  -0.152   0.260  1.00  0.00    -0.027 A 
HETATM   15  C9  UNL     1       2.336  -0.188  -0.976  1.00  0.00     0.012 A 
HETATM   16  C10 UNL     1       3.703  -0.034  -1.069  1.00  0.00     0.043 A 
HETATM   17  C11 UNL     1       4.437   0.159   0.081  1.00  0.00     0.116 A 
HETATM   18  F2  UNL     1       5.801   0.312  -0.021  1.00  0.00    -0.206 F 
HETATM   19  C12 UNL     1       3.823   0.199   1.306  1.00  0.00     0.043 A 
HETATM   20  C13 UNL     1       2.465   0.044   1.374  1.00  0.00     0.012 A 
ENDBRANCH  13  14
BRANCH   4  21
HETATM   21  O1  UNL     1      -3.777   2.014   1.251  1.00  0.00    -0.290 OA
ATOM     22  H1  UNL     1      -4.134   2.820   1.606  1.00  0.00     0.244 HD
ENDBRANCH   4  21
TORSDOF 2
