REMARK  2 active torsions:
REMARK  status: ('A' for Active; 'I' for Inactive)
REMARK    1  A    between atoms: C2_2  and  C3_3 
REMARK    2  A    between atoms: N1_10  and  O1_11 
ROOT
HETATM    1  C3  UNL     1       0.939  -0.408   0.187  1.00  0.00     0.097 C 
HETATM    2  C4  UNL     1      -0.363  -1.104   0.067  1.00  0.00    -0.019 A 
HETATM    3  C5  UNL     1      -0.448  -2.429  -0.220  1.00  0.00     0.010 A 
HETATM    4  C6  UNL     1      -1.703  -3.011  -0.299  1.00  0.00     0.001 A 
HETATM    5  C7  UNL     1      -2.859  -2.282  -0.095  1.00  0.00     0.002 A 
HETATM    6  C8  UNL     1      -2.773  -0.936   0.196  1.00  0.00     0.032 A 
HETATM    7  C9  UNL     1      -1.505  -0.366   0.271  1.00  0.00     0.066 A 
HETATM    8  N1  UNL     1      -1.381   1.009   0.561  1.00  0.00    -0.231 N 
HETATM    9  C10 UNL     1      -0.335   1.773  -0.084  1.00  0.00     0.209 C 
HETATM   10  C11 UNL     1      -0.151   3.027   0.752  1.00  0.00     0.064 C 
HETATM   11  C12 UNL     1      -0.827   2.191  -1.423  1.00  0.00     0.099 C 
HETATM   12  N2  UNL     1      -1.220   2.498  -2.457  1.00  0.00    -0.194 NA
HETATM   13  C13 UNL     1       0.908   1.000  -0.265  1.00  0.00     0.291 C 
HETATM   14  F1  UNL     1       1.257   1.030  -1.624  1.00  0.00    -0.202 F 
HETATM   15  F2  UNL     1       1.966   1.693   0.358  1.00  0.00    -0.202 F 
ENDROOT
BRANCH   8  16
HETATM   16  O1  UNL     1      -2.260   1.574   1.434  1.00  0.00    -0.285 OA
ATOM     17  H1  UNL     1      -2.176   2.500   1.629  1.00  0.00     0.245 HD
ENDBRANCH   8  16
BRANCH   1  18
HETATM   18  C2  UNL     1       2.052  -1.161  -0.462  1.00  0.00     0.011 C 
HETATM   19  C1  UNL     1       3.392  -0.485  -0.343  1.00  0.00     0.006 C 
ENDBRANCH   1  18
TORSDOF 2
