REMARK  4 active torsions:
REMARK  status: ('A' for Active; 'I' for Inactive)
REMARK    1  A    between atoms: O1_2  and  C2_3 
REMARK    2  A    between atoms: C3_6  and  N2_7 
REMARK    3  A    between atoms: C4_11  and  C5_12 
REMARK    4  A    between atoms: C6_13  and  C7_14 
ROOT
HETATM    1  C2  UNL     1      -1.909   0.426   0.509  1.00  0.00     0.170 A 
HETATM    2  N1  UNL     1      -3.019   1.110   0.502  1.00  0.00    -0.316 N 
ATOM      3  H1  UNL     1      -3.894   0.686   0.810  1.00  0.00     0.170 HD
HETATM    4  C3  UNL     1      -2.985   2.374   0.084  1.00  0.00     0.145 A 
HETATM    5  S1  UNL     1      -1.344   2.606  -0.311  1.00  0.00    -0.041 SA
HETATM    6  C4  UNL     1      -0.769   1.045   0.086  1.00  0.00     0.113 A 
ENDROOT
BRANCH   6   7
HETATM    7  C5  UNL     1       0.580   0.500   0.001  1.00  0.00    -0.050 C 
HETATM    8  C6  UNL     1       1.704   0.069  -0.065  1.00  0.00    -0.063 C 
BRANCH   8   9
HETATM    9  C7  UNL     1       3.052  -0.428  -0.126  1.00  0.00     0.025 C 
HETATM   10  C8  UNL     1       3.354  -1.671  -0.862  1.00  0.00     0.061 C 
HETATM   11  C9  UNL     1       4.044   0.217   0.474  1.00  0.00     0.117 C 
HETATM   12 CL1  UNL     1       3.688   1.687   1.344  1.00  0.00    -0.070 Cl
HETATM   13 CL2  UNL     1       5.674  -0.368   0.409  1.00  0.00    -0.070 Cl
ENDBRANCH   8   9
ENDBRANCH   6   7
BRANCH   1  14
HETATM   14  O1  UNL     1      -1.852  -0.924   0.937  1.00  0.00    -0.339 OA
HETATM   15  C1  UNL     1      -2.153  -1.981   0.056  1.00  0.00     0.211 C 
ENDBRANCH   1  14
BRANCH   4  16
HETATM   16  N2  UNL     1      -3.948   3.251  -0.014  1.00  0.00    -0.380 N 
ATOM     17  H22 UNL     1      -4.930   3.112   0.222  1.00  0.00     0.158 HD
ATOM     18  H21 UNL     1      -3.922   4.219  -0.334  1.00  0.00     0.158 HD
ENDBRANCH   4  16
TORSDOF 4
