REMARK  5 active torsions:
REMARK  status: ('A' for Active; 'I' for Inactive)
REMARK    1  A    between atoms: C1_4  and  N2_5 
REMARK    2  A    between atoms: N2_5  and  C2_7 
REMARK    3  A    between atoms: C6_13  and  C7_14 
REMARK    4  A    between atoms: C7_14  and  N4_15 
REMARK    5  A    between atoms: C7_14  and  C8_19 
ROOT
HETATM    1  C2  UNL     1       0.941   0.408  -0.061  1.00  0.00     0.044 A 
HETATM    2  C3  UNL     1       1.709   1.583  -0.002  1.00  0.00     0.047 A 
HETATM    3  C4  UNL     1       1.198   2.769  -0.426  1.00  0.00     0.090 A 
HETATM    4  N3  UNL     1      -0.039   2.849  -0.904  1.00  0.00    -0.375 N 
ATOM      5  H3  UNL     1      -0.417   3.742  -1.220  1.00  0.00     0.164 HD
HETATM    6  C5  UNL     1      -0.781   1.736  -0.963  1.00  0.00     0.099 A 
HETATM    7  C6  UNL     1      -0.321   0.478  -0.543  1.00  0.00     0.023 A 
ENDROOT
BRANCH   7   8
HETATM    8  C7  UNL     1      -1.249  -0.657  -0.532  1.00  0.00     0.308 C 
BRANCH   8   9
HETATM    9  N4  UNL     1      -2.442  -0.407  -1.342  1.00  0.00    -0.063 N 
ATOM     10  H43 UNL     1      -2.909   0.453  -1.054  1.00  0.00     0.275 HD
ATOM     11  H42 UNL     1      -2.192  -0.145  -2.296  1.00  0.00     0.275 HD
ATOM     12  H41 UNL     1      -3.088  -1.197  -1.334  1.00  0.00     0.275 HD
ENDBRANCH   8   9
BRANCH   8  13
HETATM   13  C8  UNL     1      -1.599  -1.171   0.788  1.00  0.00     0.266 C 
HETATM   14  N5  UNL     1      -2.970  -1.623   0.990  1.00  0.00    -0.060 NA
HETATM   15  O1  UNL     1      -0.882  -1.279   1.775  1.00  0.00    -0.274 OA
ENDBRANCH   8  13
ENDBRANCH   7   8
BRANCH   1  16
HETATM   16  N2  UNL     1       1.580  -0.792   0.278  1.00  0.00    -0.352 N 
ATOM     17  H2  UNL     1       1.122  -1.680   0.073  1.00  0.00     0.166 HD
BRANCH  16  18
HETATM   18  C1  UNL     1       2.854  -0.791   0.902  1.00  0.00     0.173 C 
HETATM   19  N1  UNL     1       3.957  -0.704   0.227  1.00  0.00    -0.395 N 
ATOM     20  H12 UNL     1       3.889  -0.634  -0.788  1.00  0.00     0.156 HD
ATOM     21  H11 UNL     1       4.873  -0.703   0.676  1.00  0.00     0.156 HD
ENDBRANCH  16  18
ENDBRANCH   1  16
TORSDOF 5
