REMARK  4 active torsions:
REMARK  status: ('A' for Active; 'I' for Inactive)
REMARK    1  A    between atoms: C1_4  and  C2_6 
REMARK    2  A    between atoms: C4_8  and  C5_9 
REMARK    3  A    between atoms: C5_9  and  O1_10 
REMARK    4  A    between atoms: O1_10  and  C6_11 
ROOT
HETATM    1  C2  UNL     1      -1.735   0.605   0.159  1.00  0.00     0.250 C 
HETATM    2  C3  UNL     1      -0.881  -0.294  -0.749  1.00  0.00     0.049 C 
HETATM    3  C4  UNL     1       0.497   0.036  -0.146  1.00  0.00     0.038 C 
HETATM    4  C7  UNL     1       0.166   0.280   1.325  1.00  0.00     0.240 C 
HETATM    5  N4  UNL     1      -1.270   0.142   1.455  1.00  0.00    -0.064 N 
ATOM      6  H41 UNL     1      -1.592  -0.788   1.723  1.00  0.00     0.278 HD
ATOM      7  H42 UNL     1      -1.679   0.620   2.257  1.00  0.00     0.278 HD
ENDROOT
BRANCH   1   8
HETATM    8  C1  UNL     1      -3.169   0.374  -0.050  1.00  0.00     0.117 C 
HETATM    9  N1  UNL     1      -3.916   1.346  -0.440  1.00  0.00    -0.389 N 
ATOM     10  H12 UNL     1      -4.913   1.185  -0.585  1.00  0.00     0.157 HD
ATOM     11  H11 UNL     1      -3.509   2.268  -0.600  1.00  0.00     0.157 HD
HETATM   12  N2  UNL     1      -3.729  -0.895   0.171  1.00  0.00    -0.086 NA
ENDBRANCH   1   8
BRANCH   3  13
HETATM   13  C5  UNL     1       1.448  -1.100  -0.316  1.00  0.00     0.186 C 
BRANCH  13  14
HETATM   14  O1  UNL     1       2.696  -0.777   0.244  1.00  0.00    -0.306 OA
BRANCH  14  15
HETATM   15  C6  UNL     1       3.489   0.266  -0.184  1.00  0.00     0.372 C 
HETATM   16  N3  UNL     1       4.741   0.471   0.497  1.00  0.00    -0.032 NA
HETATM   17  O2  UNL     1       3.148   1.013  -1.123  1.00  0.00    -0.242 OA
ENDBRANCH  14  15
ENDBRANCH  13  14
ENDBRANCH   3  13
TORSDOF 4
