REMARK  9 active torsions:
REMARK  status: ('A' for Active; 'I' for Inactive)
REMARK    1  A    between atoms: N2_3  and  C2_5 
REMARK    2  A    between atoms: C3_12  and  N6_13 
REMARK    3  A    between atoms: N6_13  and  C4_15 
REMARK    4  A    between atoms: C6_17  and  O1_18 
REMARK    5  A    between atoms: C7_20  and  O2_21 
REMARK    6  A    between atoms: C8_23  and  N7_24 
REMARK    7  A    between atoms: N7_24  and  C9_26 
REMARK    8  A    between atoms: C9_26  and  C10_27 
REMARK    9  A    between atoms: C10_27  and  O3_28 
ROOT
HETATM    1  C4  UNL     1       0.002  -1.263  -0.303  1.00  0.00     0.110 C 
HETATM    2  C5  UNL     1      -0.559  -2.025   0.905  1.00  0.00     0.061 C 
HETATM    3  C6  UNL     1      -1.844  -2.622   0.350  1.00  0.00     0.151 C 
HETATM    4  C7  UNL     1      -2.056  -2.039  -1.023  1.00  0.00     0.171 C 
HETATM    5  C8  UNL     1      -1.252  -0.720  -0.890  1.00  0.00     0.130 C 
ENDROOT
BRANCH   1   6
HETATM    6  N6  UNL     1       0.929  -0.259   0.086  1.00  0.00    -0.365 N 
ATOM      7  H6  UNL     1       1.102  -0.157   1.086  1.00  0.00     0.161 HD
BRANCH   6   8
HETATM    8  C3  UNL     1       1.639   0.617  -0.779  1.00  0.00     0.164 A 
HETATM    9  C2  UNL     1       2.527   1.604  -0.340  1.00  0.00     0.168 A 
HETATM   10  N3  UNL     1       2.980   2.180  -1.463  1.00  0.00    -0.268 N 
HETATM   11  N4  UNL     1       2.429   1.610  -2.507  1.00  0.00    -0.239 N 
ATOM     12  H3  UNL     1       3.652   2.946  -1.499  1.00  0.00     0.190 HD
HETATM   13  N5  UNL     1       1.611   0.658  -2.109  1.00  0.00    -0.268 N 
ATOM     14  H4  UNL     1       2.607   1.865  -3.479  1.00  0.00     0.208 HD
ATOM     15  H5  UNL     1       1.053   0.056  -2.715  1.00  0.00     0.190 HD
BRANCH   9  16
HETATM   16  N2  UNL     1       2.856   1.911   1.011  1.00  0.00    -0.336 N 
HETATM   17  C1  UNL     1       4.073   1.901   1.387  1.00  0.00     0.191 C 
HETATM   18  N1  UNL     1       5.091   1.586   0.456  1.00  0.00    -0.097 NA
ATOM     19  H2  UNL     1       2.118   2.139   1.677  1.00  0.00     0.168 HD
ENDBRANCH   9  16
ENDBRANCH   6   8
ENDBRANCH   1   6
BRANCH   5  20
HETATM   20  N7  UNL     1      -1.987   0.115  -0.045  1.00  0.00    -0.411 N 
ATOM     21  H7  UNL     1      -2.919  -0.186   0.238  1.00  0.00     0.153 HD
BRANCH  20  22
HETATM   22  C9  UNL     1      -1.516   1.337   0.432  1.00  0.00     0.140 C 
BRANCH  22  23
HETATM   23  C10 UNL     1      -2.690   2.014   1.200  1.00  0.00     0.183 C 
BRANCH  23  24
HETATM   24  O3  UNL     1      -2.254   3.240   1.691  1.00  0.00    -0.399 OA
ATOM     25  H3  UNL     1      -2.970   3.653   2.159  1.00  0.00     0.209 HD
ENDBRANCH  23  24
ENDBRANCH  22  23
ENDBRANCH  20  22
ENDBRANCH   5  20
BRANCH   3  26
HETATM   26  O1  UNL     1      -1.808  -3.990   0.399  1.00  0.00    -0.393 OA
ATOM     27  H1  UNL     1      -2.610  -4.363   0.053  1.00  0.00     0.210 HD
ENDBRANCH   3  26
BRANCH   4  28
HETATM   28  O2  UNL     1      -1.442  -2.753  -2.034  1.00  0.00    -0.391 OA
ATOM     29  H2  UNL     1      -1.576  -2.385  -2.900  1.00  0.00     0.210 HD
ENDBRANCH   4  28
TORSDOF 9
