REMARK  14 active torsions:
REMARK  status: ('A' for Active; 'I' for Inactive)
REMARK    1  A    between atoms: C3_3  and  C4_4 
REMARK    2  A    between atoms: C4_4  and  C5_5 
REMARK    3  A    between atoms: C6_6  and  C7_7 
REMARK    4  A    between atoms: C7_7  and  N1_8 
REMARK    5  A    between atoms: N1_8  and  C8_10 
REMARK    6  A    between atoms: C8_10  and  O1_11 
REMARK    7  A    between atoms: C8_10  and  N2_13 
REMARK    8  A    between atoms: N3_16  and  C11_17 
REMARK    9  A    between atoms: C15_21  and  O2_22 
REMARK   10  A    between atoms: C15_21  and  C16_24 
REMARK   11  A    between atoms: C16_24  and  C17_25 
REMARK   12  A    between atoms: N4_27  and  N5_29 
REMARK   13  A    between atoms: N5_29  and  N6_31 
REMARK   14  A    between atoms: C19_34  and  N7_35 
ROOT
HETATM    1  C1  UNL     1       9.721   2.821   0.023  1.00  0.00     0.112 C 
HETATM    2  C2  UNL     1       8.273   2.832  -0.197  1.00  0.00    -0.111 C 
HETATM    3  C3  UNL     1       7.084   2.834  -0.398  1.00  0.00    -0.103 C 
ENDROOT
BRANCH   3   4
HETATM    4  C4  UNL     1       5.628   2.834  -0.670  1.00  0.00     0.120 C 
BRANCH   4   5
HETATM    5  C5  UNL     1       5.074   1.456  -0.578  1.00  0.00    -0.017 C 
HETATM    6  C6  UNL     1       4.126   1.090   0.271  1.00  0.00    -0.010 C 
BRANCH   6   7
HETATM    7  C7  UNL     1       3.644  -0.291   0.287  1.00  0.00     0.150 C 
BRANCH   7   8
HETATM    8  N1  UNL     1       2.207  -0.400  -0.007  1.00  0.00    -0.353 N 
ATOM      9  H1  UNL     1       1.683   0.456  -0.190  1.00  0.00     0.163 HD
BRANCH   8  10
HETATM   10  C8  UNL     1       1.528  -1.613  -0.047  1.00  0.00     0.215 C 
BRANCH  10  11
HETATM   11  O1  UNL     1       2.302  -2.629   0.202  1.00  0.00    -0.333 OA
ATOM     12  H1  UNL     1       1.838  -3.458   0.175  1.00  0.00     0.220 HD
ENDBRANCH  10  11
BRANCH  10  13
HETATM   13  N2  UNL     1       0.208  -1.880  -0.303  1.00  0.00    -0.336 N 
HETATM   14  C9  UNL     1      -0.119  -3.372  -0.286  1.00  0.00     0.146 C 
HETATM   15  C10 UNL     1      -0.894  -3.590   0.978  1.00  0.00     0.137 C 
HETATM   16  N3  UNL     1      -1.676  -2.419   1.275  1.00  0.00    -0.403 N 
HETATM   17  C13 UNL     1      -2.170  -1.776   0.139  1.00  0.00     0.140 C 
HETATM   18  C14 UNL     1      -0.950  -1.129  -0.592  1.00  0.00     0.155 C 
HETATM   19  C19 UNL     1      -2.702  -0.366   0.278  1.00  0.00     0.255 C 
HETATM   20  C15 UNL     1      -1.358   0.123   0.079  1.00  0.00     0.150 C 
BRANCH  16  21
HETATM   21  C11 UNL     1      -2.524  -2.621   2.415  1.00  0.00     0.113 C 
HETATM   22  C12 UNL     1      -3.615  -3.630   2.232  1.00  0.00     0.026 C 
ENDBRANCH  16  21
BRANCH  20  23
HETATM   23  O2  UNL     1      -0.657   0.088   1.356  1.00  0.00    -0.379 OA
ATOM     24  H2  UNL     1      -0.919   0.893   1.787  1.00  0.00     0.211 HD
ENDBRANCH  20  23
BRANCH  20  25
HETATM   25  C16 UNL     1      -0.988   1.390  -0.541  1.00  0.00     0.043 C 
HETATM   26  N4  UNL     1      -0.609   2.385   0.161  1.00  0.00    -0.292 N 
ATOM     27  H4  UNL     1      -0.379   3.213  -0.389  1.00  0.00     0.188 HD
BRANCH  25  28
HETATM   28  C17 UNL     1      -1.034   1.654  -1.999  1.00  0.00     0.053 C 
HETATM   29  C18 UNL     1      -0.518   3.089  -2.222  1.00  0.00     0.011 C 
ENDBRANCH  25  28
BRANCH  26  30
HETATM   30  N5  UNL     1      -0.453   2.554   1.496  1.00  0.00    -0.249 N 
ATOM     31  H5  UNL     1       0.356   2.163   1.980  1.00  0.00     0.207 HD
BRANCH  30  32
HETATM   32  N6  UNL     1      -1.345   3.217   2.140  1.00  0.00    -0.331 N 
ATOM     33  H62 UNL     1      -2.148   3.602   1.642  1.00  0.00     0.178 HD
ATOM     34  H61 UNL     1      -1.228   3.344   3.145  1.00  0.00     0.178 HD
ENDBRANCH  30  32
ENDBRANCH  26  30
ENDBRANCH  20  25
BRANCH  19  35
HETATM   35  N7  UNL     1      -3.871  -0.029  -0.429  1.00  0.00    -0.069 N 
HETATM   36  C20 UNL     1      -4.186   1.380  -0.380  1.00  0.00     0.272 C 
HETATM   37  C21 UNL     1      -4.076  -0.519  -1.743  1.00  0.00     0.272 C 
HETATM   38  C22 UNL     1      -4.998  -0.637   0.348  1.00  0.00     0.272 C 
ENDBRANCH  19  35
ENDBRANCH  10  13
ENDBRANCH   8  10
ENDBRANCH   7   8
ENDBRANCH   6   7
ENDBRANCH   4   5
ENDBRANCH   3   4
TORSDOF 14
