REMARK  6 active torsions:
REMARK  status: ('A' for Active; 'I' for Inactive)
REMARK    1  A    between atoms: C3_3  and  C5_5 
REMARK    2  A    between atoms: C7_8  and  C8_9 
REMARK       I    between atoms: C8_9  and  N2_11 
REMARK       I    between atoms: N2_11  and  C9_13 
REMARK    3  A    between atoms: C16_22  and  C17_23 
REMARK    4  A    between atoms: C17_23  and  C18_24 
REMARK    5  A    between atoms: C17_23  and  N5_29 
REMARK    6  A    between atoms: C18_24  and  N4_25 
ROOT
HETATM    1  C5  UNL     1       1.028   1.552   0.427  1.00  0.00     0.098 C 
HETATM    2  N1  UNL     1       0.828   0.402  -0.260  1.00  0.00    -0.351 N 
HETATM    3  C6  UNL     1       2.019  -0.128  -0.860  1.00  0.00     0.107 C 
HETATM    4  C7  UNL     1       2.678  -1.199   0.013  1.00  0.00     0.102 C 
HETATM    5  C10 UNL     1       2.038  -2.515  -0.355  1.00  0.00     0.022 C 
HETATM    6  C11 UNL     1       1.215  -2.191  -1.525  1.00  0.00     0.007 C 
HETATM    7  C12 UNL     1       1.754  -0.899  -2.110  1.00  0.00     0.016 C 
HETATM    8  C13 UNL     1       0.367  -0.658  -2.582  1.00  0.00     0.023 C 
HETATM    9  C14 UNL     1      -0.098  -1.442  -1.343  1.00  0.00     0.006 C 
HETATM   10  C15 UNL     1      -1.203  -2.384  -1.640  1.00  0.00     0.022 C 
HETATM   11  C16 UNL     1      -0.129  -0.596  -0.094  1.00  0.00     0.057 C 
ENDROOT
BRANCH  11  12
HETATM   12  C17 UNL     1      -1.382  -0.431   0.653  1.00  0.00     0.182 C 
BRANCH  12  13
HETATM   13  C18 UNL     1      -2.400   0.576   0.369  1.00  0.00     0.240 C 
BRANCH  13  14
HETATM   14  N4  UNL     1      -3.206   0.832  -0.703  1.00  0.00    -0.056 N 
HETATM   15  C19 UNL     1      -4.270  -0.056  -1.075  1.00  0.00     0.277 C 
HETATM   16  C20 UNL     1      -2.695   1.410  -1.913  1.00  0.00     0.277 C 
HETATM   17  C21 UNL     1      -4.058   2.021  -0.212  1.00  0.00     0.277 C 
ENDBRANCH  13  14
ENDBRANCH  12  13
BRANCH  12  18
HETATM   18  N5  UNL     1      -1.355  -0.780   2.084  1.00  0.00    -0.045 N 
HETATM   19  C22 UNL     1      -0.160  -1.324   2.594  1.00  0.00     0.278 C 
HETATM   20  C23 UNL     1      -1.763   0.306   2.952  1.00  0.00     0.278 C 
HETATM   21  C24 UNL     1      -2.363  -1.826   2.398  1.00  0.00     0.278 C 
ENDBRANCH  12  18
ENDBRANCH  11  12
BRANCH   1  22
HETATM   22  C3  UNL     1       1.244   2.815  -0.342  1.00  0.00    -0.051 C 
HETATM   23  C2  UNL     1       0.355   3.810  -0.155  1.00  0.00    -0.023 C 
HETATM   24  C1  UNL     1       0.514   5.086  -0.866  1.00  0.00     0.036 C 
HETATM   25  C4  UNL     1       2.348   3.087  -1.278  1.00  0.00     0.049 C 
ENDBRANCH   1  22
BRANCH   4  26
HETATM   26  C8  UNL     1       4.111  -1.274  -0.360  1.00  0.00     0.231 C 
HETATM   27  O1  UNL     1       4.491  -0.685  -1.439  1.00  0.00    -0.273 OA
HETATM   28  N2  UNL     1       5.122  -1.942   0.362  1.00  0.00    -0.281 N 
HETATM   29  C9  UNL     1       5.007  -2.622   1.583  1.00  0.00     0.335 C 
ATOM     30  H2  UNL     1       6.052  -1.929  -0.056  1.00  0.00     0.173 HD
HETATM   31  N3  UNL     1       3.843  -2.784   2.356  1.00  0.00    -0.040 NA
HETATM   32  O2  UNL     1       6.062  -3.164   2.070  1.00  0.00    -0.251 OA
ENDBRANCH   4  26
TORSDOF 6
