REMARK  3 active torsions:
REMARK  status: ('A' for Active; 'I' for Inactive)
REMARK    1  A    between atoms: C3_3  and  C4_4 
REMARK    2  A    between atoms: C4_4  and  O1_6 
REMARK    3  A    between atoms: C7_17  and  N5_18 
ROOT
HETATM    1  C1  UNL     1      -1.931   1.448  -1.162  1.00  0.00     0.055 C 
HETATM    2  C2  UNL     1      -1.691   0.234  -0.305  1.00  0.00     0.015 A 
HETATM    3  C3  UNL     1      -2.800  -0.397   0.225  1.00  0.00     0.087 A 
HETATM    4  N1  UNL     1      -2.540  -1.419   1.078  1.00  0.00    -0.187 N 
ATOM      5  H1  UNL     1      -3.323  -1.918   1.501  1.00  0.00     0.184 HD
HETATM    6  C6  UNL     1      -1.260  -1.807   1.393  1.00  0.00     0.700 A 
HETATM    7  N2  UNL     1      -1.052  -2.820   2.153  1.00  0.00    -0.233 N 
ATOM      8  H21 UNL     1      -0.102  -3.108   2.387  1.00  0.00     0.174 HD
ATOM      9  H22 UNL     1      -1.850  -3.307   2.561  1.00  0.00     0.174 HD
HETATM   10  N3  UNL     1      -0.208  -1.165   0.855  1.00  0.00    -0.055 N 
HETATM   11  N4  UNL     1       1.098  -1.281   0.975  1.00  0.00    -0.109 N 
ATOM     12  H4  UNL     1       1.560  -1.982   1.554  1.00  0.00     0.207 HD
HETATM   13  C7  UNL     1       1.735  -0.377   0.253  1.00  0.00     0.699 A 
HETATM   14  N7  UNL     1       0.755   0.364  -0.369  1.00  0.00    -0.172 N 
ATOM     15  H7  UNL     1       0.897   1.153  -1.000  1.00  0.00     0.186 HD
HETATM   16  C11 UNL     1      -0.418  -0.149   0.012  1.00  0.00     0.169 A 
ENDROOT
BRANCH  13  17
HETATM   17  N5  UNL     1       3.136  -0.090   0.072  1.00  0.00    -0.190 N 
HETATM   18  C8  UNL     1       3.754   0.859  -0.809  1.00  0.00     0.170 C 
HETATM   19  C9  UNL     1       5.078   1.138  -0.102  1.00  0.00     0.254 C 
HETATM   20  N6  UNL     1       5.375  -0.115   0.509  1.00  0.00    -0.057 N 
HETATM   21  C10 UNL     1       4.157  -0.803   0.784  1.00  0.00     0.374 C 
ATOM     22  H62 UNL     1       6.019  -0.675  -0.050  1.00  0.00     0.279 HD
ATOM     23  H61 UNL     1       5.958  -0.012   1.340  1.00  0.00     0.279 HD
ENDBRANCH  13  17
BRANCH   3  24
HETATM   24  C4  UNL     1      -4.149  -0.129  -0.267  1.00  0.00     0.067 C 
HETATM   25  C5  UNL     1      -5.106   0.545   0.710  1.00  0.00     0.078 C 
BRANCH  24  26
HETATM   26  O1  UNL     1      -4.354   0.100  -1.603  1.00  0.00    -0.363 OA
ATOM     27  H1  UNL     1      -5.231   0.274  -1.923  1.00  0.00     0.217 HD
ENDBRANCH  24  26
ENDBRANCH   3  24
TORSDOF 3
