REMARK  0 active torsions:
REMARK  status: ('A' for Active; 'I' for Inactive)
ROOT
HETATM    1  C1  UNL     1      -1.809   1.127  -0.150  1.00  0.00     0.262 C 
HETATM    2  C2  UNL     1      -2.506  -0.239  -0.127  1.00  0.00     0.198 C 
HETATM    3  O1  UNL     1      -1.481  -1.157   0.093  1.00  0.00    -0.349 OA
HETATM    4  C3  UNL     1      -0.288  -0.515  -0.040  1.00  0.00     0.276 C 
HETATM    5  C4  UNL     1       0.758  -1.295  -0.800  1.00  0.00     0.239 C 
HETATM    6  O2  UNL     1       1.704  -0.380  -1.211  1.00  0.00    -0.384 OA
HETATM    7  C5  UNL     1       2.359   0.266  -0.197  1.00  0.00     0.202 C 
HETATM    8  C6  UNL     1       1.631   0.414   1.078  1.00  0.00     0.180 A 
HETATM    9  O3  UNL     1       1.422  -0.814   1.759  1.00  0.00    -0.368 OA
HETATM   10  C7  UNL     1       0.349  -0.109   1.264  1.00  0.00     0.218 A 
HETATM   11  N1  UNL     1      -0.538   0.731  -0.772  1.00  0.00    -0.036 N 
ATOM     12  H11 UNL     1       0.209   1.424  -0.744  1.00  0.00     0.281 HD
ATOM     13  H12 UNL     1      -0.540   0.660  -1.790  1.00  0.00     0.281 HD
ENDROOT
TORSDOF 0
