REMARK  8 active torsions:
REMARK  status: ('A' for Active; 'I' for Inactive)
REMARK    1  A    between atoms: N1_2  and  C3_4 
REMARK    2  A    between atoms: C4_7  and  N3_8 
REMARK    3  A    between atoms: N3_8  and  N4_10 
REMARK    4  A    between atoms: N4_10  and  O1_11 
REMARK    5  A    between atoms: N4_10  and  C5_13 
REMARK    6  A    between atoms: C7_16  and  N5_17 
REMARK    7  A    between atoms: N5_17  and  N6_19 
REMARK       I    between atoms: N6_19  and  C8_20 
REMARK       I    between atoms: C8_20  and  N7_22 
REMARK    8  A    between atoms: N7_22  and  N8_24 
ROOT
HETATM    1  C3  UNL     1      -2.797  -0.085  -0.528  1.00  0.00     0.682 A 
HETATM    2  N2  UNL     1      -1.954   0.742   0.164  1.00  0.00    -0.174 N 
ATOM      3  H2  UNL     1      -2.357   1.553   0.633  1.00  0.00     0.186 HD
HETATM    4  C4  UNL     1      -0.626   0.550   0.264  1.00  0.00     0.155 A 
HETATM    5  C6  UNL     1      -0.125  -0.591  -0.406  1.00  0.00     0.101 A 
HETATM    6  C7  UNL     1       1.208  -0.908  -0.381  1.00  0.00     0.153 A 
HETATM    7  N9  UNL     1       1.670  -1.992  -1.019  1.00  0.00    -0.292 N 
ATOM      8  H9  UNL     1       2.668  -2.198  -0.981  1.00  0.00     0.172 HD
HETATM    9  C9  UNL     1       0.854  -2.825  -1.714  1.00  0.00     0.327 A 
HETATM   10  O4  UNL     1       1.318  -3.839  -2.309  1.00  0.00    -0.247 OA
HETATM   11  N10 UNL     1      -0.453  -2.530  -1.745  1.00  0.00    -0.293 N 
ATOM     12  H10 UNL     1      -1.091  -3.138  -2.259  1.00  0.00     0.172 HD
HETATM   13  C10 UNL     1      -0.947  -1.428  -1.100  1.00  0.00     0.142 A 
HETATM   14  N11 UNL     1      -2.260  -1.143  -1.136  1.00  0.00    -0.175 N 
ATOM     15  H11 UNL     1      -2.877  -1.768  -1.655  1.00  0.00     0.186 HD
ENDROOT
BRANCH   6  16
HETATM   16  N5  UNL     1       1.974  -0.091   0.303  1.00  0.00    -0.213 N 
ATOM     17  H5  UNL     1       1.569   0.721   0.769  1.00  0.00     0.204 HD
BRANCH  16  18
HETATM   18  N6  UNL     1       3.270  -0.324   0.386  1.00  0.00    -0.262 NA
HETATM   19  C8  UNL     1       4.604  -0.563   0.472  1.00  0.00     0.430 C 
HETATM   20  O3  UNL     1       5.253  -1.119   1.402  1.00  0.00    -0.227 OA
HETATM   21  N7  UNL     1       5.484  -0.148  -0.624  1.00  0.00    -0.245 N 
ATOM     22  H7  UNL     1       5.073   0.310  -1.437  1.00  0.00     0.192 HD
BRANCH  21  23
HETATM   23  N8  UNL     1       6.861  -0.356  -0.596  1.00  0.00    -0.340 N 
ATOM     24  H82 UNL     1       7.255  -0.815   0.225  1.00  0.00     0.177 HD
ATOM     25  H81 UNL     1       7.473  -0.067  -1.359  1.00  0.00     0.177 HD
ENDBRANCH  21  23
ENDBRANCH  16  18
ENDBRANCH   6  16
BRANCH   4  26
HETATM   26  N3  UNL     1       0.149   1.298   0.880  1.00  0.00    -0.255 N 
ATOM     27  H3  UNL     1       1.100   0.936   0.804  1.00  0.00     0.191 HD
BRANCH  26  28
HETATM   28  N4  UNL     1       0.159   2.405   1.601  1.00  0.00    -0.135 N 
BRANCH  28  29
HETATM   29  O1  UNL     1       1.411   2.801   2.119  1.00  0.00    -0.266 OA
ATOM     30  H1  UNL     1       1.418   3.597   2.637  1.00  0.00     0.247 HD
ENDBRANCH  28  29
BRANCH  28  31
HETATM   31  C5  UNL     1      -0.863   3.313   1.977  1.00  0.00     0.401 C 
HETATM   32  O2  UNL     1      -2.062   3.216   1.669  1.00  0.00    -0.279 OA
ENDBRANCH  28  31
ENDBRANCH  26  28
ENDBRANCH   4  26
BRANCH   1  33
HETATM   33  N1  UNL     1      -4.183   0.214  -0.563  1.00  0.00    -0.226 N 
HETATM   34  C1  UNL     1      -5.117  -0.623  -1.262  1.00  0.00     0.168 C 
HETATM   35  C2  UNL     1      -4.703   1.403   0.124  1.00  0.00     0.168 C 
ENDBRANCH   1  33
TORSDOF 8
