REMARK  8 active torsions:
REMARK  status: ('A' for Active; 'I' for Inactive)
REMARK    1  A    between atoms: N1_1  and  N2_4 
REMARK    2  A    between atoms: C1_5  and  N3_6 
REMARK    3  A    between atoms: N3_6  and  C2_8 
REMARK    4  A    between atoms: C2_8  and  C3_9 
REMARK    5  A    between atoms: C3_9  and  N4_10 
REMARK    6  A    between atoms: N4_10  and  C4_12 
REMARK    7  A    between atoms: C4_12  and  C5_13 
REMARK       I    between atoms: C5_13  and  N5_15 
REMARK    8  A    between atoms: N5_15  and  N6_17 
REMARK       I    between atoms: N6_17  and  C6_19 
ROOT
HETATM    1  N2  UNL     1      -2.235   0.023  -0.829  1.00  0.00    -0.052 N 
HETATM    2  C1  UNL     1      -1.962   0.055   0.463  1.00  0.00     0.702 A 
HETATM    3  N7  UNL     1      -3.003   0.111   1.356  1.00  0.00    -0.188 N 
ATOM      4  H7  UNL     1      -2.797   0.137   2.355  1.00  0.00     0.184 HD
HETATM    5  C7  UNL     1      -4.266   0.132   0.960  1.00  0.00     0.082 A 
HETATM    6  C8  UNL     1      -5.306   0.188   1.886  1.00  0.00     0.038 A 
HETATM    7  C9  UNL     1      -6.587   0.205   1.415  1.00  0.00     0.077 A 
HETATM    8  C10 UNL     1      -6.822   0.168   0.050  1.00  0.00     0.245 A 
HETATM    9  O4  UNL     1      -8.005   0.184  -0.404  1.00  0.00    -0.268 OA
HETATM   10  N8  UNL     1      -5.817   0.115  -0.825  1.00  0.00    -0.317 N 
ATOM     11  H8  UNL     1      -6.019   0.089  -1.824  1.00  0.00     0.169 HD
HETATM   12  C11 UNL     1      -4.534   0.096  -0.401  1.00  0.00     0.134 A 
HETATM   13  C12 UNL     1      -3.502   0.040  -1.312  1.00  0.00     0.310 A 
HETATM   14  O5  UNL     1      -3.754   0.009  -2.539  1.00  0.00    -0.263 OA
ENDROOT
BRANCH   2  15
HETATM   15  N3  UNL     1      -0.786   0.011   0.922  1.00  0.00    -0.223 N 
ATOM     16  H3  UNL     1      -0.760   0.046   1.941  1.00  0.00     0.177 HD
BRANCH  15  17
HETATM   17  C2  UNL     1       0.495  -0.075   0.351  1.00  0.00     0.157 C 
BRANCH  17  18
HETATM   18  C3  UNL     1       1.505  -0.644   1.397  1.00  0.00     0.134 C 
BRANCH  18  19
HETATM   19  N4  UNL     1       2.797  -0.766   0.813  1.00  0.00    -0.412 N 
ATOM     20  H4  UNL     1       3.191  -1.680   0.590  1.00  0.00     0.153 HD
BRANCH  19  21
HETATM   21  C4  UNL     1       3.519   0.426   0.551  1.00  0.00     0.219 C 
BRANCH  21  22
HETATM   22  C5  UNL     1       4.745   0.157  -0.270  1.00  0.00     0.253 C 
HETATM   23  O1  UNL     1       4.964  -1.021  -0.625  1.00  0.00    -0.270 OA
HETATM   24  N5  UNL     1       5.593   1.235  -0.611  1.00  0.00    -0.264 N 
ATOM     25  H5  UNL     1       5.344   2.164  -0.271  1.00  0.00     0.190 HD
BRANCH  24  26
HETATM   26  N6  UNL     1       6.744   1.112  -1.380  1.00  0.00    -0.241 N 
HETATM   27  C6  UNL     1       7.799   0.248  -1.012  1.00  0.00     0.303 C 
HETATM   28  O2  UNL     1       7.823  -0.481   0.003  1.00  0.00    -0.628 OA
HETATM   29  O3  UNL     1       8.927   0.188  -1.843  1.00  0.00    -0.628 OA
ATOM     30  H6  UNL     1       6.829   1.662  -2.235  1.00  0.00     0.193 HD
ENDBRANCH  24  26
ENDBRANCH  21  22
ENDBRANCH  19  21
ENDBRANCH  18  19
ENDBRANCH  17  18
ENDBRANCH  15  17
ENDBRANCH   2  15
BRANCH   1  31
HETATM   31  N1  UNL     1      -1.243  -0.017  -1.829  1.00  0.00    -0.321 N 
ATOM     32  H12 UNL     1      -0.290  -0.030  -1.466  1.00  0.00     0.178 HD
ATOM     33  H11 UNL     1      -1.454  -0.042  -2.827  1.00  0.00     0.178 HD
ENDBRANCH   1  31
TORSDOF 8
