REMARK  6 active torsions:
REMARK  status: ('A' for Active; 'I' for Inactive)
REMARK    1  A    between atoms: C2_2  and  O2_4 
REMARK    2  A    between atoms: O2_4  and  N1_5 
REMARK       I    between atoms: C3_7  and  N2_8 
REMARK       I    between atoms: C3_7  and  N5_21 
REMARK    3  A    between atoms: N3_10  and  C4_12 
REMARK    4  A    between atoms: C7_18  and  O3_19 
REMARK    5  A    between atoms: N5_21  and  C8_23 
REMARK    6  A    between atoms: C8_23  and  C9_24 
ROOT
HETATM    1  N1  UNL     1       0.678   2.587   0.694  1.00  0.00    -0.087 N 
ATOM      2  H1  UNL     1       1.673   2.809   0.715  1.00  0.00     0.214 HD
HETATM    3  C3  UNL     1       0.248   1.372   0.478  1.00  0.00     0.713 C 
HETATM    4  N2  UNL     1       1.190   0.326   0.266  1.00  0.00    -0.130 N 
ATOM      5  H2  UNL     1       1.044  -0.568   0.736  1.00  0.00     0.205 HD
HETATM    6  N3  UNL     1       2.197   0.461  -0.479  1.00  0.00    -0.276 N 
ATOM      7  H3  UNL     1       2.396   1.330  -0.975  1.00  0.00     0.188 HD
HETATM    8  N5  UNL     1      -1.121   1.034   0.442  1.00  0.00    -0.223 N 
ATOM      9  H5  UNL     1      -1.777   1.476   1.086  1.00  0.00     0.177 HD
ENDROOT
BRANCH   1  10
HETATM   10  O2  UNL     1      -0.285   3.550   0.891  1.00  0.00    -0.185 OA
BRANCH  10  11
HETATM   11  C2  UNL     1      -0.951   4.053  -0.210  1.00  0.00     0.278 C 
HETATM   12  C1  UNL     1      -2.001   5.087  -0.112  1.00  0.00     0.128 C 
HETATM   13  O1  UNL     1      -0.654   3.614  -1.348  1.00  0.00    -0.264 OA
ENDBRANCH  10  11
ENDBRANCH   1  10
BRANCH   8  14
HETATM   14  C8  UNL     1      -1.585   0.060  -0.512  1.00  0.00     0.142 C 
BRANCH  14  15
HETATM   15  C9  UNL     1      -3.072  -0.138  -0.366  1.00  0.00    -0.004 C 
HETATM   16  C10 UNL     1      -3.546  -1.152  -1.361  1.00  0.00     0.011 C 
HETATM   17  C11 UNL     1      -3.357  -0.540   1.068  1.00  0.00     0.011 C 
ENDBRANCH  14  15
ENDBRANCH   8  14
BRANCH   6  18
HETATM   18  C4  UNL     1       3.053  -0.704  -0.583  1.00  0.00     0.143 A 
HETATM   19  S1  UNL     1       4.050  -1.216  -1.862  1.00  0.00    -0.037 SA
HETATM   20  C5  UNL     1       4.666  -2.632  -1.144  1.00  0.00     0.148 A 
HETATM   21  S2  UNL     1       5.741  -3.737  -1.763  1.00  0.00    -0.052 SA
HETATM   22  N4  UNL     1       4.083  -2.656   0.050  1.00  0.00    -0.315 N 
HETATM   23  C6  UNL     1       4.390  -3.782   0.987  1.00  0.00     0.160 C 
HETATM   24  C7  UNL     1       3.252  -1.677   0.358  1.00  0.00     0.179 A 
BRANCH  24  25
HETATM   25  O3  UNL     1       2.568  -1.604   1.617  1.00  0.00    -0.344 OA
ATOM     26  H3  UNL     1       2.706  -2.280   2.270  1.00  0.00     0.219 HD
ENDBRANCH  24  25
ENDBRANCH   6  18
TORSDOF 6
