REMARK  7 active torsions:
REMARK  status: ('A' for Active; 'I' for Inactive)
REMARK    1  A    between atoms: O1_2  and  C2_3 
REMARK    2  A    between atoms: C2_3  and  C3_5 
REMARK    3  A    between atoms: C4_6  and  C5_7 
REMARK    4  A    between atoms: N1_8  and  C6_10 
REMARK    5  A    between atoms: C11_17  and  C12_18 
REMARK    6  A    between atoms: C15_22  and  O5_23 
REMARK    7  A    between atoms: C16_25  and  O6_26 
ROOT
HETATM    1  C6  UNL     1      -1.207   1.186  -0.561  1.00  0.00     0.156 A 
HETATM    2  O3  UNL     1      -1.313   1.085  -1.857  1.00  0.00    -0.296 OA
HETATM    3  C7  UNL     1      -2.351   0.382  -2.225  1.00  0.00     0.073 A 
HETATM    4  C8  UNL     1      -2.779   0.064  -3.611  1.00  0.00     0.078 C 
HETATM    5  C9  UNL     1      -3.028  -0.043  -1.074  1.00  0.00     0.084 A 
HETATM    6  C10 UNL     1      -4.219  -0.843  -1.038  1.00  0.00     0.102 C 
HETATM    7  N2  UNL     1      -5.158  -1.485  -1.031  1.00  0.00    -0.191 NA
HETATM    8  C11 UNL     1      -2.292   0.473  -0.033  1.00  0.00     0.020 A 
ENDROOT
BRANCH   8   9
HETATM    9  C12 UNL     1      -2.521   0.338   1.405  1.00  0.00     0.016 C 
HETATM   10  C13 UNL     1      -3.849  -0.230   1.796  1.00  0.00     0.015 C 
HETATM   11  C14 UNL     1      -1.477  -0.602   2.043  1.00  0.00     0.015 C 
ENDBRANCH   8   9
BRANCH   1  12
HETATM   12  N1  UNL     1      -0.180   1.890   0.130  1.00  0.00    -0.343 N 
HETATM   13  C5  UNL     1       1.016   1.509   0.304  1.00  0.00     0.128 C 
ATOM     14  H1  UNL     1      -0.433   2.795   0.526  1.00  0.00     0.167 HD
BRANCH  13  15
HETATM   15  C4  UNL     1       1.611   0.270  -0.164  1.00  0.00     0.113 A 
HETATM   16  C3  UNL     1       2.888  -0.207  -0.011  1.00  0.00     0.112 A 
HETATM   17  C16 UNL     1       2.958  -1.452  -0.651  1.00  0.00     0.143 A 
HETATM   18  C15 UNL     1       1.703  -1.660  -1.161  1.00  0.00     0.219 A 
HETATM   19  O4  UNL     1       0.929  -0.635  -0.862  1.00  0.00    -0.283 OA
BRANCH  16  20
HETATM   20  C2  UNL     1       3.985   0.440   0.687  1.00  0.00     0.298 C 
HETATM   21  O2  UNL     1       5.123  -0.149   0.739  1.00  0.00    -0.259 OA
BRANCH  20  22
HETATM   22  O1  UNL     1       3.927   1.656   1.315  1.00  0.00    -0.322 OA
HETATM   23  C1  UNL     1       4.962   2.299   1.992  1.00  0.00     0.213 C 
ENDBRANCH  20  22
ENDBRANCH  16  20
BRANCH  17  24
HETATM   24  O6  UNL     1       4.032  -2.306  -0.762  1.00  0.00    -0.355 OA
ATOM     25  H6  UNL     1       4.079  -3.150  -1.196  1.00  0.00     0.218 HD
ENDBRANCH  17  24
BRANCH  18  26
HETATM   26  O5  UNL     1       1.319  -2.786  -1.883  1.00  0.00    -0.339 OA
ATOM     27  H5  UNL     1       1.877  -3.524  -2.098  1.00  0.00     0.220 HD
ENDBRANCH  18  26
ENDBRANCH  13  15
ENDBRANCH   1  12
TORSDOF 7
