REMARK  20 active torsions:
REMARK  status: ('A' for Active; 'I' for Inactive)
REMARK    1  A    between atoms: C2_2  and  C3_3 
REMARK    2  A    between atoms: C3_3  and  O1_4 
REMARK    3  A    between atoms: O1_4  and  C4_5 
REMARK    4  A    between atoms: C5_7  and  C6_8 
REMARK    5  A    between atoms: C10_12  and  O3_13 
REMARK    6  A    between atoms: O3_13  and  C11_14 
REMARK    7  A    between atoms: C11_14  and  C12_15 
REMARK    8  A    between atoms: C12_15  and  O4_16 
REMARK    9  A    between atoms: C12_15  and  C13_18 
REMARK   10  A    between atoms: C13_18  and  O5_19 
REMARK   11  A    between atoms: O5_19  and  C14_20 
REMARK   12  A    between atoms: C14_20  and  C15_22 
REMARK   13  A    between atoms: C15_22  and  C16_23 
REMARK   14  A    between atoms: C20_27  and  O7_28 
REMARK   15  A    between atoms: C22_31  and  O8_32 
REMARK   16  A    between atoms: C23_34  and  O9_35 
REMARK   17  A    between atoms: C24_37  and  C25_38 
REMARK   18  A    between atoms: C26_39  and  C27_40 
REMARK   19  A    between atoms: C27_40  and  C28_41 
REMARK   20  A    between atoms: C32_45  and  O10_46 
ROOT
HETATM    1  C6  UNL     1      -1.807   0.085   0.010  1.00  0.00     0.047 C 
HETATM    2  C7  UNL     1      -1.415  -0.321   1.390  1.00  0.00     0.016 C 
HETATM    3  C8  UNL     1       0.047   0.058   1.639  1.00  0.00     0.013 C 
HETATM    4  C9  UNL     1       0.262   1.530   1.515  1.00  0.00     0.012 C 
HETATM    5  C10 UNL     1       0.971  -0.685   0.693  1.00  0.00     0.156 C 
HETATM    6  C22 UNL     1       0.126  -1.414  -0.352  1.00  0.00     0.176 C 
HETATM    7  C23 UNL     1      -0.887  -0.530  -1.014  1.00  0.00     0.156 C 
ENDROOT
BRANCH   1   8
HETATM    8  C5  UNL     1      -3.204   0.214  -0.350  1.00  0.00     0.139 C 
HETATM    9  O2  UNL     1      -3.185   0.734  -1.694  1.00  0.00    -0.352 OA
HETATM   10  C4  UNL     1      -4.336   1.493  -1.899  1.00  0.00     0.288 C 
HETATM   11  C32 UNL     1      -5.585   0.658  -1.766  1.00  0.00     0.174 C 
HETATM   12  C31 UNL     1      -5.526  -0.258  -0.545  1.00  0.00     0.047 C 
HETATM   13  C24 UNL     1      -4.162  -0.912  -0.435  1.00  0.00     0.040 C 
BRANCH  10  14
HETATM   14  O1  UNL     1      -4.419   2.575  -1.058  1.00  0.00    -0.359 OA
BRANCH  14  15
HETATM   15  C3  UNL     1      -4.408   3.757  -1.794  1.00  0.00     0.170 C 
BRANCH  15  16
HETATM   16  C2  UNL     1      -4.502   4.961  -0.883  1.00  0.00     0.022 C 
HETATM   17  C1  UNL     1      -3.318   4.945   0.056  1.00  0.00     0.007 C 
ENDBRANCH  15  16
ENDBRANCH  14  15
ENDBRANCH  10  14
BRANCH  11  18
HETATM   18  O10 UNL     1      -5.870  -0.059  -2.925  1.00  0.00    -0.391 OA
ATOM     19  H10 UNL     1      -6.657  -0.585  -2.841  1.00  0.00     0.210 HD
ENDBRANCH  11  18
BRANCH  13  20
HETATM   20  C25 UNL     1      -4.169  -1.919   0.602  1.00  0.00    -0.023 C 
HETATM   21  C26 UNL     1      -5.042  -2.353   1.462  1.00  0.00    -0.030 C 
BRANCH  21  22
HETATM   22  C27 UNL     1      -6.411  -2.051   1.802  1.00  0.00     0.030 C 
BRANCH  22  23
HETATM   23  C28 UNL     1      -7.381  -3.198   1.641  1.00  0.00    -0.019 C 
HETATM   24  C29 UNL     1      -8.748  -2.684   2.040  1.00  0.00     0.010 C 
HETATM   25  C30 UNL     1      -7.459  -3.763   0.277  1.00  0.00     0.010 C 
ENDBRANCH  22  23
ENDBRANCH  21  22
ENDBRANCH  13  20
ENDBRANCH   1   8
BRANCH   7  26
HETATM   26  O9  UNL     1      -1.561  -1.326  -1.932  1.00  0.00    -0.392 OA
ATOM     27  H9  UNL     1      -0.981  -1.714  -2.577  1.00  0.00     0.210 HD
ENDBRANCH   7  26
BRANCH   6  28
HETATM   28  O8  UNL     1      -0.369  -2.616   0.074  1.00  0.00    -0.390 OA
ATOM     29  H8  UNL     1      -0.894  -3.069  -0.575  1.00  0.00     0.210 HD
ENDBRANCH   6  28
BRANCH   5  30
HETATM   30  O3  UNL     1       1.928  -1.328   1.200  1.00  0.00    -0.380 OA
BRANCH  30  31
HETATM   31  C11 UNL     1       2.935  -1.878   1.638  1.00  0.00     0.202 C 
BRANCH  31  32
HETATM   32  C12 UNL     1       3.852  -2.405   0.501  1.00  0.00     0.166 C 
BRANCH  32  33
HETATM   33  O4  UNL     1       3.178  -3.314  -0.286  1.00  0.00    -0.391 OA
ATOM     34  H4  UNL     1       3.739  -3.636  -0.982  1.00  0.00     0.210 HD
ENDBRANCH  32  33
BRANCH  32  35
HETATM   35  C13 UNL     1       4.345  -1.273  -0.365  1.00  0.00     0.212 C 
BRANCH  35  36
HETATM   36  O5  UNL     1       5.047  -0.307   0.398  1.00  0.00    -0.319 OA
BRANCH  36  37
HETATM   37  C14 UNL     1       5.612   0.828  -0.150  1.00  0.00     0.259 C 
HETATM   38  O6  UNL     1       5.518   1.047  -1.383  1.00  0.00    -0.265 OA
BRANCH  37  39
HETATM   39  C15 UNL     1       6.347   1.832   0.670  1.00  0.00     0.115 C 
BRANCH  39  40
HETATM   40  C16 UNL     1       7.829   1.615   0.631  1.00  0.00    -0.003 C 
HETATM   41  C17 UNL     1       8.228   0.255   1.155  1.00  0.00     0.005 C 
HETATM   42  C18 UNL     1       8.905  -0.579   0.089  1.00  0.00     0.003 C 
HETATM   43  C19 UNL     1      10.139   0.098  -0.455  1.00  0.00     0.032 C 
HETATM   44  C20 UNL     1       9.903   1.564  -0.617  1.00  0.00     0.118 C 
HETATM   45  C21 UNL     1       8.394   1.777  -0.763  1.00  0.00     0.037 C 
BRANCH  44  46
HETATM   46  O7  UNL     1      10.596   2.111  -1.692  1.00  0.00    -0.396 OA
ATOM     47  H7  UNL     1      10.446   3.043  -1.795  1.00  0.00     0.210 HD
ENDBRANCH  44  46
ENDBRANCH  39  40
ENDBRANCH  37  39
ENDBRANCH  36  37
ENDBRANCH  35  36
ENDBRANCH  32  35
ENDBRANCH  31  32
ENDBRANCH  30  31
ENDBRANCH   5  30
TORSDOF 20
