REMARK  18 active torsions:
REMARK  status: ('A' for Active; 'I' for Inactive)
REMARK    1  A    between atoms: C2_2  and  O1_3 
REMARK    2  A    between atoms: O1_3  and  C3_4 
REMARK    3  A    between atoms: C3_4  and  C4_6 
REMARK    4  A    between atoms: C5_7  and  C6_8 
REMARK    5  A    between atoms: C6_8  and  O4_10 
REMARK    6  A    between atoms: O4_10  and  C7_11 
REMARK    7  A    between atoms: C7_11  and  C8_12 
REMARK    8  A    between atoms: C10_16  and  N2_17 
REMARK    9  A    between atoms: N2_17  and  C11_19 
REMARK   10  A    between atoms: C12_22  and  O5_23 
REMARK   11  A    between atoms: C18_37  and  O9_38 
REMARK   12  A    between atoms: O9_38  and  C19_39 
REMARK   13  A    between atoms: C19_39  and  C20_40 
REMARK   14  A    between atoms: C20_40  and  O10_41 
REMARK   15  A    between atoms: C21_43  and  O11_44 
REMARK   16  A    between atoms: C22_46  and  C23_47 
REMARK   17  A    between atoms: C23_47  and  C24_48 
REMARK   18  A    between atoms: C25_51  and  O14_52 
ROOT
HETATM    1  C8  UNL     1       2.871   0.558   2.606  1.00  0.00     0.122 C 
HETATM    2  C9  UNL     1       3.482  -0.629   1.987  1.00  0.00     0.154 C 
HETATM    3  N1  UNL     1       4.872  -0.360   1.656  1.00  0.00    -0.223 N 
ATOM      4  H1  UNL     1       5.552  -1.119   1.707  1.00  0.00     0.177 HD
HETATM    5  C10 UNL     1       5.263   0.805   1.302  1.00  0.00     0.711 C 
HETATM    6  N5  UNL     1       4.394   1.952   1.253  1.00  0.00    -0.046 N 
HETATM    7  C15 UNL     1       4.854   3.182   0.840  1.00  0.00     0.206 C 
HETATM    8  N6  UNL     1       5.213   4.204   0.496  1.00  0.00    -0.171 NA
HETATM    9  C16 UNL     1       3.051   1.694   1.640  1.00  0.00     0.261 C 
HETATM   10  O7  UNL     1       2.140   2.392   1.179  1.00  0.00    -0.271 OA
ENDROOT
BRANCH   5  11
HETATM   11  N2  UNL     1       6.658   0.964   0.991  1.00  0.00    -0.021 N 
ATOM     12  H2  UNL     1       7.318   1.262   1.710  1.00  0.00     0.203 HD
BRANCH  11  13
HETATM   13  C11 UNL     1       7.061   0.726  -0.204  1.00  0.00     0.701 A 
HETATM   14  N3  UNL     1       8.343   0.849  -0.581  1.00  0.00    -0.170 N 
HETATM   15  C12 UNL     1       8.691   0.582  -1.849  1.00  0.00     0.160 A 
ATOM     16  H3  UNL     1       9.049   1.144   0.093  1.00  0.00     0.186 HD
HETATM   17  C13 UNL     1       7.758   0.181  -2.784  1.00  0.00     0.131 A 
HETATM   18  C14 UNL     1       6.460   0.060  -2.390  1.00  0.00     0.263 A 
HETATM   19  O6  UNL     1       5.562  -0.308  -3.218  1.00  0.00    -0.268 OA
HETATM   20  N4  UNL     1       6.147   0.332  -1.124  1.00  0.00    -0.155 N 
ATOM     21  H4  UNL     1       5.174   0.239  -0.833  1.00  0.00     0.187 HD
BRANCH  15  22
HETATM   22  O5  UNL     1      10.018   0.698  -2.284  1.00  0.00    -0.346 OA
ATOM     23  H5  UNL     1      10.264   0.509  -3.182  1.00  0.00     0.219 HD
ENDBRANCH  15  22
ENDBRANCH  11  13
ENDBRANCH   5  11
BRANCH   1  24
HETATM   24  C7  UNL     1       1.517   0.505   3.172  1.00  0.00     0.195 C 
BRANCH  24  25
HETATM   25  O4  UNL     1       0.417   0.202   2.445  1.00  0.00    -0.315 OA
BRANCH  25  26
HETATM   26  C6  UNL     1      -0.026  -0.960   1.845  1.00  0.00     0.318 C 
HETATM   27  O3  UNL     1       0.702  -1.929   2.005  1.00  0.00    -0.257 OA
BRANCH  26  28
HETATM   28  C5  UNL     1      -1.286  -0.956   1.091  1.00  0.00     0.171 A 
HETATM   29  C4  UNL     1      -1.764  -2.089   0.502  1.00  0.00     0.130 A 
HETATM   30  C27 UNL     1      -2.984  -1.903  -0.182  1.00  0.00     0.207 A 
HETATM   31  C26 UNL     1      -3.616  -0.687  -0.238  1.00  0.00     0.086 A 
HETATM   32  O15 UNL     1      -3.498  -2.900  -0.757  1.00  0.00    -0.286 OA
HETATM   33  C17 UNL     1      -3.053   0.390   0.387  1.00  0.00     0.129 A 
HETATM   34  C25 UNL     1      -4.827  -0.534  -0.925  1.00  0.00     0.092 A 
HETATM   35  O8  UNL     1      -1.928   0.218   1.018  1.00  0.00    -0.299 OA
HETATM   36  C18 UNL     1      -3.678   1.650   0.348  1.00  0.00     0.137 A 
HETATM   37  C21 UNL     1      -4.879   1.764  -0.341  1.00  0.00     0.111 A 
HETATM   38  C22 UNL     1      -5.461   0.681  -0.981  1.00  0.00     0.022 A 
BRANCH  29  39
HETATM   39  C3  UNL     1      -1.154  -3.395   0.531  1.00  0.00     0.300 C 
HETATM   40  O2  UNL     1      -0.130  -3.832   1.040  1.00  0.00    -0.259 OA
BRANCH  39  41
HETATM   41  O1  UNL     1      -1.872  -4.396  -0.172  1.00  0.00    -0.318 OA
BRANCH  41  42
HETATM   42  C2  UNL     1      -1.363  -5.739  -0.214  1.00  0.00     0.174 C 
HETATM   43  C1  UNL     1      -2.360  -6.514  -1.027  1.00  0.00     0.034 C 
ENDBRANCH  41  42
ENDBRANCH  39  41
ENDBRANCH  29  39
BRANCH  36  44
HETATM   44  O9  UNL     1      -3.067   2.666   0.990  1.00  0.00    -0.344 OA
BRANCH  44  45
HETATM   45  C19 UNL     1      -2.025   3.435   0.531  1.00  0.00     0.201 C 
BRANCH  45  46
HETATM   46  C20 UNL     1      -2.311   4.129  -0.763  1.00  0.00     0.190 C 
BRANCH  46  47
HETATM   47  O10 UNL     1      -2.565   3.208  -1.747  1.00  0.00    -0.399 OA
ATOM     48  H10 UNL     1      -2.747   3.649  -2.569  1.00  0.00     0.209 HD
ENDBRANCH  46  47
ENDBRANCH  45  46
ENDBRANCH  44  45
ENDBRANCH  36  44
BRANCH  37  49
HETATM   49  O11 UNL     1      -5.545   2.954  -0.412  1.00  0.00    -0.357 OA
ATOM     50  H11 UNL     1      -6.366   3.032  -0.883  1.00  0.00     0.217 HD
ENDBRANCH  37  49
BRANCH  38  51
HETATM   51  C23 UNL     1      -6.725   0.856  -1.692  1.00  0.00     0.157 C 
BRANCH  51  52
HETATM   52  C24 UNL     1      -7.898   0.938  -0.821  1.00  0.00     0.177 C 
HETATM   53  O12 UNL     1      -7.766   0.858   0.418  1.00  0.00    -0.648 OA
HETATM   54  O13 UNL     1      -9.156   1.105  -1.361  1.00  0.00    -0.648 OA
ENDBRANCH  51  52
ENDBRANCH  38  51
BRANCH  34  55
HETATM   55  O14 UNL     1      -5.316  -1.672  -1.523  1.00  0.00    -0.359 OA
ATOM     56  H14 UNL     1      -4.877  -2.514  -1.484  1.00  0.00     0.217 HD
ENDBRANCH  34  55
ENDBRANCH  26  28
ENDBRANCH  25  26
ENDBRANCH  24  25
ENDBRANCH   1  24
TORSDOF 18
