REMARK  6 active torsions:
REMARK  status: ('A' for Active; 'I' for Inactive)
REMARK    1  A    between atoms: C2_2  and  C4_4 
REMARK    2  A    between atoms: C4_4  and  C5_5 
REMARK    3  A    between atoms: C5_5  and  N1_6 
REMARK    4  A    between atoms: C5_5  and  C9_15 
REMARK    5  A    between atoms: N1_6  and  C6_8 
REMARK    6  A    between atoms: C8_10  and  N2_11 
ROOT
HETATM    1  N1  UNL     1       0.944  -0.365  -1.119  1.00  0.00    -0.403 N 
ATOM      2  H1  UNL     1       0.989  -0.073  -2.095  1.00  0.00     0.154 HD
ENDROOT
BRANCH   1   3
HETATM    3  C5  UNL     1      -0.179  -1.076  -0.670  1.00  0.00     0.167 C 
BRANCH   3   4
HETATM    4  C4  UNL     1      -1.022  -0.457   0.389  1.00  0.00     0.038 C 
BRANCH   4   5
HETATM    5  C2  UNL     1      -1.641   0.867   0.028  1.00  0.00    -0.020 C 
HETATM    6  C1  UNL     1      -2.445   1.332   1.239  1.00  0.00     0.009 C 
HETATM    7  C3  UNL     1      -2.634   0.763  -1.112  1.00  0.00     0.009 C 
ENDBRANCH   4   5
ENDBRANCH   3   4
BRANCH   3   8
HETATM    8  C9  UNL     1       0.184  -2.449  -0.184  1.00  0.00     0.253 C 
HETATM    9  N3  UNL     1      -0.727  -3.510  -0.139  1.00  0.00    -0.060 NA
HETATM   10  O1  UNL     1       1.388  -2.675   0.205  1.00  0.00    -0.275 OA
ENDBRANCH   3   8
ENDBRANCH   1   3
BRANCH   1  11
HETATM   11  C6  UNL     1       2.020  -0.041  -0.251  1.00  0.00     0.109 A 
HETATM   12  C7  UNL     1       1.996   0.860   0.889  1.00  0.00     0.061 A 
HETATM   13  C8  UNL     1       2.536   1.368  -0.415  1.00  0.00     0.207 A 
BRANCH  13  14
HETATM   14  N2  UNL     1       3.933   1.662  -0.451  1.00  0.00    -0.073 N 
ATOM     15  H23 UNL     1       4.355   1.272   0.392  1.00  0.00     0.274 HD
ATOM     16  H22 UNL     1       4.353   1.090  -1.184  1.00  0.00     0.274 HD
ATOM     17  H21 UNL     1       4.282   2.614  -0.562  1.00  0.00     0.274 HD
ENDBRANCH  13  14
ENDBRANCH   1  11
TORSDOF 6
