REMARK  1 active torsions:
REMARK  status: ('A' for Active; 'I' for Inactive)
REMARK    1  A    between atoms: C13_17  and  O3_18 
ROOT
HETATM    1  O1  UNL     1       2.626  -0.607  -2.173  1.00  0.00    -0.273 OA
HETATM    2  C1  UNL     1       2.352  -1.206  -1.076  1.00  0.00     0.224 C 
HETATM    3  C2  UNL     1       2.786  -0.463   0.137  1.00  0.00     0.103 C 
HETATM    4  C3  UNL     1       2.887   1.031  -0.126  1.00  0.00     0.009 C 
HETATM    5  C4  UNL     1       1.750   1.818   0.441  1.00  0.00     0.000 C 
HETATM    6  C5  UNL     1       0.730   2.169  -0.627  1.00  0.00     0.000 C 
HETATM    7  C6  UNL     1      -0.471   2.856  -0.053  1.00  0.00     0.000 C 
HETATM    8  C7  UNL     1      -1.235   1.866   0.794  1.00  0.00     0.000 C 
HETATM    9  C8  UNL     1      -2.604   1.636   0.207  1.00  0.00     0.000 C 
HETATM   10  C9  UNL     1      -2.618   0.735  -0.994  1.00  0.00     0.000 C 
HETATM   11  C10 UNL     1      -2.836  -0.690  -0.570  1.00  0.00     0.009 C 
HETATM   12  C11 UNL     1      -1.518  -1.462  -0.461  1.00  0.00     0.103 C 
HETATM   13  C12 UNL     1      -1.431  -2.120   0.869  1.00  0.00     0.223 C 
HETATM   14  O2  UNL     1      -2.586  -2.533   1.279  1.00  0.00    -0.273 OA
HETATM   15  N1  UNL     1      -0.280  -2.312   1.653  1.00  0.00    -0.303 N 
ATOM     16  H1  UNL     1      -0.336  -1.930   2.597  1.00  0.00     0.171 HD
HETATM   17  C13 UNL     1       0.940  -2.949   1.342  1.00  0.00     0.212 C 
HETATM   18  C14 UNL     1       1.476  -3.311   0.045  1.00  0.00     0.299 C 
HETATM   19  O4  UNL     1       1.789  -4.565  -0.094  1.00  0.00    -0.263 OA
HETATM   20  N2  UNL     1       1.693  -2.461  -1.067  1.00  0.00    -0.290 N 
ATOM     21  H2  UNL     1       1.334  -2.789  -1.964  1.00  0.00     0.172 HD
ENDROOT
BRANCH  17  22
HETATM   22  O3  UNL     1       1.718  -3.271   2.337  1.00  0.00    -0.342 OA
ATOM     23  H3  UNL     1       2.539  -3.700   2.128  1.00  0.00     0.219 HD
ENDBRANCH  17  22
TORSDOF 1
