REMARK  1 active torsions:
REMARK  status: ('A' for Active; 'I' for Inactive)
REMARK    1  A    between atoms: C2_2  and  C5_5 
ROOT
HETATM    1  C5  UNL     1      -1.131  -0.202   0.029  1.00  0.00    -0.004 C 
HETATM    2  C6  UNL     1      -0.084  -0.994   0.126  1.00  0.00     0.024 C 
HETATM    3  C7  UNL     1       1.325  -0.581  -0.102  1.00  0.00     0.123 C 
HETATM    4  C8  UNL     1       2.243  -1.315   0.865  1.00  0.00     0.146 C 
HETATM    5  C9  UNL     1       3.646  -1.228   0.439  1.00  0.00     0.228 C 
HETATM    6  O1  UNL     1       4.552  -1.319   1.304  1.00  0.00    -0.273 OA
HETATM    7  N1  UNL     1       4.043  -1.045  -0.915  1.00  0.00    -0.279 N 
ATOM      8  H1  UNL     1       5.031  -1.011  -1.168  1.00  0.00     0.173 HD
HETATM    9  C10 UNL     1       3.024  -0.909  -1.918  1.00  0.00     0.324 C 
HETATM   10  O2  UNL     1       3.329  -0.746  -3.127  1.00  0.00    -0.247 OA
HETATM   11  N2  UNL     1       1.673  -0.970  -1.463  1.00  0.00    -0.323 N 
ATOM     12  H2  UNL     1       0.942  -1.290  -2.098  1.00  0.00     0.165 HD
HETATM   13  C11 UNL     1       1.500   0.865   0.077  1.00  0.00     0.174 C 
HETATM   14  O3  UNL     1       2.541   1.332   0.506  1.00  0.00    -0.294 OA
HETATM   15  C12 UNL     1       0.423   1.838  -0.254  1.00  0.00     0.081 C 
HETATM   16  C13 UNL     1       0.770   2.555  -1.532  1.00  0.00     0.032 C 
HETATM   17  C14 UNL     1       0.353   2.882   0.845  1.00  0.00     0.032 C 
HETATM   18  C15 UNL     1      -0.905   1.194  -0.327  1.00  0.00     0.171 C 
HETATM   19  O4  UNL     1      -1.852   1.921  -0.720  1.00  0.00    -0.291 OA
ENDROOT
BRANCH   1  20
HETATM   20  C2  UNL     1      -2.473  -0.751   0.284  1.00  0.00    -0.021 C 
HETATM   21  C1  UNL     1      -3.401  -0.632  -0.896  1.00  0.00     0.019 C 
HETATM   22  C3  UNL     1      -2.376  -2.222   0.619  1.00  0.00     0.019 C 
HETATM   23  C4  UNL     1      -3.035  -0.064   1.513  1.00  0.00     0.019 C 
ENDBRANCH   1  20
TORSDOF 1
