REMARK  1 active torsions:
REMARK  status: ('A' for Active; 'I' for Inactive)
REMARK    1  A    between atoms: C7_7  and  O1_8 
ROOT
HETATM    1  C1  UNL     1       1.822   1.823  -0.917  1.00  0.00     0.010 C 
HETATM    2  C2  UNL     1       1.606   1.057   0.319  1.00  0.00    -0.008 C 
HETATM    3  C3  UNL     1       0.565   1.692   1.257  1.00  0.00     0.005 C 
HETATM    4  C4  UNL     1      -0.760   1.807   0.634  1.00  0.00     0.006 C 
HETATM    5  C5  UNL     1      -1.771   0.755   0.892  1.00  0.00     0.006 C 
HETATM    6  C6  UNL     1      -1.348  -0.468   1.590  1.00  0.00     0.039 C 
HETATM    7  C7  UNL     1      -0.699  -1.543   0.797  1.00  0.00     0.142 C 
HETATM    8  C8  UNL     1       0.160  -0.964  -0.292  1.00  0.00     0.095 C 
HETATM    9  S1  UNL     1      -0.853  -0.065  -1.418  1.00  0.00    -0.142 SA
HETATM   10  C9  UNL     1      -2.365   0.421  -0.489  1.00  0.00     0.005 C 
HETATM   11  C10 UNL     1      -2.956   1.678  -1.081  1.00  0.00     0.027 C 
HETATM   12  C11 UNL     1      -3.389  -0.642  -0.463  1.00  0.00     0.027 C 
HETATM   13  C12 UNL     1       0.843  -2.077  -1.104  1.00  0.00     0.348 C 
HETATM   14  N1  UNL     1       1.961  -2.510  -0.313  1.00  0.00    -0.015 N 
ATOM     15  H11 UNL     1       2.520  -3.338  -0.521  1.00  0.00     0.284 HD
ATOM     16  H12 UNL     1       1.877  -2.906   0.623  1.00  0.00     0.284 HD
HETATM   17  C13 UNL     1       2.401  -1.129  -0.587  1.00  0.00     0.233 C 
HETATM   18  C14 UNL     1       3.799  -0.810  -0.483  1.00  0.00     0.079 C 
HETATM   19  O2  UNL     1       1.780  -1.289  -1.816  1.00  0.00    -0.319 OA
HETATM   20  C15 UNL     1       1.382  -0.369   0.255  1.00  0.00     0.078 C 
ENDROOT
BRANCH   7  21
HETATM   21  O1  UNL     1       0.182  -2.274   1.631  1.00  0.00    -0.394 OA
ATOM     22  H1  UNL     1       0.597  -2.962   1.124  1.00  0.00     0.210 HD
ENDBRANCH   7  21
TORSDOF 1
