REMARK  4 active torsions:
REMARK  status: ('A' for Active; 'I' for Inactive)
REMARK    1  A    between atoms: C2_2  and  C3_3 
REMARK    2  A    between atoms: C3_3  and  N1_4 
REMARK    3  A    between atoms: N2_14  and  C12_15 
REMARK    4  A    between atoms: C12_15  and  C13_16 
ROOT
HETATM    1  N1  UNL     1       2.804  -1.200  -0.341  1.00  0.00     0.092 N 
HETATM    2  C4  UNL     1       1.792  -1.811   0.443  1.00  0.00     0.277 C 
HETATM    3  C5  UNL     1       0.393  -1.530  -0.080  1.00  0.00     0.102 C 
HETATM    4  C6  UNL     1      -0.028  -0.104  -0.014  1.00  0.00     0.264 C 
HETATM    5  C7  UNL     1       1.328   0.632   0.085  1.00  0.00     0.102 C 
HETATM    6  C8  UNL     1       2.302  -0.011  -0.921  1.00  0.00     0.277 C 
HETATM    7  O1  UNL     1      -0.596   0.334  -1.205  1.00  0.00    -0.352 OA
HETATM    8  C9  UNL     1      -0.777   1.678  -1.327  1.00  0.00     0.172 C 
HETATM    9  C10 UNL     1      -1.166   2.428  -0.085  1.00  0.00     0.056 C 
HETATM   10  C11 UNL     1      -0.667   1.741   1.177  1.00  0.00     0.278 C 
HETATM   11  N2  UNL     1      -0.871   0.270   1.034  1.00  0.00     0.124 N 
ENDROOT
BRANCH  11  12
HETATM   12  C12 UNL     1      -2.253   0.174   1.043  1.00  0.00     0.291 C 
BRANCH  12  13
HETATM   13  C13 UNL     1      -3.058  -1.037   1.066  1.00  0.00     0.115 C 
HETATM   14  C14 UNL     1      -4.545  -0.526   1.114  1.00  0.00     0.119 C 
HETATM   15  C15 UNL     1      -4.705  -0.013  -0.270  1.00  0.00     0.225 C 
HETATM   16  O2  UNL     1      -5.376   0.942  -0.717  1.00  0.00    -0.273 OA
HETATM   17  N3  UNL     1      -3.885  -0.876  -1.086  1.00  0.00    -0.297 N 
HETATM   18  C16 UNL     1      -3.222  -1.788  -0.207  1.00  0.00     0.230 C 
ATOM     19  H3  UNL     1      -3.795  -0.842  -2.101  1.00  0.00     0.171 HD
HETATM   20  O3  UNL     1      -2.859  -2.961  -0.448  1.00  0.00    -0.273 OA
ENDBRANCH  12  13
ENDBRANCH  11  12
BRANCH   1  21
HETATM   21  C3  UNL     1       4.103  -1.152   0.228  1.00  0.00     0.299 C 
BRANCH  21  22
HETATM   22  C2  UNL     1       5.087  -0.512  -0.674  1.00  0.00    -0.007 C 
HETATM   23  C1  UNL     1       5.755   0.572  -0.337  1.00  0.00     0.008 C 
ENDBRANCH  21  22
ENDBRANCH   1  21
TORSDOF 4
