REMARK  4 active torsions:
REMARK  status: ('A' for Active; 'I' for Inactive)
REMARK    1  A    between atoms: N2_5  and  C4_6 
REMARK    2  A    between atoms: C4_6  and  C5_7 
REMARK    3  A    between atoms: C5_7  and  N3_8 
REMARK    4  A    between atoms: N3_8  and  C6_10 
ROOT
HETATM    1  C6  UNL     1      -2.032   0.159  -0.151  1.00  0.00     0.062 A 
HETATM    2  C7  UNL     1      -3.187  -0.095  -0.854  1.00  0.00     0.087 A 
HETATM    3  C8  UNL     1      -3.484  -1.379  -1.435  1.00  0.00     0.103 C 
HETATM    4  N4  UNL     1      -3.751  -2.397  -1.912  1.00  0.00    -0.191 NA
HETATM    5  C9  UNL     1      -4.111   0.939  -1.009  1.00  0.00     0.113 A 
HETATM    6  N5  UNL     1      -3.878   2.155  -0.484  1.00  0.00    -0.361 N 
ATOM      7  H5  UNL     1      -4.570   2.894  -0.612  1.00  0.00     0.165 HD
HETATM    8  C10 UNL     1      -2.753   2.420   0.206  1.00  0.00     0.087 A 
HETATM    9  C11 UNL     1      -1.815   1.451   0.390  1.00  0.00     0.001 A 
HETATM   10  C12 UNL     1      -0.665   1.981   1.182  1.00  0.00     0.051 C 
HETATM   11  C13 UNL     1      -1.186   3.254   1.759  1.00  0.00     0.090 C 
HETATM   12  C14 UNL     1      -2.300   3.663   0.858  1.00  0.00     0.176 C 
HETATM   13  O1  UNL     1      -2.767   4.799   0.676  1.00  0.00    -0.291 OA
ENDROOT
BRANCH   1  14
HETATM   14  N3  UNL     1      -1.140  -0.681   0.051  1.00  0.00    -0.366 N 
ATOM     15  H3  UNL     1      -0.379  -0.271   0.592  1.00  0.00     0.165 HD
BRANCH  14  16
HETATM   16  C5  UNL     1      -0.867  -2.026  -0.243  1.00  0.00     0.081 C 
BRANCH  16  17
HETATM   17  C4  UNL     1       0.384  -2.539   0.448  1.00  0.00     0.171 C 
BRANCH  17  18
HETATM   18  N2  UNL     1       1.592  -1.873   0.130  1.00  0.00    -0.328 N 
HETATM   19  C3  UNL     1       2.108  -0.725   0.855  1.00  0.00     0.148 C 
HETATM   20  C2  UNL     1       3.626  -0.807   0.656  1.00  0.00     0.147 C 
HETATM   21  N1  UNL     1       3.683  -1.250  -0.729  1.00  0.00    -0.337 N 
HETATM   22  C1  UNL     1       4.674  -0.892  -1.732  1.00  0.00     0.154 C 
HETATM   23  C15 UNL     1       2.561  -2.109  -0.887  1.00  0.00     0.320 C 
HETATM   24  O2  UNL     1       2.414  -2.967  -1.787  1.00  0.00    -0.247 OA
ENDBRANCH  17  18
ENDBRANCH  16  17
ENDBRANCH  14  16
ENDBRANCH   1  14
TORSDOF 4
