REMARK  2 active torsions:
REMARK  status: ('A' for Active; 'I' for Inactive)
REMARK    1  A    between atoms: O1_2  and  N1_3 
REMARK       I    between atoms: N1_3  and  C3_5 
REMARK       I    between atoms: C3_5  and  N2_7 
REMARK    2  A    between atoms: N2_7  and  C4_9 
ROOT
HETATM    1  C4  UNL     1       0.178  -1.292   0.753  1.00  0.00     0.123 C 
HETATM    2  C5  UNL     1      -0.029  -2.535  -0.046  1.00  0.00     0.025 C 
HETATM    3  C6  UNL     1      -0.023  -3.791   0.822  1.00  0.00     0.014 C 
HETATM    4  C7  UNL     1      -1.360  -2.436  -0.707  1.00  0.00     0.133 C 
HETATM    5  N3  UNL     1      -1.970  -1.211  -0.280  1.00  0.00    -0.334 N 
HETATM    6  C8  UNL     1      -3.148  -0.567  -0.712  1.00  0.00     0.243 C 
HETATM    7  O3  UNL     1      -4.126  -1.230  -1.157  1.00  0.00    -0.271 OA
HETATM    8  C9  UNL     1      -3.273   0.908  -0.655  1.00  0.00     0.175 C 
HETATM    9  C10 UNL     1      -4.396   1.351   0.247  1.00  0.00     0.042 C 
HETATM   10  N4  UNL     1      -2.009   1.531  -0.278  1.00  0.00    -0.342 N 
HETATM   11  C11 UNL     1      -1.741   2.874  -0.744  1.00  0.00     0.153 C 
HETATM   12  C12 UNL     1      -1.067   0.832   0.528  1.00  0.00     0.245 C 
HETATM   13  O4  UNL     1      -0.133   1.543   1.022  1.00  0.00    -0.271 OA
HETATM   14  C13 UNL     1      -1.181  -0.625   0.766  1.00  0.00     0.202 C 
ENDROOT
BRANCH   1  15
HETATM   15  N2  UNL     1       1.188  -0.505   0.095  1.00  0.00    -0.334 N 
HETATM   16  C3  UNL     1       2.424  -0.174   0.714  1.00  0.00     0.342 C 
HETATM   17  N1  UNL     1       3.402   0.594   0.063  1.00  0.00    -0.213 N 
HETATM   18  O2  UNL     1       2.617  -0.604   1.897  1.00  0.00    -0.245 OA
HETATM   19  C2  UNL     1       3.248   1.106  -1.267  1.00  0.00     0.190 C 
ATOM     20  H2  UNL     1       1.010  -0.172  -0.852  1.00  0.00     0.164 HD
BRANCH  17  21
HETATM   21  O1  UNL     1       4.553   0.873   0.708  1.00  0.00    -0.279 OA
HETATM   22  C1  UNL     1       5.422   1.667   0.002  1.00  0.00     0.238 C 
ENDBRANCH  17  21
ENDBRANCH   1  15
TORSDOF 2
