REMARK  12 active torsions:
REMARK  status: ('A' for Active; 'I' for Inactive)
REMARK    1  A    between atoms: C4_4  and  C5_5 
REMARK    2  A    between atoms: C5_5  and  C6_6 
REMARK    3  A    between atoms: C6_6  and  N1_7 
REMARK    4  A    between atoms: C6_6  and  C7_11 
REMARK    5  A    between atoms: C7_11  and  O1_12 
REMARK    6  A    between atoms: C7_11  and  O2_14 
REMARK    7  A    between atoms: C9_17  and  C10_18 
REMARK    8  A    between atoms: C10_18  and  C12_20 
REMARK    9  A    between atoms: C12_20  and  C13_21 
REMARK   10  A    between atoms: C13_21  and  C14_22 
REMARK   11  A    between atoms: C14_22  and  O3_23 
REMARK   12  A    between atoms: C16_26  and  O4_27 
ROOT
HETATM    1  C1  UNL     1      -2.928   1.969   0.689  1.00  0.00     0.015 C 
HETATM    2  C2  UNL     1      -1.990   1.620  -0.070  1.00  0.00    -0.072 C 
HETATM    3  C3  UNL     1      -1.138   2.700  -0.788  1.00  0.00     0.069 C 
HETATM    4  C4  UNL     1       0.150   2.148  -0.288  1.00  0.00    -0.070 C 
HETATM    5  C8  UNL     1       0.097   0.796  -0.172  1.00  0.00    -0.059 C 
HETATM    6  C9  UNL     1       1.124  -0.158   0.277  1.00  0.00     0.022 C 
HETATM    7  C15 UNL     1       0.453  -1.453   0.694  1.00  0.00     0.042 C 
HETATM    8  C16 UNL     1      -0.589  -1.875  -0.300  1.00  0.00     0.133 C 
HETATM    9  C17 UNL     1      -1.776  -0.918  -0.302  1.00  0.00     0.044 C 
HETATM   10  C18 UNL     1      -2.723  -1.522  -1.344  1.00  0.00     0.187 C 
HETATM   11  O5  UNL     1      -4.054  -1.519  -0.838  1.00  0.00    -0.355 OA
HETATM   12  C19 UNL     1      -4.146  -2.573   0.064  1.00  0.00     0.156 C 
HETATM   13  C20 UNL     1      -5.352  -2.234   0.959  1.00  0.00     0.078 C 
HETATM   14  C21 UNL     1      -4.446  -3.882  -0.566  1.00  0.00     0.078 C 
HETATM   15  O6  UNL     1      -2.974  -2.564   0.851  1.00  0.00    -0.355 OA
HETATM   16  C22 UNL     1      -2.579  -1.181   0.953  1.00  0.00     0.187 C 
HETATM   17  C23 UNL     1      -1.322   0.448  -0.580  1.00  0.00     0.017 C 
HETATM   18  C24 UNL     1      -1.219   0.516  -2.128  1.00  0.00     0.026 C 
ENDROOT
BRANCH   4  19
HETATM   19  C5  UNL     1       1.331   2.946   0.080  1.00  0.00     0.072 C 
BRANCH  19  20
HETATM   20  C6  UNL     1       1.117   4.032   1.101  1.00  0.00     0.241 C 
BRANCH  20  21
HETATM   21  N1  UNL     1       0.200   5.062   0.738  1.00  0.00    -0.070 N 
ATOM     22  H13 UNL     1       0.478   5.475  -0.152  1.00  0.00     0.274 HD
ATOM     23  H12 UNL     1      -0.696   4.651   0.478  1.00  0.00     0.274 HD
ATOM     24  H11 UNL     1       0.055   5.798   1.430  1.00  0.00     0.274 HD
ENDBRANCH  20  21
BRANCH  20  25
HETATM   25  C7  UNL     1       2.508   4.673   1.274  1.00  0.00     0.284 C 
BRANCH  25  26
HETATM   26  O1  UNL     1       2.903   5.128   0.026  1.00  0.00    -0.369 OA
ATOM     27  H1  UNL     1       3.760   5.523   0.133  1.00  0.00     0.212 HD
ENDBRANCH  25  26
BRANCH  25  28
HETATM   28  O2  UNL     1       2.502   5.633   2.248  1.00  0.00    -0.369 OA
ATOM     29  H2  UNL     1       3.359   6.028   2.355  1.00  0.00     0.212 HD
ENDBRANCH  25  28
ENDBRANCH  20  25
ENDBRANCH  19  20
ENDBRANCH   4  19
BRANCH   6  30
HETATM   30  C10 UNL     1       2.341  -0.349  -0.558  1.00  0.00    -0.010 C 
HETATM   31  C11 UNL     1       2.207  -0.875  -1.932  1.00  0.00     0.010 C 
BRANCH  30  32
HETATM   32  C12 UNL     1       3.390  -1.145   0.208  1.00  0.00     0.007 C 
BRANCH  32  33
HETATM   33  C13 UNL     1       4.649  -1.336  -0.641  1.00  0.00     0.026 C 
BRANCH  33  34
HETATM   34  C14 UNL     1       5.670  -2.117   0.200  1.00  0.00     0.164 C 
BRANCH  34  35
HETATM   35  O3  UNL     1       5.129  -3.351   0.549  1.00  0.00    -0.401 OA
ATOM     36  H3  UNL     1       5.760  -3.834   1.069  1.00  0.00     0.209 HD
ENDBRANCH  34  35
ENDBRANCH  33  34
ENDBRANCH  32  33
ENDBRANCH  30  32
ENDBRANCH   6  30
BRANCH   8  37
HETATM   37  O4  UNL     1      -0.988  -3.143   0.025  1.00  0.00    -0.395 OA
ATOM     38  H4  UNL     1      -1.648  -3.410  -0.604  1.00  0.00     0.210 HD
ENDBRANCH   8  37
TORSDOF 12
