REMARK  14 active torsions:
REMARK  status: ('A' for Active; 'I' for Inactive)
REMARK    1  A    between atoms: C2_2  and  C4_4 
REMARK    2  A    between atoms: C4_4  and  C5_5 
REMARK    3  A    between atoms: C4_4  and  C23_34 
REMARK    4  A    between atoms: C5_5  and  C6_6 
REMARK    5  A    between atoms: C6_6  and  O1_7 
REMARK    6  A    between atoms: C6_6  and  C7_9 
REMARK    7  A    between atoms: C7_9  and  N1_10 
REMARK    8  A    between atoms: C7_9  and  S1_30 
REMARK       I    between atoms: N1_10  and  C8_12 
REMARK    9  A    between atoms: C8_12  and  C9_14 
REMARK   10  A    between atoms: C9_14  and  N2_15 
REMARK   11  A    between atoms: C9_14  and  C15_23 
REMARK       I    between atoms: N2_15  and  C10_17 
REMARK   12  A    between atoms: C10_17  and  C11_19 
REMARK   13  A    between atoms: C15_23  and  C18_26 
REMARK       I    between atoms: C23_34  and  N3_36 
REMARK   14  A    between atoms: N3_36  and  C24_38 
ROOT
HETATM    1  C7  UNL     1       0.151  -1.866  -0.092  1.00  0.00     0.235 C 
ENDROOT
BRANCH   1   2
HETATM    2  C6  UNL     1       1.489  -1.157  -0.146  1.00  0.00     0.156 C 
BRANCH   2   3
HETATM    3  C5  UNL     1       1.846  -0.427   1.093  1.00  0.00     0.049 C 
BRANCH   3   4
HETATM    4  C4  UNL     1       3.078   0.422   1.012  1.00  0.00     0.083 C 
BRANCH   4   5
HETATM    5  C2  UNL     1       3.291   1.096   2.352  1.00  0.00    -0.010 C 
HETATM    6  C1  UNL     1       3.478   0.101   3.464  1.00  0.00     0.010 C 
HETATM    7  C3  UNL     1       4.263   2.216   2.358  1.00  0.00     0.010 C 
ENDBRANCH   4   5
BRANCH   4   8
HETATM    8  C23 UNL     1       4.279  -0.265   0.574  1.00  0.00     0.222 C 
HETATM    9  O6  UNL     1       4.429  -1.533   0.560  1.00  0.00    -0.273 OA
HETATM   10  N3  UNL     1       5.398   0.465   0.121  1.00  0.00    -0.356 N 
ATOM     11  H3  UNL     1       5.327   1.482   0.105  1.00  0.00     0.162 HD
BRANCH  10  12
HETATM   12  C24 UNL     1       6.650  -0.137  -0.327  1.00  0.00     0.084 C 
HETATM   13  C25 UNL     1       7.790   0.227   0.587  1.00  0.00     0.025 C 
HETATM   14  C26 UNL     1       8.604   1.384   0.077  1.00  0.00     0.002 C 
HETATM   15  C27 UNL     1       9.161   1.177  -1.293  1.00  0.00     0.000 C 
HETATM   16  C28 UNL     1       8.488  -0.011  -1.907  1.00  0.00     0.002 C 
HETATM   17  C29 UNL     1       6.968   0.135  -1.758  1.00  0.00     0.025 C 
ENDBRANCH  10  12
ENDBRANCH   4   8
ENDBRANCH   3   4
ENDBRANCH   2   3
BRANCH   2  18
HETATM   18  O1  UNL     1       1.282  -0.202  -1.191  1.00  0.00    -0.392 OA
ATOM     19  H1  UNL     1       1.053  -0.670  -1.985  1.00  0.00     0.210 HD
ENDBRANCH   2  18
ENDBRANCH   1   2
BRANCH   1  20
HETATM   20  N1  UNL     1      -0.953  -0.980   0.223  1.00  0.00    -0.339 N 
HETATM   21  C8  UNL     1      -2.036  -0.736  -0.617  1.00  0.00     0.242 C 
HETATM   22  O2  UNL     1      -1.978  -1.397  -1.734  1.00  0.00    -0.271 OA
ATOM     23  H1  UNL     1      -0.935  -0.502   1.124  1.00  0.00     0.164 HD
BRANCH  21  24
HETATM   24  C9  UNL     1      -3.217   0.143  -0.422  1.00  0.00     0.185 C 
BRANCH  24  25
HETATM   25  N2  UNL     1      -4.371  -0.545  -0.954  1.00  0.00    -0.346 N 
HETATM   26  C10 UNL     1      -4.977  -0.278  -2.205  1.00  0.00     0.226 C 
HETATM   27  O3  UNL     1      -4.452   0.660  -2.901  1.00  0.00    -0.273 OA
ATOM     28  H2  UNL     1      -4.782  -1.283  -0.382  1.00  0.00     0.163 HD
BRANCH  26  29
HETATM   29  C11 UNL     1      -6.133  -0.968  -2.774  1.00  0.00     0.030 C 
HETATM   30  C12 UNL     1      -5.700  -2.430  -2.975  1.00  0.00     0.024 C 
HETATM   31  C13 UNL     1      -6.551  -0.361  -4.108  1.00  0.00     0.024 C 
HETATM   32  C14 UNL     1      -7.356  -1.019  -1.919  1.00  0.00     0.024 C 
ENDBRANCH  26  29
ENDBRANCH  24  25
BRANCH  24  33
HETATM   33  C15 UNL     1      -3.356   0.826   0.862  1.00  0.00    -0.012 C 
HETATM   34  C16 UNL     1      -3.424  -0.181   1.985  1.00  0.00     0.018 C 
HETATM   35  C17 UNL     1      -2.108   1.702   1.164  1.00  0.00     0.018 C 
BRANCH  33  36
HETATM   36  C18 UNL     1      -4.573   1.720   1.028  1.00  0.00    -0.042 C 
HETATM   37  C19 UNL     1      -4.611   2.835   0.002  1.00  0.00     0.015 C 
HETATM   38  C20 UNL     1      -4.486   2.449   2.376  1.00  0.00     0.015 C 
HETATM   39  C21 UNL     1      -5.876   1.005   0.999  1.00  0.00     0.015 C 
ENDBRANCH  33  36
ENDBRANCH  24  33
ENDBRANCH  21  24
ENDBRANCH   1  20
BRANCH   1  40
HETATM   40  S1  UNL     1       0.230  -3.282   0.942  1.00  0.00     0.164 S 
HETATM   41  C22 UNL     1      -1.284  -4.254   0.790  1.00  0.00     0.163 C 
HETATM   42  O4  UNL     1       1.352  -4.202   0.575  1.00  0.00    -0.226 OA
HETATM   43  O5  UNL     1       0.376  -2.825   2.372  1.00  0.00    -0.226 OA
ENDBRANCH   1  40
TORSDOF 14
