REMARK  8 active torsions:
REMARK  status: ('A' for Active; 'I' for Inactive)
REMARK    1  A    between atoms: C2_2  and  C3_3 
REMARK    2  A    between atoms: C3_3  and  N1_4 
REMARK    3  A    between atoms: N1_4  and  C4_5 
REMARK    4  A    between atoms: C4_5  and  C5_6 
REMARK    5  A    between atoms: C13_14  and  N2_15 
REMARK    6  A    between atoms: C14_17  and  C15_18 
REMARK    7  A    between atoms: C15_18  and  C16_19 
REMARK    8  A    between atoms: C18_26  and  C19_27 
ROOT
HETATM    1  C5  UNL     1       0.337  -0.680   0.448  1.00  0.00     0.039 C 
HETATM    2  C6  UNL     1      -0.007  -2.020  -0.134  1.00  0.00    -0.007 C 
HETATM    3  C7  UNL     1       0.425  -3.096   0.835  1.00  0.00     0.005 C 
HETATM    4  C8  UNL     1       1.771  -3.673   0.553  1.00  0.00     0.001 C 
HETATM    5  C9  UNL     1       2.879  -2.651   0.596  1.00  0.00     0.007 C 
HETATM    6  C10 UNL     1       2.611  -1.479  -0.325  1.00  0.00     0.009 C 
HETATM    7  C11 UNL     1       2.038  -1.938  -1.614  1.00  0.00     0.007 C 
HETATM    8  C12 UNL     1       0.594  -2.255  -1.503  1.00  0.00     0.005 C 
HETATM    9  C13 UNL     1       1.830  -0.390   0.354  1.00  0.00     0.090 C 
ENDROOT
BRANCH   1  10
HETATM   10  C4  UNL     1      -0.497   0.377  -0.135  1.00  0.00     0.247 C 
BRANCH  10  11
HETATM   11  N1  UNL     1      -1.874   0.429  -0.030  1.00  0.00    -0.037 N 
HETATM   12  C17 UNL     1      -2.299   1.789   0.385  1.00  0.00     0.469 C 
HETATM   13  N4  UNL     1      -3.649   1.675   0.824  1.00  0.00    -0.035 N 
HETATM   14  C18 UNL     1      -3.566   0.463   1.638  1.00  0.00     0.313 C 
ATOM     15  H42 UNL     1      -4.031   2.496   1.294  1.00  0.00     0.280 HD
ATOM     16  H41 UNL     1      -4.353   1.663   0.086  1.00  0.00     0.280 HD
HETATM   17  C20 UNL     1      -2.583  -0.391   0.861  1.00  0.00     0.284 C 
BRANCH  11  18
HETATM   18  C3  UNL     1      -2.499   0.276  -1.348  1.00  0.00     0.266 C 
BRANCH  18  19
HETATM   19  C2  UNL     1      -2.216   1.384  -2.268  1.00  0.00    -0.009 C 
HETATM   20  C1  UNL     1      -3.206   2.099  -2.763  1.00  0.00     0.008 C 
ENDBRANCH  18  19
ENDBRANCH  11  18
BRANCH  14  21
HETATM   21  C19 UNL     1      -4.866  -0.166   1.854  1.00  0.00     0.206 C 
HETATM   22  O2  UNL     1      -5.938   0.308   1.382  1.00  0.00    -0.646 OA
HETATM   23  O3  UNL     1      -4.952  -1.324   2.601  1.00  0.00    -0.646 OA
ENDBRANCH  14  21
ENDBRANCH  10  11
ENDBRANCH   1  10
BRANCH   9  24
HETATM   24  N2  UNL     1       2.107   0.855  -0.301  1.00  0.00    -0.396 N 
HETATM   25  C14 UNL     1       2.607   1.864   0.325  1.00  0.00     0.064 C 
ATOM     26  H2  UNL     1       1.901   0.945  -1.296  1.00  0.00     0.159 HD
BRANCH  25  27
HETATM   27  C15 UNL     1       2.909   3.153  -0.291  1.00  0.00     0.143 C 
BRANCH  27  28
HETATM   28  C16 UNL     1       4.403   3.326  -0.228  1.00  0.00     0.235 C 
HETATM   29  N3  UNL     1       5.025   4.135   0.756  1.00  0.00    -0.062 NA
HETATM   30  O1  UNL     1       5.078   2.716  -1.096  1.00  0.00    -0.277 OA
ENDBRANCH  27  28
ENDBRANCH  25  27
ENDBRANCH   9  24
TORSDOF 8
