REMARK  4 active torsions:
REMARK  status: ('A' for Active; 'I' for Inactive)
REMARK    1  A    between atoms: C2_2  and  C3_3 
REMARK    2  A    between atoms: C3_3  and  N1_4 
REMARK    3  A    between atoms: N1_4  and  C4_6 
REMARK    4  A    between atoms: C5_9  and  N3_10 
ROOT
HETATM    1  C4  UNL     1       0.360  -0.443  -0.045  1.00  0.00     0.707 A 
HETATM    2  N2  UNL     1       1.212  -1.430   0.271  1.00  0.00    -0.020 N 
ATOM      3  H2  UNL     1       0.956  -2.397   0.471  1.00  0.00     0.203 HD
HETATM    4  C5  UNL     1       2.458  -0.931   0.279  1.00  0.00     0.707 A 
HETATM    5  N4  UNL     1       2.379   0.370  -0.032  1.00  0.00    -0.114 N 
HETATM    6  C6  UNL     1       3.501   1.312  -0.139  1.00  0.00     0.198 C 
HETATM    7  N5  UNL     1       1.105   0.658  -0.227  1.00  0.00    -0.116 N 
ATOM      8  H5  UNL     1       0.742   1.578  -0.478  1.00  0.00     0.206 HD
ENDROOT
BRANCH   1   9
HETATM    9  N1  UNL     1      -0.939  -0.537  -0.153  1.00  0.00    -0.224 N 
ATOM     10  H1  UNL     1      -1.389  -1.438   0.012  1.00  0.00     0.177 HD
BRANCH   9  11
HETATM   11  C3  UNL     1      -1.747   0.597  -0.498  1.00  0.00     0.138 C 
BRANCH  11  12
HETATM   12  C2  UNL     1      -3.018   0.532   0.336  1.00  0.00     0.016 C 
HETATM   13  C1  UNL     1      -3.764  -0.764   0.030  1.00  0.00     0.006 C 
ENDBRANCH  11  12
ENDBRANCH   9  11
ENDBRANCH   1   9
BRANCH   4  14
HETATM   14  N3  UNL     1       3.557  -1.593   0.544  1.00  0.00    -0.233 N 
ATOM     15  H32 UNL     1       3.617  -2.583   0.781  1.00  0.00     0.174 HD
ATOM     16  H31 UNL     1       4.504  -1.214   0.550  1.00  0.00     0.174 HD
ENDBRANCH   4  14
TORSDOF 4
