REMARK  10 active torsions:
REMARK  status: ('A' for Active; 'I' for Inactive)
REMARK    1  A    between atoms: C3_5  and  C4_6 
REMARK    2  A    between atoms: C3_5  and  N3_23 
REMARK    3  A    between atoms: C4_6  and  C5_7 
REMARK    4  A    between atoms: C5_7  and  C6_8 
REMARK    5  A    between atoms: C6_8  and  C7_9 
REMARK    6  A    between atoms: C11_14  and  O1_15 
REMARK    7  A    between atoms: O1_15  and  C12_16 
REMARK    8  A    between atoms: C12_16  and  C13_17 
REMARK    9  A    between atoms: N3_23  and  C18_25 
REMARK   10  A    between atoms: C20_27  and  C21_28 
ROOT
HETATM    1  C1  UNL     1       1.158  -3.318  -2.468  1.00  0.00     0.037 C 
HETATM    2  C2  UNL     1       1.557  -2.256  -2.054  1.00  0.00     0.000 C 
HETATM    3  N1  UNL     1       1.938  -1.081  -1.614  1.00  0.00    -0.305 N 
ATOM      4  H1  UNL     1       2.361  -0.589  -2.401  1.00  0.00     0.177 HD
HETATM    5  C3  UNL     1       1.995  -0.339  -0.659  1.00  0.00     0.090 C 
ENDROOT
BRANCH   5   6
HETATM    6  C4  UNL     1       1.452  -0.749   0.672  1.00  0.00     0.077 C 
BRANCH   6   7
HETATM    7  C5  UNL     1      -0.008  -0.965   0.645  1.00  0.00     0.012 C 
BRANCH   7   8
HETATM    8  C6  UNL     1      -0.869   0.244   0.353  1.00  0.00     0.039 C 
BRANCH   8   9
HETATM    9  C7  UNL     1      -2.306  -0.227   0.320  1.00  0.00    -0.054 A 
HETATM   10  C8  UNL     1      -2.549  -1.577   0.147  1.00  0.00     0.034 A 
HETATM   11  C9  UNL     1      -3.888  -2.034  -0.024  1.00  0.00     0.049 A 
HETATM   12  N2  UNL     1      -4.149  -3.407  -0.233  1.00  0.00    -0.102 NA
HETATM   13  C10 UNL     1      -4.889  -1.127  -0.017  1.00  0.00     0.063 A 
HETATM   14  C11 UNL     1      -4.683   0.237   0.147  1.00  0.00     0.072 A 
HETATM   15  C17 UNL     1      -3.334   0.671   0.323  1.00  0.00     0.044 A 
BRANCH  14  16
HETATM   16  O1  UNL     1      -5.712   1.047   0.126  1.00  0.00    -0.332 OA
BRANCH  16  17
HETATM   17  C12 UNL     1      -6.937   1.488   0.088  1.00  0.00     0.127 A 
HETATM   18  C15 UNL     1      -7.317   2.899   0.587  1.00  0.00     0.050 A 
HETATM   19  C16 UNL     1      -7.733   1.722   1.381  1.00  0.00     0.050 A 
BRANCH  17  20
HETATM   20  C13 UNL     1      -7.867   1.030  -1.024  1.00  0.00     0.158 C 
HETATM   21  C14 UNL     1      -8.183  -0.367  -1.333  1.00  0.00     0.094 C 
HETATM   22  O2  UNL     1      -8.394   1.937  -1.685  1.00  0.00    -0.295 OA
ENDBRANCH  17  20
ENDBRANCH  16  17
ENDBRANCH  14  16
ENDBRANCH   8   9
ENDBRANCH   7   8
ENDBRANCH   6   7
ENDBRANCH   5   6
BRANCH   5  23
HETATM   23  N3  UNL     1       2.535   0.976  -0.813  1.00  0.00    -0.331 N 
ATOM     24  H3  UNL     1       1.910   1.737  -1.079  1.00  0.00     0.168 HD
BRANCH  23  25
HETATM   25  C18 UNL     1       3.748   1.226  -0.633  1.00  0.00     0.123 A 
HETATM   26  C19 UNL     1       4.727   0.295  -0.262  1.00  0.00     0.077 A 
HETATM   27  C20 UNL     1       5.934   0.943  -0.192  1.00  0.00     0.037 A 
HETATM   28  N4  UNL     1       5.691   2.216  -0.507  1.00  0.00    -0.302 N 
HETATM   29  N5  UNL     1       4.407   2.383  -0.767  1.00  0.00    -0.285 N 
ATOM     30  H4  UNL     1       6.395   2.954  -0.542  1.00  0.00     0.186 HD
ATOM     31  H5  UNL     1       3.978   3.269  -1.033  1.00  0.00     0.188 HD
BRANCH  27  32
HETATM   32  C21 UNL     1       7.260   0.366   0.201  1.00  0.00    -0.007 C 
HETATM   33  C22 UNL     1       8.329   1.411   0.036  1.00  0.00     0.021 C 
HETATM   34  C23 UNL     1       7.650  -0.843  -0.559  1.00  0.00     0.021 C 
HETATM   35  C24 UNL     1       7.209   0.052   1.694  1.00  0.00     0.021 C 
ENDBRANCH  27  32
ENDBRANCH  23  25
ENDBRANCH   5  23
TORSDOF 10
