REMARK  16 active torsions:
REMARK  status: ('A' for Active; 'I' for Inactive)
REMARK    1  A    between atoms: C2_2  and  O2_4 
REMARK    2  A    between atoms: O2_4  and  C3_5 
REMARK    3  A    between atoms: C3_5  and  C4_6 
REMARK    4  A    between atoms: C5_7  and  O3_8 
REMARK    5  A    between atoms: O3_8  and  C6_9 
REMARK    6  A    between atoms: C6_9  and  C7_11 
REMARK    7  A    between atoms: C8_13  and  N1_14 
REMARK    8  A    between atoms: C11_21  and  C12_22 
REMARK    9  A    between atoms: C13_25  and  O9_26 
REMARK   10  A    between atoms: C14_28  and  C15_29 
REMARK   11  A    between atoms: C15_29  and  C16_30 
REMARK   12  A    between atoms: C17_33  and  C18_34 
REMARK   13  A    between atoms: C20_38  and  O14_39 
REMARK   14  A    between atoms: C20_38  and  C21_41 
REMARK   15  A    between atoms: C22_44  and  O17_45 
REMARK   16  A    between atoms: O17_45  and  C23_46 
ROOT
HETATM    1  C4  UNL     1      -2.432  -0.345  -0.741  1.00  0.00     0.075 C 
HETATM    2  C5  UNL     1      -1.165  -0.771   0.012  1.00  0.00     0.164 C 
HETATM    3  C8  UNL     1      -0.337   0.231   0.655  1.00  0.00     0.133 C 
HETATM    4  C19 UNL     1      -0.927   1.615   0.724  1.00  0.00     0.080 C 
HETATM    5  C20 UNL     1      -2.401   1.744   0.687  1.00  0.00     0.174 C 
HETATM    6  C22 UNL     1      -2.960   0.984  -0.481  1.00  0.00     0.185 C 
ENDROOT
BRANCH   3   7
HETATM    7  N1  UNL     1       1.058   0.380   0.281  1.00  0.00    -0.241 N 
HETATM    8  C9  UNL     1       1.915  -0.451  -0.354  1.00  0.00     0.353 A 
HETATM    9  O5  UNL     1       1.624  -1.567  -0.778  1.00  0.00    -0.244 OA
HETATM   10  N2  UNL     1       3.162   0.073  -0.481  1.00  0.00    -0.191 N 
HETATM   11  N3  UNL     1       3.044   1.259   0.097  1.00  0.00    -0.213 N 
HETATM   12  C17 UNL     1       4.419  -0.428  -0.995  1.00  0.00     0.143 C 
HETATM   13  C10 UNL     1       1.797   1.459   0.558  1.00  0.00     0.349 A 
HETATM   14  C11 UNL     1       4.157   2.226   0.150  1.00  0.00     0.247 C 
HETATM   15  O6  UNL     1       1.507   2.556   1.149  1.00  0.00    -0.245 OA
HETATM   16  C13 UNL     1       5.443   1.640  -0.215  1.00  0.00     0.185 C 
HETATM   17  C14 UNL     1       5.474   0.328  -0.865  1.00  0.00    -0.003 C 
BRANCH  14  18
HETATM   18  C12 UNL     1       4.185   2.936   1.450  1.00  0.00     0.202 C 
HETATM   19  O7  UNL     1       4.091   4.180   1.502  1.00  0.00    -0.646 OA
HETATM   20  O8  UNL     1       4.315   2.236   2.615  1.00  0.00    -0.646 OA
ENDBRANCH  14  18
BRANCH  16  21
HETATM   21  O9  UNL     1       6.312   1.584   0.910  1.00  0.00    -0.388 OA
ATOM     22  H9  UNL     1       7.149   1.203   0.672  1.00  0.00     0.210 HD
ENDBRANCH  16  21
BRANCH  17  23
HETATM   23  C15 UNL     1       6.788  -0.042  -1.473  1.00  0.00     0.152 C 
BRANCH  23  24
HETATM   24  C16 UNL     1       7.763  -0.618  -0.554  1.00  0.00     0.176 C 
HETATM   25  O10 UNL     1       7.431  -0.916   0.620  1.00  0.00    -0.648 OA
HETATM   26  O11 UNL     1       9.068  -0.864  -0.914  1.00  0.00    -0.648 OA
ENDBRANCH  23  24
ENDBRANCH  17  23
BRANCH  12  27
HETATM   27  C18 UNL     1       4.495  -1.756  -1.569  1.00  0.00     0.229 C 
HETATM   28  O12 UNL     1       3.545  -2.554  -1.784  1.00  0.00    -0.643 OA
HETATM   29  O13 UNL     1       5.725  -2.314  -1.952  1.00  0.00    -0.643 OA
ENDBRANCH  12  27
ENDBRANCH   3   7
BRANCH   2  30
HETATM   30  O3  UNL     1      -1.561  -1.839   0.778  1.00  0.00    -0.313 OA
BRANCH  30  31
HETATM   31  C6  UNL     1      -1.491  -3.154   0.799  1.00  0.00     0.269 C 
HETATM   32  O4  UNL     1      -0.875  -3.678  -0.174  1.00  0.00    -0.264 OA
BRANCH  31  33
HETATM   33  C7  UNL     1      -2.093  -3.960   1.883  1.00  0.00     0.197 C 
HETATM   34  S1  UNL     1      -2.970  -5.360   1.135  1.00  0.00    -0.087 SA
ENDBRANCH  31  33
ENDBRANCH  30  31
ENDBRANCH   2  30
BRANCH   1  35
HETATM   35  C3  UNL     1      -3.504  -1.398  -0.621  1.00  0.00     0.188 C 
BRANCH  35  36
HETATM   36  O2  UNL     1      -4.685  -1.065  -1.322  1.00  0.00    -0.321 OA
BRANCH  36  37
HETATM   37  C2  UNL     1      -5.762  -1.961  -1.320  1.00  0.00     0.254 C 
HETATM   38  C1  UNL     1      -6.979  -1.627  -2.053  1.00  0.00     0.126 C 
HETATM   39  O1  UNL     1      -5.599  -3.031  -0.666  1.00  0.00    -0.266 OA
ENDBRANCH  36  37
ENDBRANCH  35  36
ENDBRANCH   1  35
BRANCH   5  40
HETATM   40  O14 UNL     1      -2.629   3.129   0.352  1.00  0.00    -0.376 OA
ATOM     41  H14 UNL     1      -3.575   3.212   0.328  1.00  0.00     0.211 HD
ENDBRANCH   5  40
BRANCH   5  42
HETATM   42  C21 UNL     1      -3.078   1.577   1.961  1.00  0.00     0.211 C 
HETATM   43  O15 UNL     1      -3.048   0.485   2.566  1.00  0.00    -0.646 OA
HETATM   44  O16 UNL     1      -3.798   2.578   2.602  1.00  0.00    -0.646 OA
ENDBRANCH   5  42
BRANCH   6  45
HETATM   45  O17 UNL     1      -4.376   1.044  -0.264  1.00  0.00    -0.312 OA
BRANCH  45  46
HETATM   46  C23 UNL     1      -5.209   1.891  -0.986  1.00  0.00     0.255 C 
HETATM   47  C24 UNL     1      -6.679   1.977  -0.761  1.00  0.00     0.126 C 
HETATM   48  O18 UNL     1      -4.682   2.613  -1.862  1.00  0.00    -0.266 OA
ENDBRANCH  45  46
ENDBRANCH   6  45
TORSDOF 16
