REMARK  11 active torsions:
REMARK  status: ('A' for Active; 'I' for Inactive)
REMARK    1  A    between atoms: C2_2  and  C3_3 
REMARK    2  A    between atoms: C3_3  and  C4_4 
REMARK    3  A    between atoms: C4_4  and  C5_5 
REMARK    4  A    between atoms: C7_10  and  C8_11 
REMARK    5  A    between atoms: C8_11  and  C9_12 
REMARK    6  A    between atoms: C12_15  and  O2_16 
REMARK    7  A    between atoms: O2_16  and  C13_17 
REMARK    8  A    between atoms: C21_33  and  C22_34 
REMARK    9  A    between atoms: C22_34  and  C23_35 
REMARK   10  A    between atoms: C23_35  and  C24_36 
REMARK   11  A    between atoms: C24_36  and  N5_37 
ROOT
HETATM    1  C13 UNL     1      -8.986   1.356   1.666  1.00  0.00     0.299 C 
HETATM    2  C14 UNL     1      -9.918   1.311   2.815  1.00  0.00     0.085 C 
HETATM    3  N2  UNL     1     -10.654   1.288   3.709  1.00  0.00    -0.195 NA
ENDROOT
BRANCH   1   4
HETATM    4  O2  UNL     1      -8.002   0.391   1.904  1.00  0.00    -0.338 OA
BRANCH   4   5
HETATM    5  C12 UNL     1      -6.962   0.179   0.997  1.00  0.00     0.071 A 
HETATM    6  C11 UNL     1      -6.866   0.909  -0.159  1.00  0.00     0.037 A 
HETATM    7  C10 UNL     1      -5.831   0.676  -1.030  1.00  0.00     0.011 A 
HETATM    8  C9  UNL     1      -4.856  -0.273  -0.805  1.00  0.00    -0.035 A 
HETATM    9  C16 UNL     1      -4.957  -1.004   0.361  1.00  0.00     0.043 A 
HETATM   10  C15 UNL     1      -6.001  -0.775   1.248  1.00  0.00     0.061 A 
HETATM   11 CL1  UNL     1      -3.769  -2.230   0.734  1.00  0.00    -0.084 Cl
BRANCH   8  12
HETATM   12  C8  UNL     1      -3.781  -0.467  -1.778  1.00  0.00     0.056 C 
BRANCH  12  13
HETATM   13  C7  UNL     1      -2.454   0.124  -1.359  1.00  0.00     0.100 C 
HETATM   14  C6  UNL     1      -1.491  -0.164  -2.454  1.00  0.00     0.224 C 
HETATM   15  N1  UNL     1      -0.217  -0.747  -2.271  1.00  0.00    -0.347 N 
HETATM   16  O1  UNL     1      -1.877   0.152  -3.632  1.00  0.00    -0.273 OA
HETATM   17  C5  UNL     1       0.698  -0.420  -1.197  1.00  0.00     0.176 C 
ATOM     18  H1  UNL     1       0.081  -1.451  -2.946  1.00  0.00     0.163 HD
HETATM   19  C26 UNL     1       1.914   0.247  -1.661  1.00  0.00     0.241 C 
HETATM   20  N8  UNL     1       2.489   1.421  -1.141  1.00  0.00    -0.346 N 
HETATM   21  O5  UNL     1       2.531  -0.284  -2.648  1.00  0.00    -0.271 OA
HETATM   22  C21 UNL     1       2.526   1.832   0.227  1.00  0.00     0.176 C 
ATOM     23  H8  UNL     1       2.928   2.048  -1.815  1.00  0.00     0.163 HD
HETATM   24  C20 UNL     1       2.216   3.277   0.399  1.00  0.00     0.240 C 
HETATM   25  N4  UNL     1       0.910   3.800   0.597  1.00  0.00    -0.351 N 
HETATM   26  O4  UNL     1       3.187   4.078   0.364  1.00  0.00    -0.271 OA
HETATM   27  C19 UNL     1      -0.270   3.384  -0.122  1.00  0.00     0.225 C 
ATOM     28  H4  UNL     1       0.797   4.527   1.303  1.00  0.00     0.163 HD
HETATM   29  C18 UNL     1      -1.306   2.820   0.753  1.00  0.00     0.235 C 
HETATM   30  N3  UNL     1      -2.290   1.919   0.314  1.00  0.00    -0.359 N 
HETATM   31  O3  UNL     1      -1.327   3.155   1.977  1.00  0.00    -0.272 OA
HETATM   32  C17 UNL     1      -2.547   1.601  -1.075  1.00  0.00     0.137 C 
ATOM     33  H3  UNL     1      -2.862   1.458   1.021  1.00  0.00     0.162 HD
BRANCH  17  34
HETATM   34  C4  UNL     1       0.934  -1.658  -0.397  1.00  0.00     0.035 C 
BRANCH  34  35
HETATM   35  C3  UNL     1       1.534  -2.779  -1.216  1.00  0.00     0.002 C 
BRANCH  35  36
HETATM   36  C2  UNL     1       1.751  -4.021  -0.341  1.00  0.00    -0.004 C 
HETATM   37  C1  UNL     1       2.691  -3.649   0.779  1.00  0.00     0.005 C 
ENDBRANCH  35  36
ENDBRANCH  34  35
ENDBRANCH  17  34
BRANCH  22  38
HETATM   38  C22 UNL     1       3.883   1.591   0.867  1.00  0.00     0.036 C 
BRANCH  38  39
HETATM   39  C23 UNL     1       4.297   0.140   0.748  1.00  0.00     0.022 C 
BRANCH  39  40
HETATM   40  C24 UNL     1       5.667  -0.036   1.410  1.00  0.00     0.122 C 
BRANCH  40  41
HETATM   41  N5  UNL     1       6.122  -1.389   1.335  1.00  0.00    -0.367 N 
HETATM   42  C25 UNL     1       7.327  -1.699   1.044  1.00  0.00     0.196 C 
HETATM   43  N6  UNL     1       7.706  -3.066   0.988  1.00  0.00    -0.067 NA
HETATM   44  N7  UNL     1       8.351  -0.741   0.763  1.00  0.00    -0.067 NA
ATOM     45  H5  UNL     1       5.456  -2.139   1.522  1.00  0.00     0.161 HD
ENDBRANCH  40  41
ENDBRANCH  39  40
ENDBRANCH  38  39
ENDBRANCH  22  38
ENDBRANCH  12  13
ENDBRANCH   8  12
ENDBRANCH   4   5
ENDBRANCH   1   4
TORSDOF 11
