REMARK  4 active torsions:
REMARK  status: ('A' for Active; 'I' for Inactive)
REMARK    1  A    between atoms: O1_2  and  C2_3 
REMARK    2  A    between atoms: N1_8  and  O2_9 
REMARK    3  A    between atoms: N3_21  and  C17_22 
REMARK    4  A    between atoms: C17_22  and  C18_23 
ROOT
HETATM    1  C2  UNL     1       0.467   2.591   0.308  1.00  0.00     0.051 C 
HETATM    2  C3  UNL     1       1.786   2.604   0.228  1.00  0.00     0.033 C 
HETATM    3  C4  UNL     1       2.908   1.671  -0.030  1.00  0.00     0.012 C 
HETATM    4  C5  UNL     1       2.979   0.394  -0.419  1.00  0.00    -0.030 C 
HETATM    5  C6  UNL     1       4.438   0.274  -0.419  1.00  0.00     0.160 C 
HETATM    6  N1  UNL     1       4.749  -0.969   0.308  1.00  0.00    -0.193 NA
HETATM    7  C8  UNL     1       4.567  -2.034  -0.624  1.00  0.00     0.127 C 
HETATM    8  C9  UNL     1       3.273  -2.785  -0.485  1.00  0.00     0.075 C 
HETATM    9  C10 UNL     1       2.086  -1.948  -0.740  1.00  0.00     0.024 A 
HETATM   10  C11 UNL     1       1.897  -0.572  -0.736  1.00  0.00     0.002 A 
HETATM   11  C12 UNL     1       0.556  -0.406  -1.055  1.00  0.00    -0.022 A 
HETATM   12  C13 UNL     1      -0.027  -1.636  -1.238  1.00  0.00     0.020 A 
HETATM   13  N2  UNL     1       0.911  -2.577  -1.046  1.00  0.00    -0.357 N 
HETATM   14  C14 UNL     1       0.671  -4.009  -1.155  1.00  0.00     0.156 C 
HETATM   15  C15 UNL     1      -1.488  -1.766  -1.570  1.00  0.00     0.077 C 
HETATM   16  C16 UNL     1      -2.315  -1.379  -0.345  1.00  0.00     0.132 C 
HETATM   17  N3  UNL     1      -3.188  -0.256  -0.609  1.00  0.00    -0.347 N 
HETATM   18  C22 UNL     1      -2.858   1.101  -0.518  1.00  0.00     0.224 C 
HETATM   19  O4  UNL     1      -3.425   1.877  -1.368  1.00  0.00    -0.273 OA
HETATM   20  C23 UNL     1      -1.903   1.707   0.485  1.00  0.00     0.084 C 
HETATM   21  C24 UNL     1      -2.404   3.102   0.701  1.00  0.00     0.020 C 
HETATM   22  C25 UNL     1      -0.502   1.487   0.147  1.00  0.00     0.059 C 
HETATM   23  C26 UNL     1      -0.282   0.831  -1.215  1.00  0.00     0.053 C 
ENDROOT
BRANCH  17  24
HETATM   24  C17 UNL     1      -4.560  -0.616  -1.023  1.00  0.00     0.166 C 
BRANCH  24  25
HETATM   25  C18 UNL     1      -5.350  -0.703   0.245  1.00  0.00    -0.015 A 
HETATM   26  C19 UNL     1      -6.049   0.318   0.874  1.00  0.00     0.152 A 
HETATM   27  O3  UNL     1      -6.614  -0.149   1.965  1.00  0.00    -0.315 OA
HETATM   28  C20 UNL     1      -6.341  -1.420   2.113  1.00  0.00     0.121 A 
HETATM   29 BR1  UNL     1      -6.926  -2.563   3.539  1.00  0.00    -0.023 Br
HETATM   30  C21 UNL     1      -5.544  -1.815   1.050  1.00  0.00     0.056 A 
ENDBRANCH  24  25
ENDBRANCH  17  24
BRANCH   1  31
HETATM   31  O1  UNL     1      -0.010   3.845   0.589  1.00  0.00    -0.360 OA
HETATM   32  C1  UNL     1       0.794   4.917   0.930  1.00  0.00     0.209 C 
ENDBRANCH   1  31
BRANCH   6  33
HETATM   33  O2  UNL     1       6.019  -0.894   0.741  1.00  0.00    -0.308 OA
HETATM   34  C7  UNL     1       6.127  -0.272   1.978  1.00  0.00     0.229 C 
ENDBRANCH   6  33
TORSDOF 4
