REMARK  4 active torsions:
REMARK  status: ('A' for Active; 'I' for Inactive)
REMARK    1  A    between atoms: S1_3  and  N1_6 
REMARK    2  A    between atoms: N2_17  and  C11_18 
REMARK    3  A    between atoms: C11_18  and  C12_19 
REMARK    4  A    between atoms: C16_23  and  N3_24 
ROOT
HETATM    1  C1  UNL     1      -2.210   2.133   4.389  1.00  0.00     0.031 C 
HETATM    2  C2  UNL     1      -2.255   1.036   3.878  1.00  0.00     0.038 C 
HETATM    3  S1  UNL     1      -2.286  -0.510   3.133  1.00  0.00     0.311 S 
HETATM    4  O1  UNL     1      -1.151  -1.416   3.510  1.00  0.00    -0.191 OA
HETATM    5  O2  UNL     1      -3.378  -1.210   4.001  1.00  0.00    -0.191 OA
ENDROOT
BRANCH   3   6
HETATM    6  N1  UNL     1      -2.900  -0.603   1.579  1.00  0.00    -0.192 N 
HETATM    7  C3  UNL     1      -4.221  -1.140   1.281  1.00  0.00     0.247 C 
HETATM    8  O3  UNL     1      -4.654  -1.998   2.078  1.00  0.00    -0.271 OA
HETATM    9  C4  UNL     1      -4.900  -0.624   0.088  1.00  0.00     0.039 C 
HETATM   10  C5  UNL     1      -5.255   0.858   0.216  1.00  0.00     0.025 C 
HETATM   11  C6  UNL     1      -6.160  -1.426  -0.205  1.00  0.00     0.025 C 
HETATM   12  C7  UNL     1      -4.022  -0.736  -1.153  1.00  0.00     0.060 C 
HETATM   13  C8  UNL     1      -2.667  -0.261  -0.847  1.00  0.00    -0.011 A 
HETATM   14  C9  UNL     1      -2.160  -0.172   0.436  1.00  0.00     0.130 A 
HETATM   15  C26 UNL     1      -1.878   0.148  -1.896  1.00  0.00     0.003 A 
HETATM   16  C10 UNL     1      -0.914   0.317   0.583  1.00  0.00     0.281 A 
HETATM   17  O4  UNL     1      -0.395   0.425   1.720  1.00  0.00    -0.265 OA
HETATM   18  N2  UNL     1      -0.082   0.744  -0.440  1.00  0.00    -0.283 N 
HETATM   19  C21 UNL     1      -0.580   0.652  -1.681  1.00  0.00     0.091 A 
HETATM   20  C22 UNL     1       0.154   1.037  -2.771  1.00  0.00     0.144 A 
HETATM   21  F1  UNL     1       1.397   1.527  -2.588  1.00  0.00    -0.204 F 
HETATM   22  C23 UNL     1      -0.321   0.955  -4.089  1.00  0.00     0.045 A 
HETATM   23  C24 UNL     1      -1.578   0.464  -4.276  1.00  0.00     0.004 A 
HETATM   24  C25 UNL     1      -2.352   0.062  -3.189  1.00  0.00     0.014 A 
BRANCH  18  25
HETATM   25  C11 UNL     1       1.153   1.239  -0.129  1.00  0.00     0.113 C 
BRANCH  25  26
HETATM   26  C12 UNL     1       2.155   0.122  -0.033  1.00  0.00    -0.012 A 
HETATM   27  C13 UNL     1       1.785  -1.194  -0.194  1.00  0.00     0.013 A 
HETATM   28  C14 UNL     1       2.732  -2.204  -0.092  1.00  0.00     0.003 A 
HETATM   29  C15 UNL     1       4.052  -1.938   0.169  1.00  0.00     0.030 A 
HETATM   30  C16 UNL     1       4.437  -0.625   0.332  1.00  0.00     0.036 A 
HETATM   31  C19 UNL     1       3.493   0.358   0.229  1.00  0.00    -0.024 A 
HETATM   32  C20 UNL     1       3.908   1.767   0.422  1.00  0.00     0.051 C 
BRANCH  30  33
HETATM   33  N3  UNL     1       5.812  -0.353   0.575  1.00  0.00    -0.389 N 
HETATM   34  C17 UNL     1       6.606   0.289  -0.446  1.00  0.00     0.149 C 
HETATM   35  C18 UNL     1       6.460  -0.702   1.839  1.00  0.00     0.149 C 
ENDBRANCH  30  33
ENDBRANCH  25  26
ENDBRANCH  18  25
ENDBRANCH   3   6
TORSDOF 4
