REMARK  3 active torsions:
REMARK  status: ('A' for Active; 'I' for Inactive)
REMARK    1  A    between atoms: C15_20  and  C16_21 
REMARK    2  A    between atoms: C20_26  and  O4_27 
REMARK    3  A    between atoms: C22_29  and  O5_30 
ROOT
HETATM    1  C16 UNL     1       2.634  -0.243  -0.285  1.00  0.00    -0.001 A 
HETATM    2  C17 UNL     1       3.298  -1.432  -0.325  1.00  0.00     0.053 A 
HETATM    3  C18 UNL     1       4.688  -1.562  -0.197  1.00  0.00     0.105 A 
HETATM    4  O3  UNL     1       5.246  -2.723  -0.243  1.00  0.00    -0.353 OA
HETATM    5  C19 UNL     1       5.771  -3.902  -0.293  1.00  0.00     0.210 C 
HETATM    6  C20 UNL     1       5.436  -0.373  -0.018  1.00  0.00     0.135 A 
HETATM    7  C22 UNL     1       4.779   0.827   0.023  1.00  0.00     0.105 A 
HETATM    8  C24 UNL     1       3.408   0.885  -0.108  1.00  0.00     0.053 A 
ENDROOT
BRANCH   6   9
HETATM    9  O4  UNL     1       6.814  -0.478   0.111  1.00  0.00    -0.351 OA
HETATM   10  C21 UNL     1       7.488  -0.641   1.328  1.00  0.00     0.210 C 
ENDBRANCH   6   9
BRANCH   1  11
HETATM   11  C15 UNL     1       1.173  -0.193  -0.437  1.00  0.00     0.073 A 
HETATM   12  N2  UNL     1      -0.095  -0.784  -0.476  1.00  0.00    -0.340 N 
HETATM   13  C13 UNL     1      -1.232  -1.682  -0.451  1.00  0.00     0.149 C 
HETATM   14  C14 UNL     1       0.025   0.527  -0.693  1.00  0.00     0.076 A 
HETATM   15  C12 UNL     1      -2.362  -1.124  -1.223  1.00  0.00     0.146 C 
HETATM   16  N1  UNL     1      -3.242  -0.223  -0.547  1.00  0.00    -0.344 N 
HETATM   17  C5  UNL     1      -3.257   0.066   0.850  1.00  0.00     0.109 C 
HETATM   18  C11 UNL     1      -4.200   0.443  -1.385  1.00  0.00     0.221 C 
HETATM   19  C4  UNL     1      -2.246   1.118   1.169  1.00  0.00     0.155 C 
HETATM   20  C6  UNL     1      -4.617   0.264   1.450  1.00  0.00     0.037 C 
HETATM   21  C3  UNL     1      -1.925   1.991   0.013  1.00  0.00     0.177 C 
HETATM   22 BR1  UNL     1      -2.772   2.254   2.641  1.00  0.00    -0.081 Br
HETATM   23  C2  UNL     1      -0.891   1.607  -0.986  1.00  0.00     0.031 C 
HETATM   24  O1  UNL     1      -2.540   3.084  -0.127  1.00  0.00    -0.291 OA
HETATM   25  C1  UNL     1      -0.861   2.304  -2.106  1.00  0.00     0.030 C 
HETATM   26  C7  UNL     1      -5.732   0.174   0.427  1.00  0.00    -0.030 A 
HETATM   27  C8  UNL     1      -6.541  -1.070   0.286  1.00  0.00     0.011 A 
HETATM   28  C9  UNL     1      -7.124   0.210   0.925  1.00  0.00     0.011 A 
HETATM   29  C10 UNL     1      -5.444   1.029  -0.783  1.00  0.00     0.112 C 
HETATM   30  O2  UNL     1      -4.015   0.545  -2.629  1.00  0.00    -0.273 OA
ENDBRANCH   1  11
BRANCH   7  31
HETATM   31  O5  UNL     1       5.565   1.961   0.201  1.00  0.00    -0.353 OA
HETATM   32  C23 UNL     1       4.884   3.213   0.237  1.00  0.00     0.210 C 
ENDBRANCH   7  31
TORSDOF 3
