REMARK  8 active torsions:
REMARK  status: ('A' for Active; 'I' for Inactive)
REMARK    1  A    between atoms: O1_2  and  C2_3 
REMARK    2  A    between atoms: C2_3  and  C3_4 
REMARK    3  A    between atoms: C3_4  and  O2_5 
REMARK    4  A    between atoms: O2_5  and  C4_6 
REMARK    5  A    between atoms: C4_6  and  O3_7 
REMARK    6  A    between atoms: O3_7  and  C5_8 
REMARK    7  A    between atoms: C7_10  and  N1_11 
REMARK    8  A    between atoms: C8_16  and  N3_17 
ROOT
HETATM    1  C5  UNL     1      -1.517   0.951  -0.171  1.00  0.00     0.163 A 
HETATM    2  C6  UNL     1      -1.879  -0.364  -0.020  1.00  0.00     0.105 A 
HETATM    3  C7  UNL     1      -3.196  -0.641   0.316  1.00  0.00     0.118 A 
HETATM    4  N2  UNL     1      -4.052   0.374   0.477  1.00  0.00    -0.177 N 
ATOM      5  H2  UNL     1      -5.019   0.165   0.725  1.00  0.00     0.185 HD
HETATM    6  C8  UNL     1      -3.688   1.658   0.325  1.00  0.00     0.679 A 
HETATM    7  N4  UNL     1      -2.428   1.941   0.004  1.00  0.00    -0.171 N 
ATOM      8  H4  UNL     1      -2.144   2.914  -0.112  1.00  0.00     0.186 HD
ENDROOT
BRANCH   1   9
HETATM    9  O3  UNL     1      -0.236   1.302  -0.499  1.00  0.00    -0.309 OA
BRANCH   9  10
HETATM   10  C4  UNL     1       0.781   0.337  -0.687  1.00  0.00     0.346 C 
BRANCH  10  11
HETATM   11  O2  UNL     1       0.970  -0.334   0.456  1.00  0.00    -0.364 OA
BRANCH  11  12
HETATM   12  C3  UNL     1       1.857  -1.325   0.607  1.00  0.00     0.196 C 
BRANCH  12  13
HETATM   13  C2  UNL     1       3.283  -0.946   0.369  1.00  0.00     0.193 C 
BRANCH  13  14
HETATM   14  O1  UNL     1       3.446  -0.505  -0.906  1.00  0.00    -0.394 OA
HETATM   15  C1  UNL     1       4.744  -0.129  -1.220  1.00  0.00     0.201 C 
ENDBRANCH  13  14
ENDBRANCH  12  13
ENDBRANCH  11  12
ENDBRANCH  10  11
ENDBRANCH   9  10
ENDBRANCH   1   9
BRANCH   3  16
HETATM   16  N1  UNL     1      -3.520  -1.886   0.455  1.00  0.00    -0.385 N 
ATOM     17  H12 UNL     1      -2.867  -2.660   0.332  1.00  0.00     0.157 HD
ATOM     18  H11 UNL     1      -4.488  -2.090   0.702  1.00  0.00     0.157 HD
ENDBRANCH   3  16
BRANCH   6  19
HETATM   19  N3  UNL     1      -4.525   2.626   0.483  1.00  0.00    -0.234 N 
ATOM     20  H32 UNL     1      -5.491   2.409   0.729  1.00  0.00     0.174 HD
ATOM     21  H31 UNL     1      -4.249   3.601   0.368  1.00  0.00     0.174 HD
ENDBRANCH   6  19
TORSDOF 8
