REMARK  4 active torsions:
REMARK  status: ('A' for Active; 'I' for Inactive)
REMARK    1  A    between atoms: C2_2  and  S1_3 
REMARK    2  A    between atoms: S1_3  and  C3_4 
REMARK    3  A    between atoms: N1_7  and  N2_8 
REMARK    4  A    between atoms: N2_8  and  O1_10 
ROOT
HETATM    1  C3  UNL     1      -0.498  -0.079  -0.683  1.00  0.00     0.055 C 
HETATM    2  C4  UNL     1      -0.085  -0.224   0.744  1.00  0.00     0.037 C 
HETATM    3  C5  UNL     1       1.327  -0.745   0.904  1.00  0.00     0.145 C 
HETATM    4  N1  UNL     1       2.265  -0.015   0.077  1.00  0.00    -0.309 N 
HETATM    5  C6  UNL     1       1.795   0.544  -1.195  1.00  0.00     0.145 C 
HETATM    6  C7  UNL     1       0.661  -0.358  -1.642  1.00  0.00     0.037 C 
ENDROOT
BRANCH   4   7
HETATM    7  N2  UNL     1       3.591   0.155   0.481  1.00  0.00    -0.212 N 
ATOM      8  H2  UNL     1       4.187  -0.643   0.700  1.00  0.00     0.215 HD
BRANCH   7   9
HETATM    9  O1  UNL     1       4.018   1.333   0.563  1.00  0.00    -0.275 OA
ATOM     10  H1  UNL     1       4.920   1.449   0.838  1.00  0.00     0.246 HD
ENDBRANCH   7   9
ENDBRANCH   4   7
BRANCH   1  11
HETATM   11  S1  UNL     1      -1.951  -1.045  -1.136  1.00  0.00    -0.137 SA
BRANCH  11  12
HETATM   12  C2  UNL     1      -3.412  -0.464  -0.302  1.00  0.00     0.035 C 
HETATM   13  C1  UNL     1      -3.334   0.614   0.464  1.00  0.00     0.018 C 
ENDBRANCH  11  12
ENDBRANCH   1  11
TORSDOF 4
