REMARK  4 active torsions:
REMARK  status: ('A' for Active; 'I' for Inactive)
REMARK    1  A    between atoms: N2_8  and  C5_9 
REMARK    2  A    between atoms: C5_9  and  C6_10 
REMARK    3  A    between atoms: C6_10  and  N3_11 
REMARK    4  A    between atoms: N4_14  and  C9_15 
ROOT
HETATM    1  N3  UNL     1      -0.815  -0.892  -0.239  1.00  0.00    -0.215 N 
HETATM    2  C7  UNL     1      -1.473  -1.962   0.483  1.00  0.00     0.161 C 
HETATM    3  C8  UNL     1      -2.601  -1.239   1.158  1.00  0.00     0.162 C 
HETATM    4  N4  UNL     1      -3.014  -0.240   0.198  1.00  0.00    -0.208 N 
HETATM    5  C13 UNL     1      -1.854  -0.001  -0.629  1.00  0.00     0.672 C 
HETATM    6  N5  UNL     1      -1.752   0.862  -1.565  1.00  0.00    -0.235 N 
ATOM      7  H51 UNL     1      -2.497   1.501  -1.845  1.00  0.00     0.174 HD
ATOM      8  H52 UNL     1      -0.933   1.031  -2.149  1.00  0.00     0.174 HD
ENDROOT
BRANCH   1   9
HETATM    9  C6  UNL     1       0.595  -0.738  -0.521  1.00  0.00     0.161 C 
BRANCH   9  10
HETATM   10  C5  UNL     1       1.391  -0.460   0.759  1.00  0.00     0.157 C 
BRANCH  10  11
HETATM   11  N2  UNL     1       2.782  -0.333   0.316  1.00  0.00    -0.266 N 
HETATM   12  C4  UNL     1       3.694  -1.415   0.234  1.00  0.00     0.326 C 
HETATM   13  N1  UNL     1       4.927  -0.912  -0.238  1.00  0.00    -0.325 N 
HETATM   14  O1  UNL     1       3.413  -2.630   0.543  1.00  0.00    -0.247 OA
HETATM   15  C2  UNL     1       4.892   0.529  -0.199  1.00  0.00     0.108 C 
ATOM     16  H1  UNL     1       5.715  -1.477  -0.555  1.00  0.00     0.165 HD
HETATM   17  C1  UNL     1       5.640   0.948   1.074  1.00  0.00     0.049 C 
HETATM   18  C3  UNL     1       5.540   1.143  -1.418  1.00  0.00     0.049 C 
HETATM   19  C14 UNL     1       3.458   0.835  -0.105  1.00  0.00     0.255 C 
HETATM   20  O2  UNL     1       2.930   1.945  -0.356  1.00  0.00    -0.270 OA
ENDBRANCH  10  11
ENDBRANCH   9  10
ENDBRANCH   1   9
BRANCH   4  21
HETATM   21  C9  UNL     1      -4.305   0.381   0.093  1.00  0.00     0.039 C 
HETATM   22  C10 UNL     1      -4.426   1.388  -0.990  1.00  0.00     0.038 C 
HETATM   23  C11 UNL     1      -4.585   1.070   1.425  1.00  0.00     0.038 C 
HETATM   24  C12 UNL     1      -5.372  -0.671  -0.086  1.00  0.00     0.038 C 
ENDBRANCH   4  21
TORSDOF 4
