REMARK  11 active torsions:
REMARK  status: ('A' for Active; 'I' for Inactive)
REMARK    1  A    between atoms: N1_1  and  C1_4 
REMARK    2  A    between atoms: C2_7  and  N3_8 
REMARK    3  A    between atoms: N3_8  and  C3_10 
REMARK    4  A    between atoms: C3_10  and  C4_11 
REMARK    5  A    between atoms: C4_11  and  N4_12 
REMARK       I    between atoms: N4_12  and  C5_14 
REMARK    6  A    between atoms: C5_14  and  C6_16 
REMARK    7  A    between atoms: C6_16  and  C7_17 
REMARK    8  A    between atoms: C13_27  and  N7_28 
REMARK    9  A    between atoms: N7_28  and  C14_30 
REMARK   10  A    between atoms: C14_30  and  C15_31 
REMARK   11  A    between atoms: C15_31  and  O2_32 
ROOT
HETATM    1  C1  UNL     1      -1.473   2.201   0.582  1.00  0.00     0.127 A 
HETATM    2  N2  UNL     1      -0.698   1.104   0.559  1.00  0.00    -0.176 N 
ATOM      3  H2  UNL     1       0.273   1.173   0.863  1.00  0.00     0.186 HD
HETATM    4  C2  UNL     1      -1.176  -0.086   0.143  1.00  0.00     0.680 A 
HETATM    5  N6  UNL     1      -2.470  -0.188  -0.264  1.00  0.00    -0.187 N 
ATOM      6  H6  UNL     1      -2.819  -1.094  -0.577  1.00  0.00     0.184 HD
HETATM    7  C12 UNL     1      -3.304   0.869  -0.267  1.00  0.00     0.106 A 
HETATM    8  C13 UNL     1      -4.634   0.745  -0.689  1.00  0.00     0.129 A 
HETATM    9  N8  UNL     1      -5.443   1.805  -0.684  1.00  0.00    -0.351 N 
ATOM     10  H8  UNL     1      -6.412   1.722  -0.990  1.00  0.00     0.166 HD
HETATM   11  C16 UNL     1      -4.946   3.005  -0.260  1.00  0.00     0.091 A 
HETATM   12  C17 UNL     1      -3.645   3.145   0.158  1.00  0.00     0.034 A 
HETATM   13  C18 UNL     1      -2.786   2.071   0.164  1.00  0.00     0.040 A 
ENDROOT
BRANCH   4  14
HETATM   14  N3  UNL     1      -0.444  -1.159   0.112  1.00  0.00    -0.224 N 
ATOM     15  H3  UNL     1      -0.825  -2.050  -0.206  1.00  0.00     0.177 HD
BRANCH  14  16
HETATM   16  C3  UNL     1       0.949  -1.041   0.551  1.00  0.00     0.157 C 
BRANCH  16  17
HETATM   17  C4  UNL     1       1.651  -2.346   0.395  1.00  0.00     0.143 C 
BRANCH  17  18
HETATM   18  N4  UNL     1       3.033  -2.349   0.804  1.00  0.00    -0.359 N 
HETATM   19  C5  UNL     1       4.023  -1.530   0.209  1.00  0.00     0.221 C 
HETATM   20  O1  UNL     1       3.710  -0.760  -0.722  1.00  0.00    -0.273 OA
ATOM     21  H4  UNL     1       3.312  -2.973   1.561  1.00  0.00     0.162 HD
BRANCH  19  22
HETATM   22  C6  UNL     1       5.414  -1.574   0.672  1.00  0.00     0.141 C 
BRANCH  22  23
HETATM   23  C7  UNL     1       6.310  -0.665  -0.050  1.00  0.00    -0.047 A 
HETATM   24  C8  UNL     1       6.500   0.626   0.398  1.00  0.00     0.024 A 
HETATM   25  C9  UNL     1       7.350   1.501  -0.279  1.00  0.00     0.088 A 
HETATM   26  N5  UNL     1       7.990   1.074  -1.382  1.00  0.00    -0.375 N 
HETATM   27  C10 UNL     1       7.836  -0.186  -1.862  1.00  0.00     0.088 A 
ATOM     28  H5  UNL     1       8.611   1.717  -1.873  1.00  0.00     0.164 HD
HETATM   29  C11 UNL     1       6.991  -1.048  -1.185  1.00  0.00     0.024 A 
ENDBRANCH  22  23
ENDBRANCH  19  22
ENDBRANCH  17  18
ENDBRANCH  16  17
ENDBRANCH  14  16
ENDBRANCH   4  14
BRANCH   1  30
HETATM   30  N1  UNL     1      -1.000   3.327   0.982  1.00  0.00    -0.384 N 
ATOM     31  H12 UNL     1      -0.032   3.423   1.290  1.00  0.00     0.157 HD
ATOM     32  H11 UNL     1      -1.588   4.160   0.999  1.00  0.00     0.157 HD
ENDBRANCH   1  30
BRANCH   8  33
HETATM   33  N7  UNL     1      -5.041  -0.393  -1.072  1.00  0.00    -0.372 N 
ATOM     34  H7  UNL     1      -4.368  -1.159  -1.050  1.00  0.00     0.161 HD
BRANCH  33  35
HETATM   35  C14 UNL     1      -6.362  -0.699  -1.533  1.00  0.00     0.147 C 
BRANCH  35  36
HETATM   36  C15 UNL     1      -7.222  -0.981  -0.293  1.00  0.00     0.183 C 
BRANCH  36  37
HETATM   37  O2  UNL     1      -6.607  -2.071   0.338  1.00  0.00    -0.399 OA
ATOM     38  H2  UNL     1      -7.139  -2.246   1.105  1.00  0.00     0.209 HD
ENDBRANCH  36  37
ENDBRANCH  35  36
ENDBRANCH  33  35
ENDBRANCH   8  33
TORSDOF 11
