REMARK  11 active torsions:
REMARK  status: ('A' for Active; 'I' for Inactive)
REMARK    1  A    between atoms: C2_2  and  C3_3 
REMARK    2  A    between atoms: C3_3  and  C4_4 
REMARK    3  A    between atoms: C4_4  and  N1_5 
REMARK    4  A    between atoms: N1_5  and  C5_7 
REMARK    5  A    between atoms: C5_7  and  C6_8 
REMARK    6  A    between atoms: C6_8  and  C7_9 
REMARK    7  A    between atoms: C7_9  and  N2_10 
REMARK    8  A    between atoms: C9_15  and  N4_16 
REMARK    9  A    between atoms: N4_16  and  C10_18 
REMARK   10  A    between atoms: C10_18  and  C11_19 
REMARK   11  A    between atoms: C14_34  and  N10_35 
ROOT
HETATM    1  N2  UNL     1       0.031  -0.699   1.026  1.00  0.00    -0.205 N 
ATOM      2  H2  UNL     1      -0.171  -0.404   1.981  1.00  0.00     0.183 HD
HETATM    3  C8  UNL     1      -0.999  -1.154   0.509  1.00  0.00     0.698 C 
HETATM    4  N3  UNL     1      -2.138  -1.171   1.273  1.00  0.00    -0.022 N 
ATOM      5  H3  UNL     1      -1.972  -1.191   2.279  1.00  0.00     0.203 HD
HETATM    6  C9  UNL     1      -3.444  -1.166   0.921  1.00  0.00     0.694 C 
HETATM    7  N8  UNL     1      -3.972  -1.207  -0.327  1.00  0.00    -0.173 N 
ATOM      8  H8  UNL     1      -4.982  -1.327  -0.402  1.00  0.00     0.186 HD
HETATM    9  C13 UNL     1      -3.264  -1.101  -1.498  1.00  0.00     0.159 C 
HETATM   10  N9  UNL     1      -3.932  -0.607  -2.489  1.00  0.00    -0.382 N 
ATOM     11  H91 UNL     1      -3.406  -0.528  -3.359  1.00  0.00     0.157 HD
ATOM     12  H92 UNL     1      -4.905  -0.342  -2.333  1.00  0.00     0.157 HD
HETATM   13  C14 UNL     1      -1.953  -1.458  -1.708  1.00  0.00     0.159 C 
HETATM   14  N11 UNL     1      -0.998  -1.614  -0.756  1.00  0.00    -0.173 N 
ATOM     15  H11 UNL     1      -0.175  -2.148  -1.035  1.00  0.00     0.186 HD
ENDROOT
BRANCH   6  16
HETATM   16  N4  UNL     1      -4.304  -1.112   1.872  1.00  0.00    -0.218 N 
ATOM     17  H4  UNL     1      -3.923  -1.077   2.818  1.00  0.00     0.178 HD
BRANCH  16  18
HETATM   18  C10 UNL     1      -5.715  -1.095   1.770  1.00  0.00     0.216 C 
BRANCH  18  19
HETATM   19  C11 UNL     1      -6.268   0.219   1.310  1.00  0.00     0.118 A 
HETATM   20  N5  UNL     1      -7.575   0.475   1.163  1.00  0.00    -0.283 N 
HETATM   21  N6  UNL     1      -7.705   1.721   0.740  1.00  0.00    -0.250 N 
ATOM     22  H5  UNL     1      -8.337  -0.178   1.346  1.00  0.00     0.188 HD
HETATM   23  C12 UNL     1      -6.489   2.279   0.610  1.00  0.00     0.340 A 
ATOM     24  H6  UNL     1      -8.591   2.187   0.543  1.00  0.00     0.192 HD
HETATM   25  O1  UNL     1      -6.220   3.469   0.226  1.00  0.00    -0.245 OA
HETATM   26  N7  UNL     1      -5.613   1.328   0.969  1.00  0.00    -0.294 N 
ATOM     27  H7  UNL     1      -4.599   1.438   0.979  1.00  0.00     0.172 HD
ENDBRANCH  18  19
ENDBRANCH  16  18
ENDBRANCH   6  16
BRANCH   1  28
HETATM   28  C7  UNL     1       1.363  -0.457   0.743  1.00  0.00     0.080 C 
BRANCH  28  29
HETATM   29  C6  UNL     1       1.738   0.077  -0.597  1.00  0.00     0.065 C 
BRANCH  29  30
HETATM   30  C5  UNL     1       3.270   0.336  -0.669  1.00  0.00     0.124 C 
BRANCH  30  31
HETATM   31  N1  UNL     1       3.664   1.276   0.277  1.00  0.00    -0.402 N 
ATOM     32  H1  UNL     1       2.979   1.517   0.994  1.00  0.00     0.158 HD
BRANCH  31  33
HETATM   33  C4  UNL     1       4.880   1.915   0.348  1.00  0.00     0.055 C 
BRANCH  33  34
HETATM   34  C3  UNL     1       6.108   1.170   0.698  1.00  0.00     0.044 C 
BRANCH  34  35
HETATM   35  C2  UNL     1       6.566   0.122  -0.245  1.00  0.00     0.001 C 
HETATM   36  C1  UNL     1       7.867  -0.496   0.317  1.00  0.00     0.005 C 
ENDBRANCH  34  35
ENDBRANCH  33  34
ENDBRANCH  31  33
ENDBRANCH  30  31
ENDBRANCH  29  30
ENDBRANCH  28  29
ENDBRANCH   1  28
BRANCH  13  37
HETATM   37  N10 UNL     1      -1.633  -1.660  -2.938  1.00  0.00    -0.382 N 
ATOM     38 2H10 UNL     1      -2.351  -1.543  -3.653  1.00  0.00     0.157 HD
ATOM     39 1H10 UNL     1      -0.660  -1.925  -3.094  1.00  0.00     0.157 HD
ENDBRANCH  13  37
TORSDOF 11
