REMARK  14 active torsions:
REMARK  status: ('A' for Active; 'I' for Inactive)
REMARK    1  A    between atoms: C3_3  and  C4_4 
REMARK    2  A    between atoms: C4_4  and  N1_5 
REMARK    3  A    between atoms: C5_6  and  N2_7 
REMARK    4  A    between atoms: N2_7  and  C6_9 
REMARK    5  A    between atoms: C6_9  and  C7_10 
REMARK    6  A    between atoms: C7_10  and  C8_11 
REMARK    7  A    between atoms: C8_11  and  N3_12 
REMARK    8  A    between atoms: N3_12  and  C9_15 
REMARK    9  A    between atoms: C9_15  and  C10_16 
REMARK   10  A    between atoms: C10_16  and  N4_17 
REMARK   11  A    between atoms: C12_27  and  C13_28 
REMARK   12  A    between atoms: C13_28  and  O1_29 
REMARK   13  A    between atoms: C14_31  and  O2_32 
REMARK   14  A    between atoms: C15_34  and  O3_35 
ROOT
HETATM    1  N1  UNL     1       1.340   0.815   0.482  1.00  0.00    -0.204 N 
HETATM    2  C5  UNL     1       0.529   0.393  -0.596  1.00  0.00     0.674 C 
HETATM    3  N5  UNL     1       0.506  -0.905  -0.672  1.00  0.00    -0.195 N 
ATOM      4  H5  UNL     1      -0.017  -1.426  -1.376  1.00  0.00     0.180 HD
HETATM    5  C11 UNL     1       1.310  -1.522   0.360  1.00  0.00     0.326 C 
HETATM    6  N6  UNL     1       1.957  -2.646  -0.182  1.00  0.00    -0.043 N 
ATOM      7  H61 UNL     1       1.934  -2.613  -1.201  1.00  0.00     0.280 HD
ATOM      8  H62 UNL     1       1.402  -3.487  -0.022  1.00  0.00     0.280 HD
HETATM    9  C12 UNL     1       3.284  -2.835   0.276  1.00  0.00     0.242 C 
HETATM   10  C14 UNL     1       4.106  -1.653  -0.121  1.00  0.00     0.181 C 
HETATM   11  C15 UNL     1       3.530  -0.333   0.308  1.00  0.00     0.176 C 
HETATM   12  C16 UNL     1       2.148  -0.371   0.817  1.00  0.00     0.184 C 
ENDROOT
BRANCH   2  13
HETATM   13  N2  UNL     1      -0.215   1.158  -1.532  1.00  0.00    -0.226 N 
ATOM     14  H2  UNL     1       0.255   1.550  -2.348  1.00  0.00     0.177 HD
BRANCH  13  15
HETATM   15  C6  UNL     1      -1.620   1.387  -1.346  1.00  0.00     0.139 C 
BRANCH  15  16
HETATM   16  C7  UNL     1      -2.463   0.130  -1.483  1.00  0.00     0.048 C 
BRANCH  16  17
HETATM   17  C8  UNL     1      -3.900   0.558  -1.263  1.00  0.00     0.234 C 
BRANCH  17  18
HETATM   18  N3  UNL     1      -4.776  -0.559  -1.371  1.00  0.00    -0.073 N 
ATOM     19  H32 UNL     1      -5.744  -0.248  -1.454  1.00  0.00     0.277 HD
ATOM     20  H31 UNL     1      -4.663  -1.016  -2.276  1.00  0.00     0.277 HD
BRANCH  18  21
HETATM   21  C9  UNL     1      -4.642  -1.510  -0.306  1.00  0.00     0.259 C 
BRANCH  21  22
HETATM   22  C10 UNL     1      -5.136  -0.908   0.989  1.00  0.00     0.257 C 
BRANCH  22  23
HETATM   23  N4  UNL     1      -6.523  -0.539   0.831  1.00  0.00    -0.078 N 
ATOM     24  H43 UNL     1      -6.674   0.077   0.032  1.00  0.00     0.274 HD
ATOM     25  H42 UNL     1      -7.101  -1.319   0.519  1.00  0.00     0.274 HD
ATOM     26  H41 UNL     1      -6.856  -0.133   1.705  1.00  0.00     0.274 HD
ENDBRANCH  22  23
ENDBRANCH  21  22
ENDBRANCH  18  21
ENDBRANCH  17  18
ENDBRANCH  16  17
ENDBRANCH  15  16
ENDBRANCH  13  15
ENDBRANCH   2  13
BRANCH   1  27
HETATM   27  C4  UNL     1       1.348   2.116   1.091  1.00  0.00     0.169 C 
BRANCH  27  28
HETATM   28  C3  UNL     1       1.886   3.211   0.293  1.00  0.00    -0.011 C 
HETATM   29  C2  UNL     1       1.206   4.293  -0.051  1.00  0.00    -0.033 C 
HETATM   30  C1  UNL     1      -0.196   4.596   0.300  1.00  0.00     0.036 C 
ENDBRANCH  27  28
ENDBRANCH   1  27
BRANCH  11  31
HETATM   31  O3  UNL     1       3.729   0.541  -0.763  1.00  0.00    -0.391 OA
ATOM     32  H3  UNL     1       3.365   1.375  -0.492  1.00  0.00     0.210 HD
ENDBRANCH  11  31
BRANCH  10  33
HETATM   33  O2  UNL     1       5.404  -1.854   0.343  1.00  0.00    -0.391 OA
ATOM     34  H2  UNL     1       5.927  -1.102   0.090  1.00  0.00     0.210 HD
ENDBRANCH  10  33
BRANCH   9  35
HETATM   35  C13 UNL     1       3.415  -3.256   1.707  1.00  0.00     0.199 C 
BRANCH  35  36
HETATM   36  O1  UNL     1       4.785  -3.408   2.024  1.00  0.00    -0.399 OA
ATOM     37  H1  UNL     1       4.868  -3.675   2.932  1.00  0.00     0.209 HD
ENDBRANCH  35  36
ENDBRANCH   9  35
TORSDOF 14
