REMARK  9 active torsions:
REMARK  status: ('A' for Active; 'I' for Inactive)
REMARK    1  A    between atoms: C2_2  and  C3_3 
REMARK    2  A    between atoms: N1_5  and  C5_6 
REMARK    3  A    between atoms: C5_6  and  C6_7 
REMARK    4  A    between atoms: C6_7  and  N2_8 
REMARK    5  A    between atoms: N2_8  and  C7_10 
REMARK    6  A    between atoms: C7_10  and  N3_12 
REMARK    7  A    between atoms: N3_12  and  C8_14 
REMARK    8  A    between atoms: C8_14  and  C9_15 
REMARK    9  A    between atoms: C9_15  and  S2_16 
ROOT
HETATM    1  S2  UNL     1       7.219   0.199   0.717  1.00  0.00    -0.049 SA
HETATM    2  C10 UNL     1       6.543  -1.229   1.404  1.00  0.00     0.133 C 
HETATM    3  N4  UNL     1       6.105  -2.202   1.887  1.00  0.00    -0.184 NA
ENDROOT
BRANCH   1   4
HETATM    4  C9  UNL     1       6.605   0.680  -0.880  1.00  0.00     0.110 C 
BRANCH   4   5
HETATM    5  C8  UNL     1       5.174   1.122  -0.838  1.00  0.00     0.133 C 
BRANCH   5   6
HETATM    6  N3  UNL     1       4.319   0.038  -0.464  1.00  0.00    -0.367 N 
ATOM      7  H3  UNL     1       4.706  -0.901  -0.368  1.00  0.00     0.161 HD
BRANCH   6   8
HETATM    8  C7  UNL     1       2.938   0.258  -0.226  1.00  0.00     0.167 C 
HETATM    9  S1  UNL     1       2.374   1.782  -0.378  1.00  0.00    -0.041 SA
BRANCH   8  10
HETATM   10  N2  UNL     1       2.100  -0.828   0.138  1.00  0.00    -0.366 N 
ATOM     11  H2  UNL     1       2.520  -1.754   0.222  1.00  0.00     0.161 HD
BRANCH  10  12
HETATM   12  C6  UNL     1       0.691  -0.694   0.395  1.00  0.00     0.141 C 
BRANCH  12  13
HETATM   13  C5  UNL     1      -0.112  -0.364  -0.842  1.00  0.00     0.136 C 
BRANCH  13  14
HETATM   14  N1  UNL     1      -1.478  -0.256  -0.473  1.00  0.00    -0.406 N 
HETATM   15  C4  UNL     1      -1.804   0.852   0.353  1.00  0.00     0.149 C 
HETATM   16  C3  UNL     1      -3.255   1.111   0.497  1.00  0.00     0.139 C 
HETATM   17  O1  UNL     1      -4.062   0.754  -0.535  1.00  0.00    -0.378 OA
HETATM   18  C12 UNL     1      -3.828  -0.542  -0.916  1.00  0.00     0.135 C 
HETATM   19  C11 UNL     1      -2.423  -0.622  -1.463  1.00  0.00     0.148 C 
HETATM   20  C13 UNL     1      -4.857  -0.939  -1.962  1.00  0.00     0.041 C 
BRANCH  16  21
HETATM   21  C2  UNL     1      -3.806   0.519   1.795  1.00  0.00     0.029 C 
HETATM   22  C1  UNL     1      -3.139   1.098   3.012  1.00  0.00     0.007 C 
ENDBRANCH  16  21
ENDBRANCH  13  14
ENDBRANCH  12  13
ENDBRANCH  10  12
ENDBRANCH   8  10
ENDBRANCH   6   8
ENDBRANCH   5   6
ENDBRANCH   4   5
ENDBRANCH   1   4
TORSDOF 9
