REMARK  7 active torsions:
REMARK  status: ('A' for Active; 'I' for Inactive)
REMARK    1  A    between atoms: C2_2  and  O1_3 
REMARK    2  A    between atoms: O1_3  and  C3_4 
REMARK    3  A    between atoms: C3_4  and  C4_5 
REMARK    4  A    between atoms: C4_5  and  C5_6 
REMARK    5  A    between atoms: C5_6  and  C6_7 
REMARK    6  A    between atoms: C6_7  and  C7_8 
REMARK    7  A    between atoms: C7_8  and  N1_9 
ROOT
HETATM    1  C4  UNL     1      -1.256  -1.152  -0.388  1.00  0.00     0.194 C 
HETATM    2  N2  UNL     1      -1.487  -2.198  -1.393  1.00  0.00    -0.056 N 
ATOM      3  H21 UNL     1      -1.119  -3.101  -1.092  1.00  0.00     0.278 HD
ATOM      4  H22 UNL     1      -0.905  -2.065  -2.220  1.00  0.00     0.278 HD
HETATM    5  C12 UNL     1      -2.884  -2.275  -1.730  1.00  0.00     0.240 C 
HETATM    6  C13 UNL     1      -3.572  -2.921  -0.519  1.00  0.00     0.086 C 
HETATM    7  C14 UNL     1      -3.509  -1.875   0.544  1.00  0.00     0.038 A 
HETATM    8  N3  UNL     1      -4.307  -1.496   1.547  1.00  0.00    -0.305 N 
ATOM      9  H3  UNL     1      -5.206  -1.917   1.781  1.00  0.00     0.186 HD
HETATM   10  N4  UNL     1      -3.737  -0.477   2.193  1.00  0.00    -0.311 N 
ATOM     11  H4  UNL     1      -4.134   0.005   3.000  1.00  0.00     0.186 HD
HETATM   12  C15 UNL     1      -2.543  -0.180   1.608  1.00  0.00     0.119 A 
HETATM   13  C16 UNL     1      -2.422  -1.074   0.572  1.00  0.00     0.025 A 
ENDROOT
BRANCH   1  14
HETATM   14  C3  UNL     1      -1.267   0.142  -1.136  1.00  0.00     0.216 C 
BRANCH  14  15
HETATM   15  O1  UNL     1      -1.074   1.251  -0.313  1.00  0.00    -0.388 OA
BRANCH  15  16
HETATM   16  C2  UNL     1      -1.096   2.400  -1.060  1.00  0.00     0.163 C 
HETATM   17  C1  UNL     1      -0.883   3.631  -0.167  1.00  0.00     0.033 C 
ENDBRANCH  15  16
ENDBRANCH  14  15
ENDBRANCH   1  14
BRANCH   1  18
HETATM   18  C5  UNL     1      -0.082  -1.456   0.444  1.00  0.00     0.017 C 
BRANCH  18  19
HETATM   19  C6  UNL     1       1.263  -1.625  -0.076  1.00  0.00     0.002 C 
BRANCH  19  20
HETATM   20  C7  UNL     1       2.009  -0.542  -0.750  1.00  0.00     0.299 C 
BRANCH  20  21
HETATM   21  N1  UNL     1       2.250   0.627   0.057  1.00  0.00     0.096 N 
HETATM   22  C8  UNL     1       2.926   1.630  -0.755  1.00  0.00     0.299 C 
HETATM   23  C9  UNL     1       3.848   2.420   0.117  1.00  0.00     0.198 C 
HETATM   24  O2  UNL     1       4.859   1.654   0.693  1.00  0.00    -0.388 OA
HETATM   25  C10 UNL     1       4.409   0.394   1.066  1.00  0.00     0.198 C 
HETATM   26  C11 UNL     1       2.911   0.402   1.300  1.00  0.00     0.299 C 
ENDBRANCH  20  21
ENDBRANCH  19  20
ENDBRANCH  18  19
ENDBRANCH   1  18
TORSDOF 7
