REMARK  8 active torsions:
REMARK  status: ('A' for Active; 'I' for Inactive)
REMARK    1  A    between atoms: C2_2  and  C3_3 
REMARK    2  A    between atoms: C3_3  and  C4_4 
REMARK    3  A    between atoms: C4_4  and  C5_5 
REMARK    4  A    between atoms: C5_5  and  C6_6 
REMARK    5  A    between atoms: C6_6  and  N1_7 
REMARK    6  A    between atoms: N1_7  and  C7_9 
REMARK    7  A    between atoms: N4_20  and  C12_21 
REMARK    8  A    between atoms: C12_21  and  C13_22 
ROOT
HETATM    1  C7  UNL     1      -0.213  -0.091  -0.027  1.00  0.00     0.682 A 
HETATM    2  N2  UNL     1       0.417   1.091   0.089  1.00  0.00    -0.155 N 
ATOM      3  H2  UNL     1       1.424   1.124   0.247  1.00  0.00     0.187 HD
HETATM    4  C8  UNL     1      -0.301   2.242  -0.006  1.00  0.00     0.275 A 
HETATM    5  O1  UNL     1       0.317   3.328   0.107  1.00  0.00    -0.267 OA
HETATM    6  C9  UNL     1      -1.650   2.254  -0.217  1.00  0.00     0.093 A 
HETATM    7  C10 UNL     1      -2.388   3.413  -0.314  1.00  0.00     0.113 A 
HETATM    8  N3  UNL     1      -3.700   3.307  -0.520  1.00  0.00    -0.318 N 
ATOM      9  H3  UNL     1      -4.267   4.151  -0.595  1.00  0.00     0.170 HD
HETATM   10  C11 UNL     1      -4.279   2.118  -0.629  1.00  0.00     0.328 A 
HETATM   11  O2  UNL     1      -5.524   2.039  -0.824  1.00  0.00    -0.246 OA
HETATM   12  N4  UNL     1      -3.612   0.938  -0.543  1.00  0.00    -0.284 N 
HETATM   13  C16 UNL     1      -2.287   1.019  -0.335  1.00  0.00     0.144 A 
HETATM   14  N5  UNL     1      -1.565  -0.082  -0.239  1.00  0.00    -0.175 N 
ATOM     15  H5  UNL     1      -2.043  -0.979  -0.328  1.00  0.00     0.186 HD
ENDROOT
BRANCH   1  16
HETATM   16  N1  UNL     1       0.427  -1.192   0.057  1.00  0.00    -0.226 N 
ATOM     17  H1  UNL     1      -0.121  -2.047  -0.041  1.00  0.00     0.177 HD
BRANCH  16  18
HETATM   18  C6  UNL     1       1.836  -1.355   0.275  1.00  0.00     0.138 C 
BRANCH  18  19
HETATM   19  C5  UNL     1       2.611  -1.268  -1.008  1.00  0.00     0.020 C 
BRANCH  19  20
HETATM   20  C4  UNL     1       4.072  -1.447  -0.825  1.00  0.00     0.002 C 
BRANCH  20  21
HETATM   21  C3  UNL     1       4.626  -0.385   0.086  1.00  0.00    -0.000 C 
BRANCH  21  22
HETATM   22  C2  UNL     1       6.137  -0.554   0.263  1.00  0.00    -0.005 C 
HETATM   23  C1  UNL     1       6.633   0.534   1.182  1.00  0.00     0.005 C 
ENDBRANCH  21  22
ENDBRANCH  20  21
ENDBRANCH  19  20
ENDBRANCH  18  19
ENDBRANCH  16  18
ENDBRANCH   1  16
BRANCH  12  24
HETATM   24  C12 UNL     1      -4.303  -0.316  -0.669  1.00  0.00     0.140 C 
BRANCH  24  25
HETATM   25  C13 UNL     1      -4.757  -0.784   0.684  1.00  0.00     0.004 A 
HETATM   26  C14 UNL     1      -5.497  -2.053   0.851  1.00  0.00     0.007 A 
HETATM   27  C15 UNL     1      -6.271  -0.796   0.986  1.00  0.00     0.007 A 
ENDBRANCH  24  25
ENDBRANCH  12  24
TORSDOF 8
