REMARK  7 active torsions:
REMARK  status: ('A' for Active; 'I' for Inactive)
REMARK    1  A    between atoms: C2_2  and  N1_3 
REMARK    2  A    between atoms: N1_3  and  C3_4 
REMARK    3  A    between atoms: N1_3  and  C10_18 
REMARK    4  A    between atoms: C3_4  and  C4_5 
REMARK    5  A    between atoms: C4_5  and  O1_6 
REMARK    6  A    between atoms: O1_6  and  C5_7 
REMARK    7  A    between atoms: C5_7  and  C6_8 
ROOT
HETATM    1  C6  UNL     1       3.478   0.986   0.212  1.00  0.00     0.144 C 
HETATM    2  N2  UNL     1       4.067   0.345   1.401  1.00  0.00    -0.358 N 
ATOM      3  H2  UNL     1       3.867   0.573   2.375  1.00  0.00     0.162 HD
HETATM    4  C7  UNL     1       4.968  -0.653   0.932  1.00  0.00     0.169 C 
HETATM    5  S1  UNL     1       6.255  -1.292   1.744  1.00  0.00    -0.041 SA
HETATM    6  N3  UNL     1       4.532  -0.985  -0.380  1.00  0.00    -0.348 N 
ATOM      7  H3  UNL     1       4.723  -1.867  -0.856  1.00  0.00     0.163 HD
HETATM    8  C8  UNL     1       3.770   0.127  -0.943  1.00  0.00     0.216 C 
HETATM    9  C9  UNL     1       4.665   0.876  -1.889  1.00  0.00     0.086 C 
HETATM   10  N4  UNL     1       5.350   1.436  -2.631  1.00  0.00    -0.195 NA
ENDROOT
BRANCH   1  11
HETATM   11  C5  UNL     1       2.135   1.541   0.423  1.00  0.00     0.196 C 
BRANCH  11  12
HETATM   12  O1  UNL     1       1.112   0.787   0.869  1.00  0.00    -0.384 OA
BRANCH  12  13
HETATM   13  C4  UNL     1       0.746  -0.282   0.118  1.00  0.00     0.212 C 
BRANCH  13  14
HETATM   14  C3  UNL     1      -0.464  -1.025   0.653  1.00  0.00     0.086 C 
BRANCH  14  15
HETATM   15  N1  UNL     1      -1.660  -0.351   0.773  1.00  0.00    -0.370 N 
BRANCH  15  16
HETATM   16  C2  UNL     1      -1.853   0.647   1.728  1.00  0.00     0.119 C 
HETATM   17  C1  UNL     1      -1.838  -0.005   3.119  1.00  0.00     0.026 C 
ENDBRANCH  15  16
BRANCH  15  18
HETATM   18  C10 UNL     1      -2.662  -0.536  -0.216  1.00  0.00     0.121 C 
HETATM   19  C11 UNL     1      -3.886  -0.958   0.520  1.00  0.00     0.091 C 
HETATM   20  N5  UNL     1      -4.839  -1.298   1.078  1.00  0.00    -0.195 NA
HETATM   21  C12 UNL     1      -2.386  -1.589  -1.244  1.00  0.00     0.047 C 
HETATM   22  C13 UNL     1      -3.273  -1.205  -2.431  1.00  0.00     0.004 C 
HETATM   23  C14 UNL     1      -3.192   0.314  -2.454  1.00  0.00     0.004 C 
HETATM   24  C15 UNL     1      -2.996   0.664  -1.022  1.00  0.00     0.047 C 
ENDBRANCH  15  18
ENDBRANCH  14  15
ENDBRANCH  13  14
ENDBRANCH  12  13
ENDBRANCH  11  12
ENDBRANCH   1  11
TORSDOF 7
