REMARK  3 active torsions:
REMARK  status: ('A' for Active; 'I' for Inactive)
REMARK    1  A    between atoms: N1_1  and  N2_4 
REMARK    2  A    between atoms: N2_4  and  C1_6 
REMARK    3  A    between atoms: C4_15  and  N5_16 
ROOT
HETATM    1  C1  UNL     1       0.391  -0.035  -0.314  1.00  0.00     0.174 A 
HETATM    2  N3  UNL     1       0.023  -1.348  -0.373  1.00  0.00    -0.300 N 
ATOM      3  H3  UNL     1       0.689  -2.057  -0.680  1.00  0.00     0.171 HD
HETATM    4  C2  UNL     1      -1.221  -1.696  -0.024  1.00  0.00     0.315 A 
HETATM    5  O1  UNL     1      -1.564  -2.925  -0.077  1.00  0.00    -0.262 OA
HETATM    6  C3  UNL     1      -2.152  -0.763   0.397  1.00  0.00     0.315 A 
HETATM    7  O2  UNL     1      -3.317  -1.147   0.720  1.00  0.00    -0.262 OA
HETATM    8  N4  UNL     1      -1.762   0.517   0.444  1.00  0.00    -0.297 N 
ATOM      9  H4  UNL     1      -2.430   1.224   0.750  1.00  0.00     0.171 HD
HETATM   10  C4  UNL     1      -0.497   0.910   0.095  1.00  0.00     0.222 A 
ENDROOT
BRANCH   1  11
HETATM   11  N2  UNL     1       1.741   0.244  -0.733  1.00  0.00    -0.289 N 
ATOM     12  H2  UNL     1       1.921   0.837  -1.543  1.00  0.00     0.188 HD
BRANCH  11  13
HETATM   13  N1  UNL     1       2.811  -0.318  -0.003  1.00  0.00    -0.344 N 
ATOM     14  H12 UNL     1       2.615  -0.909   0.805  1.00  0.00     0.176 HD
ATOM     15  H11 UNL     1       3.767  -0.120  -0.300  1.00  0.00     0.176 HD
ENDBRANCH  11  13
ENDBRANCH   1  11
BRANCH  10  16
HETATM   16  N5  UNL     1      -0.122   2.272   0.167  1.00  0.00    -0.094 N 
HETATM   17  O3  UNL     1       1.019   2.623  -0.129  1.00  0.00    -0.530 OA
HETATM   18  O4  UNL     1      -1.024   3.212   0.576  1.00  0.00    -0.530 OA
ENDBRANCH  10  16
TORSDOF 3
