REMARK  4 active torsions:
REMARK  status: ('A' for Active; 'I' for Inactive)
REMARK    1  A    between atoms: C4_5  and  N2_6 
REMARK       I    between atoms: N2_6  and  C5_8 
REMARK    2  A    between atoms: C5_8  and  C6_10 
REMARK       I    between atoms: C6_10  and  N3_12 
REMARK    3  A    between atoms: N3_12  and  N4_14 
REMARK       I    between atoms: N4_14  and  C7_16 
REMARK       I    between atoms: C7_16  and  N6_20 
REMARK    4  A    between atoms: N6_20  and  N7_22 
ROOT
HETATM    1  C6  UNL     1       2.193  -0.474  -0.562  1.00  0.00     0.328 C 
HETATM    2  O2  UNL     1       2.598   0.444   0.187  1.00  0.00    -0.261 OA
HETATM    3  N3  UNL     1       3.064  -1.402  -1.166  1.00  0.00    -0.247 N 
ATOM      4  H3  UNL     1       2.680  -2.131  -1.767  1.00  0.00     0.191 HD
ENDROOT
BRANCH   1   5
HETATM    5  C5  UNL     1       0.762  -0.581  -0.810  1.00  0.00     0.311 C 
HETATM    6  N2  UNL     1      -0.186   0.312  -0.249  1.00  0.00    -0.348 N 
ATOM      7  H2  UNL     1       0.130   1.068   0.358  1.00  0.00     0.163 HD
HETATM    8  O1  UNL     1       0.348  -1.527  -1.571  1.00  0.00    -0.262 OA
BRANCH   6   9
HETATM    9  C4  UNL     1      -1.570   0.163  -0.525  1.00  0.00     0.088 C 
HETATM   10  C3  UNL     1      -2.361  -0.264   0.720  1.00  0.00     0.055 C 
HETATM   11  C2  UNL     1      -3.778  -0.494   0.230  1.00  0.00     0.274 C 
HETATM   12  N1  UNL     1      -4.382   0.777  -0.119  1.00  0.00     0.084 N 
HETATM   13  C1  UNL     1      -5.394   1.059   0.879  1.00  0.00     0.309 C 
HETATM   14  C9  UNL     1      -3.405   1.841  -0.190  1.00  0.00     0.274 C 
HETATM   15  C8  UNL     1      -2.249   1.398  -1.057  1.00  0.00     0.055 C 
ENDBRANCH   6   9
ENDBRANCH   1   5
BRANCH   3  16
HETATM   16  N4  UNL     1       4.443  -1.343  -0.958  1.00  0.00    -0.128 N 
HETATM   17  C7  UNL     1       4.987  -1.540   0.335  1.00  0.00     0.704 C 
HETATM   18  N5  UNL     1       5.204  -2.725   0.842  1.00  0.00    -0.232 N 
HETATM   19  N6  UNL     1       5.316  -0.415   1.131  1.00  0.00    -0.138 N 
ATOM     20  H52 UNL     1       4.967  -3.535   0.269  1.00  0.00     0.174 HD
ATOM     21  H51 UNL     1       5.596  -2.867   1.773  1.00  0.00     0.174 HD
ATOM     22  H6  UNL     1       4.842  -0.294   2.026  1.00  0.00     0.205 HD
ATOM     23  H4  UNL     1       5.065  -1.156  -1.745  1.00  0.00     0.205 HD
BRANCH  19  24
HETATM   24  N7  UNL     1       6.267   0.541   0.739  1.00  0.00    -0.331 N 
ATOM     25  H72 UNL     1       6.731   0.405  -0.159  1.00  0.00     0.177 HD
ATOM     26  H71 UNL     1       6.504   1.351   1.312  1.00  0.00     0.177 HD
ENDBRANCH  19  24
ENDBRANCH   3  16
TORSDOF 4
