REMARK  11 active torsions:
REMARK  status: ('A' for Active; 'I' for Inactive)
REMARK    1  A    between atoms: S1_2  and  C2_3 
REMARK    2  A    between atoms: C2_3  and  C3_4 
REMARK    3  A    between atoms: C3_4  and  C4_5 
REMARK    4  A    between atoms: C4_5  and  C5_6 
REMARK    5  A    between atoms: C6_7  and  C7_8 
REMARK    6  A    between atoms: C8_9  and  C9_10 
REMARK    7  A    between atoms: C11_13  and  O2_14 
REMARK    8  A    between atoms: O2_14  and  C12_15 
REMARK    9  A    between atoms: C14_18  and  O4_19 
REMARK   10  A    between atoms: C15_21  and  O5_22 
REMARK   11  A    between atoms: C16_24  and  O6_25 
ROOT
HETATM    1  C7  UNL     1       1.137   0.825  -0.315  1.00  0.00    -0.019 A 
HETATM    2  C8  UNL     1      -0.201   0.485  -0.034  1.00  0.00    -0.015 A 
HETATM    3  C17 UNL     1      -0.941   1.428   0.640  1.00  0.00     0.032 A 
HETATM    4  C18 UNL     1      -0.505   2.622   1.045  1.00  0.00     0.035 A 
HETATM    5  C19 UNL     1       0.801   2.978   0.780  1.00  0.00     0.092 A 
HETATM    6  C20 UNL     1       1.615   2.074   0.100  1.00  0.00    -0.016 A 
HETATM    7  C21 UNL     1       2.999   2.488  -0.192  1.00  0.00     0.052 C 
HETATM    8  O7  UNL     1       1.300   4.186   1.172  1.00  0.00    -0.348 OA
HETATM    9  C22 UNL     1       0.657   5.258   1.783  1.00  0.00     0.191 C 
HETATM   10  C23 UNL     1      -0.801   5.406   1.369  1.00  0.00     0.073 C 
HETATM   11  C24 UNL     1      -1.519   6.499   2.077  1.00  0.00     0.024 C 
HETATM   12  S2  UNL     1      -1.566   3.782   1.876  1.00  0.00    -0.120 SA
ENDROOT
BRANCH   2  13
HETATM   13  C9  UNL     1      -0.881  -0.741  -0.571  1.00  0.00     0.186 C 
HETATM   14  O1  UNL     1      -2.062  -0.222  -1.113  1.00  0.00    -0.376 OA
HETATM   15  C10 UNL     1      -3.000  -1.011  -1.647  1.00  0.00     0.204 C 
HETATM   16  C11 UNL     1      -3.994  -1.629  -0.691  1.00  0.00     0.187 C 
HETATM   17  C14 UNL     1      -3.375  -2.747   0.104  1.00  0.00     0.181 C 
HETATM   18  C15 UNL     1      -2.392  -2.082   1.070  1.00  0.00     0.181 C 
HETATM   19  C16 UNL     1      -1.110  -1.728   0.511  1.00  0.00     0.182 C 
BRANCH  16  20
HETATM   20  O2  UNL     1      -5.236  -1.891  -1.215  1.00  0.00    -0.311 OA
BRANCH  20  21
HETATM   21  C12 UNL     1      -6.404  -1.261  -0.881  1.00  0.00     0.255 C 
HETATM   22  C13 UNL     1      -7.699  -1.605  -1.454  1.00  0.00     0.126 C 
HETATM   23  O3  UNL     1      -6.262  -0.355  -0.025  1.00  0.00    -0.266 OA
ENDBRANCH  20  21
ENDBRANCH  16  20
BRANCH  17  24
HETATM   24  O4  UNL     1      -2.682  -3.676  -0.609  1.00  0.00    -0.390 OA
ATOM     25  H4  UNL     1      -2.291  -4.382  -0.107  1.00  0.00     0.210 HD
ENDBRANCH  17  24
BRANCH  18  26
HETATM   26  O5  UNL     1      -3.032  -1.196   1.909  1.00  0.00    -0.390 OA
ATOM     27  H5  UNL     1      -2.422  -0.783   2.509  1.00  0.00     0.210 HD
ENDBRANCH  18  26
BRANCH  19  28
HETATM   28  O6  UNL     1      -0.429  -2.958   0.166  1.00  0.00    -0.390 OA
ATOM     29  H6  UNL     1      -0.576  -3.591   0.859  1.00  0.00     0.210 HD
ENDBRANCH  19  28
ENDBRANCH   2  13
BRANCH   1  30
HETATM   30  C6  UNL     1       1.943  -0.129  -1.007  1.00  0.00     0.009 C 
HETATM   31  C5  UNL     1       3.213  -0.324  -1.137  1.00  0.00    -0.026 C 
BRANCH  31  32
HETATM   32  C4  UNL     1       3.651  -1.494  -1.996  1.00  0.00     0.028 C 
BRANCH  32  33
HETATM   33  C3  UNL     1       4.338  -2.575  -1.219  1.00  0.00     0.014 C 
BRANCH  33  34
HETATM   34  C2  UNL     1       5.582  -2.187  -0.495  1.00  0.00     0.073 C 
BRANCH  34  35
HETATM   35  S1  UNL     1       6.194  -3.683   0.360  1.00  0.00    -0.173 SA
HETATM   36  C1  UNL     1       7.694  -3.400   1.286  1.00  0.00     0.089 C 
ENDBRANCH  34  35
ENDBRANCH  33  34
ENDBRANCH  32  33
ENDBRANCH  31  32
ENDBRANCH   1  30
TORSDOF 11
