REMARK  1 active torsions:
REMARK  status: ('A' for Active; 'I' for Inactive)
REMARK    1  A    between atoms: N1_2  and  C2_3 
ROOT
HETATM    1  C1  UNL     1      -0.845  -1.096  -1.393  1.00  0.00     0.277 C 
HETATM    2  N1  UNL     1      -0.298  -0.253  -0.317  1.00  0.00    -0.019 N 
HETATM    3  C5  UNL     1      -1.119  -0.382   0.858  1.00  0.00     0.471 C 
HETATM    4  N2  UNL     1      -2.096   0.421   0.098  1.00  0.00    -0.026 N 
ATOM      5  H21 UNL     1      -2.847   0.943   0.549  1.00  0.00     0.281 HD
ATOM      6  H22 UNL     1      -2.816  -0.001  -0.489  1.00  0.00     0.281 HD
HETATM    7  C6  UNL     1      -0.897   1.075  -0.460  1.00  0.00     0.471 C 
ENDROOT
BRANCH   2   8
HETATM    8  C2  UNL     1       1.101  -0.308  -0.179  1.00  0.00     0.194 A 
HETATM    9  C3  UNL     1       1.887   0.870   0.249  1.00  0.00     0.036 A 
HETATM   10  C4  UNL     1       1.789  -0.347   1.145  1.00  0.00     0.036 A 
ENDBRANCH   2   8
TORSDOF 1
