REMARK  2 active torsions:
REMARK  status: ('A' for Active; 'I' for Inactive)
REMARK    1  A    between atoms: C2_2  and  C3_3 
REMARK    2  A    between atoms: C3_3  and  N1_4 
ROOT
HETATM    1  N1  UNL     1       1.826   0.061  -0.270  1.00  0.00    -0.356 N 
HETATM    2  C4  UNL     1       0.967  -0.633  -1.209  1.00  0.00     0.129 C 
HETATM    3  C5  UNL     1      -0.323   0.144  -1.249  1.00  0.00     0.074 C 
HETATM    4  C6  UNL     1      -0.979   0.214   0.124  1.00  0.00     0.117 C 
HETATM    5  C7  UNL     1      -1.507  -1.219   0.458  1.00  0.00     0.133 C 
HETATM    6  C8  UNL     1      -2.885  -1.087   0.276  1.00  0.00    -0.178 C 
HETATM    7  C9  UNL     1      -4.272  -1.025   0.108  1.00  0.00     0.087 C 
HETATM    8  C10 UNL     1      -4.480   0.454  -0.339  1.00  0.00     0.087 C 
HETATM    9  C11 UNL     1      -3.356   1.337  -0.211  1.00  0.00     0.073 C 
HETATM   10  N2  UNL     1      -3.727   2.590  -0.336  1.00  0.00    -0.389 N 
ATOM     11  H21 UNL     1      -2.928   3.218  -0.245  1.00  0.00     0.157 HD
ATOM     12  H22 UNL     1      -4.730   2.670  -0.503  1.00  0.00     0.157 HD
HETATM   13  N3  UNL     1      -1.962   1.226   0.021  1.00  0.00    -0.353 N 
ATOM     14  H3  UNL     1      -1.545   2.147   0.152  1.00  0.00     0.163 HD
HETATM   15  N4  UNL     1      -0.057   0.508   1.155  1.00  0.00    -0.337 N 
ATOM     16  H4  UNL     1      -0.407   0.785   2.072  1.00  0.00     0.164 HD
HETATM   17  C12 UNL     1       1.187   0.436   0.968  1.00  0.00     0.188 C 
HETATM   18  N5  UNL     1       2.119   0.728   2.034  1.00  0.00    -0.064 NA
ENDROOT
BRANCH   1  19
HETATM   19  C3  UNL     1       3.199   0.336  -0.532  1.00  0.00     0.125 C 
BRANCH  19  20
HETATM   20  C2  UNL     1       4.090  -0.891  -0.513  1.00  0.00     0.015 C 
HETATM   21  C1  UNL     1       5.508  -0.450  -0.800  1.00  0.00     0.006 C 
ENDBRANCH  19  20
ENDBRANCH   1  19
TORSDOF 2
