REMARK  6 active torsions:
REMARK  status: ('A' for Active; 'I' for Inactive)
REMARK       I    between atoms: C1_2  and  N1_3 
REMARK    1  A    between atoms: C1_2  and  C15_24 
REMARK    2  A    between atoms: N1_3  and  N2_5 
REMARK       I    between atoms: N2_5  and  C2_7 
REMARK       I    between atoms: C2_7  and  N4_16 
REMARK    3  A    between atoms: N3_8  and  C3_10 
REMARK    4  A    between atoms: N4_16  and  C9_18 
REMARK    5  A    between atoms: C18_27  and  O2_28 
REMARK    6  A    between atoms: O2_28  and  C19_29 
ROOT
HETATM    1  N2  UNL     1      -2.219   0.052   0.642  1.00  0.00    -0.129 N 
ATOM      2  H2  UNL     1      -2.385   0.821   1.291  1.00  0.00     0.205 HD
HETATM    3  C2  UNL     1      -3.304  -0.692   0.143  1.00  0.00     0.697 C 
HETATM    4  N3  UNL     1      -4.371  -0.823   0.815  1.00  0.00    -0.190 N 
ATOM      5  H3  UNL     1      -5.129  -1.371   0.408  1.00  0.00     0.184 HD
HETATM    6  N4  UNL     1      -3.136  -1.292  -1.154  1.00  0.00    -0.190 N 
ATOM      7  H4  UNL     1      -2.679  -2.201  -1.230  1.00  0.00     0.184 HD
ENDROOT
BRANCH   1   8
HETATM    8  N1  UNL     1      -0.919  -0.259   0.253  1.00  0.00    -0.251 N 
HETATM    9  C1  UNL     1       0.234   0.478   0.658  1.00  0.00     0.270 C 
HETATM   10  O1  UNL     1       0.045   1.477   1.431  1.00  0.00    -0.266 OA
ATOM     11  H1  UNL     1      -0.782  -1.063  -0.359  1.00  0.00     0.191 HD
BRANCH   9  12
HETATM   12  C15 UNL     1       1.548   0.099   0.203  1.00  0.00     0.033 A 
HETATM   13  C16 UNL     1       2.097  -1.106   0.558  1.00  0.00     0.020 A 
HETATM   14  C17 UNL     1       3.368  -1.453   0.080  1.00  0.00     0.038 A 
HETATM   15  C18 UNL     1       4.073  -0.618  -0.733  1.00  0.00     0.076 A 
HETATM   16  C25 UNL     1       3.513   0.599  -1.089  1.00  0.00     0.038 A 
HETATM   17  C26 UNL     1       2.269   0.944  -0.623  1.00  0.00     0.020 A 
BRANCH  15  18
HETATM   18  O2  UNL     1       5.330  -0.874  -1.250  1.00  0.00    -0.311 OA
BRANCH  18  19
HETATM   19  C19 UNL     1       6.434  -0.391  -0.568  1.00  0.00     0.076 A 
HETATM   20  C20 UNL     1       6.313   0.330   0.602  1.00  0.00     0.037 A 
HETATM   21  C21 UNL     1       7.405   0.809   1.277  1.00  0.00     0.003 A 
HETATM   22  C22 UNL     1       8.687   0.594   0.817  1.00  0.00     0.000 A 
HETATM   23  C23 UNL     1       8.822  -0.126  -0.352  1.00  0.00     0.003 A 
HETATM   24  C24 UNL     1       7.728  -0.610  -1.034  1.00  0.00     0.037 A 
ENDBRANCH  18  19
ENDBRANCH  15  18
ENDBRANCH   9  12
ENDBRANCH   1   8
BRANCH   4  25
HETATM   25  C3  UNL     1      -4.572  -0.259   2.087  1.00  0.00     0.049 A 
HETATM   26  C4  UNL     1      -3.702  -0.387   3.155  1.00  0.00     0.030 A 
HETATM   27  C5  UNL     1      -3.935   0.186   4.392  1.00  0.00     0.002 A 
HETATM   28  C6  UNL     1      -5.077   0.919   4.582  1.00  0.00     0.000 A 
HETATM   29  C7  UNL     1      -5.989   1.086   3.554  1.00  0.00     0.002 A 
HETATM   30  C8  UNL     1      -5.717   0.501   2.351  1.00  0.00     0.030 A 
ENDBRANCH   4  25
BRANCH   6  31
HETATM   31  C9  UNL     1      -3.597  -0.640  -2.336  1.00  0.00     0.049 A 
HETATM   32  C10 UNL     1      -3.356  -1.189  -3.578  1.00  0.00     0.030 A 
HETATM   33  C11 UNL     1      -3.822  -0.532  -4.691  1.00  0.00     0.002 A 
HETATM   34  C12 UNL     1      -4.520   0.650  -4.624  1.00  0.00     0.000 A 
HETATM   35  C13 UNL     1      -4.769   1.214  -3.368  1.00  0.00     0.002 A 
HETATM   36  C14 UNL     1      -4.301   0.554  -2.261  1.00  0.00     0.030 A 
ENDBRANCH   6  31
TORSDOF 6
