REMARK  1 active torsions:
REMARK  status: ('A' for Active; 'I' for Inactive)
REMARK    1  A    between atoms: C4_4  and  O1_5 
ROOT
HETATM    1  C1  UNL     1       2.313  -1.133  -0.325  1.00  0.00     0.014 C 
HETATM    2  C2  UNL     1       0.877  -0.779   0.023  1.00  0.00     0.038 A 
HETATM    3  C3  UNL     1       0.228   0.364  -0.674  1.00  0.00     0.068 A 
HETATM    4  C4  UNL     1      -1.255   0.444  -0.843  1.00  0.00     0.128 C 
HETATM    5  C5  UNL     1      -2.042  -0.020   0.323  1.00  0.00     0.058 C 
HETATM    6  C6  UNL     1      -1.280  -0.111   1.608  1.00  0.00     0.172 C 
HETATM    7  O2  UNL     1      -0.211   0.769   1.667  1.00  0.00    -0.368 OA
HETATM    8  C7  UNL     1       0.729   0.554   0.690  1.00  0.00     0.129 A 
HETATM    9  S1  UNL     1       2.218   1.604   0.874  1.00  0.00    -0.055 SA
ENDROOT
BRANCH   4  10
HETATM   10  O1  UNL     1      -1.656  -0.308  -1.963  1.00  0.00    -0.395 OA
ATOM     11  H1  UNL     1      -2.599  -0.257  -2.070  1.00  0.00     0.210 HD
ENDBRANCH   4  10
TORSDOF 1
