REMARK  13 active torsions:
REMARK  status: ('A' for Active; 'I' for Inactive)
REMARK    1  A    between atoms: N1_1  and  C1_4 
REMARK    2  A    between atoms: C1_4  and  C2_5 
REMARK    3  A    between atoms: N2_10  and  N3_11 
REMARK    4  A    between atoms: N3_11  and  O3_13 
REMARK    5  A    between atoms: C6_20  and  O5_21 
REMARK    6  A    between atoms: C7_23  and  C8_24 
REMARK    7  A    between atoms: C8_24  and  C9_25 
REMARK    8  A    between atoms: C9_25  and  C10_26 
REMARK    9  A    between atoms: C10_26  and  N6_27 
REMARK   10  A    between atoms: N7_31  and  N8_33 
REMARK   11  A    between atoms: N8_33  and  C11_35 
REMARK   12  A    between atoms: C11_35  and  O6_36 
REMARK   13  A    between atoms: N9_38  and  O7_40 
ROOT
HETATM    1  C2  UNL     1      -1.549  -1.664  -0.276  1.00  0.00     0.112 A 
HETATM    2  C3  UNL     1      -2.535  -2.671  -0.251  1.00  0.00     0.264 A 
HETATM    3  O1  UNL     1      -2.257  -3.828  -0.569  1.00  0.00    -0.281 OA
HETATM    4  C4  UNL     1      -3.819  -2.361   0.133  1.00  0.00     0.335 A 
HETATM    5  O2  UNL     1      -4.737  -3.217   0.176  1.00  0.00    -0.260 OA
HETATM    6  N2  UNL     1      -4.046  -1.083   0.464  1.00  0.00    -0.122 N 
HETATM    7  N4  UNL     1      -3.141  -0.124   0.457  1.00  0.00    -0.177 N 
HETATM    8  C5  UNL     1      -3.513   1.131   0.729  1.00  0.00     0.349 A 
HETATM    9  O4  UNL     1      -4.724   1.363   1.055  1.00  0.00    -0.244 OA
HETATM   10  N5  UNL     1      -2.641   2.108   0.660  1.00  0.00    -0.287 N 
ATOM     11  H5  UNL     1      -2.941   3.062   0.860  1.00  0.00     0.172 HD
HETATM   12  C6  UNL     1      -1.345   1.871   0.327  1.00  0.00     0.158 A 
HETATM   13  C7  UNL     1      -0.864   0.575   0.035  1.00  0.00     0.070 A 
HETATM   14  C12 UNL     1      -1.829  -0.403   0.089  1.00  0.00     0.104 A 
ENDROOT
BRANCH  13  15
HETATM   15  C8  UNL     1       0.557   0.302   0.170  1.00  0.00     0.044 C 
HETATM   16  N7  UNL     1       1.311  -0.602   0.065  1.00  0.00    -0.301 N 
ATOM     17  H7  UNL     1       0.741  -1.402  -0.208  1.00  0.00     0.186 HD
BRANCH  15  18
HETATM   18  C9  UNL     1       1.289   1.578   0.612  1.00  0.00     0.087 C 
BRANCH  18  19
HETATM   19  C10 UNL     1       2.729   1.423   0.938  1.00  0.00     0.235 C 
BRANCH  19  20
HETATM   20  N6  UNL     1       3.070   2.841   1.364  1.00  0.00    -0.079 N 
ATOM     21  H63 UNL     1       2.846   3.571   0.688  1.00  0.00     0.274 HD
ATOM     22  H62 UNL     1       2.489   3.231   2.106  1.00  0.00     0.274 HD
ATOM     23  H61 UNL     1       4.059   2.735   1.588  1.00  0.00     0.274 HD
ENDBRANCH  19  20
ENDBRANCH  18  19
ENDBRANCH  15  18
BRANCH  16  24
HETATM   24  N8  UNL     1       2.570  -1.066   0.138  1.00  0.00    -0.264 N 
ATOM     25  H8  UNL     1       2.911  -1.159   1.095  1.00  0.00     0.190 HD
BRANCH  24  26
HETATM   26  C11 UNL     1       3.518  -1.451  -0.834  1.00  0.00     0.256 C 
HETATM   27  N9  UNL     1       3.585  -0.822  -1.950  1.00  0.00    -0.232 N 
ATOM     28  H9  UNL     1       2.936  -0.049  -2.098  1.00  0.00     0.198 HD
BRANCH  26  29
HETATM   29  O6  UNL     1       4.410  -2.502  -0.650  1.00  0.00    -0.330 OA
ATOM     30  H6  UNL     1       5.048  -2.761  -1.304  1.00  0.00     0.221 HD
ENDBRANCH  26  29
BRANCH  27  31
HETATM   31  O7  UNL     1       4.459  -1.113  -2.948  1.00  0.00    -0.287 OA
ATOM     32  H7  UNL     1       4.509  -0.647  -3.774  1.00  0.00     0.244 HD
ENDBRANCH  27  31
ENDBRANCH  24  26
ENDBRANCH  16  24
ENDBRANCH  13  15
BRANCH  12  33
HETATM   33  O5  UNL     1      -0.563   2.987   0.291  1.00  0.00    -0.345 OA
ATOM     34  H5  UNL     1       0.343   2.821   0.058  1.00  0.00     0.219 HD
ENDBRANCH  12  33
BRANCH   1  35
HETATM   35  C1  UNL     1      -0.482  -1.942  -1.249  1.00  0.00    -0.030 C 
BRANCH  35  36
HETATM   36  N1  UNL     1       0.262  -2.229  -2.147  1.00  0.00    -0.365 N 
ATOM     37  H12 UNL     1      -0.568  -2.547  -2.648  1.00  0.00     0.165 HD
ATOM     38  H11 UNL     1       1.002  -2.422  -2.822  1.00  0.00     0.165 HD
ENDBRANCH  35  36
ENDBRANCH   1  35
BRANCH   6  39
HETATM   39  N3  UNL     1      -5.362  -0.712   0.858  1.00  0.00    -0.185 N 
ATOM     40  H3  UNL     1      -5.503   0.099   1.460  1.00  0.00     0.218 HD
BRANCH  39  41
HETATM   41  O3  UNL     1      -6.353  -1.381   0.466  1.00  0.00    -0.273 OA
ATOM     42  H3  UNL     1      -7.232  -1.133   0.729  1.00  0.00     0.246 HD
ENDBRANCH  39  41
ENDBRANCH   6  39
TORSDOF 13
