REMARK  14 active torsions:
REMARK  status: ('A' for Active; 'I' for Inactive)
REMARK    1  A    between atoms: O1_2  and  C2_3 
REMARK    2  A    between atoms: C5_6  and  O2_7 
REMARK    3  A    between atoms: C8_11  and  N1_12 
REMARK       I    between atoms: N1_12  and  C9_14 
REMARK       I    between atoms: C9_14  and  N2_16 
REMARK    4  A    between atoms: N2_16  and  C10_18 
REMARK    5  A    between atoms: C10_18  and  C11_19 
REMARK    6  A    between atoms: C11_19  and  C12_20 
REMARK    7  A    between atoms: C12_20  and  C13_21 
REMARK    8  A    between atoms: C13_21  and  C14_22 
REMARK    9  A    between atoms: C14_22  and  C15_23 
REMARK   10  A    between atoms: C15_23  and  C16_24 
REMARK   11  A    between atoms: C16_24  and  C17_25 
REMARK   12  A    between atoms: C21_31  and  C23_33 
REMARK   13  A    between atoms: C23_33  and  C24_34 
REMARK   14  A    between atoms: C24_34  and  C25_35 
ROOT
HETATM    1  C2  UNL     1      -2.680   0.255   0.374  1.00  0.00     0.072 C 
HETATM    2  C3  UNL     1      -3.267  -0.835   1.182  1.00  0.00     0.047 C 
HETATM    3  C4  UNL     1      -1.905  -1.558   1.155  1.00  0.00     0.025 C 
HETATM    4  C5  UNL     1      -0.986  -1.506   2.243  1.00  0.00     0.122 C 
HETATM    5  C6  UNL     1       0.002  -0.482   2.546  1.00  0.00     0.034 C 
HETATM    6  C7  UNL     1       0.804   0.131   1.461  1.00  0.00     0.028 C 
HETATM    7  C8  UNL     1       0.733  -0.474   0.126  1.00  0.00     0.090 C 
HETATM    8  C18 UNL     1      -0.488  -0.486  -0.664  1.00  0.00     0.016 C 
HETATM    9  C19 UNL     1      -0.783   0.752  -1.517  1.00  0.00     0.008 C 
HETATM   10  C20 UNL     1      -2.231   0.631  -1.983  1.00  0.00     0.012 C 
HETATM   11  C21 UNL     1      -3.222   0.857  -0.858  1.00  0.00    -0.012 C 
HETATM   12  C22 UNL     1      -3.240   2.419  -0.812  1.00  0.00     0.018 C 
HETATM   13  C30 UNL     1      -1.753  -0.870  -0.114  1.00  0.00     0.034 C 
ENDROOT
BRANCH   7  14
HETATM   14  N1  UNL     1       1.803   0.138  -0.688  1.00  0.00    -0.338 N 
HETATM   15  C9  UNL     1       2.892  -0.621  -1.195  1.00  0.00     0.316 C 
HETATM   16  O3  UNL     1       2.994  -1.853  -0.979  1.00  0.00    -0.247 OA
HETATM   17  N2  UNL     1       3.885   0.024  -1.961  1.00  0.00    -0.343 N 
ATOM     18  H2  UNL     1       3.806   1.024  -2.147  1.00  0.00     0.164 HD
ATOM     19  H1  UNL     1       1.759   1.136  -0.892  1.00  0.00     0.164 HD
BRANCH  17  20
HETATM   20  C10 UNL     1       4.998  -0.700  -2.480  1.00  0.00     0.124 C 
BRANCH  20  21
HETATM   21  C11 UNL     1       5.839  -1.303  -1.373  1.00  0.00     0.020 C 
BRANCH  21  22
HETATM   22  C12 UNL     1       6.316  -0.144  -0.528  1.00  0.00     0.002 C 
BRANCH  22  23
HETATM   23  C13 UNL     1       7.158  -0.593   0.655  1.00  0.00     0.000 C 
BRANCH  23  24
HETATM   24  C14 UNL     1       8.358  -1.307   0.183  1.00  0.00     0.001 C 
BRANCH  24  25
HETATM   25  C15 UNL     1       9.316  -0.559  -0.627  1.00  0.00     0.010 C 
BRANCH  25  26
HETATM   26  C16 UNL     1      10.091   0.497   0.031  1.00  0.00     0.113 C 
BRANCH  26  27
HETATM   27  C17 UNL     1       9.389   1.629   0.581  1.00  0.00     0.172 C 
HETATM   28  O4  UNL     1       8.703   2.404  -0.122  1.00  0.00    -0.648 OA
HETATM   29  O5  UNL     1       9.432   1.941   1.944  1.00  0.00    -0.648 OA
ENDBRANCH  26  27
ENDBRANCH  25  26
ENDBRANCH  24  25
ENDBRANCH  23  24
ENDBRANCH  22  23
ENDBRANCH  21  22
ENDBRANCH  20  21
ENDBRANCH  17  20
ENDBRANCH   7  14
BRANCH   4  30
HETATM   30  O2  UNL     1      -1.758  -1.649   3.440  1.00  0.00    -0.395 OA
ATOM     31  H2  UNL     1      -1.145  -1.614   4.165  1.00  0.00     0.210 HD
ENDBRANCH   4  30
BRANCH   1  32
HETATM   32  O1  UNL     1      -2.185   1.210   1.171  1.00  0.00    -0.384 OA
HETATM   33  C1  UNL     1      -3.005   1.814   2.089  1.00  0.00     0.202 C 
ENDBRANCH   1  32
BRANCH  11  34
HETATM   34  C23 UNL     1      -4.559   0.401  -1.326  1.00  0.00     0.012 C 
BRANCH  34  35
HETATM   35  C24 UNL     1      -5.715   0.662  -0.414  1.00  0.00     0.010 C 
BRANCH  35  36
HETATM   36  C25 UNL     1      -6.999   0.124  -1.000  1.00  0.00     0.043 A 
HETATM   37  C26 UNL     1      -7.071  -1.326  -1.274  1.00  0.00     0.176 A 
HETATM   38  O6  UNL     1      -7.976  -1.555  -0.225  1.00  0.00    -0.380 OA
HETATM   39  C27 UNL     1      -8.039  -0.201   0.036  1.00  0.00     0.059 A 
HETATM   40  C28 UNL     1      -7.574   0.057   1.472  1.00  0.00     0.046 C 
HETATM   41  C29 UNL     1      -9.389   0.437  -0.191  1.00  0.00     0.046 C 
ENDBRANCH  35  36
ENDBRANCH  34  35
ENDBRANCH  11  34
TORSDOF 14
