REMARK  16 active torsions:
REMARK  status: ('A' for Active; 'I' for Inactive)
REMARK    1  A    between atoms: C8_8  and  C9_9 
REMARK    2  A    between atoms: C9_9  and  C22_32 
REMARK    3  A    between atoms: C10_10  and  C11_11 
REMARK    4  A    between atoms: C14_14  and  O1_15 
REMARK    5  A    between atoms: C16_18  and  C17_19 
REMARK    6  A    between atoms: C18_20  and  C19_21 
REMARK    7  A    between atoms: C19_21  and  N1_22 
REMARK    8  A    between atoms: C19_21  and  C20_26 
REMARK    9  A    between atoms: C21_29  and  O4_30 
REMARK   10  A    between atoms: C22_32  and  C23_33 
REMARK   11  A    between atoms: C23_33  and  C24_34 
REMARK   12  A    between atoms: C24_34  and  C25_35 
REMARK   13  A    between atoms: C25_35  and  C26_36 
REMARK   14  A    between atoms: C26_36  and  C27_37 
REMARK   15  A    between atoms: C27_37  and  C28_38 
REMARK   16  A    between atoms: C28_38  and  O6_40 
ROOT
HETATM    1  C9  UNL     1      -1.217  -0.424  -0.164  1.00  0.00    -0.055 C 
HETATM    2  C10 UNL     1       0.042  -0.142  -0.242  1.00  0.00     0.007 C 
ENDROOT
BRANCH   1   3
HETATM    3  C8  UNL     1      -1.758  -1.778  -0.244  1.00  0.00    -0.065 C 
HETATM    4  C7  UNL     1      -2.886  -2.061   0.770  1.00  0.00     0.036 C 
HETATM    5  C6  UNL     1      -3.372  -3.359   0.061  1.00  0.00     0.010 C 
HETATM    6  C5  UNL     1      -2.074  -4.059   0.031  1.00  0.00    -0.001 C 
HETATM    7  C4  UNL     1      -1.917  -5.297  -0.744  1.00  0.00     0.010 C 
HETATM    8  C30 UNL     1      -1.023  -2.987  -0.375  1.00  0.00    -0.013 C 
HETATM    9  C3  UNL     1      -0.522  -5.824  -0.339  1.00  0.00     0.034 C 
HETATM   10  C2  UNL     1       0.162  -4.885   0.560  1.00  0.00    -0.088 C 
HETATM   11  C1  UNL     1       0.844  -5.354   1.596  1.00  0.00     0.014 C 
HETATM   12  C32 UNL     1       0.160  -3.384   0.398  1.00  0.00     0.047 C 
HETATM   13  C31 UNL     1      -0.650  -3.198  -1.854  1.00  0.00     0.021 C 
ENDBRANCH   1   3
BRANCH   1  14
HETATM   14  C22 UNL     1      -2.122   0.737   0.051  1.00  0.00     0.039 C 
BRANCH  14  15
HETATM   15  C23 UNL     1      -3.120   0.992  -0.991  1.00  0.00     0.005 C 
BRANCH  15  16
HETATM   16  C24 UNL     1      -3.957   2.227  -0.614  1.00  0.00     0.000 C 
BRANCH  16  17
HETATM   17  C25 UNL     1      -4.676   2.047   0.676  1.00  0.00     0.000 C 
BRANCH  17  18
HETATM   18  C26 UNL     1      -5.463   3.287   0.999  1.00  0.00     0.010 C 
BRANCH  18  19
HETATM   19  C27 UNL     1      -6.499   3.653  -0.014  1.00  0.00     0.111 C 
BRANCH  19  20
HETATM   20  C28 UNL     1      -7.241   4.892   0.387  1.00  0.00     0.258 C 
HETATM   21  O5  UNL     1      -6.678   6.023   0.218  1.00  0.00    -0.265 OA
BRANCH  20  22
HETATM   22  O6  UNL     1      -8.507   4.878   0.932  1.00  0.00    -0.326 OA
HETATM   23  C29 UNL     1      -9.189   6.065   1.305  1.00  0.00     0.213 C 
ENDBRANCH  20  22
ENDBRANCH  19  20
ENDBRANCH  18  19
ENDBRANCH  17  18
ENDBRANCH  16  17
ENDBRANCH  15  16
ENDBRANCH  14  15
ENDBRANCH   1  14
BRANCH   2  24
HETATM   24  C11 UNL     1       0.637   1.150  -0.174  1.00  0.00     0.006 C 
HETATM   25  C12 UNL     1       1.981   1.265  -0.265  1.00  0.00    -0.045 A 
HETATM   26  C13 UNL     1       2.671   2.571  -0.203  1.00  0.00     0.073 A 
HETATM   27  C21 UNL     1       2.920   0.153  -0.427  1.00  0.00     0.179 A 
HETATM   28  C14 UNL     1       4.110   2.246  -0.442  1.00  0.00     0.154 A 
HETATM   29  C15 UNL     1       4.252   0.781  -0.480  1.00  0.00    -0.019 A 
HETATM   30  C16 UNL     1       5.396   0.137  -0.548  1.00  0.00     0.008 C 
BRANCH  28  31
HETATM   31  O1  UNL     1       4.523   2.827  -1.642  1.00  0.00    -0.391 OA
ATOM     32  H1  UNL     1       5.438   2.620  -1.794  1.00  0.00     0.210 HD
ENDBRANCH  28  31
BRANCH  30  33
HETATM   33  C17 UNL     1       6.645   0.884  -0.590  1.00  0.00    -0.001 C 
HETATM   34  C18 UNL     1       7.814   0.263  -0.658  1.00  0.00     0.017 C 
BRANCH  34  35
HETATM   35  C19 UNL     1       9.077   1.018  -0.701  1.00  0.00     0.306 C 
BRANCH  35  36
HETATM   36  N1  UNL     1       9.842   0.830   0.526  1.00  0.00    -0.062 N 
ATOM     37  H13 UNL     1       9.291   1.065   1.352  1.00  0.00     0.275 HD
ATOM     38  H12 UNL     1      10.001  -0.158   0.722  1.00  0.00     0.275 HD
ATOM     39  H11 UNL     1      10.717   1.353   0.496  1.00  0.00     0.275 HD
ENDBRANCH  35  36
BRANCH  35  40
HETATM   40  C20 UNL     1       9.903   0.564  -1.836  1.00  0.00     0.208 C 
HETATM   41  O2  UNL     1       9.449   0.630  -2.990  1.00  0.00    -0.646 OA
HETATM   42  O3  UNL     1      11.185   0.057  -1.674  1.00  0.00    -0.646 OA
ENDBRANCH  35  40
ENDBRANCH  34  35
ENDBRANCH  30  33
BRANCH  27  43
HETATM   43  O4  UNL     1       2.848  -0.624   0.735  1.00  0.00    -0.387 OA
ATOM     44  H4  UNL     1       3.457  -1.345   0.630  1.00  0.00     0.210 HD
ENDBRANCH  27  43
ENDBRANCH   2  24
TORSDOF 16
