REMARK  14 active torsions:
REMARK  status: ('A' for Active; 'I' for Inactive)
REMARK    1  A    between atoms: C2_2  and  C3_3 
REMARK    2  A    between atoms: C3_3  and  N1_4 
REMARK    3  A    between atoms: N1_4  and  C4_5 
REMARK    4  A    between atoms: C4_5  and  C5_6 
REMARK    5  A    between atoms: C5_6  and  C6_7 
REMARK    6  A    between atoms: C10_13  and  C11_14 
REMARK    7  A    between atoms: C11_14  and  C12_15 
REMARK    8  A    between atoms: C11_14  and  C14_17 
REMARK    9  A    between atoms: C14_17  and  O2_18 
REMARK   10  A    between atoms: C17_25  and  O3_26 
REMARK   11  A    between atoms: C18_30  and  C19_31 
REMARK   12  A    between atoms: C19_31  and  C20_32 
REMARK   13  A    between atoms: C24_39  and  C25_40 
REMARK   14  A    between atoms: C25_40  and  C26_41 
ROOT
HETATM    1  C6  UNL     1       1.917   0.016  -0.133  1.00  0.00     0.087 C 
HETATM    2  C7  UNL     1       0.840  -1.087  -0.007  1.00  0.00     0.045 C 
HETATM    3  C8  UNL     1       0.068  -1.281  -1.285  1.00  0.00     0.134 C 
HETATM    4  N2  UNL     1      -1.330  -1.636  -1.146  1.00  0.00    -0.314 N 
HETATM    5  C9  UNL     1      -1.574  -2.735  -0.211  1.00  0.00     0.255 C 
HETATM    6  O1  UNL     1      -0.784  -2.877   0.754  1.00  0.00    -0.271 OA
HETATM    7  C10 UNL     1      -2.677  -3.699  -0.321  1.00  0.00     0.284 C 
HETATM    8  N3  UNL     1      -3.560  -3.240  -1.441  1.00  0.00    -0.057 N 
ATOM      9  H31 UNL     1      -4.450  -3.733  -1.507  1.00  0.00     0.278 HD
ATOM     10  H32 UNL     1      -3.229  -3.494  -2.372  1.00  0.00     0.278 HD
HETATM   11  C15 UNL     1      -3.678  -1.820  -1.215  1.00  0.00     0.294 C 
HETATM   12  C16 UNL     1      -2.452  -1.108  -1.820  1.00  0.00     0.091 C 
HETATM   13  C17 UNL     1      -2.685   0.281  -2.121  1.00  0.00     0.165 C 
HETATM   14  N4  UNL     1      -3.349   1.374  -1.538  1.00  0.00    -0.331 N 
ATOM     15  H4  UNL     1      -4.219   1.625  -2.008  1.00  0.00     0.168 HD
HETATM   16  C18 UNL     1      -3.040   2.211  -0.403  1.00  0.00     0.099 C 
HETATM   17  C23 UNL     1      -1.712   1.837   0.218  1.00  0.00     0.268 C 
HETATM   18  O4  UNL     1      -1.993   0.956   1.130  1.00  0.00    -0.266 OA
HETATM   19  N5  UNL     1      -0.432   2.246  -0.028  1.00  0.00    -0.342 N 
ATOM     20  H5  UNL     1      -0.056   1.768  -0.847  1.00  0.00     0.163 HD
HETATM   21  C24 UNL     1       0.546   3.149   0.521  1.00  0.00     0.177 C 
HETATM   22  C29 UNL     1       1.741   2.339   1.006  1.00  0.00     0.240 C 
HETATM   23  O5  UNL     1       2.657   3.075   1.492  1.00  0.00    -0.271 OA
HETATM   24  N6  UNL     1       1.886   0.954   0.959  1.00  0.00    -0.355 N 
ATOM     25  H6  UNL     1       1.990   0.520   1.876  1.00  0.00     0.162 HD
ENDROOT
BRANCH   1  26
HETATM   26  C5  UNL     1       3.280  -0.720   0.006  1.00  0.00     0.053 C 
BRANCH  26  27
HETATM   27  C4  UNL     1       4.417   0.232  -0.099  1.00  0.00     0.240 C 
BRANCH  27  28
HETATM   28  N1  UNL     1       5.644  -0.568   0.046  1.00  0.00    -0.064 N 
HETATM   29  C30 UNL     1       6.813   0.208  -0.205  1.00  0.00     0.238 C 
HETATM   30  C31 UNL     1       7.773  -0.646  -0.987  1.00  0.00     0.029 C 
HETATM   31  C32 UNL     1       7.056  -1.915  -1.294  1.00  0.00     0.029 C 
HETATM   32  C33 UNL     1       5.622  -1.645  -0.921  1.00  0.00     0.238 C 
BRANCH  28  33
HETATM   33  C3  UNL     1       5.653  -1.064   1.406  1.00  0.00     0.264 C 
BRANCH  33  34
HETATM   34  C2  UNL     1       7.016  -1.268   1.945  1.00  0.00    -0.009 C 
HETATM   35  C1  UNL     1       7.419  -0.624   3.014  1.00  0.00     0.008 C 
ENDBRANCH  33  34
ENDBRANCH  28  33
ENDBRANCH  27  28
ENDBRANCH  26  27
ENDBRANCH   1  26
BRANCH  21  36
HETATM   36  C25 UNL     1       1.053   4.013  -0.631  1.00  0.00     0.038 C 
BRANCH  36  37
HETATM   37  C26 UNL     1      -0.053   4.790  -1.262  1.00  0.00    -0.020 C 
HETATM   38  C27 UNL     1       0.509   5.641  -2.401  1.00  0.00     0.009 C 
HETATM   39  C28 UNL     1      -0.795   5.696  -0.335  1.00  0.00     0.009 C 
ENDBRANCH  36  37
ENDBRANCH  21  36
BRANCH   7  40
HETATM   40  C11 UNL     1      -3.591  -3.956   0.794  1.00  0.00     0.049 C 
BRANCH  40  41
HETATM   41  C12 UNL     1      -4.591  -5.046   0.425  1.00  0.00     0.005 C 
HETATM   42  C13 UNL     1      -5.499  -4.812  -0.702  1.00  0.00     0.005 C 
ENDBRANCH  40  41
BRANCH  40  43
HETATM   43  C14 UNL     1      -3.077  -4.307   2.144  1.00  0.00     0.171 C 
BRANCH  43  44
HETATM   44  O2  UNL     1      -2.309  -3.362   2.772  1.00  0.00    -0.400 OA
ATOM     45  H2  UNL     1      -1.981  -3.586   3.635  1.00  0.00     0.209 HD
ENDBRANCH  43  44
ENDBRANCH  40  43
ENDBRANCH   7  40
BRANCH  13  46
HETATM   46  O3  UNL     1      -2.115   0.601  -3.271  1.00  0.00    -0.345 OA
ATOM     47  H3  UNL     1      -2.269   1.517  -3.470  1.00  0.00     0.219 HD
ENDBRANCH  13  46
BRANCH  16  48
HETATM   48  C19 UNL     1      -4.060   2.560   0.580  1.00  0.00     0.012 C 
BRANCH  48  49
HETATM   49  C20 UNL     1      -4.824   1.627   1.394  1.00  0.00     0.002 C 
HETATM   50  C21 UNL     1      -5.755   2.400   2.378  1.00  0.00     0.013 C 
HETATM   51  C22 UNL     1      -5.804   0.827   0.536  1.00  0.00     0.013 C 
ENDBRANCH  48  49
ENDBRANCH  16  48
TORSDOF 14
