REMARK  9 active torsions:
REMARK  status: ('A' for Active; 'I' for Inactive)
REMARK    1  A    between atoms: C5_8  and  C6_9 
REMARK    2  A    between atoms: N4_12  and  C7_13 
REMARK    3  A    between atoms: C7_13  and  C8_14 
REMARK    4  A    between atoms: C8_14  and  C9_15 
REMARK    5  A    between atoms: C9_15  and  N5_16 
REMARK    6  A    between atoms: N7_27  and  C17_29 
REMARK    7  A    between atoms: C17_29  and  C18_30 
REMARK    8  A    between atoms: C19_35  and  O2_36 
REMARK    9  A    between atoms: O2_36  and  C20_37 
ROOT
HETATM    1  C6  UNL     1      -0.815  -1.743  -0.988  1.00  0.00     0.080 A 
HETATM    2  N3  UNL     1       0.403  -2.063  -1.475  1.00  0.00    -0.295 N 
ATOM      3  H3  UNL     1       0.733  -3.018  -1.613  1.00  0.00     0.187 HD
HETATM    4  N4  UNL     1       1.115  -0.984  -1.750  1.00  0.00    -0.275 N 
HETATM    5  C15 UNL     1       0.343   0.062  -1.436  1.00  0.00     0.154 A 
HETATM    6  N6  UNL     1       0.568   1.387  -1.523  1.00  0.00    -0.174 N 
ATOM      7  H6  UNL     1       1.466   1.715  -1.878  1.00  0.00     0.186 HD
HETATM    8  C16 UNL     1      -0.359   2.291  -1.154  1.00  0.00     0.681 A 
HETATM    9  N7  UNL     1      -0.050   3.523  -1.273  1.00  0.00    -0.221 N 
ATOM     10  H7  UNL     1       0.880   3.728  -1.639  1.00  0.00     0.177 HD
HETATM   11  N8  UNL     1      -1.542   1.833  -0.687  1.00  0.00    -0.169 N 
ATOM     12  H8  UNL     1      -2.245   2.517  -0.408  1.00  0.00     0.186 HD
HETATM   13  C19 UNL     1      -1.844   0.540  -0.569  1.00  0.00     0.176 A 
HETATM   14  C24 UNL     1      -0.875  -0.372  -0.954  1.00  0.00     0.090 A 
ENDROOT
BRANCH   4  15
HETATM   15  C7  UNL     1       2.459  -1.063  -2.272  1.00  0.00     0.152 C 
BRANCH  15  16
HETATM   16  C8  UNL     1       3.503  -1.178  -1.199  1.00  0.00     0.052 C 
BRANCH  16  17
HETATM   17  C9  UNL     1       3.470  -0.015  -0.297  1.00  0.00     0.275 C 
BRANCH  17  18
HETATM   18  N5  UNL     1       4.450  -0.025   0.759  1.00  0.00     0.097 N 
HETATM   19  C10 UNL     1       4.297   1.196   1.522  1.00  0.00     0.299 C 
HETATM   20  C11 UNL     1       5.292   2.225   1.037  1.00  0.00     0.198 C 
HETATM   21  O1  UNL     1       6.599   1.838   1.172  1.00  0.00    -0.387 OA
HETATM   22  C12 UNL     1       6.841   0.491   1.087  1.00  0.00     0.203 C 
HETATM   23  C13 UNL     1       5.780  -0.287   0.334  1.00  0.00     0.242 C 
HETATM   24  C14 UNL     1       6.075  -1.764   0.621  1.00  0.00     0.045 C 
ENDBRANCH  17  18
ENDBRANCH  16  17
ENDBRANCH  15  16
ENDBRANCH   4  15
BRANCH   1  25
HETATM   25  C5  UNL     1      -1.823  -2.713  -0.601  1.00  0.00     0.034 A 
HETATM   26  C2  UNL     1      -2.299  -3.683  -1.467  1.00  0.00     0.036 A 
HETATM   27  C1  UNL     1      -1.905  -3.889  -2.879  1.00  0.00     0.070 C 
HETATM   28  N1  UNL     1      -3.194  -4.398  -0.760  1.00  0.00    -0.303 N 
HETATM   29  N2  UNL     1      -3.274  -3.911   0.462  1.00  0.00    -0.307 N 
ATOM     30  H1  UNL     1      -3.727  -5.192  -1.115  1.00  0.00     0.186 HD
HETATM   31  C3  UNL     1      -4.112  -4.381   1.554  1.00  0.00     0.177 C 
HETATM   32  C4  UNL     1      -2.436  -2.863   0.598  1.00  0.00     0.125 A 
ENDBRANCH   1  25
BRANCH  13  33
HETATM   33  O2  UNL     1      -3.040   0.047  -0.099  1.00  0.00    -0.300 OA
BRANCH  33  34
HETATM   34  C20 UNL     1      -4.130   0.794   0.330  1.00  0.00     0.334 C 
HETATM   35  C21 UNL     1      -4.597   0.443   1.742  1.00  0.00     0.142 C 
HETATM   36  C22 UNL     1      -5.955   1.135   1.774  1.00  0.00     0.271 C 
HETATM   37  F3  UNL     1      -5.735   2.402   2.292  1.00  0.00    -0.204 F 
HETATM   38  F4  UNL     1      -6.871   0.426   2.502  1.00  0.00    -0.204 F 
HETATM   39  C23 UNL     1      -6.350   1.224   0.305  1.00  0.00     0.314 C 
HETATM   40  N9  UNL     1      -5.349   0.469  -0.420  1.00  0.00    -0.043 N 
ATOM     41  H92 UNL     1      -5.305   0.657  -1.422  1.00  0.00     0.280 HD
ATOM     42  H91 UNL     1      -5.545  -0.527  -0.520  1.00  0.00     0.280 HD
ENDBRANCH  33  34
ENDBRANCH  13  33
BRANCH   9  43
HETATM   43  C17 UNL     1      -0.870   4.645  -0.947  1.00  0.00     0.209 C 
BRANCH  43  44
HETATM   44  C18 UNL     1      -0.599   5.210   0.432  1.00  0.00     0.371 C 
HETATM   45  F1  UNL     1      -1.440   6.284   0.647  1.00  0.00    -0.213 F 
HETATM   46  F2  UNL     1      -0.800   4.299   1.435  1.00  0.00    -0.213 F 
ENDBRANCH  43  44
ENDBRANCH   9  43
TORSDOF 9
