REMARK  14 active torsions:
REMARK  status: ('A' for Active; 'I' for Inactive)
REMARK    1  A    between atoms: C3_5  and  C4_6 
REMARK    2  A    between atoms: C4_6  and  C5_7 
REMARK    3  A    between atoms: C5_7  and  N2_8 
REMARK    4  A    between atoms: C5_7  and  C12_24 
REMARK       I    between atoms: N2_8  and  C6_10 
REMARK    5  A    between atoms: C6_10  and  C7_12 
REMARK    6  A    between atoms: C9_14  and  N3_15 
REMARK    7  A    between atoms: N8_28  and  C14_29 
REMARK    8  A    between atoms: C14_29  and  C15_30 
REMARK    9  A    between atoms: C15_30  and  C16_31 
REMARK   10  A    between atoms: C16_31  and  C17_32 
REMARK   11  A    between atoms: C17_32  and  C18_33 
REMARK   12  A    between atoms: C18_33  and  C19_34 
REMARK   13  A    between atoms: C19_34  and  C20_35 
REMARK   14  A    between atoms: C20_35  and  N9_36 
ROOT
HETATM    1  C4  UNL     1      -2.243  -0.527   0.909  1.00  0.00     0.093 C 
ENDROOT
BRANCH   1   2
HETATM    2  C3  UNL     1      -0.844  -0.889   1.157  1.00  0.00     0.028 A 
HETATM    3  N1  UNL     1      -0.259  -1.748   2.007  1.00  0.00    -0.348 N 
HETATM    4  C2  UNL     1       1.094  -1.723   1.836  1.00  0.00     0.079 A 
ATOM      5  H1  UNL     1      -0.753  -2.333   2.681  1.00  0.00     0.167 HD
HETATM    6  C1  UNL     1       2.070  -2.541   2.600  1.00  0.00     0.089 C 
HETATM    7  N8  UNL     1       1.386  -0.840   0.868  1.00  0.00    -0.345 N 
HETATM    8  C13 UNL     1       0.222  -0.323   0.443  1.00  0.00     0.117 A 
BRANCH   7   9
HETATM    9  C14 UNL     1       2.737  -0.520   0.377  1.00  0.00     0.130 C 
BRANCH   9  10
HETATM   10  C15 UNL     1       3.312   0.589   1.158  1.00  0.00     0.024 C 
BRANCH  10  11
HETATM   11  C16 UNL     1       4.672   1.046   0.820  1.00  0.00     0.028 C 
BRANCH  11  12
HETATM   12  C17 UNL     1       4.968   1.625  -0.501  1.00  0.00    -0.030 C 
BRANCH  12  13
HETATM   13  C18 UNL     1       4.841   0.869  -1.736  1.00  0.00    -0.026 C 
BRANCH  13  14
HETATM   14  C19 UNL     1       5.521  -0.380  -2.017  1.00  0.00     0.072 C 
BRANCH  14  15
HETATM   15  C20 UNL     1       6.992  -0.459  -2.085  1.00  0.00     0.072 C 
BRANCH  15  16
HETATM   16  N9  UNL     1       7.750  -0.175  -0.931  1.00  0.00    -0.347 N 
HETATM   17  C21 UNL     1       8.287   0.996  -0.625  1.00  0.00     0.095 A 
HETATM   18  C22 UNL     1       9.035   1.250   0.518  1.00  0.00     0.018 A 
HETATM   19  C23 UNL     1       9.241   0.213   1.411  1.00  0.00     0.003 A 
HETATM   20  C24 UNL     1       8.682  -0.997   1.090  1.00  0.00     0.018 A 
HETATM   21  C25 UNL     1       7.957  -1.194  -0.045  1.00  0.00     0.095 A 
ENDBRANCH  15  16
ENDBRANCH  14  15
ENDBRANCH  13  14
ENDBRANCH  12  13
ENDBRANCH  11  12
ENDBRANCH  10  11
ENDBRANCH   9  10
ENDBRANCH   7   9
ENDBRANCH   1   2
BRANCH   1  22
HETATM   22  C5  UNL     1      -2.949  -1.289  -0.156  1.00  0.00     0.179 C 
BRANCH  22  23
HETATM   23  N2  UNL     1      -4.320  -0.746  -0.218  1.00  0.00    -0.346 N 
HETATM   24  C6  UNL     1      -4.799  -0.132  -1.400  1.00  0.00     0.249 C 
HETATM   25  O1  UNL     1      -4.018  -0.066  -2.386  1.00  0.00    -0.271 OA
ATOM     26  H2  UNL     1      -4.928  -0.814   0.598  1.00  0.00     0.163 HD
BRANCH  24  27
HETATM   27  C7  UNL     1      -6.171   0.394  -1.419  1.00  0.00     0.279 C 
HETATM   28  C8  UNL     1      -6.254   1.555  -0.437  1.00  0.00     0.069 C 
HETATM   29  C9  UNL     1      -7.616   2.123  -0.841  1.00  0.00     0.112 C 
HETATM   30  C11 UNL     1      -7.570   1.994  -2.355  1.00  0.00     0.258 C 
HETATM   31  N6  UNL     1      -6.557   1.001  -2.654  1.00  0.00    -0.060 N 
ATOM     32  H62 UNL     1      -5.767   1.383  -3.173  1.00  0.00     0.278 HD
ATOM     33  H61 UNL     1      -6.860   0.322  -3.353  1.00  0.00     0.278 HD
BRANCH  29  34
HETATM   34  N3  UNL     1      -8.601   1.258  -0.260  1.00  0.00    -0.361 N 
HETATM   35  C10 UNL     1      -9.383   1.536   0.709  1.00  0.00     0.197 C 
HETATM   36  N4  UNL     1      -9.379   2.815   1.375  1.00  0.00    -0.067 NA
HETATM   37  N5  UNL     1     -10.300   0.561   1.162  1.00  0.00    -0.067 NA
ATOM     38  H3  UNL     1      -8.685   0.325  -0.663  1.00  0.00     0.162 HD
ENDBRANCH  29  34
ENDBRANCH  24  27
ENDBRANCH  22  23
BRANCH  22  39
HETATM   39  C12 UNL     1      -2.985  -2.736   0.078  1.00  0.00     0.254 C 
HETATM   40  N7  UNL     1      -1.864  -3.594   0.145  1.00  0.00    -0.060 NA
HETATM   41  O2  UNL     1      -4.115  -3.327   0.241  1.00  0.00    -0.275 OA
ENDBRANCH  22  39
ENDBRANCH   1  22
TORSDOF 14
