REMARK  8 active torsions:
REMARK  status: ('A' for Active; 'I' for Inactive)
REMARK    1  A    between atoms: C2_2  and  C3_3 
REMARK    2  A    between atoms: C2_2  and  C19_22 
REMARK    3  A    between atoms: C3_3  and  C4_4 
REMARK    4  A    between atoms: C4_4  and  C5_5 
REMARK    5  A    between atoms: C19_22  and  C20_23 
REMARK    6  A    between atoms: C20_23  and  C21_24 
REMARK    7  A    between atoms: C21_24  and  O4_25 
REMARK    8  A    between atoms: C21_24  and  C22_27 
ROOT
HETATM    1  C5  UNL     1      -0.829   0.179  -0.218  1.00  0.00    -0.006 C 
HETATM    2  C6  UNL     1      -1.618  -0.445  -1.315  1.00  0.00     0.014 C 
HETATM    3  C7  UNL     1      -2.539  -1.400  -0.591  1.00  0.00     0.033 A 
HETATM    4  C8  UNL     1      -3.904  -0.800  -0.115  1.00  0.00     0.071 A 
HETATM    5  C9  UNL     1      -5.003  -1.830   0.098  1.00  0.00     0.047 C 
HETATM    6  O1  UNL     1      -4.269   0.272  -0.839  1.00  0.00    -0.366 OA
HETATM    7  C10 UNL     1      -4.595   1.422  -0.219  1.00  0.00     0.093 C 
HETATM    8  C11 UNL     1      -4.325   2.670  -1.031  1.00  0.00     0.049 C 
HETATM    9  C12 UNL     1      -6.062   1.522   0.220  1.00  0.00     0.151 C 
HETATM   10  C13 UNL     1      -5.929   2.570   1.263  1.00  0.00     0.262 C 
HETATM   11  O2  UNL     1      -6.854   3.275   1.714  1.00  0.00    -0.265 OA
HETATM   12  O3  UNL     1      -4.608   2.659   1.673  1.00  0.00    -0.313 OA
HETATM   13  C14 UNL     1      -3.944   1.519   1.168  1.00  0.00     0.167 C 
HETATM   14  C15 UNL     1      -2.487   1.679   0.948  1.00  0.00     0.041 C 
HETATM   15  C16 UNL     1      -1.864   0.309   0.887  1.00  0.00     0.004 C 
HETATM   16  C17 UNL     1      -2.797  -0.814   0.769  1.00  0.00    -0.002 A 
HETATM   17  C18 UNL     1      -2.793  -1.877   1.877  1.00  0.00     0.019 C 
ENDROOT
BRANCH   1  18
HETATM   18  C4  UNL     1       0.192  -0.861   0.269  1.00  0.00     0.032 C 
BRANCH  18  19
HETATM   19  C3  UNL     1       1.116  -1.298  -0.774  1.00  0.00    -0.024 C 
BRANCH  19  20
HETATM   20  C2  UNL     1       2.435  -1.128  -0.788  1.00  0.00    -0.087 C 
HETATM   21  C1  UNL     1       3.168  -1.668  -1.971  1.00  0.00     0.043 C 
BRANCH  20  22
HETATM   22  C19 UNL     1       3.093  -0.397   0.295  1.00  0.00     0.036 C 
BRANCH  22  23
HETATM   23  C20 UNL     1       4.069  -1.152   1.103  1.00  0.00     0.043 C 
BRANCH  23  24
HETATM   24  C21 UNL     1       5.260  -1.677   0.413  1.00  0.00     0.176 C 
BRANCH  24  25
HETATM   25  O4  UNL     1       6.010  -2.430   1.390  1.00  0.00    -0.389 OA
ATOM     26  H4  UNL     1       6.778  -2.769   0.945  1.00  0.00     0.210 HD
ENDBRANCH  24  25
BRANCH  24  27
HETATM   27  C22 UNL     1       6.184  -0.541   0.020  1.00  0.00     0.096 A 
HETATM   28  N1  UNL     1       7.459  -0.697  -0.384  1.00  0.00    -0.295 N 
HETATM   29  N2  UNL     1       8.145   0.317  -0.662  1.00  0.00    -0.298 N 
ATOM     30  H1  UNL     1       7.864  -1.630  -0.463  1.00  0.00     0.187 HD
HETATM   31  C23 UNL     1       7.618   1.533  -0.558  1.00  0.00     0.064 A 
ATOM     32  H2  UNL     1       9.111   0.207  -0.969  1.00  0.00     0.187 HD
HETATM   33  C24 UNL     1       8.275   2.861  -0.843  1.00  0.00     0.078 C 
HETATM   34  S1  UNL     1       6.042   1.143  -0.026  1.00  0.00    -0.059 SA
ENDBRANCH  24  27
ENDBRANCH  23  24
ENDBRANCH  22  23
ENDBRANCH  20  22
ENDBRANCH  19  20
ENDBRANCH  18  19
ENDBRANCH   1  18
TORSDOF 8
