REMARK  6 active torsions:
REMARK  status: ('A' for Active; 'I' for Inactive)
REMARK       I    between atoms: C2_2  and  N1_4 
REMARK    1  A    between atoms: N1_4  and  C3_6 
REMARK    2  A    between atoms: C3_6  and  C4_7 
REMARK    3  A    between atoms: C4_7  and  C5_8 
REMARK    4  A    between atoms: C5_8  and  C6_9 
REMARK       I    between atoms: C6_9  and  N2_11 
REMARK    5  A    between atoms: N3_14  and  C9_15 
REMARK    6  A    between atoms: C9_15  and  N4_17 
ROOT
HETATM    1  C6  UNL     1       2.514   0.742   0.136  1.00  0.00     0.235 C 
HETATM    2  O2  UNL     1       2.838   1.957   0.034  1.00  0.00    -0.272 OA
HETATM    3  N2  UNL     1       1.225   0.348   0.537  1.00  0.00    -0.262 N 
HETATM    4  C7  UNL     1       0.892  -1.057   0.641  1.00  0.00     0.168 C 
HETATM    5  C8  UNL     1      -0.289  -1.129   1.619  1.00  0.00     0.148 C 
HETATM    6  N3  UNL     1      -1.384  -0.427   0.922  1.00  0.00    -0.341 N 
HETATM    7  C15 UNL     1      -1.043   0.820   0.321  1.00  0.00     0.261 C 
HETATM    8  N6  UNL     1       0.242   1.289   0.841  1.00  0.00    -0.117 NA
ENDROOT
BRANCH   1   9
HETATM    9  C5  UNL     1       3.520  -0.297  -0.174  1.00  0.00     0.106 C 
BRANCH   9  10
HETATM   10  C4  UNL     1       4.815   0.385  -0.570  1.00  0.00     0.029 C 
BRANCH  10  11
HETATM   11  C3  UNL     1       5.812  -0.689  -0.877  1.00  0.00     0.123 C 
BRANCH  11  12
HETATM   12  N1  UNL     1       7.101  -0.174  -1.273  1.00  0.00    -0.361 N 
HETATM   13  C2  UNL     1       7.893   0.643  -0.432  1.00  0.00     0.213 C 
HETATM   14  C1  UNL     1       9.211   1.146  -0.893  1.00  0.00     0.117 C 
HETATM   15  O1  UNL     1       7.521   0.968   0.714  1.00  0.00    -0.274 OA
ATOM     16  H1  UNL     1       7.456  -0.409  -2.200  1.00  0.00     0.162 HD
ENDBRANCH  11  12
ENDBRANCH  10  11
ENDBRANCH   9  10
ENDBRANCH   1   9
BRANCH   6  17
HETATM   17  C9  UNL     1      -2.656  -1.042   0.911  1.00  0.00     0.174 C 
HETATM   18  S1  UNL     1      -2.820  -2.497   1.680  1.00  0.00    -0.041 SA
BRANCH  17  19
HETATM   19  N4  UNL     1      -3.819  -0.521   0.294  1.00  0.00    -0.333 N 
HETATM   20  C10 UNL     1      -4.020   0.707  -0.451  1.00  0.00     0.155 C 
HETATM   21  C11 UNL     1      -5.370   0.543  -1.098  1.00  0.00     0.258 C 
HETATM   22  N5  UNL     1      -6.093  -0.185  -0.075  1.00  0.00    -0.057 N 
HETATM   23  C12 UNL     1      -7.289  -0.811  -0.551  1.00  0.00     0.274 C 
HETATM   24  C13 UNL     1      -6.336   0.656   1.084  1.00  0.00     0.274 C 
HETATM   25  C14 UNL     1      -5.136  -1.179   0.301  1.00  0.00     0.363 C 
ENDBRANCH  17  19
ENDBRANCH   6  17
TORSDOF 6
