REMARK  5 active torsions:
REMARK  status: ('A' for Active; 'I' for Inactive)
REMARK    1  A    between atoms: C2_2  and  C3_3 
REMARK    2  A    between atoms: C3_3  and  C4_4 
REMARK    3  A    between atoms: C4_4  and  N1_5 
REMARK    4  A    between atoms: C5_6  and  O1_7 
REMARK    5  A    between atoms: C10_14  and  O2_15 
ROOT
HETATM    1  N1  UNL     1       0.989  -0.357   1.169  1.00  0.00    -0.307 N 
HETATM    2  C5  UNL     1       0.497  -1.570   1.309  1.00  0.00     0.162 A 
HETATM    3  C6  UNL     1      -0.829  -1.484   0.852  1.00  0.00     0.071 A 
HETATM    4  S1  UNL     1      -2.283  -2.336   0.587  1.00  0.00    -0.089 SA
HETATM    5  C7  UNL     1      -3.240  -1.075  -0.039  1.00  0.00    -0.009 A 
HETATM    6  C8  UNL     1      -2.394  -0.008  -0.026  1.00  0.00    -0.029 A 
HETATM    7  C9  UNL     1      -1.130  -0.217   0.440  1.00  0.00     0.044 A 
HETATM    8  C10 UNL     1       0.072   0.486   0.660  1.00  0.00     0.156 A 
HETATM    9  C11 UNL     1      -3.214   1.157  -0.583  1.00  0.00     0.041 C 
HETATM   10  C12 UNL     1      -4.618   0.774  -0.192  1.00  0.00     0.010 C 
HETATM   11  C13 UNL     1      -4.604  -0.699  -0.578  1.00  0.00     0.047 C 
ENDROOT
BRANCH   1  12
HETATM   12  C4  UNL     1       2.322   0.034   1.512  1.00  0.00     0.133 C 
BRANCH  12  13
HETATM   13  C3  UNL     1       3.333  -0.109   0.438  1.00  0.00     0.020 C 
BRANCH  13  14
HETATM   14  C2  UNL     1       3.044   0.704  -0.806  1.00  0.00    -0.003 C 
HETATM   15  C1  UNL     1       4.151   0.476  -1.845  1.00  0.00     0.005 C 
ENDBRANCH  13  14
ENDBRANCH  12  13
ENDBRANCH   1  12
BRANCH   2  16
HETATM   16  O1  UNL     1       1.039  -2.745   1.777  1.00  0.00    -0.345 OA
ATOM     17  H1  UNL     1       0.684  -3.620   1.878  1.00  0.00     0.219 HD
ENDBRANCH   2  16
BRANCH   8  18
HETATM   18  O2  UNL     1       0.291   1.845   0.396  1.00  0.00    -0.345 OA
ATOM     19  H2  UNL     1      -0.356   2.440   0.037  1.00  0.00     0.219 HD
ENDBRANCH   8  18
TORSDOF 5
