REMARK  5 active torsions:
REMARK  status: ('A' for Active; 'I' for Inactive)
REMARK    1  A    between atoms: C3_3  and  C4_4 
REMARK    2  A    between atoms: C3_3  and  N3_13 
REMARK    3  A    between atoms: C4_4  and  C5_5 
REMARK    4  A    between atoms: N3_13  and  C9_16 
REMARK    5  A    between atoms: C9_16  and  C10_17 
ROOT
HETATM    1  C1  UNL     1      -1.104  -3.241   0.996  1.00  0.00     0.014 C 
HETATM    2  C2  UNL     1      -0.826  -2.602   0.011  1.00  0.00    -0.084 C 
HETATM    3  C3  UNL     1      -0.510  -1.830  -1.194  1.00  0.00     0.269 C 
ENDROOT
BRANCH   3   4
HETATM    4  C4  UNL     1      -1.774  -1.199  -1.730  1.00  0.00     0.104 C 
BRANCH   4   5
HETATM    5  C5  UNL     1      -2.401  -0.290  -0.750  1.00  0.00     0.029 A 
HETATM    6  C6  UNL     1      -3.344  -0.605   0.207  1.00  0.00     0.114 A 
HETATM    7  N1  UNL     1      -3.661   0.513   0.903  1.00  0.00    -0.354 N 
HETATM    8  C7  UNL     1      -2.932   1.517   0.396  1.00  0.00     0.077 A 
ATOM      9  H1  UNL     1      -4.330   0.579   1.670  1.00  0.00     0.166 HD
HETATM   10  C8  UNL     1      -2.968   2.928   0.869  1.00  0.00     0.089 C 
HETATM   11  N2  UNL     1      -2.175   1.028  -0.600  1.00  0.00    -0.348 N 
ATOM     12  H2  UNL     1      -1.523   1.576  -1.161  1.00  0.00     0.167 HD
ENDBRANCH   4   5
ENDBRANCH   3   4
BRANCH   3  13
HETATM   13  N3  UNL     1       0.461  -0.800  -0.960  1.00  0.00    -0.055 N 
ATOM     14  H32 UNL     1       0.565  -0.200  -1.778  1.00  0.00     0.279 HD
ATOM     15  H31 UNL     1       0.112  -0.110  -0.295  1.00  0.00     0.279 HD
BRANCH  13  16
HETATM   16  C9  UNL     1       1.741  -1.331  -0.537  1.00  0.00     0.290 C 
BRANCH  16  17
HETATM   17  C10 UNL     1       2.735  -0.257  -0.298  1.00  0.00     0.034 A 
HETATM   18  C11 UNL     1       2.847   0.277   0.976  1.00  0.00     0.027 A 
HETATM   19  C12 UNL     1       3.748   1.273   1.265  1.00  0.00     0.003 A 
HETATM   20  C13 UNL     1       4.554   1.745   0.253  1.00  0.00     0.017 A 
HETATM   21  C14 UNL     1       4.412   1.183  -1.015  1.00  0.00     0.088 A 
HETATM   22  N4  UNL     1       3.533   0.217  -1.279  1.00  0.00    -0.368 N 
ATOM     23  H4  UNL     1       3.463  -0.165  -2.222  1.00  0.00     0.165 HD
ENDBRANCH  16  17
ENDBRANCH  13  16
ENDBRANCH   3  13
TORSDOF 5
