REMARK  12 active torsions:
REMARK  status: ('A' for Active; 'I' for Inactive)
REMARK    1  A    between atoms: C3_3  and  C4_4 
REMARK    2  A    between atoms: C4_4  and  O1_5 
REMARK    3  A    between atoms: C7_9  and  C8_10 
REMARK    4  A    between atoms: C8_10  and  C9_11 
REMARK    5  A    between atoms: C8_10  and  C12_16 
REMARK    6  A    between atoms: C9_11  and  C10_12 
REMARK    7  A    between atoms: C10_12  and  C11_13 
REMARK    8  A    between atoms: C12_16  and  C13_17 
REMARK    9  A    between atoms: C13_17  and  O3_18 
REMARK   10  A    between atoms: C13_17  and  C14_20 
REMARK   11  A    between atoms: C14_20  and  O4_23 
REMARK   12  A    between atoms: C25_34  and  C26_35 
ROOT
HETATM    1  C1  UNL     1      -3.555   4.813  -0.934  1.00  0.00     0.112 C 
HETATM    2  C2  UNL     1      -2.688   3.724  -0.476  1.00  0.00    -0.108 C 
HETATM    3  C3  UNL     1      -1.959   2.814  -0.113  1.00  0.00    -0.068 C 
ENDROOT
BRANCH   3   4
HETATM    4  C4  UNL     1      -1.088   1.761   0.339  1.00  0.00     0.126 C 
HETATM    5  C5  UNL     1       0.304   2.160  -0.191  1.00  0.00     0.056 C 
HETATM    6  C6  UNL     1       1.175   1.336   0.746  1.00  0.00     0.039 C 
HETATM    7  C7  UNL     1       0.912  -0.118   0.668  1.00  0.00    -0.064 C 
HETATM    8  C17 UNL     1      -0.330  -0.615  -0.017  1.00  0.00    -0.006 C 
HETATM    9  C18 UNL     1      -0.027  -1.316  -1.348  1.00  0.00     0.021 C 
HETATM   10  C19 UNL     1      -0.992  -1.752   0.803  1.00  0.00     0.093 C 
HETATM   11  C30 UNL     1      -1.346   0.431  -0.349  1.00  0.00     0.051 C 
HETATM   12  C20 UNL     1      -2.043  -1.250   1.720  1.00  0.00     0.132 C 
HETATM   13  O5  UNL     1      -2.114  -1.597   2.910  1.00  0.00    -0.298 OA
HETATM   14  C21 UNL     1      -3.090  -0.301   1.305  1.00  0.00     0.064 C 
HETATM   15  C22 UNL     1      -4.423  -1.017   1.219  1.00  0.00    -0.007 C 
HETATM   16  C29 UNL     1      -2.779   0.105  -0.113  1.00  0.00     0.010 C 
HETATM   17  C23 UNL     1      -5.469  -0.285   2.054  1.00  0.00     0.011 C 
HETATM   18  C24 UNL     1      -4.809  -1.028  -0.241  1.00  0.00     0.010 C 
HETATM   19  C25 UNL     1      -3.496  -0.796  -1.019  1.00  0.00    -0.005 C 
BRANCH   4  20
HETATM   20  O1  UNL     1      -1.048   1.654   1.728  1.00  0.00    -0.377 OA
ATOM     21  H1  UNL     1      -0.473   0.959   2.026  1.00  0.00     0.211 HD
ENDBRANCH   4  20
BRANCH   7  22
HETATM   22  C8  UNL     1       2.108  -1.010   0.730  1.00  0.00    -0.052 C 
BRANCH  22  23
HETATM   23  C9  UNL     1       2.770  -0.770   2.058  1.00  0.00     0.047 C 
BRANCH  23  24
HETATM   24  C10 UNL     1       3.947  -1.609   2.401  1.00  0.00     0.104 C 
BRANCH  24  25
HETATM   25  C11 UNL     1       4.476  -1.253   3.765  1.00  0.00     0.231 C 
HETATM   26  N1  UNL     1       5.607  -1.996   4.200  1.00  0.00    -0.062 NA
HETATM   27  O2  UNL     1       3.917  -0.360   4.419  1.00  0.00    -0.277 OA
ENDBRANCH  24  25
ENDBRANCH  23  24
ENDBRANCH  22  23
BRANCH  22  28
HETATM   28  C12 UNL     1       3.010  -1.232  -0.369  1.00  0.00     0.042 C 
BRANCH  28  29
HETATM   29  C13 UNL     1       3.828  -0.373  -1.171  1.00  0.00     0.077 C 
BRANCH  29  30
HETATM   30  O3  UNL     1       3.117   0.644  -1.878  1.00  0.00    -0.362 OA
ATOM     31  H3  UNL     1       3.660   1.214  -2.410  1.00  0.00     0.217 HD
ENDBRANCH  29  30
BRANCH  29  32
HETATM   32  C14 UNL     1       5.143   0.207  -0.830  1.00  0.00     0.099 C 
HETATM   33  C15 UNL     1       5.528   0.984  -2.170  1.00  0.00     0.053 C 
HETATM   34  C16 UNL     1       6.304  -0.687  -0.674  1.00  0.00     0.053 C 
BRANCH  32  35
HETATM   35  O4  UNL     1       5.167   1.274   0.038  1.00  0.00    -0.384 OA
ATOM     36  H4  UNL     1       6.013   1.647   0.257  1.00  0.00     0.211 HD
ENDBRANCH  32  35
ENDBRANCH  29  32
ENDBRANCH  28  29
ENDBRANCH  22  28
ENDBRANCH   7  22
BRANCH  19  37
HETATM   37  C26 UNL     1      -3.846  -0.302  -2.380  1.00  0.00    -0.018 C 
HETATM   38  C27 UNL     1      -4.703  -1.375  -3.084  1.00  0.00     0.010 C 
HETATM   39  C28 UNL     1      -4.574   1.011  -2.431  1.00  0.00     0.010 C 
ENDBRANCH  19  37
ENDBRANCH   3   4
TORSDOF 12
