REMARK  9 active torsions:
REMARK  status: ('A' for Active; 'I' for Inactive)
REMARK    1  A    between atoms: S1_2  and  C2_3 
REMARK    2  A    between atoms: C2_3  and  C3_4 
REMARK    3  A    between atoms: C3_4  and  N1_5 
REMARK    4  A    between atoms: N1_5  and  C4_7 
REMARK    5  A    between atoms: C4_7  and  C5_8 
REMARK    6  A    between atoms: C5_8  and  C7_10 
REMARK    7  A    between atoms: C5_8  and  C9_14 
REMARK    8  A    between atoms: C7_10  and  C8_11 
REMARK    9  A    between atoms: C26_32  and  O3_33 
ROOT
HETATM    1  C9  UNL     1       3.303  -1.098  -0.412  1.00  0.00     0.008 C 
HETATM    2  C10 UNL     1       2.439  -1.244  -1.657  1.00  0.00     0.007 C 
HETATM    3  C11 UNL     1       1.340  -2.139  -1.129  1.00  0.00     0.019 C 
HETATM    4  C12 UNL     1       1.011  -1.609   0.260  1.00  0.00     0.032 C 
HETATM    5  C13 UNL     1       0.545  -2.800   1.082  1.00  0.00     0.137 C 
HETATM    6  O2  UNL     1       0.127  -2.350   2.152  1.00  0.00    -0.297 OA
HETATM    7  C14 UNL     1       0.432  -4.267   1.017  1.00  0.00     0.085 C 
HETATM    8  C15 UNL     1      -0.607  -4.538  -0.024  1.00  0.00     0.005 A 
HETATM    9  C16 UNL     1      -1.722  -3.544   0.385  1.00  0.00    -0.001 A 
HETATM   10  C17 UNL     1      -1.817  -2.538  -0.682  1.00  0.00     0.011 C 
HETATM   11  C18 UNL     1      -1.329  -1.203  -0.545  1.00  0.00    -0.004 C 
HETATM   12  C19 UNL     1      -2.511  -0.291  -0.152  1.00  0.00    -0.001 C 
HETATM   13  C20 UNL     1      -2.673  -0.120   1.308  1.00  0.00     0.006 C 
HETATM   14  C21 UNL     1      -4.103   0.382   1.477  1.00  0.00     0.007 C 
HETATM   15  C22 UNL     1      -4.206   1.734   0.867  1.00  0.00     0.005 C 
HETATM   16  C23 UNL     1      -5.681   1.943   0.606  1.00  0.00    -0.017 C 
HETATM   17  C24 UNL     1      -6.354   0.904  -0.208  1.00  0.00     0.018 C 
HETATM   18  C25 UNL     1      -6.347   1.861   1.998  1.00  0.00     0.018 C 
HETATM   19  C26 UNL     1      -5.988   3.349   0.144  1.00  0.00     0.126 C 
HETATM   20  C27 UNL     1      -4.994   3.886  -0.812  1.00  0.00     0.033 C 
HETATM   21  C28 UNL     1      -4.097   2.802  -1.331  1.00  0.00     0.013 C 
HETATM   22  C29 UNL     1      -3.286   2.097  -0.225  1.00  0.00    -0.032 C 
HETATM   23  C30 UNL     1      -2.430   3.287   0.264  1.00  0.00     0.016 C 
HETATM   24  C31 UNL     1      -2.462   1.021  -0.863  1.00  0.00    -0.032 C 
HETATM   25  C32 UNL     1      -3.021   0.746  -2.278  1.00  0.00     0.016 C 
HETATM   26  C33 UNL     1      -1.012   1.300  -1.078  1.00  0.00     0.011 C 
HETATM   27  C34 UNL     1      -0.052   0.708  -0.091  1.00  0.00     0.007 C 
HETATM   28  C35 UNL     1      -0.168  -0.728   0.255  1.00  0.00     0.007 C 
HETATM   29  C36 UNL     1      -1.947  -5.013   0.113  1.00  0.00    -0.039 A 
HETATM   30  C37 UNL     1      -2.343  -5.932   1.249  1.00  0.00     0.015 C 
HETATM   31  C38 UNL     1      -2.688  -5.380  -1.177  1.00  0.00     0.015 C 
HETATM   32  C39 UNL     1       2.359  -1.203   0.749  1.00  0.00    -0.028 C 
HETATM   33  C40 UNL     1       2.983  -2.391   1.558  1.00  0.00     0.016 C 
HETATM   34  C41 UNL     1       2.374  -0.154   1.796  1.00  0.00     0.016 C 
ENDROOT
BRANCH   1  35
HETATM   35  C5  UNL     1       4.319  -0.090  -0.636  1.00  0.00    -0.000 C 
HETATM   36  C6  UNL     1       4.787  -0.487  -2.118  1.00  0.00     0.021 C 
BRANCH  35  37
HETATM   37  C4  UNL     1       3.907   1.322  -0.930  1.00  0.00     0.065 C 
BRANCH  37  38
HETATM   38  N1  UNL     1       4.763   2.288  -1.404  1.00  0.00    -0.401 N 
ATOM     39  H1  UNL     1       4.672   2.538  -2.389  1.00  0.00     0.158 HD
BRANCH  38  40
HETATM   40  C3  UNL     1       5.739   2.958  -0.678  1.00  0.00     0.129 C 
BRANCH  40  41
HETATM   41  C2  UNL     1       5.140   3.900   0.380  1.00  0.00     0.093 C 
BRANCH  41  42
HETATM   42  S1  UNL     1       6.510   4.699   1.247  1.00  0.00    -0.172 SA
HETATM   43  C1  UNL     1       7.429   5.789   0.146  1.00  0.00     0.089 C 
ENDBRANCH  41  42
ENDBRANCH  40  41
ENDBRANCH  38  40
ENDBRANCH  37  38
ENDBRANCH  35  37
BRANCH  35  44
HETATM   44  C7  UNL     1       5.623  -0.118   0.054  1.00  0.00     0.114 C 
BRANCH  44  45
HETATM   45  C8  UNL     1       6.210  -1.404   0.455  1.00  0.00     0.232 C 
HETATM   46  N2  UNL     1       6.501  -2.395  -0.506  1.00  0.00    -0.062 NA
HETATM   47  O1  UNL     1       6.499  -1.722   1.658  1.00  0.00    -0.277 OA
ENDBRANCH  44  45
ENDBRANCH  35  44
ENDBRANCH   1  35
BRANCH  19  48
HETATM   48  O3  UNL     1      -6.109   4.247   1.207  1.00  0.00    -0.395 OA
ATOM     49  H3  UNL     1      -6.302   5.131   0.917  1.00  0.00     0.210 HD
ENDBRANCH  19  48
TORSDOF 9
