REMARK  13 active torsions:
REMARK  status: ('A' for Active; 'I' for Inactive)
REMARK    1  A    between atoms: C2_2  and  C3_3 
REMARK    2  A    between atoms: C3_3  and  N1_4 
REMARK       I    between atoms: N1_4  and  C4_6 
REMARK    3  A    between atoms: C4_6  and  C5_8 
REMARK    4  A    between atoms: C5_8  and  C6_9 
REMARK    5  A    between atoms: C7_10  and  C8_11 
REMARK    6  A    between atoms: C8_11  and  C9_12 
REMARK    7  A    between atoms: C9_12  and  C10_13 
REMARK    8  A    between atoms: C10_13  and  O2_14 
REMARK    9  A    between atoms: O2_14  and  C11_15 
REMARK   10  A    between atoms: C18_22  and  C19_23 
REMARK   11  A    between atoms: C19_23  and  C20_24 
REMARK   12  A    between atoms: C24_30  and  O5_31 
REMARK   13  A    between atoms: C31_39  and  O6_40 
ROOT
HETATM    1  C11 UNL     1       0.899   0.940  -0.423  1.00  0.00     0.151 C 
HETATM    2  C12 UNL     1       1.042   0.805   1.055  1.00  0.00     0.040 C 
HETATM    3  C13 UNL     1      -0.226   0.159   1.476  1.00  0.00     0.003 C 
HETATM    4  C14 UNL     1      -0.729   0.564   2.838  1.00  0.00     0.033 C 
HETATM    5  C15 UNL     1      -1.911  -0.305   3.084  1.00  0.00    -0.022 C 
HETATM    6  C16 UNL     1      -2.666  -0.671   2.067  1.00  0.00    -0.070 C 
HETATM    7  C17 UNL     1      -2.455  -0.291   0.640  1.00  0.00     0.031 C 
HETATM    8  C18 UNL     1      -3.756   0.221   0.116  1.00  0.00     0.005 C 
HETATM    9  C21 UNL     1      -4.881  -0.718   0.405  1.00  0.00     0.011 C 
HETATM   10  C22 UNL     1      -4.500  -1.951   1.165  1.00  0.00     0.001 C 
HETATM   11  C23 UNL     1      -5.711  -2.772   1.440  1.00  0.00     0.037 C 
HETATM   12  C24 UNL     1      -6.638  -2.255   2.468  1.00  0.00     0.118 C 
HETATM   13  C25 UNL     1      -6.018  -1.548   3.622  1.00  0.00     0.033 C 
HETATM   14  C26 UNL     1      -4.778  -0.768   3.277  1.00  0.00     0.016 C 
HETATM   15  C27 UNL     1      -3.829  -1.556   2.431  1.00  0.00    -0.017 C 
HETATM   16  C28 UNL     1      -3.335  -2.736   3.239  1.00  0.00     0.020 C 
HETATM   17  C29 UNL     1      -1.282   0.572   0.431  1.00  0.00    -0.004 C 
HETATM   18  C30 UNL     1      -1.504   2.036   0.608  1.00  0.00     0.019 C 
HETATM   19  C31 UNL     1      -0.444   0.283  -0.793  1.00  0.00     0.156 C 
ENDROOT
BRANCH   1  20
HETATM   20  O2  UNL     1       1.912   0.380  -1.169  1.00  0.00    -0.383 OA
BRANCH  20  21
HETATM   21  C10 UNL     1       2.441   1.403  -1.982  1.00  0.00     0.168 C 
BRANCH  21  22
HETATM   22  C9  UNL     1       3.555   0.771  -2.806  1.00  0.00     0.030 C 
BRANCH  22  23
HETATM   23  C8  UNL     1       4.174   1.782  -3.713  1.00  0.00     0.029 C 
BRANCH  23  24
HETATM   24  C7  UNL     1       4.767   2.973  -3.128  1.00  0.00    -0.030 C 
HETATM   25  C6  UNL     1       5.973   3.124  -2.349  1.00  0.00    -0.022 C 
BRANCH  25  26
HETATM   26  C5  UNL     1       6.340   2.403  -1.142  1.00  0.00     0.129 C 
BRANCH  26  27
HETATM   27  C4  UNL     1       6.780   0.979  -1.286  1.00  0.00     0.221 C 
HETATM   28  N1  UNL     1       6.874   0.203  -0.139  1.00  0.00    -0.361 N 
ATOM     29  H1  UNL     1       6.620   0.708   0.710  1.00  0.00     0.162 HD
HETATM   30  O1  UNL     1       7.036   0.583  -2.419  1.00  0.00    -0.273 OA
BRANCH  28  31
HETATM   31  C3  UNL     1       7.248  -1.143   0.101  1.00  0.00     0.122 C 
BRANCH  31  32
HETATM   32  C2  UNL     1       6.445  -2.257  -0.446  1.00  0.00     0.015 C 
HETATM   33  C1  UNL     1       6.392  -2.361  -1.927  1.00  0.00     0.006 C 
ENDBRANCH  31  32
ENDBRANCH  28  31
ENDBRANCH  26  27
ENDBRANCH  25  26
ENDBRANCH  23  24
ENDBRANCH  22  23
ENDBRANCH  21  22
ENDBRANCH  20  21
ENDBRANCH   1  20
BRANCH  19  34
HETATM   34  O6  UNL     1      -0.303  -1.072  -0.982  1.00  0.00    -0.392 OA
ATOM     35  H6  UNL     1      -1.131  -1.477  -1.210  1.00  0.00     0.210 HD
ENDBRANCH  19  34
BRANCH   8  36
HETATM   36  C19 UNL     1      -3.775   0.508  -1.354  1.00  0.00     0.118 C 
BRANCH  36  37
HETATM   37  C20 UNL     1      -5.114   1.009  -1.761  1.00  0.00     0.172 C 
HETATM   38  O3  UNL     1      -5.289   1.275  -3.000  1.00  0.00    -0.648 OA
HETATM   39  O4  UNL     1      -6.181   1.216  -0.935  1.00  0.00    -0.648 OA
ENDBRANCH  36  37
ENDBRANCH   8  36
BRANCH  12  40
HETATM   40  O5  UNL     1      -7.672  -1.453   1.929  1.00  0.00    -0.396 OA
ATOM     41  H5  UNL     1      -8.268  -1.121   2.590  1.00  0.00     0.210 HD
ENDBRANCH  12  40
TORSDOF 13
