REMARK  5 active torsions:
REMARK  status: ('A' for Active; 'I' for Inactive)
REMARK    1  A    between atoms: C1_2  and  C2_3 
REMARK       I    between atoms: C1_2  and  N3_16 
REMARK    2  A    between atoms: C2_3  and  N1_4 
REMARK    3  A    between atoms: N1_4  and  C3_6 
REMARK    4  A    between atoms: C3_6  and  N2_8 
REMARK    5  A    between atoms: N2_8  and  C4_10 
ROOT
HETATM    1  N1  UNL     1       0.141   0.294   0.610  1.00  0.00    -0.358 N 
ATOM      2  H1  UNL     1       0.221   0.602   1.579  1.00  0.00     0.162 HD
ENDROOT
BRANCH   1   3
HETATM    3  C2  UNL     1       1.325  -0.207  -0.083  1.00  0.00     0.225 C 
BRANCH   3   4
HETATM    4  C1  UNL     1       2.495  -0.165   0.829  1.00  0.00     0.237 C 
HETATM    5  O1  UNL     1       2.309   0.272   2.002  1.00  0.00    -0.272 OA
HETATM    6  N3  UNL     1       3.783  -0.583   0.455  1.00  0.00    -0.351 N 
HETATM    7  C9  UNL     1       4.139  -1.102  -0.847  1.00  0.00     0.126 C 
HETATM    8  C12 UNL     1       4.965  -0.571   1.284  1.00  0.00     0.126 C 
HETATM    9  C10 UNL     1       5.647  -1.242  -0.849  1.00  0.00     0.021 C 
HETATM   10  C11 UNL     1       6.038  -0.239   0.237  1.00  0.00     0.021 C 
ENDBRANCH   3   4
ENDBRANCH   1   3
BRANCH   1  11
HETATM   11  C3  UNL     1      -1.114   0.360  -0.039  1.00  0.00     0.168 C 
HETATM   12  S1  UNL     1      -1.212  -0.138  -1.589  1.00  0.00    -0.041 SA
BRANCH  11  13
HETATM   13  N2  UNL     1      -2.238   0.844   0.644  1.00  0.00    -0.363 N 
ATOM     14  H2  UNL     1      -2.120   1.143   1.612  1.00  0.00     0.162 HD
BRANCH  13  15
HETATM   15  C4  UNL     1      -3.559   0.944   0.055  1.00  0.00     0.085 C 
HETATM   16  C5  UNL     1      -4.564   1.516   1.028  1.00  0.00     0.026 C 
HETATM   17  C6  UNL     1      -5.872   1.232   0.322  1.00  0.00     0.022 C 
HETATM   18  C7  UNL     1      -5.638  -0.034  -0.474  1.00  0.00     0.084 C 
HETATM   19 CL1  UNL     1      -6.703  -1.305   0.185  1.00  0.00    -0.125 Cl
HETATM   20  C8  UNL     1      -4.168  -0.407  -0.237  1.00  0.00     0.045 C 
ENDBRANCH  13  15
ENDBRANCH  11  13
ENDBRANCH   1  11
TORSDOF 5
