REMARK  5 active torsions:
REMARK  status: ('A' for Active; 'I' for Inactive)
REMARK    1  A    between atoms: O1_2  and  C2_3 
REMARK    2  A    between atoms: N1_10  and  C9_11 
REMARK    3  A    between atoms: C13_18  and  N3_19 
REMARK    4  A    between atoms: N3_19  and  C14_22 
REMARK    5  A    between atoms: C14_22  and  C15_23 
ROOT
HETATM    1  C9  UNL     1      -0.820   0.463  -0.168  1.00  0.00     0.147 A 
HETATM    2  N2  UNL     1      -0.184  -0.670   0.071  1.00  0.00    -0.339 N 
ATOM      3  H2  UNL     1      -0.639  -1.560  -0.130  1.00  0.00     0.168 HD
HETATM    4  C10 UNL     1       1.024  -0.654   0.563  1.00  0.00     0.024 A 
HETATM    5  C11 UNL     1       1.597   0.559   0.816  1.00  0.00     0.011 A 
HETATM    6  S1  UNL     1       0.329   1.631   0.319  1.00  0.00    -0.057 SA
HETATM    7  C12 UNL     1       2.948   0.815   1.376  1.00  0.00     0.081 C 
HETATM    8  C13 UNL     1       3.670  -0.424   1.678  1.00  0.00     0.191 C 
HETATM    9  C20 UNL     1       2.751  -1.540   1.997  1.00  0.00     0.039 C 
HETATM   10  C21 UNL     1       1.830  -1.923   0.881  1.00  0.00     0.060 C 
ENDROOT
BRANCH   1  11
HETATM   11  N1  UNL     1      -2.137   0.636  -0.685  1.00  0.00    -0.361 N 
HETATM   12  C8  UNL     1      -2.339   0.667  -2.101  1.00  0.00     0.125 C 
HETATM   13  C7  UNL     1      -3.272  -0.430  -2.470  1.00  0.00     0.021 C 
HETATM   14  C6  UNL     1      -4.325  -0.703  -1.481  1.00  0.00     0.012 C 
HETATM   15  C5  UNL     1      -4.527   0.250  -0.357  1.00  0.00    -0.024 C 
HETATM   16  C4  UNL     1      -5.442   1.384  -0.698  1.00  0.00     0.013 C 
HETATM   17  C22 UNL     1      -3.229   0.777   0.218  1.00  0.00     0.134 C 
HETATM   18  C23 UNL     1      -5.200  -0.520   0.783  1.00  0.00     0.013 C 
HETATM   19  C3  UNL     1      -6.853   0.993  -0.957  1.00  0.00     0.033 C 
HETATM   20  C2  UNL     1      -7.435   0.239   0.227  1.00  0.00     0.120 C 
HETATM   21  C24 UNL     1      -6.561  -0.999   0.409  1.00  0.00     0.033 C 
BRANCH  20  22
HETATM   22  O1  UNL     1      -8.761  -0.120  -0.006  1.00  0.00    -0.391 OA
HETATM   23  C1  UNL     1      -9.529   0.452   1.006  1.00  0.00     0.202 C 
ENDBRANCH  20  22
ENDBRANCH   1  11
BRANCH   8  24
HETATM   24  N3  UNL     1       4.734  -0.794   0.765  1.00  0.00    -0.067 N 
ATOM     25  H32 UNL     1       5.084  -1.734   0.948  1.00  0.00     0.277 HD
ATOM     26  H31 UNL     1       4.388  -0.945  -0.183  1.00  0.00     0.277 HD
BRANCH  24  27
HETATM   27  C14 UNL     1       5.791   0.194   0.805  1.00  0.00     0.274 C 
BRANCH  27  28
HETATM   28  C15 UNL     1       6.899  -0.184  -0.096  1.00  0.00     0.008 A 
HETATM   29  C16 UNL     1       6.974  -1.299  -0.881  1.00  0.00     0.118 A 
HETATM   30  N4  UNL     1       8.156  -1.275  -1.557  1.00  0.00    -0.309 N 
HETATM   31  N5  UNL     1       8.789  -0.171  -1.192  1.00  0.00    -0.301 N 
ATOM     32  H4  UNL     1       8.490  -1.975  -2.219  1.00  0.00     0.186 HD
HETATM   33  C17 UNL     1      10.100   0.255  -1.668  1.00  0.00     0.177 C 
HETATM   34  C18 UNL     1       8.051   0.530  -0.293  1.00  0.00     0.033 A 
HETATM   35  C19 UNL     1       8.467   1.809   0.315  1.00  0.00     0.070 C 
ENDBRANCH  27  28
ENDBRANCH  24  27
ENDBRANCH   8  24
TORSDOF 5
