REMARK  6 active torsions:
REMARK  status: ('A' for Active; 'I' for Inactive)
REMARK    1  A    between atoms: C2_2  and  O2_4 
REMARK    2  A    between atoms: O2_4  and  C3_5 
REMARK    3  A    between atoms: C18_21  and  C20_23 
REMARK    4  A    between atoms: C20_23  and  C21_24 
REMARK    5  A    between atoms: C21_24  and  C22_25 
REMARK    6  A    between atoms: C22_25  and  N1_26 
ROOT
HETATM    1  C3  UNL     1      -3.888   0.060   0.822  1.00  0.00     0.151 C 
HETATM    2  C4  UNL     1      -4.890   0.896   1.600  1.00  0.00     0.112 C 
HETATM    3  C5  UNL     1      -5.075   2.230   0.996  1.00  0.00     0.133 C 
HETATM    4  O3  UNL     1      -6.169   2.745   1.018  1.00  0.00    -0.298 OA
HETATM    5  C6  UNL     1      -3.957   2.943   0.371  1.00  0.00     0.113 C 
HETATM    6  C7  UNL     1      -2.738   2.083   0.200  1.00  0.00    -0.066 C 
HETATM    7  C8  UNL     1      -1.817   2.567  -0.614  1.00  0.00    -0.022 C 
HETATM    8  C9  UNL     1      -0.543   1.905  -0.935  1.00  0.00     0.033 C 
HETATM    9  C10 UNL     1      -0.262   0.881   0.164  1.00  0.00    -0.001 C 
HETATM   10  C11 UNL     1      -1.458   0.009   0.216  1.00  0.00     0.005 C 
HETATM   11  C12 UNL     1      -1.291  -1.308   0.872  1.00  0.00     0.007 C 
HETATM   12  C13 UNL     1       0.131  -1.739   1.097  1.00  0.00     0.011 C 
HETATM   13  C14 UNL     1       1.083  -1.239   0.053  1.00  0.00    -0.033 C 
HETATM   14  C15 UNL     1       0.952  -2.066  -1.209  1.00  0.00     0.016 C 
HETATM   15  C16 UNL     1       1.044   0.236  -0.138  1.00  0.00    -0.000 C 
HETATM   16  C17 UNL     1       2.098   0.336   0.942  1.00  0.00     0.015 C 
HETATM   17  C18 UNL     1       2.500  -1.059   0.535  1.00  0.00    -0.036 C 
HETATM   18  C19 UNL     1       2.947  -1.968   1.632  1.00  0.00     0.016 C 
HETATM   19  C24 UNL     1      -2.567   0.795   0.882  1.00  0.00     0.011 C 
HETATM   20  C25 UNL     1      -2.211   0.928   2.347  1.00  0.00     0.023 C 
ENDROOT
BRANCH  17  21
HETATM   21  C20 UNL     1       3.543  -0.982  -0.564  1.00  0.00     0.011 C 
BRANCH  21  22
HETATM   22  C21 UNL     1       4.929  -0.803   0.014  1.00  0.00     0.023 C 
BRANCH  22  23
HETATM   23  C22 UNL     1       6.013  -0.734  -1.027  1.00  0.00     0.151 C 
BRANCH  23  24
HETATM   24  N1  UNL     1       5.749   0.395  -1.891  1.00  0.00    -0.271 N 
HETATM   25  C23 UNL     1       6.198   1.668  -1.678  1.00  0.00     0.219 A 
HETATM   26  N2  UNL     1       5.785   2.465  -2.675  1.00  0.00    -0.279 N 
HETATM   27  N3  UNL     1       5.090   1.705  -3.493  1.00  0.00    -0.227 N 
ATOM     28  H2  UNL     1       5.973   3.462  -2.778  1.00  0.00     0.189 HD
HETATM   29  N4  UNL     1       5.070   0.473  -3.026  1.00  0.00    -0.225 N 
ATOM     30  H3  UNL     1       4.638   2.019  -4.352  1.00  0.00     0.210 HD
ATOM     31  H4  UNL     1       4.598  -0.311  -3.476  1.00  0.00     0.210 HD
ENDBRANCH  23  24
ENDBRANCH  22  23
ENDBRANCH  21  22
ENDBRANCH  17  21
BRANCH   1  32
HETATM   32  O2  UNL     1      -4.385  -0.034  -0.496  1.00  0.00    -0.315 OA
BRANCH  32  33
HETATM   33  C2  UNL     1      -4.748  -1.286  -0.965  1.00  0.00     0.255 C 
HETATM   34  C1  UNL     1      -5.286  -1.492  -2.348  1.00  0.00     0.126 C 
HETATM   35  O1  UNL     1      -4.633  -2.303  -0.228  1.00  0.00    -0.266 OA
ENDBRANCH  32  33
ENDBRANCH   1  32
TORSDOF 6
