REMARK  10 active torsions:
REMARK  status: ('A' for Active; 'I' for Inactive)
REMARK    1  A    between atoms: C2_3  and  N2_4 
REMARK    2  A    between atoms: C2_3  and  N3_8 
REMARK    3  A    between atoms: C2_3  and  N4_12 
REMARK    4  A    between atoms: N5_14  and  C3_16 
REMARK    5  A    between atoms: C4_21  and  C5_22 
REMARK    6  A    between atoms: C5_22  and  N9_26 
REMARK    7  A    between atoms: N9_26  and  C6_28 
REMARK    8  A    between atoms: C6_28  and  C7_29 
REMARK    9  A    between atoms: C7_29  and  C8_30 
REMARK   10  A    between atoms: C8_30  and  N10_31 
ROOT
HETATM    1  N1  UNL     1       5.597   1.044   2.118  1.00  0.00    -0.191 NA
HETATM    2  C1  UNL     1       5.441   0.305   1.237  1.00  0.00     0.153 C 
HETATM    3  C2  UNL     1       5.269  -0.631   0.113  1.00  0.00     0.460 C 
ENDROOT
BRANCH   3   4
HETATM    4  N2  UNL     1       5.489  -1.946   0.616  1.00  0.00    -0.012 N 
ATOM      5  H23 UNL     1       6.389  -2.048   1.085  1.00  0.00     0.280 HD
ATOM      6  H22 UNL     1       4.897  -2.171   1.416  1.00  0.00     0.280 HD
ATOM      7  H21 UNL     1       5.370  -2.594  -0.162  1.00  0.00     0.280 HD
ENDBRANCH   3   4
BRANCH   3   8
HETATM    8  N3  UNL     1       6.220  -0.282  -0.940  1.00  0.00    -0.012 N 
ATOM      9  H33 UNL     1       6.141   0.693  -1.229  1.00  0.00     0.280 HD
ATOM     10  H32 UNL     1       7.182  -0.252  -0.602  1.00  0.00     0.280 HD
ATOM     11  H31 UNL     1       6.101  -0.930  -1.718  1.00  0.00     0.280 HD
ENDBRANCH   3   8
BRANCH   3  12
HETATM   12  N4  UNL     1       3.923  -0.521  -0.465  1.00  0.00    -0.264 N 
HETATM   13  N5  UNL     1       3.240   0.460  -0.102  1.00  0.00    -0.283 N 
ATOM     14  H5  UNL     1       3.677   1.097   0.564  1.00  0.00     0.188 HD
ATOM     15  H4  UNL     1       3.565  -1.209  -1.128  1.00  0.00     0.186 HD
BRANCH  13  16
HETATM   16  C3  UNL     1       1.934   0.782  -0.512  1.00  0.00     0.161 A 
HETATM   17  N6  UNL     1       1.599   1.392  -1.652  1.00  0.00    -0.282 N 
HETATM   18  N7  UNL     1       0.296   1.540  -1.694  1.00  0.00    -0.294 N 
ATOM     19  H6  UNL     1       2.252   1.695  -2.375  1.00  0.00     0.188 HD
HETATM   20  C4  UNL     1      -0.265   1.020  -0.563  1.00  0.00     0.119 A 
ATOM     21  H7  UNL     1      -0.220   1.978  -2.457  1.00  0.00     0.187 HD
HETATM   22  C9  UNL     1       0.767   0.544   0.178  1.00  0.00     0.124 A 
HETATM   23  N11 UNL     1       0.723  -0.103   1.442  1.00  0.00    -0.096 NA
BRANCH  20  24
HETATM   24  C5  UNL     1      -1.692   1.044  -0.315  1.00  0.00     0.125 C 
HETATM   25  N8  UNL     1      -2.469   1.573  -1.194  1.00  0.00    -0.384 N 
ATOM     26  H82 UNL     1      -2.060   1.957  -2.046  1.00  0.00     0.157 HD
ATOM     27  H81 UNL     1      -3.474   1.590  -1.019  1.00  0.00     0.157 HD
BRANCH  24  28
HETATM   28  N9  UNL     1      -2.256   0.515   0.858  1.00  0.00    -0.375 N 
ATOM     29  H9  UNL     1      -1.663   0.312   1.662  1.00  0.00     0.161 HD
BRANCH  28  30
HETATM   30  C6  UNL     1      -3.715   0.251   0.927  1.00  0.00     0.123 C 
BRANCH  30  31
HETATM   31  C7  UNL     1      -4.008  -0.883  -0.007  1.00  0.00     0.047 C 
BRANCH  31  32
HETATM   32  C8  UNL     1      -5.507  -1.209   0.011  1.00  0.00     0.231 C 
BRANCH  32  33
HETATM   33  N10 UNL     1      -6.189  -0.003  -0.417  1.00  0.00    -0.079 N 
ATOM     34 3H10 UNL     1      -5.946   0.819   0.137  1.00  0.00     0.274 HD
ATOM     35 2H10 UNL     1      -5.862   0.351  -1.316  1.00  0.00     0.274 HD
ATOM     36 1H10 UNL     1      -7.186  -0.220  -0.405  1.00  0.00     0.274 HD
ENDBRANCH  32  33
ENDBRANCH  31  32
ENDBRANCH  30  31
ENDBRANCH  28  30
ENDBRANCH  24  28
ENDBRANCH  20  24
ENDBRANCH  13  16
ENDBRANCH   3  12
TORSDOF 10
