REMARK  15 active torsions:
REMARK  status: ('A' for Active; 'I' for Inactive)
REMARK    1  A    between atoms: N3_7  and  C5_8 
REMARK    2  A    between atoms: N3_7  and  C17_27 
REMARK    3  A    between atoms: C5_8  and  C6_9 
REMARK    4  A    between atoms: C6_9  and  C7_10 
REMARK    5  A    between atoms: C8_11  and  C9_12 
REMARK    6  A    between atoms: C9_12  and  C10_13 
REMARK    7  A    between atoms: C10_13  and  C11_14 
REMARK    8  A    between atoms: C11_14  and  C12_15 
REMARK    9  A    between atoms: C12_15  and  C13_16 
REMARK   10  A    between atoms: C13_16  and  C14_17 
REMARK       I    between atoms: C14_17  and  N4_19 
REMARK   11  A    between atoms: N4_19  and  C15_21 
REMARK   12  A    between atoms: C15_21  and  C16_22 
REMARK   13  A    between atoms: C16_22  and  N5_23 
REMARK   14  A    between atoms: C17_27  and  C18_28 
REMARK   15  A    between atoms: C20_32  and  N7_33 
ROOT
HETATM    1  C1  UNL     1      -1.084  -1.508  -1.470  1.00  0.00     0.146 C 
HETATM    2  N1  UNL     1      -2.158  -0.992  -0.700  1.00  0.00    -0.121 NA
HETATM    3  C2  UNL     1      -3.008  -0.229  -1.522  1.00  0.00     0.358 C 
HETATM    4  N2  UNL     1      -4.146   0.383  -0.891  1.00  0.00    -0.047 N 
HETATM    5  C3  UNL     1      -3.603   1.235   0.151  1.00  0.00     0.269 C 
HETATM    6  C4  UNL     1      -2.889   0.307   1.114  1.00  0.00     0.287 C 
HETATM    7  N3  UNL     1      -1.836  -0.459   0.538  1.00  0.00     0.008 N 
HETATM    8  C21 UNL     1      -5.245  -0.457  -0.544  1.00  0.00     0.246 C 
HETATM    9  C22 UNL     1      -6.011  -0.037  -1.782  1.00  0.00     0.043 C 
HETATM   10  C23 UNL     1      -7.329   0.573  -1.415  1.00  0.00     0.008 C 
HETATM   11  C24 UNL     1      -6.953   1.785  -0.594  1.00  0.00     0.002 C 
HETATM   12  C25 UNL     1      -5.725   2.268  -1.321  1.00  0.00     0.034 C 
HETATM   13  C26 UNL     1      -5.000   1.062  -1.840  1.00  0.00     0.197 C 
ENDROOT
BRANCH   7  14
HETATM   14  C5  UNL     1      -0.580   0.296   0.429  1.00  0.00     0.287 C 
BRANCH  14  15
HETATM   15  C6  UNL     1      -0.367   1.338   1.424  1.00  0.00     0.003 C 
BRANCH  15  16
HETATM   16  C7  UNL     1       0.860   2.142   1.499  1.00  0.00    -0.003 C 
HETATM   17  C8  UNL     1       1.349   2.991   0.438  1.00  0.00    -0.004 C 
BRANCH  17  18
HETATM   18  C9  UNL     1       1.806   2.515  -0.861  1.00  0.00    -0.027 C 
BRANCH  18  19
HETATM   19  C10 UNL     1       2.995   1.680  -1.053  1.00  0.00     0.027 C 
BRANCH  19  20
HETATM   20  C11 UNL     1       3.050   0.358  -0.436  1.00  0.00     0.004 C 
BRANCH  20  21
HETATM   21  C12 UNL     1       4.328  -0.412  -0.751  1.00  0.00     0.010 C 
BRANCH  21  22
HETATM   22  C13 UNL     1       5.566   0.293  -0.289  1.00  0.00     0.103 C 
BRANCH  22  23
HETATM   23  C14 UNL     1       6.757  -0.531  -0.615  1.00  0.00     0.217 C 
HETATM   24  O1  UNL     1       6.616  -1.654  -1.167  1.00  0.00    -0.274 OA
HETATM   25  N4  UNL     1       8.060  -0.082  -0.317  1.00  0.00    -0.359 N 
ATOM     26  H4  UNL     1       8.193   0.827   0.125  1.00  0.00     0.162 HD
BRANCH  25  27
HETATM   27  C15 UNL     1       9.196  -0.892  -0.630  1.00  0.00     0.150 C 
BRANCH  27  28
HETATM   28  C16 UNL     1      10.504  -0.208  -0.243  1.00  0.00     0.249 C 
BRANCH  28  29
HETATM   29  N5  UNL     1      11.627  -1.051  -0.567  1.00  0.00    -0.078 N 
ATOM     30  H53 UNL     1      11.542  -1.975  -0.144  1.00  0.00     0.274 HD
ATOM     31  H52 UNL     1      11.621  -1.332  -1.548  1.00  0.00     0.274 HD
ATOM     32  H51 UNL     1      12.501  -0.594  -0.308  1.00  0.00     0.274 HD
ENDBRANCH  28  29
ENDBRANCH  27  28
ENDBRANCH  25  27
ENDBRANCH  22  23
ENDBRANCH  21  22
ENDBRANCH  20  21
ENDBRANCH  19  20
ENDBRANCH  18  19
ENDBRANCH  17  18
ENDBRANCH  15  16
ENDBRANCH  14  15
ENDBRANCH   7  14
BRANCH   7  33
HETATM   33  C17 UNL     1      -1.497  -1.596   1.383  1.00  0.00     0.318 C 
BRANCH  33  34
HETATM   34  C18 UNL     1      -2.598  -2.434   1.817  1.00  0.00     0.070 A 
HETATM   35  C19 UNL     1      -3.205  -2.426   3.055  1.00  0.00     0.133 A 
HETATM   36  N6  UNL     1      -4.168  -3.336   3.084  1.00  0.00    -0.200 N 
HETATM   37  C20 UNL     1      -4.212  -3.944   1.897  1.00  0.00     0.676 A 
ATOM     38  H6  UNL     1      -4.774  -3.538   3.880  1.00  0.00     0.183 HD
HETATM   39  N8  UNL     1      -3.256  -3.391   1.133  1.00  0.00    -0.193 N 
ATOM     40  H8  UNL     1      -3.056  -3.658   0.169  1.00  0.00     0.184 HD
BRANCH  37  41
HETATM   41  N7  UNL     1      -5.007  -4.898   1.504  1.00  0.00    -0.234 N 
ATOM     42  H72 UNL     1      -5.733  -5.318   2.084  1.00  0.00     0.174 HD
ATOM     43  H71 UNL     1      -5.041  -5.363   0.597  1.00  0.00     0.174 HD
ENDBRANCH  37  41
ENDBRANCH  33  34
ENDBRANCH   7  33
TORSDOF 15
