REMARK  1 active torsions:
REMARK  status: ('A' for Active; 'I' for Inactive)
REMARK    1  A    between atoms: C2_2  and  C3_3 
ROOT
HETATM    1  C3  UNL     1       0.792   0.169   0.534  1.00  0.00    -0.020 A 
HETATM    2  C4  UNL     1      -0.033   0.973   1.290  1.00  0.00     0.099 A 
HETATM    3  N1  UNL     1      -1.272   0.937   0.771  1.00  0.00    -0.369 N 
ATOM      4  H1  UNL     1      -2.075   1.445   1.142  1.00  0.00     0.165 HD
HETATM    5  C5  UNL     1      -1.300   0.135  -0.307  1.00  0.00     0.005 A 
HETATM    6  C6  UNL     1      -2.495  -0.173  -1.172  1.00  0.00     0.068 C 
HETATM    7  C7  UNL     1      -0.016  -0.344  -0.457  1.00  0.00     0.037 A 
ENDROOT
BRANCH   1   8
HETATM    8  C2  UNL     1       2.216  -0.069   0.759  1.00  0.00     0.002 C 
HETATM    9  C1  UNL     1       2.862  -0.877  -0.070  1.00  0.00     0.012 C 
ENDBRANCH   1   8
TORSDOF 1
