REMARK  4 active torsions:
REMARK  status: ('A' for Active; 'I' for Inactive)
REMARK    1  A    between atoms: C2_2  and  C3_3 
REMARK    2  A    between atoms: C2_2  and  C8_9 
REMARK    3  A    between atoms: C4_4  and  N1_5 
REMARK    4  A    between atoms: C8_9  and  C9_10 
ROOT
HETATM    1  C1  UNL     1       1.748  -2.068   0.324  1.00  0.00     0.014 C 
HETATM    2  C2  UNL     1       1.526  -0.579   0.484  1.00  0.00     0.010 C 
ENDROOT
BRANCH   2   3
HETATM    3  C3  UNL     1       0.148  -0.302  -0.046  1.00  0.00     0.003 C 
HETATM    4  C4  UNL     1      -0.787   0.278   0.652  1.00  0.00     0.197 C 
BRANCH   4   5
HETATM    5  N1  UNL     1      -2.060   0.493   0.050  1.00  0.00    -0.059 N 
HETATM    6  C5  UNL     1      -2.908  -0.654   0.333  1.00  0.00     0.277 C 
HETATM    7  C6  UNL     1      -2.642   1.691   0.644  1.00  0.00     0.277 C 
HETATM    8  C7  UNL     1      -2.000   0.696  -1.364  1.00  0.00     0.277 C 
ENDBRANCH   4   5
ENDBRANCH   2   3
BRANCH   2   9
HETATM    9  C8  UNL     1       2.487   0.159  -0.407  1.00  0.00     0.052 C 
BRANCH   9  10
HETATM   10  C9  UNL     1       3.892  -0.117  -0.103  1.00  0.00     0.053 C 
HETATM   11  N2  UNL     1       4.716   0.806   0.217  1.00  0.00    -0.411 N 
ATOM     12  H22 UNL     1       4.366   1.763   0.257  1.00  0.00     0.155 HD
ATOM     13  H21 UNL     1       5.695   0.614   0.429  1.00  0.00     0.155 HD
ENDBRANCH   9  10
ENDBRANCH   2   9
TORSDOF 4
