REMARK  4 active torsions:
REMARK  status: ('A' for Active; 'I' for Inactive)
REMARK    1  A    between atoms: N1_1  and  C1_4 
REMARK    2  A    between atoms: C2_7  and  N3_8 
REMARK    3  A    between atoms: N3_8  and  C3_10 
REMARK    4  A    between atoms: C4_12  and  N4_13 
ROOT
HETATM    1  C1  UNL     1      -3.415  -0.160  -0.220  1.00  0.00     0.705 A 
HETATM    2  N2  UNL     1      -2.353  -0.606  -0.909  1.00  0.00    -0.020 N 
ATOM      3  H2  UNL     1      -2.394  -1.016  -1.842  1.00  0.00     0.203 HD
HETATM    4  C2  UNL     1      -1.224  -0.435  -0.193  1.00  0.00     0.711 A 
HETATM    5  N5  UNL     1      -1.629   0.136   0.970  1.00  0.00    -0.117 N 
ATOM      6  H5  UNL     1      -1.015   0.399   1.741  1.00  0.00     0.206 HD
HETATM    7  N6  UNL     1      -2.945   0.300   0.951  1.00  0.00    -0.118 N 
ATOM      8  H6  UNL     1      -3.506   0.707   1.700  1.00  0.00     0.206 HD
ENDROOT
BRANCH   4   9
HETATM    9  N3  UNL     1       0.115  -0.773  -0.558  1.00  0.00    -0.174 N 
ATOM     10  H3  UNL     1       0.309  -1.202  -1.463  1.00  0.00     0.182 HD
BRANCH   9  11
HETATM   11  C3  UNL     1       1.180  -0.505   0.356  1.00  0.00     0.394 C 
HETATM   12  O1  UNL     1       2.432  -0.884  -0.128  1.00  0.00    -0.289 OA
HETATM   13  C4  UNL     1       2.942   0.272   0.505  1.00  0.00     0.473 C 
HETATM   14  O2  UNL     1       1.648   0.815   0.362  1.00  0.00    -0.289 OA
BRANCH  13  15
HETATM   15  N4  UNL     1       3.948   0.966  -0.265  1.00  0.00    -0.029 N 
ATOM     16  H43 UNL     1       4.706   0.332  -0.519  1.00  0.00     0.280 HD
ATOM     17  H42 UNL     1       3.595   1.193  -1.195  1.00  0.00     0.280 HD
ATOM     18  H41 UNL     1       4.316   1.800   0.192  1.00  0.00     0.280 HD
ENDBRANCH  13  15
ENDBRANCH   9  11
ENDBRANCH   4   9
BRANCH   1  19
HETATM   19  N1  UNL     1      -4.667  -0.170  -0.609  1.00  0.00    -0.233 N 
ATOM     20  H12 UNL     1      -5.024  -0.519  -1.498  1.00  0.00     0.174 HD
ATOM     21  H11 UNL     1      -5.474   0.169  -0.085  1.00  0.00     0.174 HD
ENDBRANCH   1  19
TORSDOF 4
