REMARK  11 active torsions:
REMARK  status: ('A' for Active; 'I' for Inactive)
REMARK    1  A    between atoms: O1_2  and  C2_3 
REMARK    2  A    between atoms: C2_3  and  C3_5 
REMARK    3  A    between atoms: C3_5  and  C4_6 
REMARK    4  A    between atoms: C3_5  and  N2_13 
REMARK    5  A    between atoms: C4_6  and  N1_7 
REMARK    6  A    between atoms: C4_6  and  O3_11 
REMARK    7  A    between atoms: C6_15  and  C7_16 
REMARK    8  A    between atoms: C10_29  and  C11_30 
REMARK    9  A    between atoms: N9_32  and  O4_34 
REMARK   10  A    between atoms: C12_38  and  N11_39 
REMARK   11  A    between atoms: N12_42  and  C13_43 
ROOT
HETATM    1  N2  UNL     1       1.274   0.400  -0.198  1.00  0.00    -0.237 N 
HETATM    2  C5  UNL     1       0.739   1.570  -0.862  1.00  0.00     0.134 A 
HETATM    3  C6  UNL     1      -0.562   1.823  -1.076  1.00  0.00     0.046 A 
HETATM    4  C8  UNL     1      -1.516   0.847  -0.605  1.00  0.00     0.070 A 
HETATM    5  C9  UNL     1      -1.082  -0.271   0.026  1.00  0.00     0.163 A 
HETATM    6  N7  UNL     1      -1.919  -1.209   0.483  1.00  0.00    -0.323 N 
ATOM      7  H7  UNL     1      -1.539  -2.032   0.951  1.00  0.00     0.169 HD
HETATM    8  C10 UNL     1      -3.265  -1.089   0.337  1.00  0.00     0.152 A 
HETATM    9  N10 UNL     1      -3.693  -0.001  -0.277  1.00  0.00    -0.325 N 
ATOM     10  H10 UNL     1      -4.699   0.116  -0.401  1.00  0.00     0.169 HD
HETATM   11  C12 UNL     1      -2.874   0.970  -0.753  1.00  0.00     0.115 A 
HETATM   12  N12 UNL     1       0.334  -0.511   0.241  1.00  0.00    -0.059 N 
ENDROOT
BRANCH   1  13
HETATM   13  C3  UNL     1       2.690   0.388  -0.059  1.00  0.00     0.165 C 
BRANCH  13  14
HETATM   14  C2  UNL     1       3.444  -0.833   0.014  1.00  0.00     0.312 C 
HETATM   15  O2  UNL     1       4.392  -0.923   0.878  1.00  0.00    -0.258 OA
BRANCH  14  16
HETATM   16  O1  UNL     1       3.303  -1.981  -0.750  1.00  0.00    -0.322 OA
HETATM   17  C1  UNL     1       4.126  -3.133  -0.587  1.00  0.00     0.213 C 
ENDBRANCH  14  16
ENDBRANCH  13  14
BRANCH  13  18
HETATM   18  C4  UNL     1       3.173   1.481   0.911  1.00  0.00     0.375 C 
BRANCH  18  19
HETATM   19  N1  UNL     1       2.638   1.359   2.224  1.00  0.00    -0.047 N 
ATOM     20  H13 UNL     1       1.619   1.328   2.196  1.00  0.00     0.277 HD
ATOM     21  H12 UNL     1       2.827   0.432   2.604  1.00  0.00     0.277 HD
ATOM     22  H11 UNL     1       2.958   2.083   2.867  1.00  0.00     0.277 HD
ENDBRANCH  18  19
BRANCH  18  23
HETATM   23  O3  UNL     1       4.560   1.397   0.966  1.00  0.00    -0.365 OA
ATOM     24  H3  UNL     1       4.858   2.072   1.565  1.00  0.00     0.212 HD
ENDBRANCH  18  23
ENDBRANCH  13  18
ENDBRANCH   1  13
BRANCH  12  25
HETATM   25  C13 UNL     1       0.697  -1.679   0.949  1.00  0.00     0.749 A 
HETATM   26  N13 UNL     1       1.280  -2.012   2.073  1.00  0.00    -0.068 N 
HETATM   27  O5  UNL     1       1.078  -3.260   1.862  1.00  0.00    -0.127 OA
ATOM     28  H13 UNL     1       1.723  -1.484   2.825  1.00  0.00     0.216 HD
HETATM   29  N14 UNL     1       0.496  -2.985   0.746  1.00  0.00    -0.068 N 
ATOM     30  H14 UNL     1       0.060  -3.538   0.008  1.00  0.00     0.216 HD
ENDBRANCH  12  25
BRANCH   3  31
HETATM   31  C7  UNL     1      -0.940   3.052  -1.763  1.00  0.00     0.149 A 
HETATM   32  N3  UNL     1      -2.002   3.692  -2.174  1.00  0.00    -0.268 N 
HETATM   33  N4  UNL     1      -1.693   4.822  -2.764  1.00  0.00    -0.227 N 
ATOM     34  H3  UNL     1      -2.956   3.354  -2.051  1.00  0.00     0.190 HD
HETATM   35  N5  UNL     1      -0.381   4.965  -2.760  1.00  0.00    -0.227 N 
ATOM     36  H4  UNL     1      -2.359   5.484  -3.162  1.00  0.00     0.210 HD
HETATM   37  N6  UNL     1       0.080   3.911  -2.163  1.00  0.00    -0.268 N 
ATOM     38  H5  UNL     1       0.157   5.741  -3.145  1.00  0.00     0.210 HD
ATOM     39  H6  UNL     1       1.072   3.732  -2.005  1.00  0.00     0.190 HD
ENDBRANCH   3  31
BRANCH  11  40
HETATM   40  N11 UNL     1      -3.418   1.943  -1.313  1.00  0.00    -0.385 N 
ATOM     41 2H11 UNL     1      -2.802   2.673  -1.671  1.00  0.00     0.157 HD
ATOM     42 1H11 UNL     1      -4.428   2.034  -1.423  1.00  0.00     0.157 HD
ENDBRANCH  11  40
BRANCH   8  43
HETATM   43  C11 UNL     1      -4.114  -2.119   0.844  1.00  0.00     0.180 C 
HETATM   44  N8  UNL     1      -3.539  -3.282   1.507  1.00  0.00    -0.077 NA
HETATM   45  N9  UNL     1      -5.361  -2.133   0.776  1.00  0.00    -0.252 N 
ATOM     46  H9  UNL     1      -5.757  -2.969   1.205  1.00  0.00     0.195 HD
BRANCH  45  47
HETATM   47  O4  UNL     1      -6.291  -1.344   0.292  1.00  0.00    -0.288 OA
ATOM     48  H4  UNL     1      -7.240  -1.355   0.240  1.00  0.00     0.244 HD
ENDBRANCH  45  47
ENDBRANCH   8  43
TORSDOF 11
