REMARK  2 active torsions:
REMARK  status: ('A' for Active; 'I' for Inactive)
REMARK    1  A    between atoms: N3_4  and  N4_6 
REMARK    2  A    between atoms: C2_8  and  C3_10 
ROOT
HETATM    1  N4  UNL     1      -0.505  -0.155  -0.177  1.00  0.00    -0.283 N 
ATOM      2  H4  UNL     1      -0.438   0.843   0.021  1.00  0.00     0.188 HD
HETATM    3  C2  UNL     1       0.577  -0.814  -0.258  1.00  0.00     0.177 C 
HETATM    4  N5  UNL     1       0.587  -2.215  -0.531  1.00  0.00    -0.077 NA
ENDROOT
BRANCH   3   5
HETATM    5  C3  UNL     1       1.863  -0.141  -0.071  1.00  0.00     0.174 C 
HETATM    6  N6  UNL     1       3.052  -0.674  -0.123  1.00  0.00    -0.268 N 
HETATM    7  N7  UNL     1       4.003   0.323   0.114  1.00  0.00    -0.007 NA
ATOM      8  H6  UNL     1       3.255  -1.657  -0.306  1.00  0.00     0.185 HD
HETATM    9  N8  UNL     1       3.313   1.332   0.796  1.00  0.00    -0.007 NA
HETATM   10  N9  UNL     1       2.046   1.246   0.208  1.00  0.00    -0.268 N 
ATOM     11  H9  UNL     1       1.395   2.009   0.020  1.00  0.00     0.185 HD
ENDBRANCH   3   5
BRANCH   1  12
HETATM   12  N3  UNL     1      -1.776  -0.698  -0.339  1.00  0.00    -0.275 N 
HETATM   13  C1  UNL     1      -2.847  -0.021  -0.189  1.00  0.00     0.215 C 
HETATM   14  N1  UNL     1      -2.788   1.362   0.160  1.00  0.00    -0.065 NA
HETATM   15  N2  UNL     1      -4.109  -0.628  -0.367  1.00  0.00    -0.065 NA
ATOM     16  H3  UNL     1      -1.855  -1.684  -0.589  1.00  0.00     0.189 HD
ENDBRANCH   1  12
TORSDOF 2
