REMARK  10 active torsions:
REMARK  status: ('A' for Active; 'I' for Inactive)
REMARK    1  A    between atoms: O1_2  and  C2_3 
REMARK    2  A    between atoms: C8_9  and  O2_10 
REMARK    3  A    between atoms: C8_9  and  N1_12 
REMARK    4  A    between atoms: N1_12  and  C9_14 
REMARK    5  A    between atoms: C9_14  and  C10_15 
REMARK    6  A    between atoms: C10_15  and  N2_17 
REMARK       I    between atoms: N2_17  and  C12_19 
REMARK    7  A    between atoms: C12_19  and  C13_21 
REMARK    8  A    between atoms: C13_21  and  N3_22 
REMARK    9  A    between atoms: C13_21  and  C14_26 
REMARK   10  A    between atoms: C14_26  and  C15_27 
ROOT
HETATM    1  C13 UNL     1       0.650   1.503   1.011  1.00  0.00     0.297 C 
ENDROOT
BRANCH   1   2
HETATM    2  C12 UNL     1       1.693   1.246   0.056  1.00  0.00     0.252 C 
HETATM    3  N2  UNL     1       2.523   0.155   0.080  1.00  0.00    -0.350 N 
ATOM      4  H2  UNL     1       2.319  -0.555   0.783  1.00  0.00     0.163 HD
HETATM    5  O3  UNL     1       1.892   2.117  -0.881  1.00  0.00    -0.271 OA
BRANCH   3   6
HETATM    6  C10 UNL     1       3.713  -0.113  -0.825  1.00  0.00     0.119 C 
HETATM    7  C11 UNL     1       3.694  -1.539  -1.204  1.00  0.00     0.038 C 
BRANCH   6   8
HETATM    8  C9  UNL     1       4.822   0.304   0.027  1.00  0.00     0.088 C 
BRANCH   8   9
HETATM    9  N1  UNL     1       6.194   0.310  -0.003  1.00  0.00    -0.348 N 
ATOM     10  H1  UNL     1       6.619   1.237  -0.032  1.00  0.00     0.167 HD
BRANCH   9  11
HETATM   11  C8  UNL     1       7.088  -0.737   0.000  1.00  0.00     0.152 C 
HETATM   12  C7  UNL     1       8.445  -0.885   0.074  1.00  0.00     0.048 A 
HETATM   13  C2  UNL     1       9.720  -1.022   0.144  1.00  0.00     0.082 A 
HETATM   14  C6  UNL     1       8.521   0.355   1.272  1.00  0.00     0.018 A 
HETATM   15  C3  UNL     1      10.894  -0.702   0.632  1.00  0.00     0.038 A 
HETATM   16  C4  UNL     1      10.911   0.293   1.582  1.00  0.00     0.003 A 
HETATM   17  C5  UNL     1       9.610   0.749   1.815  1.00  0.00     0.001 A 
BRANCH  13  18
HETATM   18  O1  UNL     1       9.836  -2.132  -0.915  1.00  0.00    -0.355 OA
HETATM   19  C1  UNL     1      11.050  -2.633  -1.207  1.00  0.00     0.210 C 
ENDBRANCH  13  18
BRANCH  11  20
HETATM   20  O2  UNL     1       6.451  -1.922  -0.056  1.00  0.00    -0.345 OA
ATOM     21  H2  UNL     1       5.508  -1.819  -0.107  1.00  0.00     0.219 HD
ENDBRANCH  11  20
ENDBRANCH   9  11
ENDBRANCH   8   9
ENDBRANCH   6   8
ENDBRANCH   3   6
ENDBRANCH   1   2
BRANCH   1  22
HETATM   22  N3  UNL     1       0.267   2.949   0.823  1.00  0.00    -0.063 N 
ATOM     23  H33 UNL     1       1.055   3.593   0.896  1.00  0.00     0.275 HD
ATOM     24  H32 UNL     1       0.008   3.181  -0.136  1.00  0.00     0.275 HD
ATOM     25  H31 UNL     1      -0.473   3.131   1.501  1.00  0.00     0.275 HD
ENDBRANCH   1  22
BRANCH   1  26
HETATM   26  C14 UNL     1      -0.588   0.748   1.165  1.00  0.00     0.019 C 
BRANCH  26  27
HETATM   27  C15 UNL     1      -1.626   0.693   0.109  1.00  0.00    -0.056 C 
HETATM   28  C16 UNL     1      -1.312   0.105  -1.183  1.00  0.00     0.035 C 
HETATM   29  C17 UNL     1      -2.396  -0.709  -1.844  1.00  0.00     0.004 C 
HETATM   30  C18 UNL     1      -3.571   0.085  -2.354  1.00  0.00     0.000 C 
HETATM   31  C19 UNL     1      -4.905  -0.592  -2.130  1.00  0.00     0.000 C 
HETATM   32  C20 UNL     1      -6.005  -0.182  -3.039  1.00  0.00     0.000 C 
HETATM   33  C21 UNL     1      -7.313  -0.528  -2.326  1.00  0.00     0.000 C 
HETATM   34  C22 UNL     1      -7.524   0.248  -1.064  1.00  0.00     0.000 C 
HETATM   35  C23 UNL     1      -7.702  -0.667   0.109  1.00  0.00     0.002 C 
HETATM   36  C24 UNL     1      -8.422  -0.042   1.281  1.00  0.00     0.026 C 
HETATM   37  C25 UNL     1      -7.564   0.789   2.176  1.00  0.00     0.167 C 
HETATM   38  O4  UNL     1      -6.574   0.043   2.818  1.00  0.00    -0.389 OA
HETATM   39  C26 UNL     1      -5.351   0.573   2.393  1.00  0.00     0.195 C 
HETATM   40  C27 UNL     1      -4.183  -0.333   2.616  1.00  0.00     0.258 C 
HETATM   41  N4  UNL     1      -2.990   0.391   2.148  1.00  0.00    -0.070 N 
HETATM   42  C28 UNL     1      -2.967   0.274   0.708  1.00  0.00     0.266 C 
ATOM     43  H42 UNL     1      -2.953   1.357   2.473  1.00  0.00     0.277 HD
ATOM     44  H41 UNL     1      -2.128   0.073   2.591  1.00  0.00     0.277 HD
ENDBRANCH  26  27
ENDBRANCH   1  26
TORSDOF 10
