REMARK  6 active torsions:
REMARK  status: ('A' for Active; 'I' for Inactive)
REMARK       I    between atoms: N1_2  and  C3_4 
REMARK       I    between atoms: C3_4  and  N2_6 
REMARK    1  A    between atoms: N2_6  and  N3_8 
REMARK    2  A    between atoms: N3_8  and  C4_10 
REMARK       I    between atoms: N7_19  and  C8_21 
REMARK    3  A    between atoms: C8_21  and  C9_23 
REMARK    4  A    between atoms: C9_23  and  O3_24 
REMARK    5  A    between atoms: C9_23  and  N8_26 
REMARK    6  A    between atoms: N8_26  and  O4_27 
ROOT
HETATM    1  C4  UNL     1       0.853   0.423  -0.758  1.00  0.00     0.181 C 
HETATM    2  C5  UNL     1       1.149   1.774  -1.100  1.00  0.00     0.123 C 
HETATM    3  N4  UNL     1       1.402   2.879  -1.397  1.00  0.00    -0.190 NA
HETATM    4  C6  UNL     1      -0.524  -0.009  -0.664  1.00  0.00     0.205 A 
HETATM    5  N5  UNL     1      -1.013  -1.228  -0.359  1.00  0.00    -0.274 N 
ATOM      6  H5  UNL     1      -0.459  -2.056  -0.142  1.00  0.00     0.189 HD
HETATM    7  N6  UNL     1      -2.330  -1.166  -0.390  1.00  0.00    -0.263 N 
ATOM      8  H6  UNL     1      -2.970  -1.937  -0.200  1.00  0.00     0.190 HD
HETATM    9  C7  UNL     1      -2.683   0.093  -0.716  1.00  0.00     0.248 A 
HETATM   10  N7  UNL     1      -3.890   0.533  -0.843  1.00  0.00    -0.288 N 
ATOM     11  H7  UNL     1      -4.053   1.508  -1.094  1.00  0.00     0.172 HD
HETATM   12  C8  UNL     1      -4.992  -0.340  -0.633  1.00  0.00     0.271 C 
HETATM   13  O2  UNL     1      -5.266  -1.164  -1.526  1.00  0.00    -0.269 OA
HETATM   14  O5  UNL     1      -1.569   0.743  -0.869  1.00  0.00    -0.256 OA
ENDROOT
BRANCH   1  15
HETATM   15  N3  UNL     1       1.795  -0.397  -0.538  1.00  0.00    -0.283 N 
ATOM     16  H3  UNL     1       1.514  -1.348  -0.299  1.00  0.00     0.188 HD
BRANCH  15  17
HETATM   17  N2  UNL     1       3.142  -0.161  -0.582  1.00  0.00    -0.250 N 
HETATM   18  C3  UNL     1       3.987  -0.677   0.427  1.00  0.00     0.336 C 
HETATM   19  N1  UNL     1       5.384  -0.428   0.374  1.00  0.00    -0.342 N 
HETATM   20  O1  UNL     1       3.495  -1.357   1.368  1.00  0.00    -0.245 OA
HETATM   21  C1  UNL     1       6.218  -0.972   1.423  1.00  0.00     0.154 C 
HETATM   22  C2  UNL     1       5.976   0.344  -0.687  1.00  0.00     0.154 C 
ATOM     23  H2  UNL     1       3.537   0.389  -1.345  1.00  0.00     0.191 HD
ENDBRANCH  15  17
ENDBRANCH   1  15
BRANCH  12  24
HETATM   24  C9  UNL     1      -5.800  -0.287   0.599  1.00  0.00     0.331 C 
BRANCH  24  25
HETATM   25  O3  UNL     1      -6.799  -1.248   0.524  1.00  0.00    -0.369 OA
ATOM     26  H3  UNL     1      -7.320  -1.214   1.318  1.00  0.00     0.212 HD
ENDBRANCH  24  25
BRANCH  24  27
HETATM   27  N8  UNL     1      -6.439   1.035   0.669  1.00  0.00    -0.061 NA
BRANCH  27  28
HETATM   28  O4  UNL     1      -5.476   1.983   0.694  1.00  0.00    -0.293 OA
ATOM     29  H4  UNL     1      -5.889   2.837   0.739  1.00  0.00     0.238 HD
ENDBRANCH  27  28
ENDBRANCH  24  27
ENDBRANCH  12  24
TORSDOF 6
