REMARK  7 active torsions:
REMARK  status: ('A' for Active; 'I' for Inactive)
REMARK    1  A    between atoms: C2_2  and  C3_3 
REMARK    2  A    between atoms: C3_3  and  C4_4 
REMARK    3  A    between atoms: C4_4  and  N1_5 
REMARK    4  A    between atoms: N1_5  and  C5_7 
REMARK    5  A    between atoms: C5_7  and  C6_8 
REMARK    6  A    between atoms: C6_8  and  C7_9 
REMARK    7  A    between atoms: C9_15  and  C10_16 
ROOT
HETATM    1  C7  UNL     1      -1.654   0.961  -0.806  1.00  0.00     0.034 A 
HETATM    2  N2  UNL     1      -2.092   1.915  -1.663  1.00  0.00    -0.354 N 
ATOM      3  H2  UNL     1      -1.495   2.584  -2.149  1.00  0.00     0.166 HD
HETATM    4  C8  UNL     1      -3.411   1.851  -1.777  1.00  0.00     0.180 A 
HETATM    5  N3  UNL     1      -3.826   0.851  -0.991  1.00  0.00    -0.354 N 
ATOM      6  H3  UNL     1      -4.796   0.560  -0.871  1.00  0.00     0.166 HD
HETATM    7  C9  UNL     1      -2.769   0.291  -0.386  1.00  0.00     0.032 A 
ENDROOT
BRANCH   1   8
HETATM    8  C6  UNL     1      -0.231   0.770  -0.481  1.00  0.00     0.078 C 
BRANCH   8   9
HETATM    9  C5  UNL     1       0.372  -0.400  -1.226  1.00  0.00     0.120 C 
BRANCH   9  10
HETATM   10  N1  UNL     1       1.745  -0.629  -0.955  1.00  0.00    -0.421 N 
ATOM     11  H1  UNL     1       2.456  -0.473  -1.670  1.00  0.00     0.153 HD
BRANCH  10  12
HETATM   12  C4  UNL     1       2.098  -1.081   0.339  1.00  0.00     0.117 C 
BRANCH  12  13
HETATM   13  C3  UNL     1       3.544  -1.290   0.601  1.00  0.00     0.045 C 
BRANCH  13  14
HETATM   14  C2  UNL     1       4.353  -0.072   0.515  1.00  0.00    -0.035 C 
HETATM   15  C1  UNL     1       3.812   1.116   0.393  1.00  0.00     0.007 C 
ENDBRANCH  13  14
ENDBRANCH  12  13
ENDBRANCH  10  12
ENDBRANCH   9  10
ENDBRANCH   8   9
ENDBRANCH   1   8
BRANCH   7  16
HETATM   16  C10 UNL     1      -2.823  -0.826   0.556  1.00  0.00     0.054 C 
HETATM   17  C11 UNL     1      -2.648  -0.389   1.999  1.00  0.00     0.011 C 
ENDBRANCH   7  16
TORSDOF 7
