REMARK  6 active torsions:
REMARK  status: ('A' for Active; 'I' for Inactive)
REMARK    1  A    between atoms: C1_1  and  C2_2 
REMARK    2  A    between atoms: C1_1  and  C6_12 
REMARK    3  A    between atoms: C2_2  and  N1_3 
REMARK    4  A    between atoms: N1_3  and  C3_5 
REMARK    5  A    between atoms: C6_12  and  N4_13 
REMARK    6  A    between atoms: N4_13  and  C7_16 
ROOT
HETATM    1  C1  UNL     1      -0.230   1.422   0.758  1.00  0.00     0.047 C 
ENDROOT
BRANCH   1   2
HETATM    2  C2  UNL     1       1.274   1.188   0.708  1.00  0.00     0.124 C 
BRANCH   2   3
HETATM    3  N1  UNL     1       1.628   0.502  -0.519  1.00  0.00    -0.362 N 
ATOM      4  H1  UNL     1       0.926   0.240  -1.211  1.00  0.00     0.162 HD
BRANCH   3   5
HETATM    5  C3  UNL     1       3.029   0.210  -0.708  1.00  0.00     0.171 C 
HETATM    6  N2  UNL     1       3.927   0.972  -1.198  1.00  0.00    -0.361 N 
HETATM    7  C4  UNL     1       5.231   0.376  -1.248  1.00  0.00     0.142 C 
ATOM      8  H2  UNL     1       3.735   1.919  -1.525  1.00  0.00     0.162 HD
HETATM    9  C5  UNL     1       5.069  -0.831  -0.351  1.00  0.00     0.142 C 
HETATM   10  N3  UNL     1       3.631  -1.022  -0.359  1.00  0.00    -0.361 N 
ATOM     11  H3  UNL     1       3.140  -1.891  -0.150  1.00  0.00     0.162 HD
ENDBRANCH   3   5
ENDBRANCH   2   3
ENDBRANCH   1   2
BRANCH   1  12
HETATM   12  C6  UNL     1      -0.969   0.081   0.706  1.00  0.00     0.238 C 
BRANCH  12  13
HETATM   13  N4  UNL     1      -2.394   0.370   0.757  1.00  0.00    -0.030 N 
ATOM     14  H42 UNL     1      -2.628   0.940   1.570  1.00  0.00     0.281 HD
ATOM     15  H41 UNL     1      -2.667   1.021   0.021  1.00  0.00     0.281 HD
BRANCH  13  16
HETATM   16  C7  UNL     1      -3.187  -0.835   0.714  1.00  0.00     0.493 C 
HETATM   17  N5  UNL     1      -4.587  -0.416   0.771  1.00  0.00    -0.016 N 
HETATM   18  C8  UNL     1      -4.713   0.188  -0.564  1.00  0.00     0.366 C 
ATOM     19  H52 UNL     1      -5.264  -1.144   0.999  1.00  0.00     0.282 HD
ATOM     20  H51 UNL     1      -4.845   0.179   1.558  1.00  0.00     0.282 HD
HETATM   21  N6  UNL     1      -4.106  -0.852  -1.380  1.00  0.00    -0.117 NA
HETATM   22  N7  UNL     1      -3.085  -1.407  -0.608  1.00  0.00    -0.086 NA
ENDBRANCH  13  16
ENDBRANCH  12  13
ENDBRANCH   1  12
TORSDOF 6
