REMARK  13 active torsions:
REMARK  status: ('A' for Active; 'I' for Inactive)
REMARK    1  A    between atoms: N5_15  and  C6_16 
REMARK    2  A    between atoms: C7_18  and  C8_19 
REMARK    3  A    between atoms: C8_19  and  N6_20 
REMARK    4  A    between atoms: N6_20  and  S1_22 
REMARK    5  A    between atoms: S1_22  and  N7_25 
REMARK    6  A    between atoms: N7_25  and  C9_27 
REMARK    7  A    between atoms: C9_27  and  C10_28 
REMARK    8  A    between atoms: C10_28  and  N8_29 
REMARK    9  A    between atoms: C12_34  and  O5_35 
REMARK   10  A    between atoms: C13_39  and  N11_40 
REMARK   11  A    between atoms: C14_43  and  O6_44 
REMARK   12  A    between atoms: C15_46  and  O7_47 
REMARK   13  A    between atoms: C16_49  and  O8_50 
ROOT
HETATM    1  C6  UNL     1      -3.044  -1.103   0.858  1.00  0.00     0.262 C 
HETATM    2  O1  UNL     1      -1.727  -0.966   1.235  1.00  0.00    -0.354 OA
HETATM    3  C7  UNL     1      -1.386   0.339   1.575  1.00  0.00     0.174 C 
HETATM    4  C14 UNL     1      -2.056   0.789   2.847  1.00  0.00     0.180 C 
HETATM    5  C15 UNL     1      -3.464   0.289   2.834  1.00  0.00     0.182 C 
HETATM    6  C16 UNL     1      -3.955  -0.077   1.447  1.00  0.00     0.198 C 
ENDROOT
BRANCH   3   7
HETATM    7  C8  UNL     1       0.122   0.369   1.843  1.00  0.00     0.168 C 
BRANCH   7   8
HETATM    8  N6  UNL     1       0.453   1.715   2.189  1.00  0.00    -0.300 N 
ATOM      9  H6  UNL     1      -0.249   2.454   2.226  1.00  0.00     0.173 HD
BRANCH   8  10
HETATM   10  S1  UNL     1       2.089   2.005   2.535  1.00  0.00     0.315 S 
HETATM   11  O2  UNL     1       2.674   0.720   3.104  1.00  0.00    -0.183 OA
HETATM   12  O3  UNL     1       2.161   3.012   3.659  1.00  0.00    -0.183 OA
BRANCH  10  13
HETATM   13  N7  UNL     1       3.043   2.462   1.201  1.00  0.00    -0.301 N 
ATOM     14  H7  UNL     1       3.182   3.425   0.895  1.00  0.00     0.173 HD
BRANCH  13  15
HETATM   15  C9  UNL     1       3.623   1.322   0.567  1.00  0.00     0.154 C 
BRANCH  15  16
HETATM   16  C10 UNL     1       4.454   1.799  -0.603  1.00  0.00     0.173 C 
BRANCH  16  17
HETATM   17  N8  UNL     1       5.091   0.751  -1.324  1.00  0.00    -0.131 N 
HETATM   18  C11 UNL     1       4.489   0.152  -2.360  1.00  0.00     0.344 A 
HETATM   19  O4  UNL     1       3.332   0.486  -2.748  1.00  0.00    -0.246 OA
HETATM   20  N9  UNL     1       5.076  -0.846  -3.059  1.00  0.00    -0.273 N 
HETATM   21  C12 UNL     1       6.293  -1.260  -2.720  1.00  0.00     0.239 A 
ATOM     22  H9  UNL     1       4.587  -1.279  -3.843  1.00  0.00     0.174 HD
HETATM   23  N10 UNL     1       6.921  -0.686  -1.694  1.00  0.00    -0.155 N 
HETATM   24  C13 UNL     1       6.331   0.309  -0.999  1.00  0.00     0.685 A 
ATOM     25  H10 UNL     1       7.855  -1.001  -1.432  1.00  0.00     0.188 HD
BRANCH  21  26
HETATM   26  O5  UNL     1       6.919  -2.296  -3.436  1.00  0.00    -0.332 OA
ATOM     27  H5  UNL     1       7.789  -2.592  -3.194  1.00  0.00     0.221 HD
ENDBRANCH  21  26
BRANCH  24  28
HETATM   28  N11 UNL     1       6.993   0.820  -0.019  1.00  0.00    -0.234 N 
ATOM     29 2H11 UNL     1       6.547   1.572   0.506  1.00  0.00     0.174 HD
ATOM     30 1H11 UNL     1       7.926   0.488   0.225  1.00  0.00     0.174 HD
ENDBRANCH  24  28
ENDBRANCH  16  17
ENDBRANCH  15  16
ENDBRANCH  13  15
ENDBRANCH  10  13
ENDBRANCH   8  10
ENDBRANCH   7   8
ENDBRANCH   3   7
BRANCH   4  31
HETATM   31  O6  UNL     1      -1.309   0.287   3.923  1.00  0.00    -0.390 OA
ATOM     32  H6  UNL     1      -1.732   0.571   4.725  1.00  0.00     0.210 HD
ENDBRANCH   4  31
BRANCH   1  33
HETATM   33  N5  UNL     1      -3.085  -1.123  -0.592  1.00  0.00    -0.297 N 
HETATM   34  C3  UNL     1      -4.211  -1.150  -1.340  1.00  0.00     0.142 A 
HETATM   35  N3  UNL     1      -5.506  -1.164  -1.005  1.00  0.00    -0.336 N 
HETATM   36  C4  UNL     1      -3.852  -1.163  -2.666  1.00  0.00     0.122 A 
HETATM   37  C2  UNL     1      -6.447  -1.190  -1.958  1.00  0.00     0.183 A 
ATOM     38  H3  UNL     1      -5.777  -1.155  -0.022  1.00  0.00     0.168 HD
HETATM   39  N2  UNL     1      -6.127  -1.204  -3.263  1.00  0.00    -0.337 N 
HETATM   40  C1  UNL     1      -4.842  -1.190  -3.630  1.00  0.00     0.131 A 
ATOM     41  H2  UNL     1      -6.862  -1.225  -3.970  1.00  0.00     0.168 HD
HETATM   42  N1  UNL     1      -4.551  -1.203  -4.883  1.00  0.00    -0.383 N 
ATOM     43  H12 UNL     1      -5.282  -1.223  -5.594  1.00  0.00     0.157 HD
ATOM     44  H11 UNL     1      -3.570  -1.192  -5.163  1.00  0.00     0.157 HD
HETATM   45  N4  UNL     1      -2.505  -1.145  -2.729  1.00  0.00    -0.346 N 
HETATM   46  C5  UNL     1      -2.063  -1.121  -1.461  1.00  0.00     0.188 A 
ATOM     47  H4  UNL     1      -1.934  -1.149  -3.574  1.00  0.00     0.167 HD
ENDBRANCH   1  33
BRANCH   5  48
HETATM   48  O7  UNL     1      -4.336   1.262   3.325  1.00  0.00    -0.390 OA
ATOM     49  H7  UNL     1      -5.231   0.944   3.317  1.00  0.00     0.210 HD
ENDBRANCH   5  48
BRANCH   6  50
HETATM   50  O8  UNL     1      -4.131   1.023   0.644  1.00  0.00    -0.388 OA
ATOM     51  H8  UNL     1      -4.711   1.676   1.019  1.00  0.00     0.210 HD
ENDBRANCH   6  50
TORSDOF 13
