REMARK  5 active torsions:
REMARK  status: ('A' for Active; 'I' for Inactive)
REMARK    1  A    between atoms: N3_5  and  O1_6 
REMARK    2  A    between atoms: N3_5  and  C2_8 
REMARK    3  A    between atoms: C5_11  and  N4_12 
REMARK       I    between atoms: N4_12  and  C6_14 
REMARK       I    between atoms: C6_14  and  N5_16 
REMARK    4  A    between atoms: N5_16  and  N6_18 
REMARK    5  A    between atoms: C12_24  and  N7_25 
ROOT
HETATM    1  N1  UNL     1       6.124   3.963  -0.834  1.00  0.00    -0.170 NA
HETATM    2  C1  UNL     1       6.335   2.818  -0.736  1.00  0.00     0.199 C 
HETATM    3  N2  UNL     1       6.606   1.524  -0.631  1.00  0.00    -0.209 N 
ATOM      4  H2  UNL     1       7.612   1.375  -0.712  1.00  0.00     0.202 HD
HETATM    5  N3  UNL     1       6.053   0.476  -0.472  1.00  0.00    -0.155 N 
ENDROOT
BRANCH   5   6
HETATM    6  O1  UNL     1       6.944  -0.645  -0.443  1.00  0.00    -0.267 OA
ATOM      7  H1  UNL     1       6.505  -1.478  -0.317  1.00  0.00     0.247 HD
ENDBRANCH   5   6
BRANCH   5   8
HETATM    8  C2  UNL     1       4.686   0.112  -0.305  1.00  0.00     0.084 A 
HETATM    9  C3  UNL     1       3.667   1.031  -0.291  1.00  0.00     0.036 A 
HETATM   10  C4  UNL     1       2.369   0.582  -0.124  1.00  0.00     0.034 A 
HETATM   11  C5  UNL     1       2.004  -0.742   0.033  1.00  0.00     0.069 A 
HETATM   12  C12 UNL     1       3.038  -1.662   0.016  1.00  0.00     0.132 A 
HETATM   13  C13 UNL     1       4.363  -1.225  -0.152  1.00  0.00     0.072 A 
BRANCH  11  14
HETATM   14  N4  UNL     1       0.697  -1.159   0.274  1.00  0.00    -0.305 N 
HETATM   15  C6  UNL     1      -0.456  -0.388   0.104  1.00  0.00     0.339 C 
HETATM   16  O2  UNL     1      -0.457   0.774  -0.291  1.00  0.00    -0.245 OA
HETATM   17  N5  UNL     1      -1.721  -0.975   0.405  1.00  0.00    -0.254 N 
ATOM     18  H5  UNL     1      -1.772  -1.938   0.737  1.00  0.00     0.191 HD
ATOM     19  H4  UNL     1       0.570  -2.115   0.605  1.00  0.00     0.171 HD
BRANCH  17  20
HETATM   20  N6  UNL     1      -2.859  -0.245   0.248  1.00  0.00    -0.324 N 
HETATM   21  C7  UNL     1      -3.685  -0.045   1.380  1.00  0.00     0.142 C 
HETATM   22  C8  UNL     1      -4.714   1.027   1.240  1.00  0.00     0.021 C 
HETATM   23  C9  UNL     1      -5.102   1.404  -0.127  1.00  0.00     0.003 C 
HETATM   24  C10 UNL     1      -4.263   0.912  -1.249  1.00  0.00     0.021 C 
HETATM   25  C11 UNL     1      -3.567  -0.409  -0.975  1.00  0.00     0.142 C 
ENDBRANCH  17  20
ENDBRANCH  11  14
BRANCH  12  26
HETATM   26  N7  UNL     1       2.787  -3.043   0.151  1.00  0.00    -0.113 N 
HETATM   27  O3  UNL     1       1.841  -3.696  -0.281  1.00  0.00    -0.532 OA
HETATM   28  O4  UNL     1       3.779  -3.772   0.825  1.00  0.00    -0.532 OA
ENDBRANCH  12  26
ENDBRANCH   5   8
TORSDOF 5
