REMARK  16 active torsions:
REMARK  status: ('A' for Active; 'I' for Inactive)
REMARK    1  A    between atoms: C2_2  and  O1_3 
REMARK    2  A    between atoms: C2_2  and  O2_5 
REMARK    3  A    between atoms: O2_5  and  C3_6 
REMARK    4  A    between atoms: C5_8  and  O3_9 
REMARK    5  A    between atoms: O3_9  and  C6_10 
REMARK    6  A    between atoms: C11_15  and  O4_16 
REMARK    7  A    between atoms: O4_16  and  C12_17 
REMARK    8  A    between atoms: C15_20  and  O5_21 
REMARK    9  A    between atoms: O5_21  and  C16_22 
REMARK   10  A    between atoms: C16_22  and  C17_23 
REMARK   11  A    between atoms: C17_23  and  C18_24 
REMARK   12  A    between atoms: C18_24  and  N1_25 
REMARK   13  A    between atoms: C19_28  and  O6_29 
REMARK   14  A    between atoms: C20_31  and  O7_32 
REMARK   15  A    between atoms: C21_35  and  C22_36 
REMARK   16  A    between atoms: C22_36  and  O9_37 
ROOT
HETATM    1  C6  UNL     1      -0.839   1.365  -0.783  1.00  0.00     0.157 C 
HETATM    2  C7  UNL     1      -1.286   2.254  -1.928  1.00  0.00     0.061 C 
HETATM    3  C8  UNL     1      -1.997   1.367  -2.890  1.00  0.00    -0.028 C 
HETATM    4  C9  UNL     1      -1.805   0.056  -2.953  1.00  0.00    -0.028 C 
HETATM    5  C10 UNL     1      -0.867  -0.682  -2.081  1.00  0.00     0.061 C 
HETATM    6  C11 UNL     1       0.075   0.306  -1.415  1.00  0.00     0.154 C 
ENDROOT
BRANCH   6   7
HETATM    7  O4  UNL     1       0.874  -0.299  -0.464  1.00  0.00    -0.375 OA
BRANCH   7   8
HETATM    8  C12 UNL     1       2.218  -0.212  -0.702  1.00  0.00     0.153 C 
HETATM    9  C13 UNL     1       2.907  -1.534  -0.886  1.00  0.00     0.037 C 
HETATM   10  C14 UNL     1       4.235  -1.230  -1.599  1.00  0.00     0.037 C 
HETATM   11  C15 UNL     1       5.059  -0.469  -0.541  1.00  0.00     0.152 C 
HETATM   12  C19 UNL     1       4.369   0.816  -0.219  1.00  0.00     0.178 C 
HETATM   13  C20 UNL     1       2.973   0.560   0.362  1.00  0.00     0.178 C 
BRANCH  11  14
HETATM   14  O5  UNL     1       6.337  -0.242  -0.973  1.00  0.00    -0.382 OA
BRANCH  14  15
HETATM   15  C16 UNL     1       7.314  -0.903  -0.229  1.00  0.00     0.181 C 
BRANCH  15  16
HETATM   16  C17 UNL     1       7.329  -0.532   1.199  1.00  0.00     0.130 C 
BRANCH  16  17
HETATM   17  C18 UNL     1       8.332   0.108   1.726  1.00  0.00    -0.076 C 
BRANCH  17  18
HETATM   18  N1  UNL     1       9.196   0.955   2.159  1.00  0.00    -0.370 N 
ATOM     19  H12 UNL     1       8.640   1.725   1.787  1.00  0.00     0.165 HD
ATOM     20  H11 UNL     1       9.982   1.457   2.572  1.00  0.00     0.165 HD
ENDBRANCH  17  18
ENDBRANCH  16  17
ENDBRANCH  15  16
ENDBRANCH  14  15
ENDBRANCH  11  14
BRANCH  12  21
HETATM   21  O6  UNL     1       5.151   1.573   0.618  1.00  0.00    -0.390 OA
ATOM     22  H6  UNL     1       4.712   2.390   0.823  1.00  0.00     0.210 HD
ENDBRANCH  12  21
BRANCH  13  23
HETATM   23  O7  UNL     1       3.163  -0.202   1.503  1.00  0.00    -0.390 OA
ATOM     24  H7  UNL     1       3.636   0.282   2.170  1.00  0.00     0.210 HD
ENDBRANCH  13  23
ENDBRANCH   7   8
ENDBRANCH   6   7
BRANCH   1  25
HETATM   25  O3  UNL     1      -2.021   0.740  -0.325  1.00  0.00    -0.353 OA
BRANCH  25  26
HETATM   26  C5  UNL     1      -2.245   0.959   1.008  1.00  0.00     0.263 C 
HETATM   27  C4  UNL     1      -3.608   1.540   1.314  1.00  0.00     0.095 C 
HETATM   28  C3  UNL     1      -4.439   0.261   1.620  1.00  0.00     0.160 C 
HETATM   29  C21 UNL     1      -3.491  -0.818   1.251  1.00  0.00     0.177 C 
HETATM   30  O8  UNL     1      -2.238  -0.275   1.656  1.00  0.00    -0.351 OA
BRANCH  28  31
HETATM   31  O2  UNL     1      -5.545   0.269   0.765  1.00  0.00    -0.354 OA
BRANCH  31  32
HETATM   32  C2  UNL     1      -6.758   0.364   1.424  1.00  0.00     0.253 C 
HETATM   33  C1  UNL     1      -7.723  -0.646   0.917  1.00  0.00     0.070 C 
BRANCH  32  34
HETATM   34  O1  UNL     1      -7.265   1.645   1.040  1.00  0.00    -0.372 OA
ATOM     35  H1  UNL     1      -6.648   2.291   1.364  1.00  0.00     0.212 HD
ENDBRANCH  32  34
ENDBRANCH  31  32
ENDBRANCH  28  31
BRANCH  29  36
HETATM   36  C22 UNL     1      -3.704  -2.132   1.980  1.00  0.00     0.198 C 
BRANCH  36  37
HETATM   37  O9  UNL     1      -4.897  -2.709   1.594  1.00  0.00    -0.398 OA
ATOM     38  H9  UNL     1      -5.030  -3.531   2.050  1.00  0.00     0.209 HD
ENDBRANCH  36  37
ENDBRANCH  29  36
ENDBRANCH  25  26
ENDBRANCH   1  25
TORSDOF 16
