REMARK  14 active torsions:
REMARK  status: ('A' for Active; 'I' for Inactive)
REMARK    1  A    between atoms: C2_2  and  C3_4 
REMARK    2  A    between atoms: C3_4  and  N1_5 
REMARK    3  A    between atoms: C7_13  and  N3_14 
REMARK    4  A    between atoms: N5_20  and  C9_21 
REMARK    5  A    between atoms: C9_21  and  C10_22 
REMARK    6  A    between atoms: C10_22  and  N6_23 
REMARK    7  A    between atoms: C11_27  and  C12_28 
REMARK    8  A    between atoms: C12_28  and  N9_29 
REMARK       I    between atoms: N9_29  and  C13_31 
REMARK    9  A    between atoms: C13_31  and  C14_33 
REMARK   10  A    between atoms: C18_39  and  N11_40 
REMARK   11  A    between atoms: C19_45  and  N13_46 
REMARK   12  A    between atoms: C21_48  and  C22_49 
REMARK   13  A    between atoms: C22_49  and  O5_50 
REMARK   14  A    between atoms: C22_49  and  O6_52 
ROOT
HETATM    1  N6  UNL     1      -0.315   1.132  -0.575  1.00  0.00    -0.257 N 
HETATM    2  N7  UNL     1       0.494   2.202  -0.492  1.00  0.00    -0.018 NA
HETATM    3  N8  UNL     1       1.748   1.817  -0.318  1.00  0.00    -0.283 N 
ATOM      4  H8  UNL     1       2.552   2.437  -0.224  1.00  0.00     0.184 HD
HETATM    5  C11 UNL     1       1.787   0.479  -0.285  1.00  0.00     0.086 A 
HETATM    6  C19 UNL     1       0.462   0.072  -0.451  1.00  0.00     0.145 A 
ENDROOT
BRANCH   1   7
HETATM    7  C10 UNL     1      -1.721   1.184  -0.756  1.00  0.00     0.170 C 
BRANCH   7   8
HETATM    8  C9  UNL     1      -2.525   1.276   0.529  1.00  0.00     0.172 C 
BRANCH   8   9
HETATM    9  N5  UNL     1      -3.941   1.332   0.241  1.00  0.00    -0.268 N 
HETATM   10  N1  UNL     1      -4.684   2.379   0.014  1.00  0.00    -0.246 N 
HETATM   11  C4  UNL     1      -5.965   2.013  -0.234  1.00  0.00     0.282 A 
HETATM   12  O2  UNL     1      -6.950   2.746  -0.492  1.00  0.00    -0.265 OA
HETATM   13  C5  UNL     1      -6.026   0.641  -0.156  1.00  0.00     0.148 A 
HETATM   14  C6  UNL     1      -7.051  -0.286  -0.310  1.00  0.00     0.279 A 
HETATM   15  C8  UNL     1      -4.741   0.245   0.144  1.00  0.00     0.159 A 
HETATM   16  O3  UNL     1      -8.218   0.133  -0.587  1.00  0.00    -0.266 OA
HETATM   17  N2  UNL     1      -6.770  -1.577  -0.163  1.00  0.00    -0.155 N 
HETATM   18  C7  UNL     1      -5.517  -1.957   0.129  1.00  0.00     0.680 A 
ATOM     19  H2  UNL     1      -7.505  -2.276  -0.272  1.00  0.00     0.187 HD
HETATM   20  N4  UNL     1      -4.508  -1.057   0.282  1.00  0.00    -0.174 N 
ATOM     21  H4  UNL     1      -3.567  -1.383   0.504  1.00  0.00     0.186 HD
BRANCH  10  22
HETATM   22  C3  UNL     1      -4.278   3.760  -0.001  1.00  0.00     0.230 C 
BRANCH  22  23
HETATM   23  C2  UNL     1      -4.457   4.411   1.311  1.00  0.00     0.142 C 
HETATM   24  C1  UNL     1      -5.732   5.067   1.725  1.00  0.00     0.093 C 
HETATM   25  O1  UNL     1      -3.535   4.422   2.100  1.00  0.00    -0.297 OA
ENDBRANCH  22  23
ENDBRANCH  10  22
BRANCH  18  26
HETATM   26  N3  UNL     1      -5.278  -3.217   0.265  1.00  0.00    -0.234 N 
ATOM     27  H32 UNL     1      -6.034  -3.892   0.150  1.00  0.00     0.174 HD
ATOM     28  H31 UNL     1      -4.325  -3.506   0.487  1.00  0.00     0.174 HD
ENDBRANCH  18  26
ENDBRANCH   8   9
ENDBRANCH   7   8
ENDBRANCH   1   7
BRANCH   6  29
HETATM   29  N13 UNL     1       0.121  -1.304  -0.471  1.00  0.00    -0.345 N 
HETATM   30  C20 UNL     1      -0.178  -1.961   0.768  1.00  0.00     0.162 C 
HETATM   31  C21 UNL     1      -0.868  -3.266   0.659  1.00  0.00     0.197 C 
HETATM   32  O7  UNL     1      -1.187  -3.739  -0.567  1.00  0.00    -0.347 OA
HETATM   33  C23 UNL     1      -1.333  -2.794  -1.536  1.00  0.00     0.291 C 
HETATM   34  O8  UNL     1      -1.470  -3.282  -2.821  1.00  0.00    -0.351 OA
HETATM   35  C26 UNL     1       0.050  -2.118  -1.651  1.00  0.00     0.213 C 
HETATM   36  C24 UNL     1      -1.139  -2.200  -3.672  1.00  0.00     0.251 C 
HETATM   37  C25 UNL     1      -0.106  -1.429  -2.922  1.00  0.00     0.177 C 
HETATM   38  O9  UNL     1       0.450  -0.452  -3.323  1.00  0.00    -0.293 OA
BRANCH  31  39
HETATM   39  C22 UNL     1      -0.088  -4.378   1.382  1.00  0.00     0.284 C 
BRANCH  39  40
HETATM   40  O5  UNL     1       1.069  -4.699   0.670  1.00  0.00    -0.369 OA
ATOM     41  H5  UNL     1       1.551  -5.386   1.116  1.00  0.00     0.212 HD
ENDBRANCH  39  40
BRANCH  39  42
HETATM   42  O6  UNL     1      -0.876  -5.514   1.549  1.00  0.00    -0.369 OA
ATOM     43  H6  UNL     1      -0.394  -6.201   1.995  1.00  0.00     0.212 HD
ENDBRANCH  39  42
ENDBRANCH  31  39
ENDBRANCH   6  29
BRANCH   5  44
HETATM   44  C12 UNL     1       2.976  -0.368  -0.114  1.00  0.00     0.185 C 
BRANCH  44  45
HETATM   45  N9  UNL     1       4.188   0.450   0.033  1.00  0.00    -0.350 N 
HETATM   46  C13 UNL     1       5.456  -0.117   0.205  1.00  0.00     0.269 C 
HETATM   47  O4  UNL     1       5.610  -1.356   0.239  1.00  0.00    -0.266 OA
ATOM     48  H9  UNL     1       4.102   1.466   0.009  1.00  0.00     0.163 HD
BRANCH  46  49
HETATM   49  C14 UNL     1       6.619   0.743   0.346  1.00  0.00     0.118 A 
HETATM   50  C15 UNL     1       7.895   0.202   0.510  1.00  0.00     0.061 A 
HETATM   51  C16 UNL     1       8.955   1.059   0.641  1.00  0.00     0.025 A 
HETATM   52  C17 UNL     1      10.336   0.505   0.818  1.00  0.00     0.068 C 
HETATM   53  N10 UNL     1       8.753   2.384   0.610  1.00  0.00    -0.196 N 
HETATM   54  C18 UNL     1       7.511   2.897   0.451  1.00  0.00     0.676 A 
ATOM     55  H10 UNL     1       9.548   3.015   0.708  1.00  0.00     0.184 HD
HETATM   56  N12 UNL     1       6.468   2.067   0.322  1.00  0.00    -0.186 N 
ATOM     57  H12 UNL     1       5.534   2.458   0.202  1.00  0.00     0.184 HD
BRANCH  54  58
HETATM   58  N11 UNL     1       7.316   4.172   0.423  1.00  0.00    -0.234 N 
ATOM     59 2H11 UNL     1       8.110   4.804   0.521  1.00  0.00     0.174 HD
ATOM     60 1H11 UNL     1       6.380   4.559   0.303  1.00  0.00     0.174 HD
ENDBRANCH  54  58
ENDBRANCH  46  49
ENDBRANCH  44  45
ENDBRANCH   5  44
TORSDOF 14
