REMARK  18 active torsions:
REMARK  status: ('A' for Active; 'I' for Inactive)
REMARK    1  A    between atoms: C2_8  and  S1_9 
REMARK    2  A    between atoms: S1_9  and  C3_10 
REMARK    3  A    between atoms: C3_10  and  C4_11 
REMARK    4  A    between atoms: C4_11  and  N5_12 
REMARK    5  A    between atoms: C5_19  and  S2_20 
REMARK    6  A    between atoms: S2_20  and  C6_21 
REMARK    7  A    between atoms: C6_21  and  C7_22 
REMARK    8  A    between atoms: C8_23  and  C9_24 
REMARK    9  A    between atoms: C11_30  and  N10_31 
REMARK   10  A    between atoms: N10_31  and  C12_33 
REMARK   11  A    between atoms: C12_33  and  C13_38 
REMARK   12  A    between atoms: N11_34  and  O4_36 
REMARK   13  A    between atoms: C13_38  and  N14_48 
REMARK       I    between atoms: N12_39  and  C14_41 
REMARK   14  A    between atoms: C14_41  and  C15_43 
REMARK   15  A    between atoms: C15_43  and  N13_44 
REMARK   16  A    between atoms: N14_48  and  C16_50 
REMARK   17  A    between atoms: C16_50  and  N15_52 
REMARK   18  A    between atoms: N15_52  and  N16_54 
ROOT
HETATM    1  C7  UNL     1       1.761   0.250  -0.667  1.00  0.00    -0.027 C 
HETATM    2  C8  UNL     1       0.827   1.102  -1.042  1.00  0.00     0.119 C 
HETATM    3  N9  UNL     1      -0.518   0.923  -0.559  1.00  0.00    -0.293 N 
HETATM    4  C10 UNL     1      -1.886   0.870  -0.835  1.00  0.00     0.251 C 
HETATM    5  O3  UNL     1      -2.727   1.473  -1.579  1.00  0.00    -0.271 OA
HETATM    6  C11 UNL     1      -1.915  -0.251   0.175  1.00  0.00     0.209 C 
HETATM    7  C17 UNL     1      -0.864   0.643   0.829  1.00  0.00     0.187 C 
HETATM    8  S4  UNL     1       0.483  -0.249   1.632  1.00  0.00    -0.136 SA
HETATM    9  C18 UNL     1       1.436  -0.943   0.212  1.00  0.00     0.113 C 
ENDROOT
BRANCH   6  10
HETATM   10  N10 UNL     1      -3.141  -0.380   0.852  1.00  0.00    -0.356 N 
ATOM     11  H10 UNL     1      -3.160  -0.298   1.869  1.00  0.00     0.162 HD
BRANCH  10  12
HETATM   12  C12 UNL     1      -4.348  -0.621   0.155  1.00  0.00     0.167 C 
HETATM   13  N11 UNL     1      -4.397  -1.569  -0.764  1.00  0.00    -0.250 N 
ATOM     14  H11 UNL     1      -5.283  -1.716  -1.248  1.00  0.00     0.196 HD
BRANCH  13  15
HETATM   15  O4  UNL     1      -3.348  -2.361  -1.108  1.00  0.00    -0.288 OA
ATOM     16  H4  UNL     1      -3.383  -3.043  -1.769  1.00  0.00     0.244 HD
ENDBRANCH  13  15
BRANCH  12  17
HETATM   17  C13 UNL     1      -5.579   0.113   0.373  1.00  0.00     0.156 C 
HETATM   18  N12 UNL     1      -5.751   1.016   1.161  1.00  0.00    -0.308 N 
HETATM   19  C14 UNL     1      -5.225   1.810   2.118  1.00  0.00     0.248 C 
ATOM     20  H12 UNL     1      -6.724   1.305   1.055  1.00  0.00     0.170 HD
HETATM   21  O5  UNL     1      -4.803   1.428   3.275  1.00  0.00    -0.271 OA
BRANCH  19  22
HETATM   22  C15 UNL     1      -5.080   3.303   1.906  1.00  0.00     0.332 C 
BRANCH  22  23
HETATM   23  N13 UNL     1      -5.600   3.583   0.589  1.00  0.00    -0.071 N 
ATOM     24 3H13 UNL     1      -5.161   3.027  -0.145  1.00  0.00     0.274 HD
ATOM     25 2H13 UNL     1      -6.553   3.246   0.451  1.00  0.00     0.274 HD
ATOM     26 1H13 UNL     1      -5.502   4.588   0.446  1.00  0.00     0.274 HD
ENDBRANCH  22  23
ENDBRANCH  19  22
BRANCH  17  27
HETATM   27  N14 UNL     1      -6.694  -0.323  -0.449  1.00  0.00    -0.315 N 
ATOM     28  H14 UNL     1      -6.922   0.163  -1.316  1.00  0.00     0.170 HD
BRANCH  27  29
HETATM   29  C16 UNL     1      -7.448  -1.422  -0.029  1.00  0.00     0.191 C 
HETATM   30  S3  UNL     1      -7.082  -2.201   1.358  1.00  0.00    -0.039 SA
BRANCH  29  31
HETATM   31  N15 UNL     1      -8.563  -1.922  -0.771  1.00  0.00    -0.283 N 
ATOM     32  H15 UNL     1      -8.817  -1.455  -1.641  1.00  0.00     0.188 HD
BRANCH  31  33
HETATM   33  N16 UNL     1      -9.308  -3.004  -0.365  1.00  0.00    -0.343 N 
ATOM     34 2H16 UNL     1      -9.040  -3.459   0.507  1.00  0.00     0.176 HD
ATOM     35 1H16 UNL     1     -10.104  -3.361  -0.894  1.00  0.00     0.176 HD
ENDBRANCH  31  33
ENDBRANCH  29  31
ENDBRANCH  27  29
ENDBRANCH  17  27
ENDBRANCH  12  17
ENDBRANCH  10  12
ENDBRANCH   6  10
BRANCH   2  36
HETATM   36  C9  UNL     1       1.083   2.231  -1.894  1.00  0.00     0.227 C 
HETATM   37  O1  UNL     1       0.071   2.990  -2.190  1.00  0.00    -0.643 OA
HETATM   38  O2  UNL     1       2.259   2.651  -2.467  1.00  0.00    -0.643 OA
ENDBRANCH   2  36
BRANCH   1  39
HETATM   39  C6  UNL     1       3.157   0.361  -1.066  1.00  0.00     0.120 C 
BRANCH  39  40
HETATM   40  S2  UNL     1       3.777  -1.000  -2.066  1.00  0.00    -0.087 SA
BRANCH  40  41
HETATM   41  C5  UNL     1       3.860  -2.564  -1.277  1.00  0.00     0.178 A 
HETATM   42  N5  UNL     1       4.856  -3.076  -0.563  1.00  0.00    -0.253 N 
HETATM   43  N6  UNL     1       4.508  -4.307  -0.186  1.00  0.00    -0.224 N 
HETATM   44  N7  UNL     1       3.315  -4.581  -0.647  1.00  0.00    -0.226 N 
ATOM     45  H6  UNL     1       5.082  -4.937   0.374  1.00  0.00     0.210 HD
HETATM   46  N8  UNL     1       2.898  -3.531  -1.317  1.00  0.00    -0.263 N 
ATOM     47  H7  UNL     1       2.802  -5.452  -0.511  1.00  0.00     0.210 HD
ATOM     48  H8  UNL     1       1.999  -3.451  -1.791  1.00  0.00     0.190 HD
BRANCH  42  49
HETATM   49  C4  UNL     1       6.107  -2.470  -0.215  1.00  0.00     0.163 C 
BRANCH  49  50
HETATM   50  C3  UNL     1       6.037  -1.752   1.114  1.00  0.00     0.104 C 
BRANCH  50  51
HETATM   51  S1  UNL     1       7.626  -1.007   1.552  1.00  0.00    -0.090 SA
BRANCH  51  52
HETATM   52  C2  UNL     1       8.030   0.305   0.413  1.00  0.00     0.175 A 
HETATM   53  N1  UNL     1       7.731   1.610   0.511  1.00  0.00    -0.257 N 
HETATM   54  C1  UNL     1       7.005   2.269   1.586  1.00  0.00     0.177 C 
HETATM   55  N2  UNL     1       8.240   2.181  -0.581  1.00  0.00    -0.003 NA
HETATM   56  N3  UNL     1       8.837   1.259  -1.331  1.00  0.00    -0.224 N 
HETATM   57  N4  UNL     1       8.712   0.100  -0.727  1.00  0.00    -0.266 N 
ATOM     58  H3  UNL     1       9.309   1.424  -2.220  1.00  0.00     0.205 HD
ATOM     59  H4  UNL     1       9.068  -0.795  -1.062  1.00  0.00     0.190 HD
ENDBRANCH  51  52
ENDBRANCH  50  51
ENDBRANCH  49  50
ENDBRANCH  42  49
ENDBRANCH  40  41
ENDBRANCH  39  40
ENDBRANCH   1  39
TORSDOF 18
