REMARK  10 active torsions:
REMARK  status: ('A' for Active; 'I' for Inactive)
REMARK    1  A    between atoms: C2_2  and  C3_3 
REMARK    2  A    between atoms: C4_7  and  C5_8 
REMARK    3  A    between atoms: C5_8  and  C6_9 
REMARK    4  A    between atoms: C6_9  and  C7_10 
REMARK       I    between atoms: C7_10  and  N2_12 
REMARK    5  A    between atoms: N2_12  and  C8_14 
REMARK    6  A    between atoms: C8_14  and  C9_15 
REMARK    7  A    between atoms: C9_15  and  C10_16 
REMARK    8  A    between atoms: C10_16  and  C11_17 
REMARK    9  A    between atoms: C11_17  and  N3_18 
REMARK   10  A    between atoms: C17_27  and  C18_28 
ROOT
HETATM    1  C7  UNL     1      -0.164  -0.455   0.658  1.00  0.00     0.217 C 
HETATM    2  O2  UNL     1      -0.422  -1.335  -0.226  1.00  0.00    -0.274 OA
HETATM    3  N2  UNL     1       1.134  -0.435   1.191  1.00  0.00    -0.361 N 
ATOM      4  H2  UNL     1       1.353   0.264   1.901  1.00  0.00     0.162 HD
ENDROOT
BRANCH   1   5
HETATM    5  C6  UNL     1      -1.245   0.457   1.043  1.00  0.00     0.109 C 
BRANCH   5   6
HETATM    6  C5  UNL     1      -2.553   0.106   0.310  1.00  0.00     0.077 C 
BRANCH   6   7
HETATM    7  C4  UNL     1      -3.575   1.063   0.752  1.00  0.00     0.085 A 
HETATM    8  O1  UNL     1      -3.426   2.049   1.635  1.00  0.00    -0.242 OA
HETATM    9  N1  UNL     1      -4.536   2.694   1.782  1.00  0.00    -0.265 N 
HETATM   10  C3  UNL     1      -5.465   2.138   0.984  1.00  0.00     0.041 A 
ATOM     11  H1  UNL     1      -4.683   3.492   2.400  1.00  0.00     0.194 HD
HETATM   12  C17 UNL     1      -4.881   1.087   0.307  1.00  0.00     0.002 A 
BRANCH  10  13
HETATM   13  C2  UNL     1      -6.875   2.629   0.867  1.00  0.00     0.055 C 
HETATM   14  C1  UNL     1      -7.016   3.411  -0.401  1.00  0.00     0.011 C 
ENDBRANCH  10  13
BRANCH  12  15
HETATM   15  C18 UNL     1      -5.591   0.239  -0.626  1.00  0.00     0.023 C 
HETATM   16  C19 UNL     1      -4.756  -0.617  -1.545  1.00  0.00     0.009 C 
HETATM   17  C20 UNL     1      -5.928  -1.301  -2.295  1.00  0.00     0.001 C 
HETATM   18  C21 UNL     1      -6.864  -1.677  -1.138  1.00  0.00     0.001 C 
HETATM   19  C22 UNL     1      -6.408  -0.854   0.047  1.00  0.00     0.009 C 
ENDBRANCH  12  15
ENDBRANCH   6   7
ENDBRANCH   5   6
ENDBRANCH   1   5
BRANCH   3  20
HETATM   20  C8  UNL     1       2.181  -1.355   0.786  1.00  0.00     0.123 C 
BRANCH  20  21
HETATM   21  C9  UNL     1       3.425  -1.026   1.588  1.00  0.00     0.025 C 
BRANCH  21  22
HETATM   22  C10 UNL     1       4.601  -1.859   1.310  1.00  0.00     0.046 C 
BRANCH  22  23
HETATM   23  C11 UNL     1       5.250  -1.852  -0.015  1.00  0.00     0.064 C 
BRANCH  23  24
HETATM   24  N3  UNL     1       5.878  -0.711  -0.486  1.00  0.00    -0.359 N 
HETATM   25  C12 UNL     1       5.174   0.418  -0.857  1.00  0.00     0.164 C 
HETATM   26  C13 UNL     1       5.617   1.653  -0.102  1.00  0.00     0.256 C 
HETATM   27  O3  UNL     1       4.788   2.441   0.403  1.00  0.00    -0.267 OA
HETATM   28  N4  UNL     1       7.020   1.843  -0.014  1.00  0.00    -0.354 N 
HETATM   29  C14 UNL     1       7.860   0.767  -0.495  1.00  0.00     0.148 C 
ATOM     30  H4  UNL     1       7.419   2.699   0.371  1.00  0.00     0.162 HD
HETATM   31  C15 UNL     1       7.280  -0.586  -0.224  1.00  0.00     0.102 C 
HETATM   32  C16 UNL     1       8.133  -1.617  -0.901  1.00  0.00     0.034 C 
ENDBRANCH  23  24
ENDBRANCH  22  23
ENDBRANCH  21  22
ENDBRANCH  20  21
ENDBRANCH   3  20
TORSDOF 10
