REMARK  7 active torsions:
REMARK  status: ('A' for Active; 'I' for Inactive)
REMARK    1  A    between atoms: C4_7  and  N3_8 
REMARK    2  A    between atoms: C5_13  and  S1_14 
REMARK    3  A    between atoms: S1_14  and  S2_15 
REMARK    4  A    between atoms: S2_15  and  C6_16 
REMARK    5  A    between atoms: C7_21  and  N7_22 
REMARK       I    between atoms: N8_24  and  C8_26 
REMARK       I    between atoms: C8_26  and  N9_28 
REMARK    6  A    between atoms: N9_28  and  N10_29 
REMARK    7  A    between atoms: N11_32  and  N12_33 
ROOT
HETATM    1  C6  UNL     1       0.720  -0.559   0.411  1.00  0.00     0.209 A 
HETATM    2  N5  UNL     1       0.550  -1.937   0.208  1.00  0.00    -0.263 N 
ATOM      3  H5  UNL     1      -0.344  -2.426   0.241  1.00  0.00     0.189 HD
HETATM    4  N6  UNL     1       1.680  -2.491  -0.024  1.00  0.00    -0.127 N 
ATOM      5  H6  UNL     1       1.808  -3.485  -0.213  1.00  0.00     0.206 HD
HETATM    6  C7  UNL     1       2.650  -1.613   0.014  1.00  0.00     0.734 A 
HETATM    7  N11 UNL     1       2.084  -0.412   0.241  1.00  0.00    -0.065 N 
ENDROOT
BRANCH   1   8
HETATM    8  S2  UNL     1      -0.179   0.706   1.046  1.00  0.00    -0.011 SA
BRANCH   8   9
HETATM    9  S1  UNL     1      -1.509   1.765  -0.162  1.00  0.00    -0.029 SA
BRANCH   9  10
HETATM   10  C5  UNL     1      -3.066   1.217  -0.236  1.00  0.00     0.120 A 
HETATM   11  C2  UNL     1      -3.657   0.233   0.663  1.00  0.00     0.057 A 
HETATM   12  C1  UNL     1      -2.965  -0.062   1.914  1.00  0.00     0.072 C 
HETATM   13  N1  UNL     1      -4.844  -0.107   0.286  1.00  0.00    -0.286 N 
HETATM   14  N2  UNL     1      -5.522   0.226  -0.651  1.00  0.00    -0.128 N 
ATOM     15  H1  UNL     1      -5.293  -0.788   0.899  1.00  0.00     0.187 HD
HETATM   16  C3  UNL     1      -6.759  -0.430  -1.149  1.00  0.00     0.197 C 
HETATM   17  C4  UNL     1      -5.028   1.193  -1.524  1.00  0.00     0.693 A 
HETATM   18  N4  UNL     1      -3.813   1.610  -1.219  1.00  0.00    -0.182 N 
ATOM     19  H4  UNL     1      -3.416   2.325  -1.828  1.00  0.00     0.185 HD
BRANCH  17  20
HETATM   20  N3  UNL     1      -5.877   1.580  -2.423  1.00  0.00    -0.233 N 
ATOM     21  H32 UNL     1      -6.816   1.258  -2.659  1.00  0.00     0.174 HD
ATOM     22  H31 UNL     1      -5.515   2.288  -3.062  1.00  0.00     0.174 HD
ENDBRANCH  17  20
ENDBRANCH   9  10
ENDBRANCH   8   9
ENDBRANCH   1   8
BRANCH   7  23
HETATM   23  N12 UNL     1       2.585   0.915   0.078  1.00  0.00    -0.322 N 
ATOM     24 2H12 UNL     1       2.156   1.824   0.250  1.00  0.00     0.178 HD
ATOM     25 1H12 UNL     1       3.591   1.023  -0.047  1.00  0.00     0.178 HD
ENDBRANCH   7  23
BRANCH   6  26
HETATM   26  N7  UNL     1       3.985  -1.849  -0.036  1.00  0.00    -0.124 N 
HETATM   27  N8  UNL     1       4.786  -0.865   0.025  1.00  0.00    -0.224 N 
HETATM   28  C8  UNL     1       6.427  -1.196   0.528  1.00  0.00     0.430 C 
ATOM     29  H8  UNL     1       4.484   0.080  -0.210  1.00  0.00     0.193 HD
HETATM   30  O1  UNL     1       6.249  -2.413   0.692  1.00  0.00    -0.227 OA
HETATM   31  N9  UNL     1       6.738   0.129   0.384  1.00  0.00    -0.271 NA
ATOM     32  H7  UNL     1       4.340  -2.801  -0.121  1.00  0.00     0.206 HD
BRANCH  31  33
HETATM   33  N10 UNL     1       7.057   1.270   0.278  1.00  0.00    -0.275 N 
ATOM     34 2H10 UNL     1       7.806   0.688   0.653  1.00  0.00     0.191 HD
ATOM     35 1H10 UNL     1       7.289   2.258   0.171  1.00  0.00     0.191 HD
ENDBRANCH  31  33
ENDBRANCH   6  26
TORSDOF 7
