REMARK  9 active torsions:
REMARK  status: ('A' for Active; 'I' for Inactive)
REMARK    1  A    between atoms: S1_2  and  C2_3 
REMARK    2  A    between atoms: C2_3  and  O1_4 
REMARK    3  A    between atoms: N1_6  and  O2_7 
REMARK    4  A    between atoms: C4_12  and  S2_13 
REMARK    5  A    between atoms: S2_13  and  C5_14 
REMARK    6  A    between atoms: C6_18  and  N4_19 
REMARK    7  A    between atoms: C7_21  and  C8_22 
REMARK       I    between atoms: N5_24  and  C10_25 
REMARK       I    between atoms: C10_25  and  N6_26 
REMARK       I    between atoms: C10_25  and  N7_30 
REMARK    8  A    between atoms: C11_34  and  N8_35 
REMARK    9  A    between atoms: N10_41  and  O4_42 
ROOT
HETATM    1  C2  UNL     1      -3.994  -1.141   0.753  1.00  0.00     0.320 C 
HETATM    2  N1  UNL     1      -4.457  -0.433  -0.422  1.00  0.00    -0.175 N 
HETATM    3  C3  UNL     1      -3.351   0.373  -0.821  1.00  0.00     0.169 A 
HETATM    4  N2  UNL     1      -3.345   1.473  -1.588  1.00  0.00    -0.319 N 
ATOM      5  H2  UNL     1      -4.207   1.854  -1.978  1.00  0.00     0.169 HD
HETATM    6  C4  UNL     1      -2.156   2.052  -1.821  1.00  0.00     0.154 A 
HETATM    7  N3  UNL     1      -1.035   1.568  -1.323  1.00  0.00    -0.321 N 
ATOM      8  H3  UNL     1      -0.164   2.053  -1.537  1.00  0.00     0.169 HD
HETATM    9  C6  UNL     1      -0.976   0.437  -0.525  1.00  0.00     0.140 A 
HETATM   10  C12 UNL     1      -2.194  -0.155  -0.287  1.00  0.00     0.153 A 
HETATM   11  N10 UNL     1      -2.582  -1.306   0.453  1.00  0.00    -0.187 N 
ENDROOT
BRANCH   9  12
HETATM   12  N4  UNL     1       0.093   0.056  -0.102  1.00  0.00    -0.348 N 
HETATM   13  C7  UNL     1       0.845  -0.820   0.621  1.00  0.00     0.121 C 
ATOM     14  H4  UNL     1       0.767   0.726  -0.472  1.00  0.00     0.167 HD
BRANCH  13  15
HETATM   15  C8  UNL     1       2.309  -0.424   0.715  1.00  0.00     0.080 A 
HETATM   16  C9  UNL     1       3.285  -0.793  -0.175  1.00  0.00     0.144 A 
HETATM   17  N5  UNL     1       4.424  -0.229   0.281  1.00  0.00    -0.137 N 
HETATM   18  C10 UNL     1       5.698  -0.363  -0.360  1.00  0.00     0.500 C 
HETATM   19  C11 UNL     1       4.183   0.466   1.409  1.00  0.00     0.681 A 
HETATM   20  N6  UNL     1       5.675  -1.434  -1.347  1.00  0.00    -0.032 N 
HETATM   21  N7  UNL     1       6.080   0.848  -1.089  1.00  0.00    -0.032 N 
ATOM     22  H63 UNL     1       5.365  -2.316  -0.939  1.00  0.00     0.279 HD
ATOM     23  H62 UNL     1       4.924  -1.305  -2.025  1.00  0.00     0.279 HD
ATOM     24  H61 UNL     1       6.582  -1.529  -1.803  1.00  0.00     0.279 HD
ATOM     25  H73 UNL     1       5.358   1.120  -1.756  1.00  0.00     0.279 HD
ATOM     26  H72 UNL     1       6.057   1.667  -0.482  1.00  0.00     0.279 HD
ATOM     27  H71 UNL     1       6.987   0.753  -1.545  1.00  0.00     0.279 HD
HETATM   28  N9  UNL     1       2.858   0.339   1.673  1.00  0.00    -0.189 N 
ATOM     29  H9  UNL     1       2.364   0.752   2.464  1.00  0.00     0.184 HD
BRANCH  19  30
HETATM   30  N8  UNL     1       5.021   1.136   2.126  1.00  0.00    -0.234 N 
ATOM     31  H82 UNL     1       6.017   1.231   1.928  1.00  0.00     0.174 HD
ATOM     32  H81 UNL     1       4.838   1.662   2.980  1.00  0.00     0.174 HD
ENDBRANCH  19  30
ENDBRANCH  13  15
ENDBRANCH   9  12
BRANCH   6  33
HETATM   33  S2  UNL     1      -2.136   3.530  -2.851  1.00  0.00    -0.025 SA
BRANCH  33  34
HETATM   34  C5  UNL     1      -3.780   3.946  -3.376  1.00  0.00     0.312 C 
HETATM   35  O3  UNL     1      -4.129   4.048  -4.528  1.00  0.00    -0.295 OA
ENDBRANCH  33  34
ENDBRANCH   6  33
BRANCH  11  36
HETATM   36  O4  UNL     1      -1.818  -2.361   0.817  1.00  0.00    -0.282 OA
ATOM     37  H4  UNL     1      -0.895  -2.469   0.621  1.00  0.00     0.245 HD
ENDBRANCH  11  36
BRANCH   2  38
HETATM   38  O2  UNL     1      -5.674  -0.549  -0.972  1.00  0.00    -0.281 OA
ATOM     39  H2  UNL     1      -5.978  -0.084  -1.743  1.00  0.00     0.245 HD
ENDBRANCH   2  38
BRANCH   1  40
HETATM   40  S1  UNL     1      -4.209  -0.083   2.199  1.00  0.00    -0.086 SA
HETATM   41  C1  UNL     1      -3.327  -0.862   3.589  1.00  0.00     0.097 C 
ENDBRANCH   1  40
BRANCH   1  42
HETATM   42  O1  UNL     1      -4.621  -2.376   0.893  1.00  0.00    -0.342 OA
ATOM     43  H1  UNL     1      -4.508  -2.933   0.132  1.00  0.00     0.215 HD
ENDBRANCH   1  42
TORSDOF 9
