REMARK  16 active torsions:
REMARK  status: ('A' for Active; 'I' for Inactive)
REMARK    1  A    between atoms: N1_2  and  S1_4 
REMARK    2  A    between atoms: S1_4  and  N2_7 
REMARK    3  A    between atoms: C3_9  and  C4_10 
REMARK    4  A    between atoms: C4_10  and  N3_11 
REMARK    5  A    between atoms: N3_11  and  C5_13 
REMARK    6  A    between atoms: C8_20  and  C9_21 
REMARK    7  A    between atoms: C9_21  and  N6_23 
REMARK    8  A    between atoms: C11_26  and  O3_27 
REMARK    9  A    between atoms: O3_27  and  C12_28 
REMARK   10  A    between atoms: C14_30  and  O4_31 
REMARK   11  A    between atoms: C15_33  and  C16_34 
REMARK   12  A    between atoms: C16_34  and  O5_35 
REMARK   13  A    between atoms: C19_43  and  N9_44 
REMARK   14  A    between atoms: N9_44  and  C20_46 
REMARK   15  A    between atoms: C20_46  and  C21_47 
REMARK   16  A    between atoms: C21_47  and  O8_48 
ROOT
HETATM    1  N6  UNL     1      -1.152  -1.690   0.020  1.00  0.00    -0.263 N 
HETATM    2  N7  UNL     1      -1.521  -0.493  -0.326  1.00  0.00    -0.274 N 
ATOM      3  H7  UNL     1      -0.882   0.224  -0.669  1.00  0.00     0.189 HD
HETATM    4  C11 UNL     1      -2.869  -0.309  -0.175  1.00  0.00     0.179 A 
HETATM    5  C17 UNL     1      -3.334  -1.531   0.313  1.00  0.00     0.131 A 
HETATM    6  C18 UNL     1      -4.608  -1.959   0.658  1.00  0.00     0.278 A 
HETATM    7  O7  UNL     1      -5.583  -1.180   0.550  1.00  0.00    -0.266 OA
HETATM    8  N8  UNL     1      -4.731  -3.224   1.105  1.00  0.00    -0.155 N 
ATOM      9  H8  UNL     1      -5.656  -3.564   1.367  1.00  0.00     0.187 HD
HETATM   10  C19 UNL     1      -3.681  -4.054   1.219  1.00  0.00     0.682 A 
HETATM   11  N10 UNL     1      -2.463  -3.614   0.878  1.00  0.00    -0.174 N 
ATOM     12  H10 UNL     1      -1.670  -4.249   0.968  1.00  0.00     0.186 HD
HETATM   13  C22 UNL     1      -2.240  -2.351   0.416  1.00  0.00     0.158 A 
ENDROOT
BRANCH   1  14
HETATM   14  C9  UNL     1       0.185  -2.234  -0.009  1.00  0.00     0.158 C 
HETATM   15  C10 UNL     1       0.674  -2.653   1.355  1.00  0.00     0.041 C 
BRANCH  14  16
HETATM   16  C8  UNL     1       1.134  -1.302  -0.678  1.00  0.00     0.064 A 
HETATM   17  C7  UNL     1       1.595  -0.074  -0.203  1.00  0.00     0.099 A 
HETATM   18  C6  UNL     1       1.345   0.620   0.944  1.00  0.00     0.140 A 
HETATM   19  N12 UNL     1       2.441   0.472  -1.093  1.00  0.00    -0.139 N 
HETATM   20  N5  UNL     1       1.935   1.810   1.159  1.00  0.00    -0.295 N 
HETATM   21  N4  UNL     1       2.768   2.355   0.289  1.00  0.00    -0.132 N 
ATOM     22  H5  UNL     1       1.732   2.310   2.025  1.00  0.00     0.186 HD
HETATM   23  C5  UNL     1       3.021   1.681  -0.841  1.00  0.00     0.701 A 
ATOM     24  H4  UNL     1       3.204   3.259   0.472  1.00  0.00     0.205 HD
HETATM   25  C23 UNL     1       2.520  -0.392  -2.121  1.00  0.00     0.207 A 
HETATM   26  N11 UNL     1       1.737  -1.453  -1.871  1.00  0.00    -0.351 N 
ATOM     27  H11 UNL     1       1.617  -2.253  -2.492  1.00  0.00     0.166 HD
BRANCH  23  28
HETATM   28  N3  UNL     1       3.816   2.132  -1.747  1.00  0.00    -0.218 N 
ATOM     29  H3  UNL     1       3.964   1.570  -2.585  1.00  0.00     0.178 HD
BRANCH  28  30
HETATM   30  C4  UNL     1       4.508   3.393  -1.636  1.00  0.00     0.198 C 
BRANCH  30  31
HETATM   31  C3  UNL     1       5.745   3.184  -0.855  1.00  0.00     0.063 A 
HETATM   32  C2  UNL     1       6.258   1.964  -0.481  1.00  0.00     0.160 A 
HETATM   33  N2  UNL     1       7.383   2.161   0.216  1.00  0.00    -0.159 N 
HETATM   34  N14 UNL     1       7.568   3.480   0.275  1.00  0.00    -0.225 N 
HETATM   35  N13 UNL     1       6.599   4.103  -0.358  1.00  0.00    -0.286 N 
ATOM     36  H14 UNL     1       8.349   3.939   0.744  1.00  0.00     0.209 HD
ATOM     37  H13 UNL     1       6.508   5.114  -0.457  1.00  0.00     0.188 HD
BRANCH  33  38
HETATM   38  S1  UNL     1       8.365   0.922   0.884  1.00  0.00     0.339 S 
HETATM   39  O1  UNL     1       8.467   1.077   2.378  1.00  0.00    -0.181 OA
HETATM   40  O2  UNL     1       7.777  -0.399   0.565  1.00  0.00    -0.181 OA
BRANCH  38  41
HETATM   41  N1  UNL     1       9.924   1.039   0.144  1.00  0.00    -0.305 N 
HETATM   42  C1  UNL     1      10.023   0.263  -1.055  1.00  0.00     0.161 C 
ATOM     43  H1  UNL     1      10.689   1.599   0.520  1.00  0.00     0.173 HD
ENDBRANCH  38  41
ENDBRANCH  33  38
ENDBRANCH  30  31
ENDBRANCH  28  30
ENDBRANCH  23  28
ENDBRANCH  14  16
ENDBRANCH   1  14
BRANCH   4  44
HETATM   44  O3  UNL     1      -3.599   0.747  -0.416  1.00  0.00    -0.302 OA
BRANCH  44  45
HETATM   45  C12 UNL     1      -4.453   1.695  -0.600  1.00  0.00     0.271 C 
HETATM   46  C13 UNL     1      -4.557   2.239  -2.050  1.00  0.00     0.095 C 
HETATM   47  C14 UNL     1      -5.388   3.491  -1.799  1.00  0.00     0.154 C 
HETATM   48  C15 UNL     1      -5.048   3.828  -0.377  1.00  0.00     0.177 C 
HETATM   49  O6  UNL     1      -4.055   2.931   0.012  1.00  0.00    -0.351 OA
BRANCH  47  50
HETATM   50  O4  UNL     1      -6.740   3.091  -1.895  1.00  0.00    -0.393 OA
ATOM     51  H4  UNL     1      -7.258   3.872  -1.738  1.00  0.00     0.210 HD
ENDBRANCH  47  50
BRANCH  48  52
HETATM   52  C16 UNL     1      -4.548   5.253  -0.236  1.00  0.00     0.198 C 
BRANCH  52  53
HETATM   53  O5  UNL     1      -3.424   5.477  -1.032  1.00  0.00    -0.398 OA
ATOM     54  H5  UNL     1      -3.111   6.370  -0.944  1.00  0.00     0.209 HD
ENDBRANCH  52  53
ENDBRANCH  48  52
ENDBRANCH  44  45
ENDBRANCH   4  44
BRANCH  10  55
HETATM   55  N9  UNL     1      -3.823  -5.243   1.643  1.00  0.00    -0.224 N 
ATOM     56  H9  UNL     1      -3.012  -5.857   1.722  1.00  0.00     0.177 HD
BRANCH  55  57
HETATM   57  C20 UNL     1      -5.127  -5.722   2.011  1.00  0.00     0.164 C 
BRANCH  57  58
HETATM   58  C21 UNL     1      -5.058  -7.071   2.707  1.00  0.00     0.184 C 
BRANCH  58  59
HETATM   59  O8  UNL     1      -4.492  -8.050   1.925  1.00  0.00    -0.399 OA
ATOM     60  H8  UNL     1      -4.449  -8.893   2.360  1.00  0.00     0.209 HD
ENDBRANCH  58  59
ENDBRANCH  57  58
ENDBRANCH  55  57
ENDBRANCH  10  55
TORSDOF 16
