REMARK  3 active torsions:
REMARK  status: ('A' for Active; 'I' for Inactive)
REMARK    1  A    between atoms: N1_1  and  N2_4 
REMARK       I    between atoms: C1_6  and  N4_8 
REMARK    2  A    between atoms: N4_8  and  N5_10 
REMARK       I    between atoms: C2_12  and  N7_14 
REMARK    3  A    between atoms: N7_14  and  N8_16 
ROOT
HETATM    1  N2  UNL     1       2.685   0.306   0.332  1.00  0.00    -0.279 N 
ATOM      2  H2  UNL     1       3.638   0.615   0.142  1.00  0.00     0.189 HD
HETATM    3  C1  UNL     1       2.043  -0.209  -0.655  1.00  0.00     0.221 C 
HETATM    4  N3  UNL     1       2.762  -0.279  -1.898  1.00  0.00    -0.061 NA
HETATM    5  N4  UNL     1       0.715  -0.685  -0.560  1.00  0.00    -0.270 N 
ATOM      6  H4  UNL     1       0.542  -1.674  -0.738  1.00  0.00     0.189 HD
ENDROOT
BRANCH   5   7
HETATM    7  N5  UNL     1      -0.367   0.125  -0.237  1.00  0.00    -0.270 N 
HETATM    8  C2  UNL     1      -1.449  -0.287   0.300  1.00  0.00     0.226 C 
HETATM    9  N6  UNL     1      -1.728  -1.612   0.654  1.00  0.00    -0.060 NA
HETATM   10  N7  UNL     1      -2.456   0.705   0.559  1.00  0.00    -0.212 N 
ATOM     11  H7  UNL     1      -2.972   0.669   1.438  1.00  0.00     0.196 HD
ATOM     12  H5  UNL     1      -0.291   1.121  -0.444  1.00  0.00     0.189 HD
BRANCH  10  13
HETATM   13  N8  UNL     1      -2.749   1.718  -0.358  1.00  0.00    -0.036 N 
HETATM   14  O1  UNL     1      -3.112   1.516  -1.515  1.00  0.00    -0.516 OA
HETATM   15  O2  UNL     1      -2.632   3.051   0.031  1.00  0.00    -0.516 OA
ENDBRANCH  10  13
ENDBRANCH   5   7
BRANCH   1  16
HETATM   16  N1  UNL     1       2.231   0.484   1.603  1.00  0.00    -0.343 N 
ATOM     17  H12 UNL     1       1.276   0.169   1.773  1.00  0.00     0.176 HD
ATOM     18  H11 UNL     1       2.741   0.893   2.386  1.00  0.00     0.176 HD
ENDBRANCH   1  16
TORSDOF 3
