REMARK  8 active torsions:
REMARK  status: ('A' for Active; 'I' for Inactive)
REMARK       I    between atoms: C1_4  and  N3_6 
REMARK    1  A    between atoms: N3_6  and  C2_8 
REMARK    2  A    between atoms: C2_8  and  C3_9 
REMARK    3  A    between atoms: C2_8  and  C4_12 
REMARK    4  A    between atoms: C4_12  and  N4_14 
REMARK    5  A    between atoms: N4_14  and  N5_16 
REMARK    6  A    between atoms: C9_25  and  O4_26 
REMARK    7  A    between atoms: O4_26  and  N8_27 
REMARK       I    between atoms: N8_27  and  C10_28 
REMARK    8  A    between atoms: C10_28  and  C11_30 
ROOT
HETATM    1  N5  UNL     1      -0.097  -0.001  -0.393  1.00  0.00    -0.247 N 
HETATM    2  C5  UNL     1       0.798   0.995  -1.152  1.00  0.00     0.426 C 
HETATM    3  N6  UNL     1       2.005   0.850  -0.375  1.00  0.00     0.149 N 
HETATM    4  C6  UNL     1       1.474   0.632   0.956  1.00  0.00     0.357 C 
HETATM    5  C7  UNL     1       0.766  -0.734   0.337  1.00  0.00     0.148 C 
HETATM    6  N7  UNL     1       1.118  -1.803   0.833  1.00  0.00    -0.251 N 
ATOM      7  H7  UNL     1       0.556  -2.652   0.778  1.00  0.00     0.196 HD
HETATM    8  O3  UNL     1       2.392  -1.749   1.497  1.00  0.00    -0.274 OA
HETATM    9  C8  UNL     1       3.321  -1.022   0.510  1.00  0.00     0.269 C 
HETATM   10  C9  UNL     1       2.759  -0.422  -0.690  1.00  0.00     0.430 C 
ENDROOT
BRANCH   1  11
HETATM   11  N4  UNL     1      -1.432  -0.114  -0.587  1.00  0.00    -0.286 N 
ATOM     12  H4  UNL     1      -1.731  -0.008  -1.556  1.00  0.00     0.188 HD
BRANCH  11  13
HETATM   13  C4  UNL     1      -2.449  -0.347   0.302  1.00  0.00     0.126 C 
HETATM   14  S1  UNL     1      -2.384  -0.972   1.717  1.00  0.00    -0.061 SA
BRANCH  13  15
HETATM   15  C2  UNL     1      -3.910   0.006  -0.291  1.00  0.00     0.248 C 
BRANCH  15  16
HETATM   16  N3  UNL     1      -4.785  -0.860   0.485  1.00  0.00    -0.345 N 
HETATM   17  C1  UNL     1      -5.963  -1.203  -0.377  1.00  0.00     0.182 C 
HETATM   18  N1  UNL     1      -5.800  -2.152  -1.214  1.00  0.00    -0.374 N 
HETATM   19  N2  UNL     1      -7.047  -0.361  -0.233  1.00  0.00    -0.064 NA
ATOM     20  H12 UNL     1      -6.601  -2.385  -1.800  1.00  0.00     0.158 HD
ATOM     21  H11 UNL     1      -4.999  -2.774  -1.320  1.00  0.00     0.158 HD
ATOM     22  H3  UNL     1      -4.626  -1.176   1.442  1.00  0.00     0.163 HD
ENDBRANCH  15  16
BRANCH  15  23
HETATM   23  C3  UNL     1      -3.941   1.370   0.289  1.00  0.00     0.203 C 
HETATM   24  O1  UNL     1      -2.794   1.916   0.656  1.00  0.00    -0.646 OA
HETATM   25  O2  UNL     1      -5.042   2.158   0.567  1.00  0.00    -0.646 OA
ENDBRANCH  15  23
ENDBRANCH  13  15
ENDBRANCH  11  13
ENDBRANCH   1  11
BRANCH  10  26
HETATM   26  O4  UNL     1       3.676   0.073  -1.581  1.00  0.00    -0.166 OA
BRANCH  26  27
HETATM   27  N8  UNL     1       4.704   0.545  -1.226  1.00  0.00    -0.227 NA
HETATM   28  C10 UNL     1       5.915   1.142  -0.818  1.00  0.00     0.419 C 
HETATM   29  O5  UNL     1       6.483   2.154  -0.870  1.00  0.00    -0.241 OA
BRANCH  28  30
HETATM   30  C11 UNL     1       6.708  -0.033  -0.157  1.00  0.00     0.287 C 
HETATM   31  O6  UNL     1       6.501  -1.108  -0.612  1.00  0.00    -0.640 OA
HETATM   32  O7  UNL     1       7.558   0.275   0.844  1.00  0.00    -0.640 OA
ENDBRANCH  28  30
ENDBRANCH  26  27
ENDBRANCH  10  26
TORSDOF 8
