REMARK  3 active torsions:
REMARK  status: ('A' for Active; 'I' for Inactive)
REMARK    1  A    between atoms: N1_1  and  C1_5 
REMARK    2  A    between atoms: C3_7  and  N2_8 
REMARK    3  A    between atoms: C4_12  and  O1_13 
ROOT
HETATM    1  C1  UNL     1       1.292  -0.322  -0.373  1.00  0.00     0.216 C 
HETATM    2  C2  UNL     1       0.115  -1.253  -0.044  1.00  0.00     0.070 C 
HETATM    3  C3  UNL     1      -0.635   0.043   0.296  1.00  0.00     0.216 C 
HETATM    4  C4  UNL     1       0.206   0.669  -0.813  1.00  0.00     0.179 C 
ENDROOT
BRANCH   1   5
HETATM    5  N1  UNL     1       1.916   0.076   0.873  1.00  0.00    -0.072 N 
ATOM      6  H13 UNL     1       1.255   0.494   1.528  1.00  0.00     0.274 HD
ATOM      7  H12 UNL     1       2.193  -0.721   1.446  1.00  0.00     0.274 HD
ATOM      8  H11 UNL     1       2.697   0.694   0.655  1.00  0.00     0.274 HD
ENDBRANCH   1   5
BRANCH   4   9
HETATM    9  O1  UNL     1       0.603   1.957  -0.604  1.00  0.00    -0.391 OA
ATOM     10  H1  UNL     1      -0.069   2.570  -0.876  1.00  0.00     0.210 HD
ENDBRANCH   4   9
BRANCH   3  11
HETATM   11  N2  UNL     1      -2.040  -0.020  -0.007  1.00  0.00    -0.072 N 
ATOM     12  H23 UNL     1      -2.190  -0.281  -0.981  1.00  0.00     0.274 HD
ATOM     13  H22 UNL     1      -2.474  -0.822   0.450  1.00  0.00     0.274 HD
ATOM     14  H21 UNL     1      -2.538   0.841   0.219  1.00  0.00     0.274 HD
ENDBRANCH   3  11
TORSDOF 3
