REMARK  2 active torsions:
REMARK  status: ('A' for Active; 'I' for Inactive)
REMARK    1  A    between atoms: C1_2  and  C2_4 
REMARK    2  A    between atoms: C2_4  and  N2_5 
ROOT
HETATM    1  C2  UNL     1      -0.572   0.694  -0.044  1.00  0.00     0.336 C 
HETATM    2 CL1  UNL     1      -1.646   1.457   1.178  1.00  0.00    -0.088 Cl
ENDROOT
BRANCH   1   3
HETATM    3  C1  UNL     1       0.640   0.141   0.593  1.00  0.00     0.135 C 
HETATM    4  N1  UNL     1       1.592  -0.517  -0.195  1.00  0.00    -0.091 NA
HETATM    5  S1  UNL     1       0.837   0.309   2.194  1.00  0.00    -0.065 SA
ENDBRANCH   1   3
BRANCH   1   6
HETATM    6  N2  UNL     1      -1.364  -0.314  -0.703  1.00  0.00    -0.056 N 
ATOM      7  H23 UNL     1      -0.804  -0.837  -1.376  1.00  0.00     0.276 HD
ATOM      8  H22 UNL     1      -1.601  -1.071  -0.061  1.00  0.00     0.276 HD
ATOM      9  H21 UNL     1      -2.201   0.068  -1.143  1.00  0.00     0.276 HD
ENDBRANCH   1   6
TORSDOF 2
