REMARK  3 active torsions:
REMARK  status: ('A' for Active; 'I' for Inactive)
REMARK    1  A    between atoms: C2_2  and  C3_3 
REMARK    2  A    between atoms: C3_3  and  N1_4 
REMARK    3  A    between atoms: N1_4  and  C4_6 
ROOT
HETATM    1  C4  UNL     1      -0.879  -0.528  -0.026  1.00  0.00     0.117 A 
HETATM    2  C5  UNL     1      -0.980   0.843   0.058  1.00  0.00     0.068 A 
HETATM    3  C6  UNL     1      -2.274   1.196  -0.339  1.00  0.00     0.111 A 
HETATM    4  N2  UNL     1      -2.897   0.046  -0.645  1.00  0.00    -0.310 N 
ATOM      5  H2  UNL     1      -3.860  -0.031  -0.971  1.00  0.00     0.186 HD
HETATM    6  N3  UNL     1      -2.060  -0.987  -0.457  1.00  0.00    -0.286 N 
ATOM      7  H3  UNL     1      -2.289  -1.968  -0.618  1.00  0.00     0.188 HD
ENDROOT
BRANCH   1   8
HETATM    8  N1  UNL     1       0.151  -1.245   0.253  1.00  0.00    -0.372 N 
ATOM      9  H1  UNL     1       0.091  -2.258   0.147  1.00  0.00     0.161 HD
BRANCH   8  10
HETATM   10  C3  UNL     1       1.395  -0.661   0.714  1.00  0.00     0.147 C 
BRANCH  10  11
HETATM   11  C2  UNL     1       2.295  -0.567  -0.466  1.00  0.00    -0.018 C 
HETATM   12  C1  UNL     1       2.772   0.597  -0.889  1.00  0.00     0.008 C 
ENDBRANCH  10  11
ENDBRANCH   8  10
ENDBRANCH   1   8
TORSDOF 3
