REMARK  8 active torsions:
REMARK  status: ('A' for Active; 'I' for Inactive)
REMARK    1  A    between atoms: O1_1  and  C1_3 
REMARK    2  A    between atoms: C2_4  and  O2_5 
REMARK    3  A    between atoms: C3_7  and  O3_8 
REMARK    4  A    between atoms: N1_10  and  C4_11 
REMARK    5  A    between atoms: C8_15  and  C9_16 
REMARK    6  A    between atoms: C15_25  and  O4_26 
REMARK    7  A    between atoms: O4_26  and  C16_27 
REMARK    8  A    between atoms: C19_32  and  O5_33 
ROOT
HETATM    1  C1  UNL     1      -0.535   3.266  -0.846  1.00  0.00     0.185 C 
HETATM    2  C2  UNL     1      -1.930   2.904  -0.399  1.00  0.00     0.198 C 
HETATM    3  C3  UNL     1      -2.018   1.608   0.314  1.00  0.00     0.256 C 
HETATM    4  N1  UNL     1      -0.961   0.626  -0.193  1.00  0.00    -0.318 N 
HETATM    5  C11 UNL     1       0.344   1.056  -0.383  1.00  0.00     0.056 C 
HETATM    6  C12 UNL     1       1.547   0.300  -0.111  1.00  0.00    -0.011 A 
HETATM    7  C13 UNL     1       1.825  -0.934  -0.609  1.00  0.00     0.016 A 
HETATM    8  C14 UNL     1       3.053  -1.569  -0.363  1.00  0.00     0.038 A 
HETATM    9  C15 UNL     1       4.036  -0.979   0.389  1.00  0.00     0.074 A 
HETATM   10  C17 UNL     1       3.741   0.281   0.900  1.00  0.00     0.038 A 
HETATM   11  C18 UNL     1       2.555   0.901   0.667  1.00  0.00     0.016 A 
HETATM   12  C19 UNL     1       0.510   2.529  -0.011  1.00  0.00     0.200 C 
ENDROOT
BRANCH   4  13
HETATM   13  C4  UNL     1      -1.600  -0.601  -0.449  1.00  0.00     0.038 A 
HETATM   14  C5  UNL     1      -1.948  -0.958  -1.709  1.00  0.00     0.030 A 
HETATM   15  C6  UNL     1      -2.747  -2.050  -1.962  1.00  0.00     0.003 A 
HETATM   16  C7  UNL     1      -3.228  -2.846  -0.908  1.00  0.00     0.016 A 
HETATM   17  C8  UNL     1      -2.873  -2.486   0.358  1.00  0.00     0.050 A 
HETATM   18  C10 UNL     1      -2.071  -1.389   0.593  1.00  0.00     0.046 A 
BRANCH  17  19
HETATM   19  C9  UNL     1      -3.397  -3.249   1.530  1.00  0.00     0.417 C 
HETATM   20  F1  UNL     1      -3.099  -4.561   1.303  1.00  0.00    -0.166 F 
HETATM   21  F2  UNL     1      -2.808  -2.764   2.714  1.00  0.00    -0.166 F 
HETATM   22  F3  UNL     1      -4.747  -3.083   1.678  1.00  0.00    -0.166 F 
ENDBRANCH  17  19
ENDBRANCH   4  13
BRANCH   3  23
HETATM   23  O3  UNL     1      -2.101   1.644   1.668  1.00  0.00    -0.374 OA
ATOM     24  H3  UNL     1      -2.157   0.813   2.125  1.00  0.00     0.212 HD
ENDBRANCH   3  23
BRANCH   2  25
HETATM   25  O2  UNL     1      -2.715   2.911  -1.544  1.00  0.00    -0.388 OA
ATOM     26  H2  UNL     1      -3.593   2.683  -1.263  1.00  0.00     0.210 HD
ENDBRANCH   2  25
BRANCH  12  27
HETATM   27  O5  UNL     1       0.354   2.889   1.252  1.00  0.00    -0.387 OA
ATOM     28  H5  UNL     1       1.004   2.431   1.771  1.00  0.00     0.210 HD
ENDBRANCH  12  27
BRANCH   1  29
HETATM   29  O1  UNL     1      -0.350   4.631  -0.585  1.00  0.00    -0.390 OA
ATOM     30  H1  UNL     1       0.528   4.859  -0.866  1.00  0.00     0.210 HD
ENDBRANCH   1  29
BRANCH   9  31
HETATM   31  O4  UNL     1       5.248  -1.463   0.677  1.00  0.00    -0.290 OA
BRANCH  31  32
HETATM   32  C16 UNL     1       6.004  -2.525   0.325  1.00  0.00     0.505 C 
HETATM   33  F4  UNL     1       7.263  -2.144  -0.169  1.00  0.00    -0.184 F 
HETATM   34  F5  UNL     1       6.272  -3.344   1.408  1.00  0.00    -0.184 F 
ENDBRANCH  31  32
ENDBRANCH   9  31
TORSDOF 8
