REMARK  2 active torsions:
REMARK  status: ('A' for Active; 'I' for Inactive)
REMARK    1  A    between atoms: C4_4  and  C5_5 
REMARK    2  A    between atoms: C6_6  and  C7_7 
ROOT
HETATM    1  C1  UNL     1       4.210  -0.950  -0.513  1.00  0.00     0.027 C 
HETATM    2  C2  UNL     1       3.099  -0.694  -0.113  1.00  0.00    -0.026 C 
HETATM    3  C3  UNL     1       1.780  -0.395   0.339  1.00  0.00    -0.011 C 
HETATM    4  C4  UNL     1       0.655  -0.151   0.704  1.00  0.00    -0.064 C 
ENDROOT
BRANCH   4   5
HETATM    5  C5  UNL     1      -0.684   0.139   1.114  1.00  0.00     0.068 C 
HETATM    6  C6  UNL     1      -1.668   0.396   0.278  1.00  0.00     0.050 C 
BRANCH   6   7
HETATM    7  C7  UNL     1      -2.999   0.682   0.756  1.00  0.00     0.259 C 
HETATM    8  O1  UNL     1      -3.961   0.931   0.014  1.00  0.00    -0.302 OA
ENDBRANCH   6   7
ENDBRANCH   4   5
TORSDOF 2
