REMARK  10 active torsions:
REMARK  status: ('A' for Active; 'I' for Inactive)
REMARK    1  A    between atoms: C2_2  and  C3_4 
REMARK    2  A    between atoms: C3_4  and  N1_5 
REMARK    3  A    between atoms: C3_4  and  C10_13 
REMARK    4  A    between atoms: N1_5  and  C4_7 
REMARK    5  A    between atoms: C10_13  and  C11_14 
REMARK    6  A    between atoms: C10_13  and  N2_21 
REMARK    7  A    between atoms: C11_14  and  O2_15 
REMARK    8  A    between atoms: O2_15  and  C12_16 
REMARK       I    between atoms: N2_21  and  C17_23 
REMARK    9  A    between atoms: C17_23  and  O4_25 
REMARK   10  A    between atoms: O4_25  and  C18_26 
ROOT
HETATM    1  C10 UNL     1      -0.331  -0.596   0.065  1.00  0.00     0.045 C 
ENDROOT
BRANCH   1   2
HETATM    2  C3  UNL     1       1.163  -0.779  -0.088  1.00  0.00     0.195 C 
BRANCH   2   3
HETATM    3  C2  UNL     1       1.931  -0.914   1.140  1.00  0.00     0.150 C 
HETATM    4  C1  UNL     1       1.867  -2.074   2.063  1.00  0.00     0.093 C 
HETATM    5  O1  UNL     1       2.739  -0.033   1.522  1.00  0.00    -0.296 OA
ENDBRANCH   2   3
BRANCH   2   6
HETATM    6  N1  UNL     1       1.602   0.352  -0.891  1.00  0.00    -0.402 N 
ATOM      7  H1  UNL     1       0.971   1.130  -1.083  1.00  0.00     0.154 HD
BRANCH   6   8
HETATM    8  C4  UNL     1       2.906   0.352  -1.395  1.00  0.00     0.077 C 
HETATM    9  C5  UNL     1       3.125  -0.775  -2.374  1.00  0.00     0.024 C 
HETATM   10  C6  UNL     1       4.639  -0.906  -2.555  1.00  0.00     0.002 C 
HETATM   11  C7  UNL     1       5.180   0.418  -2.961  1.00  0.00     0.000 C 
HETATM   12  C8  UNL     1       4.167   1.480  -3.240  1.00  0.00     0.002 C 
HETATM   13  C9  UNL     1       3.194   1.688  -2.115  1.00  0.00     0.024 C 
ENDBRANCH   6   8
ENDBRANCH   2   6
ENDBRANCH   1   2
BRANCH   1  14
HETATM   14  C11 UNL     1      -1.115  -1.629   0.737  1.00  0.00     0.223 C 
BRANCH  14  15
HETATM   15  O2  UNL     1      -1.143  -1.673   2.104  1.00  0.00    -0.380 OA
BRANCH  15  16
HETATM   16  C12 UNL     1      -1.982  -2.728   2.458  1.00  0.00     0.121 C 
HETATM   17  C13 UNL     1      -1.366  -3.734   3.375  1.00  0.00     0.032 C 
HETATM   18  C14 UNL     1      -2.596  -4.581   3.734  1.00  0.00     0.002 C 
HETATM   19  C15 UNL     1      -3.626  -3.514   4.016  1.00  0.00     0.002 C 
HETATM   20  C16 UNL     1      -3.186  -2.264   3.257  1.00  0.00     0.032 C 
ENDBRANCH  15  16
ENDBRANCH  14  15
ENDBRANCH   1  14
BRANCH   1  21
HETATM   21  N2  UNL     1      -0.674   0.770   0.411  1.00  0.00    -0.305 N 
HETATM   22  C17 UNL     1      -1.420   1.644  -0.441  1.00  0.00     0.365 C 
HETATM   23  O3  UNL     1      -1.840   1.270  -1.571  1.00  0.00    -0.238 OA
ATOM     24  H2  UNL     1      -0.365   1.128   1.315  1.00  0.00     0.170 HD
BRANCH  22  25
HETATM   25  O4  UNL     1      -1.732   2.949  -0.100  1.00  0.00    -0.294 OA
BRANCH  25  26
HETATM   26  C18 UNL     1      -2.466   3.816  -0.936  1.00  0.00     0.061 C 
HETATM   27  C19 UNL     1      -1.838   4.069  -2.266  1.00  0.00     0.046 C 
HETATM   28  C20 UNL     1      -2.530   5.166  -0.212  1.00  0.00     0.046 C 
HETATM   29  C21 UNL     1      -3.902   3.347  -1.106  1.00  0.00     0.046 C 
ENDBRANCH  25  26
ENDBRANCH  22  25
ENDBRANCH   1  21
TORSDOF 10
