REMARK  1 active torsions:
REMARK  status: ('A' for Active; 'I' for Inactive)
REMARK       I    between atoms: N6_15  and  C5_16 
REMARK       I    between atoms: C5_16  and  N7_18 
REMARK    1  A    between atoms: N7_18  and  N8_20 
ROOT
HETATM    1  N1  UNL     1      -3.637  -1.750  -0.244  1.00  0.00    -0.383 N 
ATOM      2  H11 UNL     1      -3.424  -2.747  -0.238  1.00  0.00     0.157 HD
ATOM      3  H12 UNL     1      -4.615  -1.466  -0.295  1.00  0.00     0.157 HD
HETATM    4  C1  UNL     1      -2.697  -0.871  -0.190  1.00  0.00     0.143 C 
HETATM    5  N2  UNL     1      -2.994   0.519  -0.199  1.00  0.00    -0.268 N 
ATOM      6  H2  UNL     1      -3.873   0.896   0.155  1.00  0.00     0.186 HD
HETATM    7  N3  UNL     1      -1.969   1.344  -0.740  1.00  0.00    -0.019 NA
HETATM    8  N4  UNL     1      -0.756   1.056  -0.065  1.00  0.00    -0.267 N 
ATOM      9  H4  UNL     1      -0.222   1.792   0.398  1.00  0.00     0.186 HD
HETATM   10  C2  UNL     1      -0.313  -0.282  -0.056  1.00  0.00     0.161 A 
HETATM   11  C3  UNL     1      -1.299  -1.277  -0.117  1.00  0.00     0.124 A 
HETATM   12  N5  UNL     1      -0.625  -2.421  -0.081  1.00  0.00    -0.346 N 
ATOM     13  H5  UNL     1      -1.049  -3.348  -0.109  1.00  0.00     0.167 HD
HETATM   14  C4  UNL     1       0.691  -2.183  -0.003  1.00  0.00     0.195 A 
HETATM   15  N6  UNL     1       0.909  -0.828   0.013  1.00  0.00    -0.241 N 
HETATM   16  C5  UNL     1       2.200  -0.281   0.096  1.00  0.00     0.347 C 
HETATM   17  O1  UNL     1       3.214  -1.081   0.189  1.00  0.00    -0.245 OA
HETATM   18  N7  UNL     1       2.541   1.068   0.089  1.00  0.00    -0.258 N 
ATOM     19  H7  UNL     1       1.802   1.767   0.014  1.00  0.00     0.191 HD
ENDROOT
BRANCH  18  20
HETATM   20  N8  UNL     1       3.903   1.502   0.185  1.00  0.00    -0.341 N 
ATOM     21  H82 UNL     1       4.630   0.790   0.260  1.00  0.00     0.177 HD
ATOM     22  H81 UNL     1       4.153   2.491   0.180  1.00  0.00     0.177 HD
ENDBRANCH  18  20
TORSDOF 1
