REMARK  2 active torsions:
REMARK  status: ('A' for Active; 'I' for Inactive)
REMARK       I    between atoms: N1_2  and  C2_4 
REMARK    1  A    between atoms: C2_4  and  C3_6 
REMARK    2  A    between atoms: C4_7  and  C5_8 
REMARK       I    between atoms: N5_17  and  C8_18 
ROOT
HETATM    1  C3  UNL     1       0.004   0.153   0.217  1.00  0.00     0.134 A 
HETATM    2  C4  UNL     1      -1.052  -0.663   0.539  1.00  0.00     0.103 A 
HETATM    3  C6  UNL     1      -2.347  -0.128   0.646  1.00  0.00     0.138 A 
HETATM    4  N3  UNL     1      -3.423  -0.971   0.977  1.00  0.00    -0.081 NA
HETATM    5  N4  UNL     1      -2.497   1.178   0.425  1.00  0.00    -0.295 N 
ATOM      6  H4  UNL     1      -3.431   1.582   0.498  1.00  0.00     0.171 HD
HETATM    7  C7  UNL     1      -1.474   1.980   0.111  1.00  0.00     0.336 A 
HETATM    8  O3  UNL     1      -1.629   3.208  -0.094  1.00  0.00    -0.246 OA
HETATM    9  N5  UNL     1      -0.201   1.486   0.000  1.00  0.00    -0.211 N 
HETATM   10  C8  UNL     1       0.859   2.366  -0.324  1.00  0.00     0.344 C 
HETATM   11  N6  UNL     1       0.571   3.773  -0.549  1.00  0.00    -0.039 NA
HETATM   12  O4  UNL     1       2.028   1.978  -0.423  1.00  0.00    -0.250 OA
ENDROOT
BRANCH   1  13
HETATM   13  C2  UNL     1       1.339  -0.366   0.088  1.00  0.00     0.269 C 
HETATM   14  N1  UNL     1       1.852  -0.848  -1.141  1.00  0.00    -0.360 N 
HETATM   15  C1  UNL     1       3.197  -1.368  -1.265  1.00  0.00     0.149 C 
ATOM     16  H1  UNL     1       1.253  -0.828  -1.967  1.00  0.00     0.162 HD
HETATM   17  O1  UNL     1       2.084  -0.397   1.091  1.00  0.00    -0.266 OA
ENDBRANCH   1  13
BRANCH   2  18
HETATM   18  C5  UNL     1      -0.915  -2.055   0.785  1.00  0.00     0.270 C 
HETATM   19  N2  UNL     1       0.275  -2.780   0.738  1.00  0.00    -0.057 NA
HETATM   20  O2  UNL     1      -1.958  -2.752   1.081  1.00  0.00    -0.271 OA
ENDBRANCH   2  18
TORSDOF 2
