REMARK  4 active torsions:
REMARK  status: ('A' for Active; 'I' for Inactive)
REMARK    1  A    between atoms: C2_2  and  C3_3 
REMARK    2  A    between atoms: C10_10  and  O1_11 
REMARK    3  A    between atoms: C15_19  and  O4_20 
REMARK    4  A    between atoms: C16_22  and  O5_23 
ROOT
HETATM    1  C3  UNL     1      -0.997   0.974   0.408  1.00  0.00     0.036 C 
HETATM    2  C4  UNL     1      -1.823  -0.236   0.375  1.00  0.00    -0.024 A 
HETATM    3  C5  UNL     1      -2.666  -0.764   1.449  1.00  0.00     0.012 A 
HETATM    4  C6  UNL     1      -3.348  -0.072   0.328  1.00  0.00     0.012 A 
HETATM    5  C7  UNL     1      -1.205  -1.172  -0.634  1.00  0.00    -0.005 C 
HETATM    6  C8  UNL     1      -2.337  -2.082  -1.169  1.00  0.00     0.019 C 
HETATM    7  C9  UNL     1      -0.623  -0.560  -1.842  1.00  0.00     0.053 C 
HETATM    8  C10 UNL     1       0.101   0.748  -1.742  1.00  0.00     0.096 C 
HETATM    9  C11 UNL     1       1.545   0.712  -2.243  1.00  0.00     0.077 C 
HETATM   10  C12 UNL     1       2.540   1.167  -1.179  1.00  0.00     0.171 C 
HETATM   11  O2  UNL     1       2.000   2.352  -0.680  1.00  0.00    -0.234 OA
HETATM   12  O3  UNL     1       0.966   2.057   0.002  1.00  0.00    -0.225 OA
HETATM   13  C13 UNL     1       0.363   0.833  -0.216  1.00  0.00     0.138 C 
HETATM   14  C14 UNL     1       1.195  -0.350  -0.004  1.00  0.00     0.068 C 
HETATM   15  C15 UNL     1       0.787  -1.410   0.901  1.00  0.00     0.155 C 
HETATM   16  C16 UNL     1      -0.330  -2.140   0.121  1.00  0.00     0.156 C 
HETATM   17  C17 UNL     1       2.597   0.228   0.040  1.00  0.00    -0.009 C 
HETATM   18  C18 UNL     1       2.929   0.921   1.294  1.00  0.00     0.018 C 
HETATM   19  C19 UNL     1       3.681  -0.782  -0.263  1.00  0.00     0.018 C 
ENDROOT
BRANCH   1  20
HETATM   20  C2  UNL     1      -0.996   1.879   1.577  1.00  0.00     0.004 C 
HETATM   21  C1  UNL     1      -2.291   2.550   1.943  1.00  0.00     0.005 C 
ENDBRANCH   1  20
BRANCH   8  22
HETATM   22  O1  UNL     1      -0.601   1.830  -2.186  1.00  0.00    -0.386 OA
ATOM     23  H1  UNL     1      -0.142   2.659  -2.123  1.00  0.00     0.210 HD
ENDBRANCH   8  22
BRANCH  16  24
HETATM   24  O5  UNL     1      -0.960  -3.097   0.838  1.00  0.00    -0.392 OA
ATOM     25  H5  UNL     1      -0.409  -3.707   1.314  1.00  0.00     0.210 HD
ENDBRANCH  16  24
BRANCH  15  26
HETATM   26  O4  UNL     1       0.466  -1.164   2.186  1.00  0.00    -0.392 OA
ATOM     27  H4  UNL     1       0.199  -1.857   2.778  1.00  0.00     0.210 HD
ENDBRANCH  15  26
TORSDOF 4
