REMARK  4 active torsions:
REMARK  status: ('A' for Active; 'I' for Inactive)
REMARK    1  A    between atoms: C2_2  and  C4_4 
REMARK    2  A    between atoms: C4_4  and  C5_5 
REMARK    3  A    between atoms: C7_9  and  N2_10 
REMARK    4  A    between atoms: C9_12  and  C10_13 
ROOT
HETATM    1  C5  UNL     1      -1.977   2.036   0.717  1.00  0.00     0.225 C 
HETATM    2  C6  UNL     1      -0.928   1.538  -0.139  1.00  0.00     0.249 C 
HETATM    3  O1  UNL     1      -0.450   2.164  -1.114  1.00  0.00    -0.271 OA
HETATM    4  N1  UNL     1      -0.492   0.226   0.272  1.00  0.00    -0.281 N 
HETATM    5  C7  UNL     1       0.815  -0.332   0.159  1.00  0.00     0.129 C 
HETATM    6  C17 UNL     1       0.849  -1.598  -0.072  1.00  0.00     0.034 C 
HETATM    7  C18 UNL     1      -0.352  -2.429  -0.221  1.00  0.00    -0.013 C 
HETATM    8  C19 UNL     1      -0.615  -2.483  -1.760  1.00  0.00     0.020 C 
HETATM    9  C20 UNL     1       0.172  -3.806   0.101  1.00  0.00     0.020 C 
HETATM   10  C21 UNL     1      -1.590  -2.001   0.484  1.00  0.00     0.038 C 
HETATM   11  C22 UNL     1      -2.913  -2.427  -0.138  1.00  0.00     0.028 C 
HETATM   12  C23 UNL     1      -2.793  -3.929  -0.341  1.00  0.00     0.238 C 
HETATM   13  N4  UNL     1      -2.209  -4.270   0.942  1.00  0.00    -0.070 N 
ATOM     14  H41 UNL     1      -1.338  -4.800   0.905  1.00  0.00     0.277 HD
ATOM     15  H42 UNL     1      -2.712  -4.972   1.485  1.00  0.00     0.277 HD
HETATM   16  C24 UNL     1      -2.120  -2.950   1.546  1.00  0.00     0.199 C 
HETATM   17  C25 UNL     1      -3.577  -2.583   1.216  1.00  0.00     0.041 C 
HETATM   18  C26 UNL     1      -1.503  -0.576   0.893  1.00  0.00     0.230 C 
HETATM   19  S1  UNL     1      -2.859   0.488   0.915  1.00  0.00     0.183 S 
HETATM   20  O2  UNL     1      -3.785   0.399  -0.214  1.00  0.00    -0.225 OA
HETATM   21  O3  UNL     1      -3.517   0.744   2.249  1.00  0.00    -0.225 OA
ENDROOT
BRANCH   5  22
HETATM   22  N2  UNL     1       2.001   0.496   0.259  1.00  0.00    -0.251 N 
HETATM   23  C8  UNL     1       3.237   0.015   0.115  1.00  0.00     0.132 A 
HETATM   24  C9  UNL     1       4.120   1.084   0.275  1.00  0.00     0.012 A 
HETATM   25  C16 UNL     1       3.333   2.184   0.513  1.00  0.00     0.121 A 
HETATM   26  N3  UNL     1       2.066   1.782   0.494  1.00  0.00    -0.303 N 
ATOM     27  H3  UNL     1       1.260   2.389   0.641  1.00  0.00     0.186 HD
BRANCH  24  28
HETATM   28  C10 UNL     1       5.587   1.009   0.196  1.00  0.00     0.015 A 
HETATM   29  C11 UNL     1       6.295   1.949  -0.514  1.00  0.00     0.015 A 
HETATM   30  C12 UNL     1       7.658   1.902  -0.602  1.00  0.00     0.001 A 
HETATM   31  C13 UNL     1       8.352   0.899   0.027  1.00  0.00     0.003 A 
HETATM   32  C14 UNL     1       7.684  -0.081   0.761  1.00  0.00     0.043 A 
HETATM   33  C15 UNL     1       6.309   0.012   0.819  1.00  0.00     0.127 A 
HETATM   34  F1  UNL     1       5.629  -0.920   1.520  1.00  0.00    -0.205 F 
ENDBRANCH  24  28
ENDBRANCH   5  22
BRANCH   1  35
HETATM   35  C4  UNL     1      -2.665   3.246   0.540  1.00  0.00     0.005 C 
BRANCH  35  36
HETATM   36  C2  UNL     1      -3.492   3.726  -0.554  1.00  0.00    -0.090 C 
HETATM   37  C1  UNL     1      -2.915   3.848  -1.926  1.00  0.00     0.042 C 
HETATM   38  C3  UNL     1      -4.933   3.240  -0.571  1.00  0.00     0.042 C 
ENDBRANCH  35  36
ENDBRANCH   1  35
TORSDOF 4
