REMARK  3 active torsions:
REMARK  status: ('A' for Active; 'I' for Inactive)
REMARK    1  A    between atoms: C3_3  and  C4_4 
REMARK    2  A    between atoms: C5_5  and  C6_6 
REMARK    3  A    between atoms: C6_6  and  C7_7 
ROOT
HETATM    1  C1  UNL     1       4.420  -0.896   1.116  1.00  0.00     0.113 C 
HETATM    2  C2  UNL     1       3.093  -0.351   0.745  1.00  0.00    -0.097 C 
HETATM    3  C3  UNL     1       2.018   0.094   0.427  1.00  0.00    -0.015 C 
ENDROOT
BRANCH   3   4
HETATM    4  C4  UNL     1       0.759   0.613   0.034  1.00  0.00    -0.015 C 
HETATM    5  C5  UNL     1      -0.313   1.049  -0.320  1.00  0.00    -0.090 C 
BRANCH   5   6
HETATM    6  C6  UNL     1      -1.614   1.578  -0.772  1.00  0.00     0.129 C 
BRANCH   6   7
HETATM    7  C7  UNL     1      -2.522   0.395  -0.963  1.00  0.00     0.222 A 
HETATM    8  C8  UNL     1      -2.810  -0.455   0.147  1.00  0.00     0.266 A 
HETATM    9  N1  UNL     1      -1.959  -0.939  -0.955  1.00  0.00    -0.066 N 
ATOM     10  H12 UNL     1      -1.964  -1.740  -1.587  1.00  0.00     0.277 HD
ATOM     11  H11 UNL     1      -1.025  -1.340  -1.037  1.00  0.00     0.277 HD
ENDBRANCH   6   7
ENDBRANCH   5   6
ENDBRANCH   3   4
TORSDOF 3
