REMARK  14 active torsions:
REMARK  status: ('A' for Active; 'I' for Inactive)
REMARK    1  A    between atoms: N1_1  and  C1_5 
REMARK    2  A    between atoms: C1_5  and  C2_6 
REMARK    3  A    between atoms: C2_6  and  C3_7 
REMARK    4  A    between atoms: C3_7  and  C4_8 
REMARK    5  A    between atoms: C4_8  and  C5_9 
REMARK    6  A    between atoms: C5_9  and  C6_10 
REMARK    7  A    between atoms: C6_10  and  C7_11 
REMARK    8  A    between atoms: C7_11  and  C8_12 
REMARK    9  A    between atoms: C8_12  and  C9_13 
REMARK   10  A    between atoms: C9_13  and  C10_14 
REMARK   11  A    between atoms: C10_14  and  C11_15 
REMARK   12  A    between atoms: C11_15  and  C12_16 
REMARK   13  A    between atoms: C12_16  and  C13_17 
REMARK   14  A    between atoms: C13_17  and  C14_18 
ROOT
HETATM    1  C9  UNL     1       0.138  -2.255   0.874  1.00  0.00     0.000 C 
ENDROOT
BRANCH   1   2
HETATM    2  C8  UNL     1      -1.278  -2.197   0.358  1.00  0.00     0.000 C 
BRANCH   2   3
HETATM    3  C7  UNL     1      -1.329  -1.635  -1.043  1.00  0.00     0.000 C 
BRANCH   3   4
HETATM    4  C6  UNL     1      -2.745  -1.572  -1.562  1.00  0.00     0.000 C 
BRANCH   4   5
HETATM    5  C5  UNL     1      -3.602  -0.706  -0.699  1.00  0.00     0.000 C 
BRANCH   5   6
HETATM    6  C4  UNL     1      -3.098   0.710  -0.623  1.00  0.00     0.000 C 
BRANCH   6   7
HETATM    7  C3  UNL     1      -3.981   1.565   0.255  1.00  0.00     0.002 C 
BRANCH   7   8
HETATM    8  C2  UNL     1      -5.401   1.622  -0.265  1.00  0.00     0.027 C 
BRANCH   8   9
HETATM    9  C1  UNL     1      -6.270   2.486   0.628  1.00  0.00     0.229 C 
BRANCH   9  10
HETATM   10  N1  UNL     1      -5.689   3.821   0.632  1.00  0.00    -0.079 N 
ATOM     11  H13 UNL     1      -4.706   3.828   0.903  1.00  0.00     0.274 HD
ATOM     12  H12 UNL     1      -5.570   4.208  -0.304  1.00  0.00     0.274 HD
ATOM     13  H11 UNL     1      -6.274   4.402   1.233  1.00  0.00     0.274 HD
ENDBRANCH   9  10
ENDBRANCH   8   9
ENDBRANCH   7   8
ENDBRANCH   6   7
ENDBRANCH   5   6
ENDBRANCH   4   5
ENDBRANCH   3   4
ENDBRANCH   2   3
ENDBRANCH   1   2
BRANCH   1  14
HETATM   14  C10 UNL     1       1.045  -3.124   0.034  1.00  0.00     0.000 C 
BRANCH  14  15
HETATM   15  C11 UNL     1       2.452  -3.157   0.591  1.00  0.00     0.000 C 
BRANCH  15  16
HETATM   16  C12 UNL     1       3.070  -1.779   0.638  1.00  0.00     0.005 C 
BRANCH  16  17
HETATM   17  C13 UNL     1       3.155  -1.152  -0.724  1.00  0.00     0.039 C 
BRANCH  17  18
HETATM   18  C14 UNL     1       3.761   0.177  -0.612  1.00  0.00    -0.046 A 
HETATM   19  C15 UNL     1       3.369   1.408  -0.899  1.00  0.00     0.020 A 
HETATM   20  C16 UNL     1       4.607   2.038  -0.455  1.00  0.00    -0.025 A 
HETATM   21  C17 UNL     1       5.447   3.112  -0.221  1.00  0.00     0.012 A 
HETATM   22  C21 UNL     1       5.020   0.759  -0.154  1.00  0.00    -0.020 A 
HETATM   23  C18 UNL     1       6.694   2.871   0.317  1.00  0.00     0.001 A 
HETATM   24  C19 UNL     1       7.125   1.583   0.626  1.00  0.00     0.001 A 
HETATM   25  C20 UNL     1       6.268   0.525   0.383  1.00  0.00     0.013 A 
ENDBRANCH  17  18
ENDBRANCH  16  17
ENDBRANCH  15  16
ENDBRANCH  14  15
ENDBRANCH   1  14
TORSDOF 14
