REMARK  11 active torsions:
REMARK  status: ('A' for Active; 'I' for Inactive)
REMARK    1  A    between atoms: N1_1  and  C1_5 
REMARK    2  A    between atoms: C3_7  and  N2_8 
REMARK    3  A    between atoms: N2_8  and  S1_10 
REMARK    4  A    between atoms: S1_10  and  O3_13 
REMARK    5  A    between atoms: O3_13  and  C4_14 
REMARK    6  A    between atoms: C4_14  and  C5_15 
REMARK    7  A    between atoms: C13_24  and  O5_25 
REMARK    8  A    between atoms: O5_25  and  C14_26 
REMARK    9  A    between atoms: C16_29  and  O7_30 
REMARK   10  A    between atoms: C17_32  and  O8_33 
REMARK   11  A    between atoms: C18_35  and  O9_36 
ROOT
HETATM    1  C1  UNL     1       1.993  -2.108  -1.853  1.00  0.00     0.214 C 
HETATM    2  C2  UNL     1       0.640  -2.533  -2.287  1.00  0.00     0.061 C 
HETATM    3  C3  UNL     1      -0.496  -1.858  -1.580  1.00  0.00     0.097 C 
HETATM    4  C11 UNL     1      -0.217  -1.922  -0.099  1.00  0.00     0.028 C 
HETATM    5  C12 UNL     1       0.939  -1.020   0.175  1.00  0.00     0.036 C 
HETATM    6  C13 UNL     1       2.042  -1.042  -0.810  1.00  0.00     0.155 C 
ENDROOT
BRANCH   3   7
HETATM    7  N2  UNL     1      -0.770  -0.529  -2.008  1.00  0.00    -0.292 N 
ATOM      8  H2  UNL     1      -0.094   0.233  -1.946  1.00  0.00     0.174 HD
BRANCH   7   9
HETATM    9  S1  UNL     1      -2.364  -0.338  -2.644  1.00  0.00     0.358 S 
HETATM   10  O1  UNL     1      -2.318   0.753  -3.675  1.00  0.00    -0.176 OA
HETATM   11  O2  UNL     1      -2.821  -1.590  -3.353  1.00  0.00    -0.176 OA
BRANCH   9  12
HETATM   12  O3  UNL     1      -3.412   0.080  -1.410  1.00  0.00    -0.257 OA
BRANCH  12  13
HETATM   13  C4  UNL     1      -3.162   1.408  -1.085  1.00  0.00     0.223 C 
BRANCH  13  14
HETATM   14  C5  UNL     1      -4.102   1.807   0.031  1.00  0.00     0.146 C 
HETATM   15  C6  UNL     1      -3.876   0.976   1.274  1.00  0.00     0.034 C 
HETATM   16  C7  UNL     1      -4.923  -0.109   1.304  1.00  0.00     0.003 C 
HETATM   17  C8  UNL     1      -6.112   0.324   2.133  1.00  0.00     0.002 C 
HETATM   18  C9  UNL     1      -7.024   1.266   1.420  1.00  0.00     0.026 C 
HETATM   19  C10 UNL     1      -6.302   2.266   0.547  1.00  0.00     0.168 C 
HETATM   20  O4  UNL     1      -5.428   1.681  -0.333  1.00  0.00    -0.384 OA
ENDBRANCH  13  14
ENDBRANCH  12  13
ENDBRANCH   9  12
ENDBRANCH   7   9
ENDBRANCH   3   7
BRANCH   1  21
HETATM   21  N1  UNL     1       2.772  -1.707  -3.029  1.00  0.00    -0.072 N 
ATOM     22  H13 UNL     1       2.805  -2.438  -3.740  1.00  0.00     0.274 HD
ATOM     23  H12 UNL     1       2.300  -0.991  -3.581  1.00  0.00     0.274 HD
ATOM     24  H11 UNL     1       3.703  -1.415  -2.731  1.00  0.00     0.274 HD
ENDBRANCH   1  21
BRANCH   6  25
HETATM   25  O5  UNL     1       3.265  -1.051  -0.122  1.00  0.00    -0.351 OA
BRANCH  25  26
HETATM   26  C14 UNL     1       4.010   0.086  -0.324  1.00  0.00     0.291 C 
HETATM   27  O6  UNL     1       5.227  -0.165  -0.952  1.00  0.00    -0.356 OA
HETATM   28  C15 UNL     1       6.129  -0.826  -0.121  1.00  0.00     0.205 C 
HETATM   29  C16 UNL     1       6.504  -0.020   1.084  1.00  0.00     0.173 C 
HETATM   30  C17 UNL     1       5.606   1.173   1.282  1.00  0.00     0.182 C 
HETATM   31  C18 UNL     1       4.183   0.776   1.006  1.00  0.00     0.204 C 
BRANCH  29  32
HETATM   32  O7  UNL     1       7.832   0.416   1.040  1.00  0.00    -0.391 OA
ATOM     33  H7  UNL     1       8.070   0.927   1.804  1.00  0.00     0.210 HD
ENDBRANCH  29  32
BRANCH  30  34
HETATM   34  O8  UNL     1       6.005   2.286   0.567  1.00  0.00    -0.390 OA
ATOM     35  H8  UNL     1       5.439   3.038   0.692  1.00  0.00     0.210 HD
ENDBRANCH  30  34
BRANCH  31  36
HETATM   36  O9  UNL     1       3.329   1.878   1.094  1.00  0.00    -0.388 OA
ATOM     37  H9  UNL     1       3.438   2.313   1.932  1.00  0.00     0.210 HD
ENDBRANCH  31  36
ENDBRANCH  25  26
ENDBRANCH   6  25
TORSDOF 11
