REMARK  6 active torsions:
REMARK  status: ('A' for Active; 'I' for Inactive)
REMARK    1  A    between atoms: C2_2  and  C3_3 
REMARK    2  A    between atoms: C2_2  and  N3_14 
REMARK    3  A    between atoms: C3_3  and  C4_4 
REMARK    4  A    between atoms: C6_11  and  O2_12 
REMARK    5  A    between atoms: C7_16  and  C8_17 
REMARK    6  A    between atoms: N5_20  and  N6_21 
ROOT
HETATM    1  N3  UNL     1       0.360  -0.745  -0.157  1.00  0.00    -0.392 N 
ATOM      2  H3  UNL     1       0.624  -1.141  -1.059  1.00  0.00     0.159 HD
HETATM    3  C7  UNL     1       1.275  -0.215   0.561  1.00  0.00     0.120 C 
ENDROOT
BRANCH   1   4
HETATM    4  C2  UNL     1      -1.033  -0.814   0.240  1.00  0.00     0.082 C 
HETATM    5  C1  UNL     1      -1.595  -2.117  -0.256  1.00  0.00     0.032 C 
BRANCH   4   6
HETATM    6  C3  UNL     1      -1.731   0.384  -0.298  1.00  0.00     0.086 C 
BRANCH   6   7
HETATM    7  C4  UNL     1      -3.165   0.452   0.032  1.00  0.00     0.066 A 
HETATM    8  N1  UNL     1      -3.961  -0.351   0.729  1.00  0.00    -0.308 N 
HETATM    9  C5  UNL     1      -5.230   0.153   0.751  1.00  0.00     0.326 A 
ATOM     10  H1  UNL     1      -3.668  -1.217   1.181  1.00  0.00     0.170 HD
HETATM   11  O1  UNL     1      -6.234  -0.367   1.329  1.00  0.00    -0.247 OA
HETATM   12  N2  UNL     1      -5.209   1.300   0.046  1.00  0.00    -0.287 N 
HETATM   13  C6  UNL     1      -3.969   1.498  -0.397  1.00  0.00     0.167 A 
ATOM     14  H2  UNL     1      -6.007   1.913  -0.120  1.00  0.00     0.172 HD
BRANCH  13  15
HETATM   15  O2  UNL     1      -3.587   2.600  -1.168  1.00  0.00    -0.345 OA
ATOM     16  H2  UNL     1      -4.138   3.316  -1.462  1.00  0.00     0.219 HD
ENDBRANCH  13  15
ENDBRANCH   6   7
ENDBRANCH   4   6
ENDBRANCH   1   4
BRANCH   3  17
HETATM   17  C8  UNL     1       2.651  -0.175   0.114  1.00  0.00     0.133 A 
HETATM   18  N4  UNL     1       3.614   0.382   0.868  1.00  0.00    -0.269 N 
HETATM   19  N5  UNL     1       4.888   0.437   0.490  1.00  0.00    -0.148 N 
ATOM     20  H4  UNL     1       3.356   0.781   1.771  1.00  0.00     0.189 HD
HETATM   21  C9  UNL     1       5.213  -0.099  -0.717  1.00  0.00     0.363 A 
HETATM   22  O3  UNL     1       6.416  -0.066  -1.113  1.00  0.00    -0.243 OA
HETATM   23  N7  UNL     1       4.288  -0.664  -1.503  1.00  0.00    -0.271 N 
HETATM   24  C10 UNL     1       3.017  -0.707  -1.101  1.00  0.00     0.279 A 
ATOM     25  H7  UNL     1       4.554  -1.060  -2.405  1.00  0.00     0.174 HD
HETATM   26  O4  UNL     1       2.180  -1.248  -1.874  1.00  0.00    -0.265 OA
BRANCH  19  27
HETATM   27  N6  UNL     1       5.876   1.015   1.279  1.00  0.00    -0.320 N 
ATOM     28  H62 UNL     1       5.632   1.417   2.184  1.00  0.00     0.179 HD
ATOM     29  H61 UNL     1       6.853   1.057   0.989  1.00  0.00     0.179 HD
ENDBRANCH  19  27
ENDBRANCH   3  17
TORSDOF 6
