REMARK  11 active torsions:
REMARK  status: ('A' for Active; 'I' for Inactive)
REMARK    1  A    between atoms: C2_2  and  N1_3 
REMARK    2  A    between atoms: C5_9  and  C6_10 
REMARK    3  A    between atoms: C6_10  and  C7_11 
REMARK    4  A    between atoms: C7_11  and  C8_12 
REMARK    5  A    between atoms: C8_12  and  N3_13 
REMARK    6  A    between atoms: C11_22  and  C12_23 
REMARK    7  A    between atoms: C12_23  and  C13_24 
REMARK    8  A    between atoms: C17_31  and  C18_32 
REMARK    9  A    between atoms: C18_32  and  C19_33 
REMARK   10  A    between atoms: C19_33  and  C20_34 
REMARK   11  A    between atoms: C20_34  and  N8_35 
ROOT
HETATM    1  N1  UNL     1       1.101   0.057  -0.350  1.00  0.00    -0.342 N 
HETATM    2  C3  UNL     1       0.273   1.111   0.192  1.00  0.00     0.185 C 
HETATM    3  N2  UNL     1      -0.978   1.304  -0.455  1.00  0.00    -0.321 N 
ATOM      4  H2  UNL     1      -1.134   2.247  -0.812  1.00  0.00     0.169 HD
HETATM    5  C4  UNL     1      -2.029   0.411  -0.681  1.00  0.00     0.245 C 
HETATM    6  O1  UNL     1      -2.492   0.366  -1.878  1.00  0.00    -0.271 OA
HETATM    7  C5  UNL     1      -2.693  -0.501   0.275  1.00  0.00     0.177 C 
HETATM    8  N6  UNL     1      -1.876  -0.860   1.411  1.00  0.00    -0.346 N 
ATOM      9  H6  UNL     1      -1.842  -0.182   2.173  1.00  0.00     0.163 HD
HETATM   10  C10 UNL     1      -1.133  -2.017   1.588  1.00  0.00     0.241 C 
HETATM   11  O2  UNL     1      -1.177  -2.646   2.695  1.00  0.00    -0.271 OA
HETATM   12  C11 UNL     1      -0.225  -2.647   0.551  1.00  0.00     0.177 C 
HETATM   13  N7  UNL     1       1.106  -2.656   1.107  1.00  0.00    -0.343 N 
ATOM     14  H7  UNL     1       1.292  -3.364   1.818  1.00  0.00     0.163 HD
HETATM   15  C16 UNL     1       2.167  -1.813   0.788  1.00  0.00     0.265 C 
HETATM   16  O3  UNL     1       3.336  -2.350   0.697  1.00  0.00    -0.266 OA
HETATM   17  C17 UNL     1       2.133  -0.351   0.535  1.00  0.00     0.080 C 
ENDROOT
BRANCH   7  18
HETATM   18  C6  UNL     1      -3.974   0.120   0.815  1.00  0.00     0.036 C 
BRANCH  18  19
HETATM   19  C7  UNL     1      -4.972   0.427  -0.268  1.00  0.00     0.022 C 
BRANCH  19  20
HETATM   20  C8  UNL     1      -6.243   1.042   0.313  1.00  0.00     0.122 C 
BRANCH  20  21
HETATM   21  N3  UNL     1      -5.841   2.264   0.984  1.00  0.00    -0.367 N 
HETATM   22  C9  UNL     1      -6.551   3.320   0.926  1.00  0.00     0.196 C 
HETATM   23  N4  UNL     1      -6.147   4.502   1.585  1.00  0.00    -0.067 NA
HETATM   24  N5  UNL     1      -7.757   3.320   0.197  1.00  0.00    -0.067 NA
ATOM     25  H3  UNL     1      -4.970   2.278   1.514  1.00  0.00     0.161 HD
ENDBRANCH  20  21
ENDBRANCH  19  20
ENDBRANCH  18  19
ENDBRANCH   7  18
BRANCH  12  26
HETATM   26  C12 UNL     1      -0.818  -3.990   0.318  1.00  0.00     0.038 C 
BRANCH  26  27
HETATM   27  C13 UNL     1      -0.190  -4.890  -0.652  1.00  0.00    -0.020 C 
HETATM   28  C14 UNL     1       1.237  -5.277  -0.361  1.00  0.00     0.009 C 
HETATM   29  C15 UNL     1      -0.257  -4.447  -2.090  1.00  0.00     0.009 C 
ENDBRANCH  26  27
ENDBRANCH  12  26
BRANCH   1  30
HETATM   30  C2  UNL     1       1.370   0.185  -1.729  1.00  0.00     0.125 C 
HETATM   31  C1  UNL     1       2.126  -0.883  -2.422  1.00  0.00     0.027 C 
ENDBRANCH   1  30
BRANCH  17  32
HETATM   32  C18 UNL     1       3.490   0.203   0.351  1.00  0.00     0.065 C 
BRANCH  32  33
HETATM   33  C19 UNL     1       3.679   1.662   0.442  1.00  0.00     0.026 C 
BRANCH  33  34
HETATM   34  C20 UNL     1       5.155   2.046   0.230  1.00  0.00     0.122 C 
BRANCH  34  35
HETATM   35  N8  UNL     1       5.333   3.466   0.319  1.00  0.00    -0.367 N 
HETATM   36  C21 UNL     1       6.440   4.030   0.623  1.00  0.00     0.196 C 
HETATM   37  N9  UNL     1       6.507   5.434   0.683  1.00  0.00    -0.067 NA
HETATM   38  N10 UNL     1       7.574   3.231   0.893  1.00  0.00    -0.067 NA
ATOM     39  H8  UNL     1       4.528   4.063   0.128  1.00  0.00     0.161 HD
ENDBRANCH  34  35
ENDBRANCH  33  34
ENDBRANCH  32  33
ENDBRANCH  17  32
TORSDOF 11
