REMARK  3 active torsions:
REMARK  status: ('A' for Active; 'I' for Inactive)
REMARK    1  A    between atoms: N1_2  and  C2_4 
REMARK    2  A    between atoms: N4_11  and  C4_12 
REMARK    3  A    between atoms: N5_13  and  N6_15 
ROOT
HETATM    1  C2  UNL     1      -0.817  -0.036   0.160  1.00  0.00     0.704 A 
HETATM    2  N2  UNL     1      -1.676  -1.058   0.325  1.00  0.00    -0.128 N 
ATOM      3  H2  UNL     1      -2.669  -0.956   0.536  1.00  0.00     0.205 HD
HETATM    4  N3  UNL     1      -1.050  -2.213   0.175  1.00  0.00    -0.236 N 
ATOM      5  H3  UNL     1      -1.457  -3.146   0.246  1.00  0.00     0.192 HD
HETATM    6  C3  UNL     1       0.233  -1.908  -0.090  1.00  0.00     0.361 A 
HETATM    7  O1  UNL     1       1.165  -2.720  -0.299  1.00  0.00    -0.244 OA
HETATM    8  N4  UNL     1       0.396  -0.554  -0.103  1.00  0.00    -0.089 N 
ENDROOT
BRANCH   8   9
HETATM    9  C4  UNL     1       1.612   0.140  -0.347  1.00  0.00     0.227 C 
HETATM   10  N5  UNL     1       2.433   0.311   0.630  1.00  0.00    -0.301 N 
ATOM     11  H5  UNL     1       2.199  -0.051   1.555  1.00  0.00     0.187 HD
BRANCH  10  12
HETATM   12  N6  UNL     1       3.643   0.988   0.437  1.00  0.00    -0.344 N 
ATOM     13  H62 UNL     1       3.861   1.343  -0.494  1.00  0.00     0.176 HD
ATOM     14  H61 UNL     1       4.293   1.123   1.211  1.00  0.00     0.176 HD
ENDBRANCH  10  12
ENDBRANCH   8   9
BRANCH   1  15
HETATM   15  N1  UNL     1      -1.062   1.229   0.232  1.00  0.00    -0.228 N 
HETATM   16  C1  UNL     1      -2.412   1.668   0.523  1.00  0.00     0.165 C 
ATOM     17  H1  UNL     1      -0.316   1.910   0.086  1.00  0.00     0.177 HD
ENDBRANCH   1  15
TORSDOF 3
