REMARK  8 active torsions:
REMARK  status: ('A' for Active; 'I' for Inactive)
REMARK    1  A    between atoms: N1_1  and  C1_5 
REMARK    2  A    between atoms: C1_5  and  C2_6 
REMARK    3  A    between atoms: N2_7  and  C3_9 
REMARK    4  A    between atoms: N4_17  and  C7_18 
REMARK    5  A    between atoms: C7_18  and  C8_19 
REMARK    6  A    between atoms: C8_19  and  O3_20 
REMARK    7  A    between atoms: C8_19  and  O4_22 
REMARK    8  A    between atoms: O4_22  and  N5_23 
ROOT
HETATM    1  C3  UNL     1       2.299   0.338  -0.294  1.00  0.00     0.686 A 
HETATM    2  N3  UNL     1       1.891  -0.519   0.651  1.00  0.00    -0.155 N 
ATOM      3  H3  UNL     1       2.576  -0.844   1.334  1.00  0.00     0.187 HD
HETATM    4  C4  UNL     1       0.610  -0.982   0.752  1.00  0.00     0.279 A 
HETATM    5  O1  UNL     1       0.234  -1.780   1.634  1.00  0.00    -0.266 OA
HETATM    6  C5  UNL     1      -0.312  -0.542  -0.172  1.00  0.00     0.145 A 
HETATM    7  C6  UNL     1      -1.622  -0.991  -0.102  1.00  0.00     0.271 A 
HETATM    8  O2  UNL     1      -1.973  -1.788   0.790  1.00  0.00    -0.267 OA
HETATM    9  N4  UNL     1      -2.511  -0.552  -1.012  1.00  0.00    -0.261 N 
HETATM   10  C9  UNL     1      -2.104   0.309  -1.963  1.00  0.00     0.331 A 
HETATM   11  O5  UNL     1      -2.985   0.693  -2.799  1.00  0.00    -0.246 OA
HETATM   12  N6  UNL     1      -0.859   0.766  -2.069  1.00  0.00    -0.293 N 
ATOM     13  H6  UNL     1      -0.603   1.418  -2.810  1.00  0.00     0.172 HD
HETATM   14  C10 UNL     1       0.067   0.340  -1.161  1.00  0.00     0.146 A 
HETATM   15  N7  UNL     1       1.323   0.742  -1.193  1.00  0.00    -0.175 N 
ATOM     16  H7  UNL     1       1.595   1.394  -1.929  1.00  0.00     0.186 HD
ENDROOT
BRANCH   1  17
HETATM   17  N2  UNL     1       3.416   0.804  -0.462  1.00  0.00    -0.203 N 
HETATM   18  C2  UNL     1       4.691   0.814   0.020  1.00  0.00     0.106 C 
ATOM     19  H2  UNL     1       3.381   1.422  -1.273  1.00  0.00     0.183 HD
BRANCH  18  20
HETATM   20  C1  UNL     1       4.958   0.006   1.263  1.00  0.00     0.274 C 
BRANCH  20  21
HETATM   21  N1  UNL     1       6.399   0.210   1.543  1.00  0.00    -0.075 N 
ATOM     22  H13 UNL     1       7.010  -0.020   0.760  1.00  0.00     0.274 HD
ATOM     23  H12 UNL     1       6.672   1.190   1.619  1.00  0.00     0.274 HD
ATOM     24  H11 UNL     1       6.580  -0.337   2.385  1.00  0.00     0.274 HD
ENDBRANCH  20  21
ENDBRANCH  18  20
ENDBRANCH   1  17
BRANCH   9  25
HETATM   25  C7  UNL     1      -3.882  -1.020  -0.939  1.00  0.00     0.200 C 
BRANCH  25  26
HETATM   26  C8  UNL     1      -4.750  -0.129  -0.077  1.00  0.00     0.303 C 
BRANCH  26  27
HETATM   27  O3  UNL     1      -6.030  -0.675  -0.085  1.00  0.00    -0.367 OA
ATOM     28  H3  UNL     1      -6.575  -0.116   0.456  1.00  0.00     0.212 HD
ENDBRANCH  26  27
BRANCH  26  29
HETATM   29  O4  UNL     1      -4.294  -0.125   1.222  1.00  0.00    -0.253 OA
BRANCH  29  30
HETATM   30  N5  UNL     1      -3.947   1.127   1.606  1.00  0.00    -0.308 N 
ATOM     31  H52 UNL     1      -4.020   1.946   1.002  1.00  0.00     0.184 HD
ATOM     32  H51 UNL     1      -3.609   1.130   2.568  1.00  0.00     0.184 HD
ENDBRANCH  29  30
ENDBRANCH  26  29
ENDBRANCH  25  26
ENDBRANCH   9  25
TORSDOF 8
