REMARK  17 active torsions:
REMARK  status: ('A' for Active; 'I' for Inactive)
REMARK    1  A    between atoms: C2_2  and  C3_3 
REMARK    2  A    between atoms: C3_3  and  C4_4 
REMARK    3  A    between atoms: C3_3  and  C6_6 
REMARK    4  A    between atoms: C6_6  and  C7_7 
REMARK    5  A    between atoms: C7_7  and  O1_8 
REMARK    6  A    between atoms: C7_7  and  C8_10 
REMARK    7  A    between atoms: C10_12  and  O2_13 
REMARK    8  A    between atoms: C11_15  and  C12_16 
REMARK    9  A    between atoms: C12_16  and  O3_17 
REMARK   10  A    between atoms: O3_17  and  C13_18 
REMARK   11  A    between atoms: C13_18  and  O4_19 
REMARK   12  A    between atoms: C13_18  and  C14_21 
REMARK   13  A    between atoms: C14_21  and  C15_22 
REMARK   14  A    between atoms: C15_22  and  O5_23 
REMARK   15  A    between atoms: C15_22  and  C16_25 
REMARK   16  A    between atoms: C16_25  and  O6_28 
REMARK   17  A    between atoms: C19_30  and  O7_31 
ROOT
HETATM    1  C8  UNL     1      -1.745  -0.587  -0.529  1.00  0.00     0.046 C 
HETATM    2  C9  UNL     1      -0.763  -1.651  -0.919  1.00  0.00     0.042 C 
HETATM    3  C10 UNL     1       0.558  -1.079  -0.507  1.00  0.00     0.127 C 
HETATM    4  C11 UNL     1       0.371   0.393  -0.398  1.00  0.00     0.067 C 
HETATM    5  C19 UNL     1      -1.039   0.688  -0.907  1.00  0.00     0.133 C 
ENDROOT
BRANCH   4   6
HETATM    6  C12 UNL     1       1.353   1.118  -1.242  1.00  0.00     0.180 C 
BRANCH   6   7
HETATM    7  O3  UNL     1       2.664   0.922  -0.941  1.00  0.00    -0.361 OA
BRANCH   7   8
HETATM    8  C13 UNL     1       3.110   1.324   0.282  1.00  0.00     0.259 C 
BRANCH   8   9
HETATM    9  O4  UNL     1       3.976   2.420   0.236  1.00  0.00    -0.371 OA
ATOM     10  H4  UNL     1       4.287   2.700   1.089  1.00  0.00     0.212 HD
ENDBRANCH   8   9
BRANCH   8  11
HETATM   11  C14 UNL     1       3.607   0.256   1.147  1.00  0.00     0.095 C 
BRANCH  11  12
HETATM   12  C15 UNL     1       4.730  -0.616   0.712  1.00  0.00     0.156 C 
BRANCH  12  13
HETATM   13  O5  UNL     1       4.920  -1.549   1.823  1.00  0.00    -0.392 OA
ATOM     14  H5  UNL     1       5.638  -2.106   1.545  1.00  0.00     0.210 HD
ENDBRANCH  12  13
BRANCH  12  15
HETATM   15  C16 UNL     1       6.079   0.000   0.568  1.00  0.00     0.076 C 
HETATM   16  C17 UNL     1       7.115  -1.179   0.588  1.00  0.00     0.048 C 
HETATM   17  C18 UNL     1       6.329   0.705  -0.712  1.00  0.00     0.048 C 
BRANCH  15  18
HETATM   18  O6  UNL     1       6.464   0.781   1.652  1.00  0.00    -0.388 OA
ATOM     19  H6  UNL     1       7.324   1.174   1.560  1.00  0.00     0.210 HD
ENDBRANCH  15  18
ENDBRANCH  12  15
ENDBRANCH  11  12
ENDBRANCH   8  11
ENDBRANCH   7   8
ENDBRANCH   6   7
ENDBRANCH   4   6
BRANCH   3  20
HETATM   20  O2  UNL     1       1.516  -1.432  -1.464  1.00  0.00    -0.395 OA
ATOM     21  H2  UNL     1       2.354  -1.069  -1.203  1.00  0.00     0.210 HD
ENDBRANCH   3  20
BRANCH   5  22
HETATM   22  O7  UNL     1      -1.492   1.779  -0.135  1.00  0.00    -0.395 OA
ATOM     23  H7  UNL     1      -1.047   2.583  -0.374  1.00  0.00     0.210 HD
ENDBRANCH   5  22
BRANCH   1  24
HETATM   24  C7  UNL     1      -3.033  -0.783  -1.277  1.00  0.00     0.125 C 
BRANCH  24  25
HETATM   25  C6  UNL     1      -4.072   0.233  -0.973  1.00  0.00     0.037 C 
BRANCH  25  26
HETATM   26  C3  UNL     1      -4.637   0.250   0.412  1.00  0.00    -0.013 C 
BRANCH  26  27
HETATM   27  C2  UNL     1      -5.324  -0.983   0.863  1.00  0.00     0.000 C 
HETATM   28  C1  UNL     1      -6.549  -1.333   0.051  1.00  0.00     0.005 C 
ENDBRANCH  26  27
BRANCH  26  29
HETATM   29  C4  UNL     1      -5.534   1.477   0.494  1.00  0.00     0.000 C 
HETATM   30  C5  UNL     1      -5.999   1.727   1.907  1.00  0.00     0.005 C 
ENDBRANCH  26  29
ENDBRANCH  25  26
ENDBRANCH  24  25
BRANCH  24  31
HETATM   31  O1  UNL     1      -3.432  -2.095  -1.128  1.00  0.00    -0.395 OA
ATOM     32  H1  UNL     1      -2.767  -2.745  -1.323  1.00  0.00     0.210 HD
ENDBRANCH  24  31
ENDBRANCH   1  24
TORSDOF 17
