REMARK  2 active torsions:
REMARK  status: ('A' for Active; 'I' for Inactive)
REMARK    1  A    between atoms: N3_9  and  C5_10 
REMARK    2  A    between atoms: C5_10  and  C6_11 
ROOT
HETATM    1  N1  UNL     1      -4.616   2.416   0.724  1.00  0.00    -0.191 NA
HETATM    2  C1  UNL     1      -3.886   1.602   0.321  1.00  0.00     0.106 C 
HETATM    3  C2  UNL     1      -2.998   0.600  -0.179  1.00  0.00     0.128 A 
HETATM    4  C3  UNL     1      -3.254   0.024  -1.393  1.00  0.00     0.121 A 
HETATM    5  N2  UNL     1      -2.387  -0.913  -1.815  1.00  0.00    -0.317 N 
ATOM      6  H2  UNL     1      -2.548  -1.363  -2.716  1.00  0.00     0.170 HD
HETATM    7  C4  UNL     1      -1.308  -1.280  -1.085  1.00  0.00     0.329 A 
HETATM    8  O1  UNL     1      -0.574  -2.167  -1.584  1.00  0.00    -0.246 OA
HETATM    9  N3  UNL     1      -1.039  -0.720   0.119  1.00  0.00    -0.261 N 
HETATM   10  C12 UNL     1      -1.893   0.223   0.569  1.00  0.00     0.274 A 
HETATM   11  O2  UNL     1      -1.738   0.815   1.693  1.00  0.00    -0.266 OA
ENDROOT
BRANCH   9  12
HETATM   12  C5  UNL     1       0.085  -1.089   0.916  1.00  0.00     0.175 C 
BRANCH  12  13
HETATM   13  C6  UNL     1       1.333  -0.340   0.676  1.00  0.00    -0.040 A 
HETATM   14  C7  UNL     1       2.239  -0.836  -0.235  1.00  0.00     0.009 A 
HETATM   15  C8  UNL     1       3.441  -0.213  -0.536  1.00  0.00     0.001 A 
HETATM   16  C9  UNL     1       3.747   0.958   0.105  1.00  0.00     0.000 A 
HETATM   17  C10 UNL     1       2.856   1.482   1.027  1.00  0.00     0.001 A 
HETATM   18  C11 UNL     1       1.651   0.838   1.314  1.00  0.00     0.009 A 
ENDBRANCH  12  13
ENDBRANCH   9  12
TORSDOF 2
