REMARK  12 active torsions:
REMARK  status: ('A' for Active; 'I' for Inactive)
REMARK    1  A    between atoms: C2_2  and  C3_3 
REMARK    2  A    between atoms: C3_3  and  N1_4 
REMARK    3  A    between atoms: N1_4  and  C4_5 
REMARK    4  A    between atoms: N1_4  and  C6_9 
REMARK    5  A    between atoms: C4_5  and  C5_6 
REMARK    6  A    between atoms: C5_6  and  O1_7 
REMARK    7  A    between atoms: C6_9  and  C7_10 
REMARK    8  A    between atoms: C7_10  and  C8_11 
REMARK    9  A    between atoms: C8_11  and  C9_12 
REMARK   10  A    between atoms: C9_12  and  C10_13 
REMARK   11  A    between atoms: C10_13  and  N2_14 
REMARK   12  A    between atoms: C12_20  and  N5_21 
ROOT
HETATM    1  N2  UNL     1       2.285   0.770   0.829  1.00  0.00    -0.287 N 
HETATM    2  N3  UNL     1       2.481   2.032   1.099  1.00  0.00    -0.282 N 
ATOM      3  H3  UNL     1       1.769   2.657   1.477  1.00  0.00     0.189 HD
HETATM    4  C11 UNL     1       3.737   2.400   0.816  1.00  0.00     0.150 A 
HETATM    5  N4  UNL     1       4.402   3.564   0.889  1.00  0.00    -0.175 N 
ATOM      6  H4  UNL     1       3.924   4.389   1.253  1.00  0.00     0.186 HD
HETATM    7  C12 UNL     1       5.682   3.668   0.494  1.00  0.00     0.677 A 
HETATM    8  N6  UNL     1       6.307   2.584   0.014  1.00  0.00    -0.195 N 
ATOM      9  H6  UNL     1       7.278   2.671  -0.286  1.00  0.00     0.184 HD
HETATM   10  C13 UNL     1       5.695   1.367  -0.089  1.00  0.00     0.039 A 
HETATM   11  C14 UNL     1       6.425   0.244  -0.739  1.00  0.00     0.070 C 
HETATM   12  C15 UNL     1       4.386   1.280   0.328  1.00  0.00     0.063 A 
HETATM   13  C16 UNL     1       3.469   0.246   0.342  1.00  0.00     0.093 A 
HETATM   14  C17 UNL     1       3.661  -1.175   0.145  1.00  0.00     0.061 A 
HETATM   15  C18 UNL     1       4.610  -1.869   0.847  1.00  0.00     0.032 A 
HETATM   16  C19 UNL     1       4.691  -3.254   0.786  1.00  0.00     0.004 A 
HETATM   17  C20 UNL     1       3.803  -3.960   0.005  1.00  0.00     0.017 A 
HETATM   18  C21 UNL     1       2.864  -3.222  -0.683  1.00  0.00     0.088 A 
HETATM   19  N7  UNL     1       2.814  -1.899  -0.603  1.00  0.00    -0.364 N 
ATOM     20  H7  UNL     1       2.097  -1.408  -1.136  1.00  0.00     0.165 HD
ENDROOT
BRANCH   1  21
HETATM   21  C10 UNL     1       1.043   0.083   0.977  1.00  0.00     0.149 C 
BRANCH  21  22
HETATM   22  C9  UNL     1       0.182   0.322  -0.218  1.00  0.00     0.022 C 
BRANCH  22  23
HETATM   23  C8  UNL     1      -1.178  -0.410  -0.106  1.00  0.00     0.003 C 
BRANCH  23  24
HETATM   24  C7  UNL     1      -1.935  -0.064  -1.325  1.00  0.00     0.030 C 
BRANCH  24  25
HETATM   25  C6  UNL     1      -3.282  -0.596  -1.563  1.00  0.00     0.272 C 
BRANCH  25  26
HETATM   26  N1  UNL     1      -4.324  -0.319  -0.604  1.00  0.00     0.090 N 
BRANCH  26  27
HETATM   27  C3  UNL     1      -5.601  -0.351  -1.243  1.00  0.00     0.272 C 
BRANCH  27  28
HETATM   28  C2  UNL     1      -6.778   0.225  -0.569  1.00  0.00     0.026 C 
HETATM   29  C1  UNL     1      -6.631   1.685  -0.201  1.00  0.00     0.007 C 
ENDBRANCH  27  28
ENDBRANCH  26  27
BRANCH  26  30
HETATM   30  C4  UNL     1      -4.201  -1.155   0.529  1.00  0.00     0.298 C 
BRANCH  30  31
HETATM   31  C5  UNL     1      -4.787  -0.747   1.824  1.00  0.00     0.194 C 
BRANCH  31  32
HETATM   32  O1  UNL     1      -4.516  -1.771   2.787  1.00  0.00    -0.399 OA
ATOM     33  H1  UNL     1      -4.892  -1.509   3.619  1.00  0.00     0.209 HD
ENDBRANCH  31  32
ENDBRANCH  30  31
ENDBRANCH  26  30
ENDBRANCH  25  26
ENDBRANCH  24  25
ENDBRANCH  23  24
ENDBRANCH  22  23
ENDBRANCH  21  22
ENDBRANCH   1  21
BRANCH   7  34
HETATM   34  N5  UNL     1       6.295   4.819   0.580  1.00  0.00    -0.234 N 
ATOM     35  H52 UNL     1       5.819   5.644   0.945  1.00  0.00     0.174 HD
ATOM     36  H51 UNL     1       7.267   4.898   0.280  1.00  0.00     0.174 HD
ENDBRANCH   7  34
TORSDOF 12
