REMARK  1 active torsions:
REMARK  status: ('A' for Active; 'I' for Inactive)
REMARK    1  A    between atoms: C1_4  and  C2_6 
REMARK       I    between atoms: N5_12  and  C5_13 
ROOT
HETATM    1  C2  UNL     1      -1.245  -0.235  -0.309  1.00  0.00     0.142 A 
HETATM    2  N3  UNL     1      -1.007  -1.573  -0.215  1.00  0.00    -0.355 N 
ATOM      3  H3  UNL     1      -1.775  -2.220  -0.393  1.00  0.00     0.165 HD
HETATM    4  C3  UNL     1       0.188  -2.070   0.100  1.00  0.00     0.134 A 
HETATM    5  C4  UNL     1       1.228  -1.209   0.342  1.00  0.00     0.145 A 
HETATM    6  N4  UNL     1       2.522  -1.678   0.682  1.00  0.00    -0.080 NA
HETATM    7  N5  UNL     1       1.043   0.119   0.262  1.00  0.00    -0.216 N 
HETATM    8  C5  UNL     1       2.080   1.045   0.502  1.00  0.00     0.343 C 
HETATM    9  N6  UNL     1       1.849   2.421   0.409  1.00  0.00    -0.039 NA
HETATM   10  O1  UNL     1       3.207   0.608   0.798  1.00  0.00    -0.250 OA
HETATM   11  C6  UNL     1      -0.193   0.597  -0.063  1.00  0.00     0.287 A 
HETATM   12  O2  UNL     1      -0.312   1.869  -0.125  1.00  0.00    -0.265 OA
ENDROOT
BRANCH   1  13
HETATM   13  C1  UNL     1      -2.564   0.255  -0.655  1.00  0.00     0.142 C 
HETATM   14  N1  UNL     1      -2.908   1.457  -0.772  1.00  0.00    -0.386 N 
ATOM     15  H12 UNL     1      -3.836   1.802  -1.016  1.00  0.00     0.157 HD
ATOM     16  H11 UNL     1      -2.208   2.182  -0.612  1.00  0.00     0.157 HD
HETATM   17  N2  UNL     1      -3.555  -0.772  -0.881  1.00  0.00    -0.081 NA
ENDBRANCH   1  13
TORSDOF 1
