REMARK  2 active torsions:
REMARK  status: ('A' for Active; 'I' for Inactive)
REMARK    1  A    between atoms: N1_1  and  C1_4 
REMARK    2  A    between atoms: N3_7  and  O1_8 
ROOT
HETATM    1  C1  UNL     1       2.633  -0.200   0.278  1.00  0.00     0.694 A 
HETATM    2  N2  UNL     1       2.371   1.116   0.348  1.00  0.00    -0.104 N 
ATOM      3  H2  UNL     1       3.150   1.750   0.526  1.00  0.00     0.208 HD
HETATM    4  N3  UNL     1       1.180   1.634   0.202  1.00  0.00    -0.128 N 
HETATM    5  C2  UNL     1       0.136   0.825  -0.034  1.00  0.00     0.193 A 
HETATM    6  C3  UNL     1       0.361  -0.542  -0.114  1.00  0.00     0.165 A 
HETATM    7  N4  UNL     1       1.607  -1.037   0.043  1.00  0.00    -0.172 N 
ATOM      8  H4  UNL     1       1.770  -2.042  -0.016  1.00  0.00     0.186 HD
HETATM    9  N5  UNL     1      -0.766  -1.360  -0.363  1.00  0.00    -0.371 N 
ATOM     10  H5  UNL     1      -0.590  -2.300  -0.719  1.00  0.00     0.161 HD
HETATM   11  C4  UNL     1      -2.128  -0.984  -0.159  1.00  0.00     0.141 C 
HETATM   12  C5  UNL     1      -2.362   0.484  -0.036  1.00  0.00     0.141 C 
HETATM   13  N6  UNL     1      -1.194   1.291  -0.206  1.00  0.00    -0.368 N 
ATOM     14  H6  UNL     1      -1.325   2.268  -0.469  1.00  0.00     0.161 HD
ENDROOT
BRANCH   1  15
HETATM   15  N1  UNL     1       3.836  -0.687   0.429  1.00  0.00    -0.233 N 
ATOM     16  H12 UNL     1       4.614  -0.052   0.607  1.00  0.00     0.174 HD
ATOM     17  H11 UNL     1       4.035  -1.686   0.376  1.00  0.00     0.174 HD
ENDBRANCH   1  15
BRANCH   4  18
HETATM   18  O1  UNL     1       0.925   2.990   0.277  1.00  0.00    -0.266 OA
ATOM     19  H1  UNL     1       0.059   3.367   0.171  1.00  0.00     0.247 HD
ENDBRANCH   4  18
TORSDOF 2
