REMARK  2 active torsions:
REMARK  status: ('A' for Active; 'I' for Inactive)
REMARK    1  A    between atoms: N1_1  and  C1_4 
REMARK    2  A    between atoms: N2_7  and  O1_8 
ROOT
HETATM    1  C1  UNL     1      -0.401   1.141   0.296  1.00  0.00     0.127 A 
HETATM    2  C2  UNL     1      -1.798   1.012   0.404  1.00  0.00     0.069 A 
HETATM    3  C3  UNL     1      -2.402  -0.205   0.184  1.00  0.00     0.146 A 
HETATM    4  N2  UNL     1      -1.691  -1.295  -0.137  1.00  0.00    -0.062 N 
HETATM    5  C4  UNL     1      -0.340  -1.132  -0.232  1.00  0.00     0.733 A 
HETATM    6  N3  UNL     1       0.636  -2.024  -0.534  1.00  0.00    -0.127 N 
ATOM      7  H3  UNL     1       0.493  -3.011  -0.748  1.00  0.00     0.206 HD
HETATM    8  N4  UNL     1       1.792  -1.410  -0.506  1.00  0.00    -0.258 N 
ATOM      9  H4  UNL     1       2.692  -1.852  -0.695  1.00  0.00     0.190 HD
HETATM   10  C5  UNL     1       1.623  -0.110  -0.191  1.00  0.00     0.231 A 
HETATM   11  N5  UNL     1       2.665   0.827  -0.078  1.00  0.00    -0.061 NA
HETATM   12  N6  UNL     1       0.281   0.043  -0.023  1.00  0.00    -0.100 N 
ENDROOT
BRANCH   1  13
HETATM   13  N1  UNL     1       0.100   2.264   0.505  1.00  0.00    -0.384 N 
ATOM     14  H12 UNL     1      -0.423   3.105   0.749  1.00  0.00     0.157 HD
ATOM     15  H11 UNL     1       1.113   2.358   0.427  1.00  0.00     0.157 HD
ENDBRANCH   1  13
BRANCH   4  16
HETATM   16  O1  UNL     1      -2.252  -2.516  -0.362  1.00  0.00    -0.270 OA
ATOM     17  H1  UNL     1      -1.748  -3.289  -0.590  1.00  0.00     0.245 HD
ENDBRANCH   4  16
TORSDOF 2
