REMARK  2 active torsions:
REMARK  status: ('A' for Active; 'I' for Inactive)
REMARK    1  A    between atoms: N1_1  and  C1_4 
REMARK    2  A    between atoms: N5_13  and  O1_14 
ROOT
HETATM    1  C1  UNL     1       1.817  -0.132  -0.005  1.00  0.00     0.131 A 
HETATM    2  C2  UNL     1       1.411   1.019  -0.649  1.00  0.00     0.155 A 
HETATM    3  N2  UNL     1       0.097   1.288  -0.746  1.00  0.00    -0.193 N 
ATOM      4  H2  UNL     1      -0.198   2.139  -1.224  1.00  0.00     0.183 HD
HETATM    5  C3  UNL     1      -0.845   0.469  -0.232  1.00  0.00     0.746 A 
HETATM    6  N3  UNL     1      -0.445  -0.652   0.395  1.00  0.00    -0.015 N 
HETATM    7  N4  UNL     1      -1.548  -1.287   0.810  1.00  0.00    -0.257 N 
ATOM      8  H4  UNL     1      -1.563  -2.170   1.320  1.00  0.00     0.190 HD
HETATM    9  C4  UNL     1      -2.627  -0.582   0.452  1.00  0.00     0.251 A 
HETATM   10  N5  UNL     1      -2.191   0.512  -0.197  1.00  0.00    -0.043 N 
HETATM   11  N6  UNL     1       0.839  -0.926   0.496  1.00  0.00    -0.248 N 
ATOM     12  H6  UNL     1       1.113  -1.782   0.978  1.00  0.00     0.191 HD
ENDROOT
BRANCH   1  13
HETATM   13  N1  UNL     1       3.060  -0.470   0.135  1.00  0.00    -0.383 N 
ATOM     14  H12 UNL     1       3.796   0.127  -0.242  1.00  0.00     0.157 HD
ATOM     15  H11 UNL     1       3.360  -1.321   0.611  1.00  0.00     0.157 HD
ENDBRANCH   1  13
BRANCH  10  16
HETATM   16  O1  UNL     1      -2.947   1.513  -0.740  1.00  0.00    -0.268 OA
ATOM     17  H1  UNL     1      -3.896   1.543  -0.715  1.00  0.00     0.246 HD
ENDBRANCH  10  16
TORSDOF 2
