REMARK  1 active torsions:
REMARK  status: ('A' for Active; 'I' for Inactive)
REMARK    1  A    between atoms: C10_12  and  O2_13 
ROOT
HETATM    1  O1  UNL     1       0.542  -2.611  -2.210  1.00  0.00    -0.247 OA
HETATM    2  S1  UNL     1       0.482  -2.412  -0.568  1.00  0.00     0.086 S 
HETATM    3  C1  UNL     1       1.704  -1.318   0.036  1.00  0.00     0.047 A 
HETATM    4  C2  UNL     1       2.798  -1.970   0.514  1.00  0.00     0.022 A 
HETATM    5  C3  UNL     1       3.871  -1.287   1.079  1.00  0.00     0.002 A 
HETATM    6  C4  UNL     1       3.779   0.086   1.134  1.00  0.00     0.001 A 
HETATM    7  C5  UNL     1       2.698   0.790   0.666  1.00  0.00     0.014 A 
HETATM    8  C6  UNL     1       1.669   0.080   0.118  1.00  0.00    -0.005 A 
HETATM    9  C7  UNL     1       0.608   0.952  -0.360  1.00  0.00    -0.013 A 
HETATM   10  C8  UNL     1       1.115   2.130  -0.840  1.00  0.00     0.016 A 
HETATM   11  C9  UNL     1       0.225   3.059  -1.341  1.00  0.00     0.037 A 
HETATM   12  C10 UNL     1      -1.136   2.836  -1.373  1.00  0.00     0.066 A 
HETATM   13  C11 UNL     1      -1.643   1.643  -0.889  1.00  0.00     0.049 A 
HETATM   14  C12 UNL     1      -0.780   0.700  -0.381  1.00  0.00    -0.011 A 
HETATM   15  C13 UNL     1      -1.483  -0.474   0.060  1.00  0.00    -0.005 A 
HETATM   16  C14 UNL     1      -2.711  -0.148   0.573  1.00  0.00     0.014 A 
HETATM   17  C15 UNL     1      -3.497  -1.214   1.007  1.00  0.00     0.001 A 
HETATM   18  C16 UNL     1      -3.112  -2.529   0.948  1.00  0.00     0.002 A 
HETATM   19  C17 UNL     1      -1.860  -2.819   0.423  1.00  0.00     0.022 A 
HETATM   20  C18 UNL     1      -1.063  -1.800  -0.011  1.00  0.00     0.047 A 
ENDROOT
BRANCH  12  21
HETATM   21  O2  UNL     1      -2.019   3.801  -1.890  1.00  0.00    -0.361 OA
ATOM     22  H2  UNL     1      -2.956   3.647  -1.912  1.00  0.00     0.217 HD
ENDBRANCH  12  21
TORSDOF 1
