REMARK  10 active torsions:
REMARK  status: ('A' for Active; 'I' for Inactive)
REMARK    1  A    between atoms: N1_1  and  C1_4 
REMARK    2  A    between atoms: C3_8  and  C4_9 
REMARK    3  A    between atoms: C7_14  and  N4_15 
REMARK    4  A    between atoms: N4_15  and  C8_16 
REMARK    5  A    between atoms: N4_15  and  C10_20 
REMARK    6  A    between atoms: C8_16  and  C9_17 
REMARK    7  A    between atoms: C9_17  and  O1_18 
REMARK    8  A    between atoms: C10_20  and  C11_21 
REMARK    9  A    between atoms: C11_21  and  O2_22 
REMARK   10  A    between atoms: C14_31  and  N7_32 
REMARK       I    between atoms: N7_32  and  C15_34 
REMARK       I    between atoms: C15_34  and  N8_35 
REMARK       I    between atoms: C15_34  and  N9_39 
ROOT
HETATM    1  C4  UNL     1       2.228  -0.664  -0.059  1.00  0.00     0.051 A 
HETATM    2  C5  UNL     1       0.952  -1.104  -0.205  1.00  0.00     0.061 A 
HETATM    3  C6  UNL     1      -0.082  -0.172  -0.003  1.00  0.00     0.069 A 
HETATM    4  N3  UNL     1      -1.356  -0.532  -0.144  1.00  0.00    -0.191 N 
ATOM      5  H3  UNL     1      -1.582  -1.496  -0.389  1.00  0.00     0.184 HD
HETATM    6  C7  UNL     1      -2.358   0.365   0.034  1.00  0.00     0.682 A 
HETATM    7  N5  UNL     1      -2.120   1.622   0.352  1.00  0.00    -0.176 N 
ATOM      8  H5  UNL     1      -2.892   2.277   0.480  1.00  0.00     0.186 HD
HETATM    9  C12 UNL     1      -0.842   2.033   0.507  1.00  0.00     0.131 A 
HETATM   10  N6  UNL     1      -0.635   3.254   0.811  1.00  0.00    -0.384 N 
ATOM     11  H61 UNL     1       0.330   3.564   0.928  1.00  0.00     0.157 HD
ATOM     12  H62 UNL     1      -1.397   3.920   0.942  1.00  0.00     0.157 HD
HETATM   13  C13 UNL     1       0.197   1.125   0.328  1.00  0.00     0.079 A 
HETATM   14  C14 UNL     1       1.501   1.557   0.474  1.00  0.00     0.120 A 
HETATM   15  N10 UNL     1       2.454   0.642   0.273  1.00  0.00    -0.341 N 
ATOM     16  H10 UNL     1       3.424   0.941   0.375  1.00  0.00     0.167 HD
ENDROOT
BRANCH   1  17
HETATM   17  C3  UNL     1       3.360  -1.572  -0.200  1.00  0.00     0.048 A 
HETATM   18  C2  UNL     1       4.592  -1.271   0.379  1.00  0.00     0.123 A 
HETATM   19  N2  UNL     1       5.662  -2.055   0.201  1.00  0.00    -0.201 N 
HETATM   20  C1  UNL     1       5.618  -3.170  -0.537  1.00  0.00     0.676 A 
ATOM     21  H2  UNL     1       6.543  -1.793   0.644  1.00  0.00     0.183 HD
HETATM   22  N12 UNL     1       4.445  -3.484  -1.105  1.00  0.00    -0.178 N 
HETATM   23  C16 UNL     1       3.335  -2.719  -0.953  1.00  0.00     0.145 A 
ATOM     24  H12 UNL     1       4.385  -4.329  -1.672  1.00  0.00     0.185 HD
HETATM   25  N11 UNL     1       2.199  -3.177  -1.661  1.00  0.00    -0.081 NA
BRANCH  20  26
HETATM   26  N1  UNL     1       6.628  -3.965  -0.728  1.00  0.00    -0.234 N 
ATOM     27  H12 UNL     1       7.520  -3.726  -0.296  1.00  0.00     0.174 HD
ATOM     28  H11 UNL     1       6.594  -4.815  -1.291  1.00  0.00     0.174 HD
ENDBRANCH  20  26
ENDBRANCH   1  17
BRANCH  14  29
HETATM   29  N7  UNL     1       1.686   2.776   0.785  1.00  0.00    -0.326 N 
HETATM   30  C15 UNL     1       2.912   3.467   0.992  1.00  0.00     0.481 C 
HETATM   31  N8  UNL     1       3.245   4.358  -0.116  1.00  0.00    -0.033 N 
HETATM   32  N9  UNL     1       2.758   4.271   2.205  1.00  0.00    -0.033 N 
ATOM     33  H83 UNL     1       3.253   3.854  -1.003  1.00  0.00     0.278 HD
ATOM     34  H82 UNL     1       2.483   5.010  -0.305  1.00  0.00     0.278 HD
ATOM     35  H81 UNL     1       4.124   4.853   0.032  1.00  0.00     0.278 HD
ATOM     36  H93 UNL     1       1.950   4.893   2.172  1.00  0.00     0.278 HD
ATOM     37  H92 UNL     1       2.468   3.721   3.014  1.00  0.00     0.278 HD
ATOM     38  H91 UNL     1       3.637   4.766   2.353  1.00  0.00     0.278 HD
ATOM     39  H7  UNL     1       0.840   3.334   0.902  1.00  0.00     0.164 HD
ENDBRANCH  14  29
BRANCH   6  40
HETATM   40  N4  UNL     1      -3.667  -0.164  -0.118  1.00  0.00    -0.214 N 
BRANCH  40  41
HETATM   41  C8  UNL     1      -4.556  -0.030   1.005  1.00  0.00     0.167 C 
BRANCH  41  42
HETATM   42  C9  UNL     1      -4.856  -1.333   1.684  1.00  0.00     0.184 C 
BRANCH  42  43
HETATM   43  O1  UNL     1      -5.718  -1.173   2.766  1.00  0.00    -0.399 OA
ATOM     44  H1  UNL     1      -5.908  -1.998   3.196  1.00  0.00     0.209 HD
ENDBRANCH  42  43
ENDBRANCH  41  42
ENDBRANCH  40  41
BRANCH  40  45
HETATM   45  C10 UNL     1      -4.034  -0.816  -1.351  1.00  0.00     0.167 C 
BRANCH  45  46
HETATM   46  C11 UNL     1      -5.088  -0.050  -2.140  1.00  0.00     0.184 C 
BRANCH  46  47
HETATM   47  O2  UNL     1      -5.332  -0.794  -3.284  1.00  0.00    -0.399 OA
ATOM     48  H2  UNL     1      -5.989  -0.316  -3.776  1.00  0.00     0.209 HD
ENDBRANCH  46  47
ENDBRANCH  45  46
ENDBRANCH  40  45
ENDBRANCH   6  40
TORSDOF 10
