REMARK  8 active torsions:
REMARK  status: ('A' for Active; 'I' for Inactive)
REMARK    1  A    between atoms: C2_2  and  C4_4 
REMARK    2  A    between atoms: C6_9  and  C7_10 
REMARK    3  A    between atoms: C7_10  and  C9_12 
REMARK    4  A    between atoms: C11_14  and  O2_15 
REMARK    5  A    between atoms: C12_19  and  C13_20 
REMARK    6  A    between atoms: C17_27  and  C18_28 
REMARK    7  A    between atoms: C18_28  and  C19_29 
REMARK    8  A    between atoms: C19_29  and  C20_30 
ROOT
HETATM    1  C4  UNL     1      -4.358   1.887  -0.886  1.00  0.00     0.205 C 
HETATM    2  C5  UNL     1      -4.451   0.501  -0.414  1.00  0.00     0.236 C 
HETATM    3  O1  UNL     1      -5.593  -0.079  -0.610  1.00  0.00    -0.272 OA
HETATM    4  N1  UNL     1      -3.506  -0.307   0.221  1.00  0.00    -0.348 N 
ATOM      5  H1  UNL     1      -3.803  -0.659   1.131  1.00  0.00     0.163 HD
HETATM    6  C6  UNL     1      -2.189  -0.735  -0.173  1.00  0.00     0.162 C 
HETATM    7  C11 UNL     1      -1.287  -0.685   1.037  1.00  0.00     0.135 C 
HETATM    8  N2  UNL     1      -0.187  -1.485   1.345  1.00  0.00    -0.359 N 
ATOM      9  H2  UNL     1      -0.309  -2.064   2.176  1.00  0.00     0.162 HD
HETATM   10  C12 UNL     1       1.088  -1.639   0.699  1.00  0.00     0.179 C 
HETATM   11  C16 UNL     1       2.197  -1.236   1.651  1.00  0.00     0.241 C 
HETATM   12  O3  UNL     1       2.301  -1.977   2.664  1.00  0.00    -0.271 OA
HETATM   13  N3  UNL     1       3.066  -0.161   1.495  1.00  0.00    -0.346 N 
ATOM     14  H3  UNL     1       3.903  -0.183   2.078  1.00  0.00     0.163 HD
HETATM   15  C17 UNL     1       2.946   0.966   0.632  1.00  0.00     0.176 C 
HETATM   16  C22 UNL     1       2.137   2.063   1.261  1.00  0.00     0.240 C 
HETATM   17  O4  UNL     1       2.362   2.305   2.472  1.00  0.00    -0.271 OA
HETATM   18  N4  UNL     1       1.162   2.818   0.588  1.00  0.00    -0.359 N 
ATOM     19  H4  UNL     1       0.398   3.210   1.139  1.00  0.00     0.162 HD
HETATM   20  C23 UNL     1       1.171   3.075  -0.833  1.00  0.00     0.125 C 
HETATM   21  C24 UNL     1      -0.067   3.842  -1.261  1.00  0.00     0.046 C 
HETATM   22  C25 UNL     1      -1.317   3.226  -0.636  1.00  0.00     0.180 C 
HETATM   23  O5  UNL     1      -2.341   3.125  -1.578  1.00  0.00    -0.321 OA
HETATM   24  C26 UNL     1      -3.258   2.177  -1.836  1.00  0.00     0.276 C 
HETATM   25  O6  UNL     1      -3.224   1.500  -2.894  1.00  0.00    -0.264 OA
ENDROOT
BRANCH   6  26
HETATM   26  C7  UNL     1      -2.179  -2.058  -0.827  1.00  0.00     0.012 C 
HETATM   27  C8  UNL     1      -3.037  -2.040  -2.095  1.00  0.00     0.012 C 
BRANCH  26  28
HETATM   28  C9  UNL     1      -2.482  -3.258  -0.004  1.00  0.00     0.002 C 
HETATM   29  C10 UNL     1      -3.832  -3.301   0.637  1.00  0.00     0.005 C 
ENDBRANCH  26  28
ENDBRANCH   6  26
BRANCH   7  30
HETATM   30  O2  UNL     1      -1.638   0.254   1.865  1.00  0.00    -0.348 OA
ATOM     31  H2  UNL     1      -1.071   0.285   2.626  1.00  0.00     0.219 HD
ENDBRANCH   7  30
BRANCH   1  32
HETATM   32  C2  UNL     1      -4.482   2.918   0.163  1.00  0.00    -0.071 C 
HETATM   33  C1  UNL     1      -4.369   2.621   1.433  1.00  0.00     0.015 C 
HETATM   34  C3  UNL     1      -4.740   4.324  -0.237  1.00  0.00     0.044 C 
ENDBRANCH   1  32
BRANCH  10  35
HETATM   35  C13 UNL     1       1.374  -3.084   0.364  1.00  0.00     0.009 C 
HETATM   36  C14 UNL     1       2.715  -3.226  -0.314  1.00  0.00     0.012 C 
HETATM   37  C15 UNL     1       1.322  -4.043   1.483  1.00  0.00     0.012 C 
ENDBRANCH  10  35
BRANCH  15  38
HETATM   38  C18 UNL     1       4.231   1.616   0.232  1.00  0.00     0.035 C 
BRANCH  38  39
HETATM   39  C19 UNL     1       5.223   0.829  -0.519  1.00  0.00     0.002 C 
BRANCH  39  40
HETATM   40  C20 UNL     1       5.771  -0.385   0.142  1.00  0.00    -0.004 C 
HETATM   41  C21 UNL     1       6.819  -1.058  -0.758  1.00  0.00     0.005 C 
ENDBRANCH  39  40
ENDBRANCH  38  39
ENDBRANCH  15  38
TORSDOF 8
