REMARK  15 active torsions:
REMARK  status: ('A' for Active; 'I' for Inactive)
REMARK    1  A    between atoms: C2_2  and  C3_3 
REMARK    2  A    between atoms: C3_3  and  C4_4 
REMARK    3  A    between atoms: C4_4  and  C5_5 
REMARK    4  A    between atoms: C5_5  and  C6_6 
REMARK    5  A    between atoms: C6_6  and  O2_8 
REMARK    6  A    between atoms: O2_8  and  C7_9 
REMARK    7  A    between atoms: C9_11  and  O3_12 
REMARK    8  A    between atoms: O3_12  and  C10_13 
REMARK    9  A    between atoms: C14_18  and  O5_19 
REMARK   10  A    between atoms: C16_23  and  N1_24 
REMARK   11  A    between atoms: N1_24  and  C17_25 
REMARK   12  A    between atoms: N1_24  and  C19_27 
REMARK   13  A    between atoms: C19_27  and  C20_28 
REMARK   14  A    between atoms: C20_28  and  C21_29 
REMARK   15  A    between atoms: C23_32  and  O6_33 
ROOT
HETATM    1  C7  UNL     1       2.285  -0.461   0.604  1.00  0.00     0.142 C 
HETATM    2  C8  UNL     1       1.484  -1.362   1.462  1.00  0.00     0.066 C 
HETATM    3  C9  UNL     1       0.339  -2.087   0.762  1.00  0.00     0.139 C 
HETATM    4  C12 UNL     1      -0.418  -1.263  -0.193  1.00  0.00     0.030 C 
HETATM    5  C13 UNL     1       0.037   0.177  -0.282  1.00  0.00     0.034 C 
HETATM    6  C14 UNL     1      -0.445   0.976   0.860  1.00  0.00     0.159 C 
HETATM    7  C15 UNL     1      -1.514   1.987   0.423  1.00  0.00     0.232 C 
HETATM    8  F1  UNL     1      -1.582   2.998   1.395  1.00  0.00    -0.244 F 
HETATM    9  C16 UNL     1      -2.897   1.324   0.376  1.00  0.00     0.262 C 
HETATM   10  C22 UNL     1      -3.045   0.741  -0.979  1.00  0.00     0.077 C 
HETATM   11  C23 UNL     1      -2.661  -0.665  -1.167  1.00  0.00     0.067 C 
HETATM   12  C24 UNL     1      -3.948  -1.483  -1.297  1.00  0.00     0.016 C 
HETATM   13  C25 UNL     1      -4.638  -1.268  -2.621  1.00  0.00     0.013 C 
HETATM   14  C26 UNL     1      -3.586  -2.896  -1.041  1.00  0.00     0.007 C 
HETATM   15  C27 UNL     1      -2.242  -2.828  -0.402  1.00  0.00     0.009 C 
HETATM   16  C28 UNL     1      -1.922  -1.374  -0.096  1.00  0.00     0.027 C 
HETATM   17  C29 UNL     1       1.530   0.209  -0.505  1.00  0.00    -0.014 C 
HETATM   18  C30 UNL     1       1.774  -0.407  -1.872  1.00  0.00     0.018 C 
HETATM   19  C31 UNL     1       2.004   1.644  -0.646  1.00  0.00     0.018 C 
ENDROOT
BRANCH   1  20
HETATM   20  O2  UNL     1       3.505  -0.970   0.147  1.00  0.00    -0.315 OA
BRANCH  20  21
HETATM   21  C6  UNL     1       4.753  -0.554   0.444  1.00  0.00     0.259 C 
HETATM   22  O1  UNL     1       4.888   0.388   1.211  1.00  0.00    -0.265 OA
BRANCH  21  23
HETATM   23  C5  UNL     1       5.923  -1.222  -0.143  1.00  0.00     0.111 C 
BRANCH  23  24
HETATM   24  C4  UNL     1       7.250  -0.654   0.198  1.00  0.00     0.010 C 
BRANCH  24  25
HETATM   25  C3  UNL     1       7.453   0.763  -0.252  1.00  0.00     0.000 C 
BRANCH  25  26
HETATM   26  C2  UNL     1       8.858   1.212   0.156  1.00  0.00    -0.005 C 
HETATM   27  C1  UNL     1       9.072   2.641  -0.295  1.00  0.00     0.005 C 
ENDBRANCH  25  26
ENDBRANCH  24  25
ENDBRANCH  23  24
ENDBRANCH  21  23
ENDBRANCH  20  21
ENDBRANCH   1  20
BRANCH   3  28
HETATM   28  O3  UNL     1       0.886  -3.250   0.178  1.00  0.00    -0.316 OA
BRANCH  28  29
HETATM   29  C10 UNL     1       0.669  -4.491   0.717  1.00  0.00     0.255 C 
HETATM   30  C11 UNL     1       1.223  -5.740   0.111  1.00  0.00     0.126 C 
HETATM   31  O4  UNL     1      -0.016  -4.628   1.759  1.00  0.00    -0.266 OA
ENDBRANCH  28  29
ENDBRANCH   3  28
BRANCH   6  32
HETATM   32  O5  UNL     1       0.527   1.776   1.463  1.00  0.00    -0.392 OA
ATOM     33  H5  UNL     1       0.217   2.291   2.199  1.00  0.00     0.210 HD
ENDBRANCH   6  32
BRANCH  11  34
HETATM   34  O6  UNL     1      -1.981  -0.874  -2.381  1.00  0.00    -0.389 OA
ATOM     35  H6  UNL     1      -1.733  -1.783  -2.503  1.00  0.00     0.210 HD
ENDBRANCH  11  34
BRANCH   9  36
HETATM   36  N1  UNL     1      -3.820   2.455   0.511  1.00  0.00     0.095 N 
BRANCH  36  37
HETATM   37  C17 UNL     1      -3.690   3.361  -0.605  1.00  0.00     0.268 C 
HETATM   38  C18 UNL     1      -4.631   4.522  -0.385  1.00  0.00     0.037 C 
ENDBRANCH  36  37
BRANCH  36  39
HETATM   39  C19 UNL     1      -5.168   2.080   0.683  1.00  0.00     0.274 C 
BRANCH  39  40
HETATM   40  C20 UNL     1      -5.465   1.394   1.999  1.00  0.00     0.045 C 
BRANCH  40  41
HETATM   41  C21 UNL     1      -6.968   1.077   1.970  1.00  0.00     0.116 C 
HETATM   42 CL1  UNL     1      -7.489   0.264   3.444  1.00  0.00    -0.130 Cl
ENDBRANCH  40  41
ENDBRANCH  39  40
ENDBRANCH  36  39
ENDBRANCH   9  36
TORSDOF 15
