REMARK  17 active torsions:
REMARK  status: ('A' for Active; 'I' for Inactive)
REMARK    1  A    between atoms: O1_2  and  C2_3 
REMARK    2  A    between atoms: C2_3  and  C3_5 
REMARK    3  A    between atoms: C3_5  and  C5_7 
REMARK    4  A    between atoms: C7_9  and  C8_10 
REMARK    5  A    between atoms: C8_10  and  O3_11 
REMARK    6  A    between atoms: N1_13  and  O4_15 
REMARK       I    between atoms: N2_17  and  C9_18 
REMARK    7  A    between atoms: C9_18  and  C10_20 
REMARK    8  A    between atoms: C10_20  and  N3_23 
REMARK    9  A    between atoms: N3_23  and  N4_25 
REMARK   10  A    between atoms: N4_25  and  N5_26 
REMARK   11  A    between atoms: C14_30  and  C15_31 
REMARK   12  A    between atoms: C15_31  and  C16_32 
REMARK   13  A    between atoms: C16_32  and  C17_33 
REMARK   14  A    between atoms: C17_33  and  C18_34 
REMARK   15  A    between atoms: C21_37  and  S1_38 
REMARK   16  A    between atoms: S1_38  and  C22_39 
REMARK   17  A    between atoms: C22_39  and  C23_40 
ROOT
HETATM    1  C5  UNL     1      -4.150  -1.747  -0.485  1.00  0.00     0.015 C 
HETATM    2  C6  UNL     1      -3.158  -0.898  -0.604  1.00  0.00     0.037 C 
HETATM    3  C7  UNL     1      -3.157   0.452  -1.337  1.00  0.00     0.215 C 
HETATM    4  N2  UNL     1      -2.530   1.220  -0.229  1.00  0.00    -0.310 N 
HETATM    5  C9  UNL     1      -2.932   2.551   0.019  1.00  0.00     0.252 C 
HETATM    6  O5  UNL     1      -3.722   3.090  -0.849  1.00  0.00    -0.270 OA
HETATM    7  C13 UNL     1      -1.548   0.410   0.407  1.00  0.00     0.196 C 
HETATM    8  C14 UNL     1      -0.213   0.143  -0.153  1.00  0.00     0.046 C 
HETATM    9  C27 UNL     1      -0.490  -1.347   0.331  1.00  0.00     0.133 C 
HETATM   10  N6  UNL     1      -1.850  -0.999  -0.108  1.00  0.00    -0.360 N 
ENDROOT
BRANCH   8  11
HETATM   11  C15 UNL     1       1.069   0.532   0.445  1.00  0.00     0.010 C 
BRANCH  11  12
HETATM   12  C16 UNL     1       1.370   1.969   0.655  1.00  0.00     0.005 C 
BRANCH  12  13
HETATM   13  C17 UNL     1       2.741   2.115   1.293  1.00  0.00     0.038 C 
BRANCH  13  14
HETATM   14  C18 UNL     1       3.834   1.562   0.488  1.00  0.00    -0.058 A 
HETATM   15  C19 UNL     1       4.254   0.270   0.707  1.00  0.00     0.008 A 
HETATM   16  C20 UNL     1       5.292  -0.230  -0.064  1.00  0.00     0.019 A 
HETATM   17  C21 UNL     1       5.945   0.472  -1.043  1.00  0.00     0.000 A 
HETATM   18  C25 UNL     1       5.505   1.790  -1.256  1.00  0.00     0.019 A 
HETATM   19  C26 UNL     1       4.480   2.301  -0.504  1.00  0.00     0.008 A 
BRANCH  17  20
HETATM   20  S1  UNL     1       7.304  -0.160  -1.995  1.00  0.00    -0.124 SA
BRANCH  20  21
HETATM   21  C22 UNL     1       8.046  -1.652  -1.399  1.00  0.00     0.158 C 
BRANCH  21  22
HETATM   22  C23 UNL     1       8.911  -1.529  -0.187  1.00  0.00     0.248 C 
HETATM   23  C24 UNL     1       9.481  -2.880   0.235  1.00  0.00     0.091 C 
HETATM   24  F1  UNL     1      10.058  -0.754  -0.477  1.00  0.00    -0.206 F 
HETATM   25  F2  UNL     1       8.221  -0.982   0.853  1.00  0.00    -0.206 F 
ENDBRANCH  21  22
ENDBRANCH  20  21
ENDBRANCH  17  20
ENDBRANCH  13  14
ENDBRANCH  12  13
ENDBRANCH  11  12
ENDBRANCH   8  11
BRANCH   3  26
HETATM   26  C8  UNL     1      -4.506   0.846  -1.665  1.00  0.00     0.165 C 
HETATM   27  N1  UNL     1      -4.824   1.156  -2.868  1.00  0.00    -0.249 N 
ATOM     28  H1  UNL     1      -4.105   1.119  -3.590  1.00  0.00     0.196 HD
BRANCH  26  29
HETATM   29  O3  UNL     1      -5.488   0.899  -0.696  1.00  0.00    -0.346 OA
ATOM     30  H3  UNL     1      -6.376   1.158  -0.912  1.00  0.00     0.219 HD
ENDBRANCH  26  29
BRANCH  27  31
HETATM   31  O4  UNL     1      -6.081   1.531  -3.218  1.00  0.00    -0.288 OA
ATOM     32  H4  UNL     1      -6.317   1.761  -4.109  1.00  0.00     0.244 HD
ENDBRANCH  27  31
ENDBRANCH   3  26
BRANCH   5  33
HETATM   33  C10 UNL     1      -2.558   3.405   1.165  1.00  0.00     0.133 C 
HETATM   34  C11 UNL     1      -1.623   4.507   0.683  1.00  0.00     0.051 C 
HETATM   35  C12 UNL     1      -3.800   4.155   1.691  1.00  0.00     0.051 C 
BRANCH  33  36
HETATM   36  N3  UNL     1      -2.007   2.736   2.288  1.00  0.00    -0.234 N 
ATOM     37  H3  UNL     1      -1.085   2.317   2.168  1.00  0.00     0.198 HD
BRANCH  36  38
HETATM   38  N4  UNL     1      -2.530   2.613   3.384  1.00  0.00    -0.247 NA
BRANCH  38  39
HETATM   39  N5  UNL     1      -3.166   2.118   4.332  1.00  0.00    -0.261 N 
ATOM     40  H52 UNL     1      -3.388   1.235   3.871  1.00  0.00     0.193 HD
ATOM     41  H51 UNL     1      -3.603   2.015   5.248  1.00  0.00     0.193 HD
ENDBRANCH  38  39
ENDBRANCH  36  38
ENDBRANCH  33  36
ENDBRANCH   5  33
BRANCH   1  42
HETATM   42  C3  UNL     1      -3.981  -2.999   0.253  1.00  0.00     0.106 C 
HETATM   43  C4  UNL     1      -4.928  -3.121   1.432  1.00  0.00     0.025 C 
BRANCH  42  44
HETATM   44  C2  UNL     1      -4.233  -4.138  -0.648  1.00  0.00     0.265 C 
HETATM   45  O2  UNL     1      -3.292  -4.955  -0.902  1.00  0.00    -0.265 OA
BRANCH  44  46
HETATM   46  O1  UNL     1      -5.451  -4.379  -1.246  1.00  0.00    -0.326 OA
HETATM   47  C1  UNL     1      -5.606  -5.502  -2.101  1.00  0.00     0.213 C 
ENDBRANCH  44  46
ENDBRANCH  42  44
ENDBRANCH   1  42
TORSDOF 17
