REMARK  15 active torsions:
REMARK  status: ('A' for Active; 'I' for Inactive)
REMARK    1  A    between atoms: C2_2  and  O2_4 
REMARK    2  A    between atoms: O2_4  and  C3_5 
REMARK    3  A    between atoms: C10_12  and  O3_13 
REMARK    4  A    between atoms: C12_16  and  C13_17 
REMARK    5  A    between atoms: C14_18  and  C15_19 
REMARK    6  A    between atoms: C15_19  and  C16_20 
REMARK    7  A    between atoms: C15_19  and  N1_23 
REMARK    8  A    between atoms: N1_23  and  C19_24 
REMARK    9  A    between atoms: N1_23  and  C21_27 
REMARK   10  A    between atoms: C19_24  and  C20_25 
REMARK   11  A    between atoms: C21_27  and  C22_28 
REMARK   12  A    between atoms: C22_28  and  C23_29 
REMARK   13  A    between atoms: C23_29  and  N2_30 
REMARK   14  A    between atoms: C28_39  and  O4_40 
REMARK   15  A    between atoms: O4_40  and  C29_41 
ROOT
HETATM    1  C3  UNL     1       4.757   0.617   1.912  1.00  0.00     0.138 C 
HETATM    2  C4  UNL     1       4.517   1.697   0.877  1.00  0.00     0.067 C 
HETATM    3  C5  UNL     1       3.527   1.193  -0.098  1.00  0.00    -0.070 C 
HETATM    4  C6  UNL     1       4.012   1.251  -1.324  1.00  0.00    -0.023 C 
HETATM    5  C7  UNL     1       3.320   0.836  -2.561  1.00  0.00     0.035 C 
HETATM    6  C8  UNL     1       1.988   1.530  -2.684  1.00  0.00     0.036 C 
HETATM    7  C9  UNL     1       2.196   2.976  -2.464  1.00  0.00     0.044 C 
HETATM    8  C10 UNL     1       1.005   3.775  -2.130  1.00  0.00     0.142 C 
HETATM    9  C11 UNL     1      -0.219   3.040  -1.926  1.00  0.00     0.015 C 
HETATM   10  C12 UNL     1      -0.315   1.742  -1.787  1.00  0.00    -0.020 C 
HETATM   11  C24 UNL     1       0.897   0.899  -1.856  1.00  0.00     0.135 C 
HETATM   12  F1  UNL     1       0.457  -0.158  -2.723  1.00  0.00    -0.237 F 
HETATM   13  C25 UNL     1       1.287   0.186  -0.641  1.00  0.00     0.065 C 
HETATM   14  C26 UNL     1       2.225   0.705   0.354  1.00  0.00     0.009 C 
HETATM   15  C27 UNL     1       1.605   1.662   1.355  1.00  0.00     0.023 C 
HETATM   16  C28 UNL     1       2.612  -0.510   1.240  1.00  0.00     0.146 C 
HETATM   17  C31 UNL     1       3.491  -0.039   2.383  1.00  0.00     0.066 C 
ENDROOT
BRANCH  10  18
HETATM   18  C13 UNL     1      -1.644   1.198  -1.591  1.00  0.00     0.008 C 
HETATM   19  C14 UNL     1      -2.029  -0.042  -1.418  1.00  0.00     0.009 C 
BRANCH  19  20
HETATM   20  C15 UNL     1      -3.411  -0.468  -1.234  1.00  0.00     0.249 C 
BRANCH  20  21
HETATM   21  C16 UNL     1      -4.446   0.543  -1.726  1.00  0.00     0.014 C 
HETATM   22  C17 UNL     1      -4.346   0.851  -3.177  1.00  0.00     0.012 C 
HETATM   23  C18 UNL     1      -5.830  -0.068  -1.467  1.00  0.00     0.012 C 
ENDBRANCH  20  21
BRANCH  20  24
HETATM   24  N1  UNL     1      -3.860  -0.947   0.017  1.00  0.00     0.098 N 
BRANCH  24  25
HETATM   25  C19 UNL     1      -3.877  -0.094   1.130  1.00  0.00     0.288 C 
BRANCH  25  26
HETATM   26  C20 UNL     1      -2.650   0.319   1.820  1.00  0.00     0.145 C 
HETATM   27 CL1  UNL     1      -3.198   1.406   3.175  1.00  0.00    -0.129 Cl
ENDBRANCH  25  26
ENDBRANCH  24  25
BRANCH  24  28
HETATM   28  C21 UNL     1      -3.281  -2.265   0.320  1.00  0.00     0.275 C 
BRANCH  28  29
HETATM   29  C22 UNL     1      -3.885  -2.851   1.560  1.00  0.00     0.057 C 
BRANCH  29  30
HETATM   30  C23 UNL     1      -5.384  -3.086   1.367  1.00  0.00     0.231 C 
BRANCH  30  31
HETATM   31  N2  UNL     1      -5.971  -3.618   2.561  1.00  0.00    -0.079 N 
ATOM     32  H23 UNL     1      -5.493  -4.463   2.873  1.00  0.00     0.274 HD
ATOM     33  H22 UNL     1      -5.782  -3.027   3.371  1.00  0.00     0.274 HD
ATOM     34  H21 UNL     1      -6.971  -3.775   2.432  1.00  0.00     0.274 HD
ENDBRANCH  30  31
ENDBRANCH  29  30
ENDBRANCH  28  29
ENDBRANCH  24  28
ENDBRANCH  20  24
ENDBRANCH  19  20
ENDBRANCH  10  18
BRANCH   8  35
HETATM   35  O3  UNL     1       1.221   4.589  -0.981  1.00  0.00    -0.392 OA
ATOM     36  H3  UNL     1       0.453   5.104  -0.766  1.00  0.00     0.210 HD
ENDBRANCH   8  35
BRANCH  16  37
HETATM   37  O4  UNL     1       1.518  -1.191   1.743  1.00  0.00    -0.315 OA
BRANCH  37  38
HETATM   38  C29 UNL     1       1.366  -2.543   1.452  1.00  0.00     0.255 C 
HETATM   39  C30 UNL     1       0.247  -3.378   1.929  1.00  0.00     0.126 C 
HETATM   40  O5  UNL     1       2.226  -3.156   0.729  1.00  0.00    -0.266 OA
ENDBRANCH  37  38
ENDBRANCH  16  37
BRANCH   1  41
HETATM   41  O2  UNL     1       5.692  -0.334   1.423  1.00  0.00    -0.316 OA
BRANCH  41  42
HETATM   42  C2  UNL     1       6.932  -0.539   2.024  1.00  0.00     0.255 C 
HETATM   43  C1  UNL     1       7.905  -1.528   1.518  1.00  0.00     0.126 C 
HETATM   44  O1  UNL     1       7.257   0.138   3.044  1.00  0.00    -0.266 OA
ENDBRANCH  41  42
ENDBRANCH   1  41
TORSDOF 15
