REMARK  4 active torsions:
REMARK  status: ('A' for Active; 'I' for Inactive)
REMARK    1  A    between atoms: N1_2  and  C3_4 
REMARK    2  A    between atoms: C4_7  and  N3_8 
REMARK    3  A    between atoms: C5_13  and  N5_14 
REMARK    4  A    between atoms: N5_14  and  N6_16 
REMARK       I    between atoms: N6_16  and  C6_18 
ROOT
HETATM    1  C3  UNL     1      -1.598   0.185  -0.012  1.00  0.00     0.708 A 
HETATM    2  N2  UNL     1      -1.553  -0.564   1.103  1.00  0.00    -0.022 N 
ATOM      3  H2  UNL     1      -2.395  -0.645   1.673  1.00  0.00     0.203 HD
HETATM    4  C4  UNL     1      -0.462  -1.199   1.489  1.00  0.00     0.705 A 
HETATM    5  N4  UNL     1       0.649  -1.097   0.743  1.00  0.00    -0.020 N 
ATOM      6  H4  UNL     1       1.501  -1.582   1.026  1.00  0.00     0.203 HD
HETATM    7  C5  UNL     1       0.638  -0.350  -0.386  1.00  0.00     0.726 A 
HETATM    8  N9  UNL     1      -0.507   0.292  -0.754  1.00  0.00    -0.020 N 
ATOM      9  H9  UNL     1      -0.523   0.856  -1.603  1.00  0.00     0.203 HD
ENDROOT
BRANCH   7  10
HETATM   10  N5  UNL     1       1.689  -0.229  -1.129  1.00  0.00    -0.129 N 
ATOM     11  H5  UNL     1       1.664   0.337  -1.977  1.00  0.00     0.205 HD
BRANCH  10  12
HETATM   12  N6  UNL     1       2.856  -0.886  -0.749  1.00  0.00    -0.260 N 
HETATM   13  C6  UNL     1       4.034  -0.203  -0.343  1.00  0.00     0.201 C 
HETATM   14  N7  UNL     1       4.563   0.730  -1.071  1.00  0.00    -0.372 N 
HETATM   15  N8  UNL     1       4.679  -0.512   0.876  1.00  0.00    -0.062 NA
ATOM     16  H72 UNL     1       4.097   0.953  -1.951  1.00  0.00     0.158 HD
ATOM     17  H71 UNL     1       5.409   1.220  -0.780  1.00  0.00     0.158 HD
ATOM     18  H6  UNL     1       2.866  -1.906  -0.763  1.00  0.00     0.190 HD
ENDBRANCH  10  12
ENDBRANCH   7  10
BRANCH   4  19
HETATM   19  N3  UNL     1      -0.455  -1.907   2.562  1.00  0.00    -0.234 N 
ATOM     20  H32 UNL     1      -1.299  -1.985   3.129  1.00  0.00     0.174 HD
ATOM     21  H31 UNL     1       0.388  -2.398   2.860  1.00  0.00     0.174 HD
ENDBRANCH   4  19
BRANCH   1  22
HETATM   22  N1  UNL     1      -2.820   0.828  -0.341  1.00  0.00    -0.225 N 
HETATM   23  C1  UNL     1      -2.861   1.632  -1.542  1.00  0.00     0.168 C 
HETATM   24  C2  UNL     1      -3.992   0.686   0.499  1.00  0.00     0.168 C 
ENDBRANCH   1  22
TORSDOF 4
