REMARK  5 active torsions:
REMARK  status: ('A' for Active; 'I' for Inactive)
REMARK    1  A    between atoms: C2_2  and  N1_3 
REMARK    2  A    between atoms: C3_6  and  C4_7 
REMARK    3  A    between atoms: C4_7  and  O1_8 
REMARK    4  A    between atoms: C4_7  and  C5_10 
REMARK    5  A    between atoms: C8_13  and  C9_14 
ROOT
HETATM    1  N1  UNL     1      -2.179  -0.576  -0.638  1.00  0.00    -0.275 N 
HETATM    2  N2  UNL     1      -0.977  -0.752  -0.033  1.00  0.00    -0.283 N 
ATOM      3  H2  UNL     1      -0.099  -0.912  -0.527  1.00  0.00     0.188 HD
HETATM    4  C3  UNL     1      -1.098  -0.688   1.290  1.00  0.00     0.131 A 
HETATM    5  N3  UNL     1      -2.385  -0.469   1.523  1.00  0.00    -0.327 N 
ATOM      6  H3  UNL     1      -2.808  -0.369   2.446  1.00  0.00     0.169 HD
HETATM    7  C17 UNL     1      -3.061  -0.398   0.329  1.00  0.00     0.134 A 
HETATM    8  C18 UNL     1      -4.494  -0.199   0.319  1.00  0.00     0.010 A 
HETATM    9  C19 UNL     1      -5.260   0.023  -0.783  1.00  0.00     0.018 A 
HETATM   10  C20 UNL     1      -6.662   0.171  -0.721  1.00  0.00     0.043 A 
HETATM   11  C21 UNL     1      -7.315   0.094   0.480  1.00  0.00     0.116 A 
HETATM   12  F2  UNL     1      -8.664   0.242   0.494  1.00  0.00    -0.206 F 
HETATM   13  C22 UNL     1      -6.572  -0.127   1.604  1.00  0.00     0.043 A 
HETATM   14  C23 UNL     1      -5.208  -0.270   1.532  1.00  0.00     0.018 A 
ENDROOT
BRANCH   4  15
HETATM   15  C4  UNL     1      -0.024  -0.828   2.334  1.00  0.00     0.220 C 
BRANCH  15  16
HETATM   16  O1  UNL     1      -0.175   0.171   3.294  1.00  0.00    -0.383 OA
ATOM     17  H1  UNL     1       0.503   0.083   3.953  1.00  0.00     0.211 HD
ENDBRANCH  15  16
BRANCH  15  18
HETATM   18  C5  UNL     1       1.265  -0.579   1.641  1.00  0.00    -0.022 A 
HETATM   19  C6  UNL     1       1.541   0.717   1.265  1.00  0.00     0.011 A 
HETATM   20  C7  UNL     1       2.722   1.007   0.620  1.00  0.00     0.013 A 
HETATM   21  C8  UNL     1       3.662   0.042   0.324  1.00  0.00    -0.023 A 
HETATM   22  C15 UNL     1       3.343  -1.252   0.722  1.00  0.00     0.013 A 
HETATM   23  C16 UNL     1       2.177  -1.549   1.361  1.00  0.00     0.011 A 
BRANCH  21  24
HETATM   24  C9  UNL     1       4.918   0.344  -0.360  1.00  0.00     0.013 A 
HETATM   25  C10 UNL     1       5.343  -0.472  -1.396  1.00  0.00     0.015 A 
HETATM   26  C11 UNL     1       6.526  -0.169  -2.025  1.00  0.00     0.001 A 
HETATM   27  C12 UNL     1       7.318   0.910  -1.680  1.00  0.00     0.003 A 
HETATM   28  C13 UNL     1       6.891   1.714  -0.654  1.00  0.00     0.043 A 
HETATM   29  C14 UNL     1       5.698   1.431   0.000  1.00  0.00     0.127 A 
HETATM   30  F1  UNL     1       5.312   2.258   1.016  1.00  0.00    -0.205 F 
ENDBRANCH  21  24
ENDBRANCH  15  18
ENDBRANCH   4  15
BRANCH   1  31
HETATM   31  C2  UNL     1      -2.342  -0.604  -2.088  1.00  0.00     0.146 C 
HETATM   32  C1  UNL     1      -2.146   0.735  -2.735  1.00  0.00     0.028 C 
ENDBRANCH   1  31
TORSDOF 5
