REMARK  4 active torsions:
REMARK  status: ('A' for Active; 'I' for Inactive)
REMARK       I    between atoms: C1_2  and  N1_3 
REMARK    1  A    between atoms: C1_2  and  C9_12 
REMARK    2  A    between atoms: N1_3  and  C2_5 
REMARK    3  A    between atoms: C2_5  and  C3_6 
REMARK    4  A    between atoms: C14_17  and  N2_18 
ROOT
HETATM    1  C9  UNL     1      -1.225  -0.857  -0.274  1.00  0.00     0.059 A 
HETATM    2  C10 UNL     1      -0.831  -2.171  -0.609  1.00  0.00     0.019 A 
HETATM    3  C11 UNL     1      -1.713  -3.209  -0.595  1.00  0.00     0.001 A 
HETATM    4  C12 UNL     1      -3.014  -2.934  -0.242  1.00  0.00     0.002 A 
HETATM    5  C13 UNL     1      -3.392  -1.660   0.080  1.00  0.00     0.031 A 
HETATM    6  C14 UNL     1      -2.505  -0.567   0.073  1.00  0.00     0.055 A 
ENDROOT
BRANCH   1   7
HETATM    7  C1  UNL     1      -0.179   0.125  -0.243  1.00  0.00     0.254 C 
HETATM    8  O1  UNL     1       0.054   0.815  -1.248  1.00  0.00    -0.268 OA
HETATM    9  N1  UNL     1       0.570   0.267   0.949  1.00  0.00    -0.353 N 
ATOM     10  H1  UNL     1       0.336  -0.326   1.745  1.00  0.00     0.163 HD
BRANCH   9  11
HETATM   11  C2  UNL     1       1.654   1.217   1.090  1.00  0.00     0.161 C 
BRANCH  11  12
HETATM   12  C3  UNL     1       2.899   0.793   0.397  1.00  0.00    -0.041 A 
HETATM   13  C4  UNL     1       2.994  -0.449  -0.149  1.00  0.00     0.009 A 
HETATM   14  C5  UNL     1       4.149  -0.828  -0.796  1.00  0.00     0.001 A 
HETATM   15  C6  UNL     1       5.225   0.023  -0.908  1.00  0.00     0.000 A 
HETATM   16  C7  UNL     1       5.123   1.282  -0.352  1.00  0.00     0.001 A 
HETATM   17  C8  UNL     1       3.964   1.665   0.297  1.00  0.00     0.009 A 
ENDBRANCH  11  12
ENDBRANCH   9  11
ENDBRANCH   1   7
BRANCH   6  18
HETATM   18  N2  UNL     1      -3.067   0.711   0.354  1.00  0.00    -0.316 N 
HETATM   19  C15 UNL     1      -4.323   1.025  -0.168  1.00  0.00     0.115 A 
HETATM   20  C16 UNL     1      -4.621   2.284   0.248  1.00  0.00     0.106 A 
HETATM   21  N3  UNL     1      -3.595   2.716   0.990  1.00  0.00    -0.360 N 
HETATM   22  C17 UNL     1      -2.627   1.742   1.059  1.00  0.00     0.188 A 
ATOM     23  H3  UNL     1      -3.539   3.631   1.437  1.00  0.00     0.166 HD
ENDBRANCH   6  18
TORSDOF 4
