REMARK  13 active torsions:
REMARK  status: ('A' for Active; 'I' for Inactive)
REMARK    1  A    between atoms: N1_2  and  S1_4 
REMARK    2  A    between atoms: S1_4  and  C2_7 
REMARK    3  A    between atoms: N2_9  and  C4_10 
REMARK    4  A    between atoms: C4_10  and  C5_11 
REMARK    5  A    between atoms: C6_12  and  C7_13 
REMARK    6  A    between atoms: C10_22  and  C11_23 
REMARK    7  A    between atoms: C13_29  and  O7_30 
REMARK    8  A    between atoms: C14_32  and  C15_33 
REMARK    9  A    between atoms: C15_33  and  C16_34 
REMARK   10  A    between atoms: C16_34  and  S3_35 
REMARK   11  A    between atoms: S3_35  and  C17_36 
REMARK   12  A    between atoms: C18_37  and  O8_38 
REMARK   13  A    between atoms: N7_44  and  N8_45 
ROOT
HETATM    1  C5  UNL     1       2.029   0.564   1.703  1.00  0.00     0.044 C 
HETATM    2  C6  UNL     1       0.786   1.056   1.394  1.00  0.00     0.126 C 
HETATM    3  N3  UNL     1       0.032   0.242   0.501  1.00  0.00    -0.302 N 
HETATM    4  C8  UNL     1       0.584  -0.927  -0.043  1.00  0.00     0.255 C 
HETATM    5  O5  UNL     1       0.880  -1.445  -1.110  1.00  0.00    -0.270 OA
HETATM    6  C9  UNL     1       0.869  -1.731   1.283  1.00  0.00     0.246 C 
HETATM    7  N4  UNL     1      -0.180  -1.330   2.121  1.00  0.00    -0.392 N 
ATOM      8  H4  UNL     1      -0.026  -1.278   3.128  1.00  0.00     0.155 HD
HETATM    9  C10 UNL     1      -1.495  -0.984   1.574  1.00  0.00     0.146 C 
HETATM   10  C14 UNL     1      -1.411   0.221   0.617  1.00  0.00     0.121 C 
HETATM   11  C20 UNL     1       2.115  -0.929   1.617  1.00  0.00     0.191 C 
HETATM   12  O9  UNL     1       3.151  -1.567   1.802  1.00  0.00    -0.290 OA
ENDROOT
BRANCH  10  13
HETATM   13  C15 UNL     1      -2.205   0.146  -0.630  1.00  0.00     0.038 C 
BRANCH  13  14
HETATM   14  C16 UNL     1      -1.937   1.382  -1.526  1.00  0.00     0.083 C 
BRANCH  14  15
HETATM   15  S3  UNL     1      -2.921   1.308  -3.026  1.00  0.00    -0.106 SA
BRANCH  15  16
HETATM   16  C17 UNL     1      -4.666   1.529  -2.751  1.00  0.00     0.146 A 
HETATM   17  C18 UNL     1      -5.278   2.760  -2.725  1.00  0.00     0.178 A 
HETATM   18  N6  UNL     1      -6.586   2.565  -2.514  1.00  0.00    -0.310 N 
HETATM   19  C19 UNL     1      -6.778   1.245  -2.411  1.00  0.00     0.200 A 
ATOM     20  H6  UNL     1      -7.302   3.288  -2.445  1.00  0.00     0.170 HD
HETATM   21  S4  UNL     1      -8.236   0.520  -2.146  1.00  0.00    -0.039 SA
HETATM   22  N7  UNL     1      -5.600   0.605  -2.557  1.00  0.00    -0.226 N 
BRANCH  17  23
HETATM   23  O8  UNL     1      -4.679   4.011  -2.886  1.00  0.00    -0.344 OA
ATOM     24  H8  UNL     1      -5.102   4.862  -2.868  1.00  0.00     0.219 HD
ENDBRANCH  17  23
BRANCH  22  25
HETATM   25  N8  UNL     1      -5.460  -0.799  -2.513  1.00  0.00    -0.335 N 
ATOM     26  H82 UNL     1      -4.569  -1.283  -2.623  1.00  0.00     0.177 HD
ATOM     27  H81 UNL     1      -6.177  -1.509  -2.364  1.00  0.00     0.177 HD
ENDBRANCH  22  25
ENDBRANCH  15  16
ENDBRANCH  14  15
ENDBRANCH  13  14
ENDBRANCH  10  13
BRANCH   9  28
HETATM   28  C11 UNL     1      -2.275  -2.136   1.112  1.00  0.00     0.063 A 
HETATM   29  S2  UNL     1      -2.939  -2.643  -0.374  1.00  0.00    -0.027 SA
HETATM   30  C12 UNL     1      -3.647  -4.110   0.090  1.00  0.00     0.290 A 
HETATM   31  O6  UNL     1      -4.308  -4.970  -0.600  1.00  0.00    -0.260 OA
HETATM   32  N5  UNL     1      -3.345  -4.158   1.379  1.00  0.00    -0.297 N 
HETATM   33  C13 UNL     1      -2.669  -3.210   1.934  1.00  0.00     0.159 A 
ATOM     34  H5  UNL     1      -3.651  -4.954   1.939  1.00  0.00     0.171 HD
BRANCH  33  35
HETATM   35  O7  UNL     1      -2.315  -3.206   3.318  1.00  0.00    -0.345 OA
ATOM     36  H7  UNL     1      -2.581  -3.930   3.872  1.00  0.00     0.219 HD
ENDBRANCH  33  35
ENDBRANCH   9  28
BRANCH   2  37
HETATM   37  C7  UNL     1       0.411   2.415   1.716  1.00  0.00     0.227 C 
HETATM   38  O3  UNL     1       1.188   3.225   2.299  1.00  0.00    -0.643 OA
HETATM   39  O4  UNL     1      -0.824   2.968   1.422  1.00  0.00    -0.643 OA
ENDBRANCH   2  37
BRANCH   1  40
HETATM   40  C4  UNL     1       3.093   1.289   2.331  1.00  0.00     0.191 C 
BRANCH  40  41
HETATM   41  N2  UNL     1       4.294   1.432   1.480  1.00  0.00    -0.280 N 
HETATM   42  C3  UNL     1       5.361   0.627   1.451  1.00  0.00     0.153 A 
HETATM   43  C2  UNL     1       6.265   1.096   0.493  1.00  0.00     0.178 A 
HETATM   44  N10 UNL     1       5.674   2.190  -0.016  1.00  0.00    -0.271 N 
HETATM   45  N9  UNL     1       4.500   2.379   0.581  1.00  0.00    -0.019 NA
ATOM     46  H10 UNL     1       6.065   2.784  -0.747  1.00  0.00     0.185 HD
BRANCH  43  47
HETATM   47  S1  UNL     1       7.799   0.362   0.101  1.00  0.00     0.276 S 
HETATM   48  O1  UNL     1       8.083  -0.738   1.050  1.00  0.00    -0.199 OA
HETATM   49  O2  UNL     1       8.909   1.390   0.270  1.00  0.00    -0.199 OA
BRANCH  47  50
HETATM   50  N1  UNL     1       7.857  -0.135  -1.543  1.00  0.00    -0.319 N 
HETATM   51  C1  UNL     1       6.887  -1.119  -1.896  1.00  0.00     0.159 C 
ATOM     52  H1  UNL     1       8.529   0.242  -2.211  1.00  0.00     0.171 HD
ENDBRANCH  47  50
ENDBRANCH  43  47
ENDBRANCH  40  41
ENDBRANCH   1  40
TORSDOF 13
