REMARK  16 active torsions:
REMARK  status: ('A' for Active; 'I' for Inactive)
REMARK    1  A    between atoms: C4_7  and  O1_8 
REMARK    2  A    between atoms: C5_10  and  N3_11 
REMARK    3  A    between atoms: C8_17  and  N5_18 
REMARK    4  A    between atoms: N5_18  and  N6_20 
REMARK    5  A    between atoms: N6_20  and  N7_22 
REMARK    6  A    between atoms: C9_27  and  N9_28 
REMARK    7  A    between atoms: C10_31  and  N11_32 
REMARK       I    between atoms: N11_32  and  C11_34 
REMARK    8  A    between atoms: C11_34  and  C12_36 
REMARK    9  A    between atoms: C12_36  and  N12_37 
REMARK   10  A    between atoms: C12_36  and  C17_47 
REMARK   11  A    between atoms: N12_37  and  O3_39 
REMARK   12  A    between atoms: O3_39  and  C13_40 
REMARK   13  A    between atoms: C13_40  and  C14_41 
REMARK   14  A    between atoms: C13_40  and  C16_44 
REMARK   15  A    between atoms: C14_41  and  C15_42 
REMARK   16  A    between atoms: C19_51  and  N14_52 
ROOT
HETATM    1  N9  UNL     1      -1.612   1.312  -1.247  1.00  0.00    -0.173 N 
HETATM    2  N10 UNL     1      -0.304   1.110  -1.370  1.00  0.00    -0.119 N 
ATOM      3  H10 UNL     1       0.315   0.853  -0.601  1.00  0.00     0.206 HD
HETATM    4  C10 UNL     1       0.093   1.288  -2.636  1.00  0.00     0.704 A 
HETATM    5  N15 UNL     1      -1.039   1.615  -3.301  1.00  0.00    -0.138 N 
ATOM      6  H15 UNL     1      -1.088   1.819  -4.299  1.00  0.00     0.189 HD
HETATM    7  C20 UNL     1      -2.092   1.634  -2.461  1.00  0.00     0.362 A 
HETATM    8  O6  UNL     1      -3.301   1.892  -2.697  1.00  0.00    -0.244 OA
ENDROOT
BRANCH   1   9
HETATM    9  C9  UNL     1      -2.294   1.128  -0.001  1.00  0.00     0.152 A 
HETATM   10  N8  UNL     1      -2.785  -0.113   0.290  1.00  0.00    -0.324 N 
HETATM   11  C5  UNL     1      -3.431  -0.380   1.427  1.00  0.00     0.144 A 
ATOM     12  H8  UNL     1      -2.653  -0.864  -0.387  1.00  0.00     0.169 HD
HETATM   13  C4  UNL     1      -3.578   0.677   2.304  1.00  0.00     0.138 A 
HETATM   14  C3  UNL     1      -3.099   1.936   2.049  1.00  0.00     0.090 A 
HETATM   15  N2  UNL     1      -3.242   2.967   2.896  1.00  0.00    -0.349 N 
HETATM   16  C21 UNL     1      -2.423   2.196   0.847  1.00  0.00     0.108 A 
HETATM   17  C2  UNL     1      -2.770   4.199   2.632  1.00  0.00     0.186 A 
ATOM     18  H2  UNL     1      -3.730   2.810   3.778  1.00  0.00     0.166 HD
HETATM   19  N1  UNL     1      -2.118   4.488   1.494  1.00  0.00    -0.314 N 
HETATM   20  C1  UNL     1      -1.601   5.829   1.203  1.00  0.00     0.160 C 
HETATM   21  C22 UNL     1      -1.954   3.469   0.610  1.00  0.00     0.264 A 
HETATM   22  O7  UNL     1      -1.346   3.723  -0.457  1.00  0.00    -0.267 OA
BRANCH  11  23
HETATM   23  N3  UNL     1      -3.950  -1.684   1.741  1.00  0.00    -0.318 N 
HETATM   24  C6  UNL     1      -3.515  -2.483   2.859  1.00  0.00     0.156 C 
HETATM   25  C7  UNL     1      -4.614  -3.471   3.082  1.00  0.00     0.257 C 
HETATM   26  N4  UNL     1      -5.593  -3.297   2.047  1.00  0.00    -0.034 N 
HETATM   27  C8  UNL     1      -4.968  -2.431   1.042  1.00  0.00     0.408 C 
ATOM     28  H42 UNL     1      -5.943  -4.176   1.666  1.00  0.00     0.281 HD
ATOM     29  H41 UNL     1      -6.488  -2.945   2.388  1.00  0.00     0.281 HD
BRANCH  27  30
HETATM   30  N5  UNL     1      -4.483  -3.245  -0.026  1.00  0.00    -0.275 N 
ATOM     31  H5  UNL     1      -4.161  -4.193   0.170  1.00  0.00     0.185 HD
BRANCH  30  32
HETATM   32  N6  UNL     1      -4.448  -2.813  -1.197  1.00  0.00    -0.251 N 
ATOM     33  H6  UNL     1      -3.709  -2.115  -1.113  1.00  0.00     0.207 HD
BRANCH  32  34
HETATM   34  N7  UNL     1      -4.735  -2.689  -2.393  1.00  0.00    -0.331 N 
ATOM     35  H72 UNL     1      -5.467  -3.398  -2.424  1.00  0.00     0.178 HD
ATOM     36  H71 UNL     1      -4.706  -2.336  -3.350  1.00  0.00     0.178 HD
ENDBRANCH  32  34
ENDBRANCH  30  32
ENDBRANCH  27  30
ENDBRANCH  11  23
BRANCH  13  37
HETATM   37  O1  UNL     1      -4.247   0.409   3.491  1.00  0.00    -0.355 OA
ATOM     38  H1  UNL     1      -4.579  -0.463   3.668  1.00  0.00     0.218 HD
ENDBRANCH  13  37
ENDBRANCH   1   9
BRANCH   4  39
HETATM   39  N11 UNL     1       1.302   1.177  -3.127  1.00  0.00    -0.152 N 
HETATM   40  C11 UNL     1       2.348   0.823  -2.236  1.00  0.00     0.289 C 
HETATM   41  O2  UNL     1       2.784   1.796  -1.536  1.00  0.00    -0.265 OA
ATOM     42  H11 UNL     1       1.486   1.340  -4.117  1.00  0.00     0.187 HD
BRANCH  40  43
HETATM   43  C12 UNL     1       2.949  -0.451  -2.035  1.00  0.00     0.141 C 
BRANCH  43  44
HETATM   44  N12 UNL     1       3.895  -0.611  -1.173  1.00  0.00    -0.259 N 
ATOM     45  H12 UNL     1       4.279  -1.551  -1.077  1.00  0.00     0.194 HD
BRANCH  44  46
HETATM   46  O3  UNL     1       4.423   0.349  -0.387  1.00  0.00    -0.263 OA
BRANCH  46  47
HETATM   47  C13 UNL     1       5.767   0.218   0.014  1.00  0.00     0.253 C 
BRANCH  47  48
HETATM   48  C14 UNL     1       5.982   0.064   1.482  1.00  0.00     0.056 C 
BRANCH  48  49
HETATM   49  C15 UNL     1       5.325  -1.129   2.100  1.00  0.00     0.089 C 
HETATM   50  S1  UNL     1       3.526  -1.111   1.970  1.00  0.00    -0.098 SA
ENDBRANCH  48  49
ENDBRANCH  47  48
BRANCH  47  51
HETATM   51  C16 UNL     1       6.555   1.417  -0.412  1.00  0.00     0.205 C 
HETATM   52  O4  UNL     1       6.030   2.361  -1.026  1.00  0.00    -0.646 OA
HETATM   53  O5  UNL     1       7.910   1.458  -0.106  1.00  0.00    -0.646 OA
ENDBRANCH  47  51
ENDBRANCH  46  47
ENDBRANCH  44  46
ENDBRANCH  43  44
BRANCH  43  54
HETATM   54  C17 UNL     1       2.591  -1.694  -2.753  1.00  0.00     0.058 A 
HETATM   55  C18 UNL     1       1.715  -1.941  -3.766  1.00  0.00     0.111 A 
HETATM   56  N13 UNL     1       1.593  -3.166  -4.204  1.00  0.00    -0.345 N 
HETATM   57  C19 UNL     1       2.324  -4.125  -3.651  1.00  0.00     0.142 A 
ATOM     58  H13 UNL     1       0.944  -3.382  -4.961  1.00  0.00     0.167 HD
HETATM   59  S2  UNL     1       3.218  -3.287  -2.470  1.00  0.00    -0.051 SA
BRANCH  57  60
HETATM   60  N14 UNL     1       2.330  -5.406  -3.965  1.00  0.00    -0.380 N 
ATOM     61 2H14 UNL     1       1.794  -5.908  -4.673  1.00  0.00     0.158 HD
ATOM     62 1H14 UNL     1       2.892  -6.143  -3.540  1.00  0.00     0.158 HD
ENDBRANCH  57  60
ENDBRANCH  43  54
ENDBRANCH  40  43
ENDBRANCH   4  39
TORSDOF 16
