REMARK  7 active torsions:
REMARK  status: ('A' for Active; 'I' for Inactive)
REMARK    1  A    between atoms: N1_1  and  C1_5 
REMARK    2  A    between atoms: C1_5  and  C2_6 
REMARK    3  A    between atoms: C2_6  and  C3_7 
REMARK    4  A    between atoms: C3_7  and  C4_8 
REMARK    5  A    between atoms: C4_8  and  N2_9 
REMARK    6  A    between atoms: N2_9  and  C5_11 
REMARK    7  A    between atoms: C9_18  and  N4_19 
ROOT
HETATM    1  C5  UNL     1      -1.207  -0.000   1.164  1.00  0.00     0.136 C 
HETATM    2  C6  UNL     1      -1.036  -1.346   0.510  1.00  0.00     0.259 C 
HETATM    3  N3  UNL     1      -1.256  -1.159  -0.896  1.00  0.00    -0.073 N 
ATOM      4  H31 UNL     1      -1.221  -2.051  -1.390  1.00  0.00     0.277 HD
ATOM      5  H32 UNL     1      -0.458  -0.695  -1.329  1.00  0.00     0.277 HD
HETATM    6  C7  UNL     1      -2.468  -0.464  -1.189  1.00  0.00     0.234 C 
HETATM    7  C8  UNL     1      -3.347  -0.391   0.015  1.00  0.00     0.062 C 
HETATM    8  C9  UNL     1      -2.719   0.267   1.211  1.00  0.00     0.209 C 
ENDROOT
BRANCH   1   9
HETATM    9  N2  UNL     1      -0.524   1.061   0.584  1.00  0.00    -0.394 N 
ATOM     10  H2  UNL     1      -1.088   1.807   0.177  1.00  0.00     0.159 HD
BRANCH   9  11
HETATM   11  C4  UNL     1       0.852   1.200   0.507  1.00  0.00     0.056 C 
BRANCH  11  12
HETATM   12  C3  UNL     1       1.647   0.305  -0.397  1.00  0.00     0.046 C 
BRANCH  12  13
HETATM   13  C2  UNL     1       3.133   0.736  -0.291  1.00  0.00     0.032 C 
BRANCH  13  14
HETATM   14  C1  UNL     1       3.971  -0.150  -1.200  1.00  0.00     0.230 C 
BRANCH  14  15
HETATM   15  N1  UNL     1       3.838  -1.540  -0.800  1.00  0.00    -0.079 N 
ATOM     16  H13 UNL     1       4.066  -1.678   0.184  1.00  0.00     0.274 HD
ATOM     17  H12 UNL     1       2.863  -1.837  -0.770  1.00  0.00     0.274 HD
ATOM     18  H11 UNL     1       4.400  -2.134  -1.410  1.00  0.00     0.274 HD
ENDBRANCH  14  15
ENDBRANCH  13  14
ENDBRANCH  12  13
ENDBRANCH  11  12
ENDBRANCH   9  11
ENDBRANCH   1   9
BRANCH   8  19
HETATM   19  N4  UNL     1      -3.024   1.661   1.219  1.00  0.00    -0.073 N 
ATOM     20  H43 UNL     1      -2.542   2.139   1.981  1.00  0.00     0.274 HD
ATOM     21  H42 UNL     1      -2.591   2.137   0.428  1.00  0.00     0.274 HD
ATOM     22  H41 UNL     1      -4.028   1.838   1.250  1.00  0.00     0.274 HD
ENDBRANCH   8  19
TORSDOF 7
