REMARK  4 active torsions:
REMARK  status: ('A' for Active; 'I' for Inactive)
REMARK    1  A    between atoms: N2_4  and  N3_6 
REMARK       I    between atoms: N3_6  and  C1_8 
REMARK       I    between atoms: C1_8  and  N8_23 
REMARK       I    between atoms: N4_9  and  C2_11 
REMARK       I    between atoms: N6_13  and  C3_15 
REMARK    2  A    between atoms: C3_15  and  C4_17 
REMARK    3  A    between atoms: C4_17  and  C5_18 
REMARK    4  A    between atoms: C5_18  and  N7_19 
REMARK       I    between atoms: N8_23  and  C6_25 
REMARK       I    between atoms: C6_25  and  N9_27 
ROOT
HETATM    1  N3  UNL     1       1.137  -0.787  -1.141  1.00  0.00    -0.118 N 
ATOM      2  H3  UNL     1       0.775  -0.242  -1.924  1.00  0.00     0.207 HD
HETATM    3  C1  UNL     1       0.826  -0.340   0.165  1.00  0.00     0.704 C 
HETATM    4  N4  UNL     1       1.751   0.179   0.926  1.00  0.00    -0.162 N 
ATOM      5  H4  UNL     1       1.505   0.495   1.864  1.00  0.00     0.187 HD
HETATM    6  C2  UNL     1       3.090   0.313   0.478  1.00  0.00     0.209 C 
HETATM    7  N5  UNL     1       4.070  -0.541   1.052  1.00  0.00    -0.063 NA
HETATM    8  N6  UNL     1       3.406   1.173  -0.412  1.00  0.00    -0.301 N 
ATOM      9  H6  UNL     1       2.659   1.758  -0.786  1.00  0.00     0.171 HD
HETATM   10  C3  UNL     1       4.699   1.377  -0.916  1.00  0.00     0.225 C 
HETATM   11  O1  UNL     1       5.017   1.063  -2.102  1.00  0.00    -0.273 OA
HETATM   12  N8  UNL     1      -0.511  -0.470   0.625  1.00  0.00    -0.140 N 
ATOM     13  H8  UNL     1      -0.747  -0.152   1.565  1.00  0.00     0.189 HD
HETATM   14  C6  UNL     1      -1.525  -1.030  -0.188  1.00  0.00     0.336 C 
HETATM   15  O2  UNL     1      -1.277  -1.436  -1.350  1.00  0.00    -0.246 OA
HETATM   16  N9  UNL     1      -2.853  -1.147   0.298  1.00  0.00    -0.334 N 
HETATM   17  C7  UNL     1      -3.770  -1.743  -0.659  1.00  0.00     0.127 C 
HETATM   18  C8  UNL     1      -4.421  -0.718  -1.539  1.00  0.00     0.020 C 
HETATM   19  C9  UNL     1      -5.132   0.365  -0.786  1.00  0.00     0.002 C 
HETATM   20  C10 UNL     1      -5.895  -0.101   0.401  1.00  0.00     0.000 C 
HETATM   21  C11 UNL     1      -5.198   0.386   1.669  1.00  0.00     0.002 C 
HETATM   22  C12 UNL     1      -4.364  -0.747   2.189  1.00  0.00     0.020 C 
HETATM   23  C13 UNL     1      -2.957  -0.632   1.648  1.00  0.00     0.127 C 
ENDROOT
BRANCH   1  24
HETATM   24  N2  UNL     1       1.892  -1.902  -1.437  1.00  0.00    -0.235 N 
HETATM   25  N1  UNL     1       1.871  -2.938  -0.714  1.00  0.00    -0.330 N 
ATOM     26  H12 UNL     1       1.271  -2.933   0.111  1.00  0.00     0.178 HD
ATOM     27  H11 UNL     1       2.430  -3.763  -0.933  1.00  0.00     0.178 HD
ATOM     28  H2  UNL     1       2.486  -1.890  -2.266  1.00  0.00     0.208 HD
ENDBRANCH   1  24
BRANCH  10  29
HETATM   29  C4  UNL     1       5.760   1.978  -0.066  1.00  0.00     0.130 C 
BRANCH  29  30
HETATM   30  C5  UNL     1       7.062   2.110  -0.801  1.00  0.00     0.238 C 
BRANCH  30  31
HETATM   31  N7  UNL     1       8.033   2.700   0.098  1.00  0.00    -0.079 N 
ATOM     32  H73 UNL     1       7.715   3.584   0.495  1.00  0.00     0.274 HD
ATOM     33  H72 UNL     1       8.126   2.182   0.971  1.00  0.00     0.274 HD
ATOM     34  H71 UNL     1       8.918   2.790  -0.401  1.00  0.00     0.274 HD
ENDBRANCH  30  31
ENDBRANCH  29  30
ENDBRANCH  10  29
TORSDOF 4
