REMARK  5 active torsions:
REMARK  status: ('A' for Active; 'I' for Inactive)
REMARK    1  A    between atoms: N2_4  and  N3_6 
REMARK       I    between atoms: N3_6  and  C1_8 
REMARK       I    between atoms: C1_8  and  N6_18 
REMARK    2  A    between atoms: N4_9  and  C2_11 
REMARK    3  A    between atoms: C2_11  and  N5_13 
REMARK       I    between atoms: N6_18  and  C7_20 
REMARK    4  A    between atoms: C7_20  and  C8_22 
REMARK    5  A    between atoms: C9_23  and  C10_24 
REMARK       I    between atoms: C10_24  and  N7_26 
ROOT
HETATM    1  N3  UNL     1      -0.780  -1.886  -0.590  1.00  0.00    -0.118 N 
ATOM      2  H3  UNL     1      -0.709  -2.874  -0.348  1.00  0.00     0.207 HD
HETATM    3  C1  UNL     1      -0.914  -0.942   0.465  1.00  0.00     0.703 C 
HETATM    4  N4  UNL     1      -2.087  -0.585   0.860  1.00  0.00    -0.165 N 
ATOM      5  H4  UNL     1      -2.158   0.094   1.618  1.00  0.00     0.186 HD
HETATM    6  N6  UNL     1       0.209  -0.364   1.116  1.00  0.00    -0.155 N 
ATOM      7  H6  UNL     1       0.076   0.310   1.870  1.00  0.00     0.187 HD
HETATM    8  C7  UNL     1       1.514  -0.732   0.710  1.00  0.00     0.259 C 
HETATM    9  O1  UNL     1       1.731  -1.561  -0.216  1.00  0.00    -0.268 OA
ENDROOT
BRANCH   1  10
HETATM   10  N2  UNL     1      -0.740  -1.530  -1.941  1.00  0.00    -0.235 N 
HETATM   11  N1  UNL     1      -1.465  -0.611  -2.444  1.00  0.00    -0.330 N 
ATOM     12  H12 UNL     1      -2.101  -0.120  -1.815  1.00  0.00     0.178 HD
ATOM     13  H11 UNL     1      -1.436  -0.351  -3.430  1.00  0.00     0.178 HD
ATOM     14  H2  UNL     1      -0.098  -2.031  -2.555  1.00  0.00     0.208 HD
ENDBRANCH   1  10
BRANCH   4  15
HETATM   15  C2  UNL     1      -3.280  -1.088   0.294  1.00  0.00     0.188 C 
HETATM   16  S1  UNL     1      -3.454  -2.689   0.114  1.00  0.00    -0.040 SA
BRANCH  15  17
HETATM   17  N5  UNL     1      -4.312  -0.226  -0.114  1.00  0.00    -0.358 N 
HETATM   18  C3  UNL     1      -5.568  -0.633  -0.703  1.00  0.00     0.125 C 
HETATM   19  C4  UNL     1      -6.507   0.452  -0.213  1.00  0.00     0.021 C 
HETATM   20  C5  UNL     1      -5.665   1.691  -0.436  1.00  0.00     0.021 C 
HETATM   21  C6  UNL     1      -4.294   1.222  -0.014  1.00  0.00     0.125 C 
ENDBRANCH  15  17
ENDBRANCH   4  15
BRANCH   8  22
HETATM   22  C8  UNL     1       2.658  -0.134   1.382  1.00  0.00     0.080 C 
HETATM   23  C9  UNL     1       3.891  -0.436   1.050  1.00  0.00     0.080 C 
BRANCH  23  24
HETATM   24  C10 UNL     1       4.997   0.179   1.741  1.00  0.00     0.247 C 
HETATM   25  O2  UNL     1       4.762   1.005   2.663  1.00  0.00    -0.268 OA
HETATM   26  N7  UNL     1       6.313  -0.178   1.348  1.00  0.00    -0.300 N 
HETATM   27  C11 UNL     1       7.017   0.654   0.662  1.00  0.00     0.203 C 
ATOM     28  H7  UNL     1       6.698  -1.086   1.607  1.00  0.00     0.171 HD
HETATM   29  N8  UNL     1       6.476   1.907   0.312  1.00  0.00    -0.066 NA
HETATM   30  N9  UNL     1       8.342   0.303   0.262  1.00  0.00    -0.066 NA
ENDBRANCH  23  24
ENDBRANCH   8  22
TORSDOF 5
