REMARK  5 active torsions:
REMARK  status: ('A' for Active; 'I' for Inactive)
REMARK    1  A    between atoms: C2_2  and  C3_3 
REMARK    2  A    between atoms: C3_3  and  C4_4 
REMARK    3  A    between atoms: C5_5  and  C6_6 
REMARK    4  A    between atoms: C6_6  and  N1_7 
REMARK       I    between atoms: N1_7  and  C8_9 
REMARK       I    between atoms: C8_9  and  N3_13 
REMARK       I    between atoms: N3_13  and  C9_15 
REMARK       I    between atoms: C9_15  and  N5_19 
REMARK    5  A    between atoms: N5_19  and  C10_21 
ROOT
HETATM    1  N1  UNL     1       1.933  -1.681   0.213  1.00  0.00    -0.211 N 
HETATM    2  C7  UNL     1       2.222  -2.966   0.793  1.00  0.00     0.169 C 
HETATM    3  C8  UNL     1       1.253  -1.622  -1.023  1.00  0.00     0.688 C 
HETATM    4  N2  UNL     1       1.539  -2.523  -1.893  1.00  0.00    -0.234 N 
ATOM      5  H21 UNL     1       1.048  -2.480  -2.786  1.00  0.00     0.174 HD
ATOM      6  H22 UNL     1       2.224  -3.259  -1.719  1.00  0.00     0.174 HD
HETATM    7  N3  UNL     1       0.306  -0.604  -1.264  1.00  0.00    -0.023 N 
ATOM      8  H3  UNL     1       0.656   0.339  -1.433  1.00  0.00     0.203 HD
HETATM    9  C9  UNL     1      -1.100  -0.800  -1.288  1.00  0.00     0.686 C 
HETATM   10  N4  UNL     1      -1.618  -1.967  -1.462  1.00  0.00    -0.234 N 
ATOM     11  H41 UNL     1      -2.628  -2.108  -1.479  1.00  0.00     0.174 HD
ATOM     12  H42 UNL     1      -0.995  -2.765  -1.586  1.00  0.00     0.174 HD
HETATM   13  N5  UNL     1      -1.966   0.310  -1.115  1.00  0.00    -0.216 N 
ATOM     14  H5  UNL     1      -2.396   0.789  -1.906  1.00  0.00     0.178 HD
ENDROOT
BRANCH  13  15
HETATM   15  C10 UNL     1      -2.203   0.723   0.258  1.00  0.00     0.149 C 
HETATM   16  C11 UNL     1      -2.776  -0.473   0.958  1.00  0.00     0.000 C 
HETATM   17  C12 UNL     1      -4.013  -0.818   0.617  1.00  0.00     0.026 C 
HETATM   18  C13 UNL     1      -4.715  -0.020  -0.399  1.00  0.00     0.327 C 
HETATM   19  N6  UNL     1      -6.088   0.222   0.061  1.00  0.00    -0.304 N 
HETATM   20  N7  UNL     1      -4.518   1.387  -0.285  1.00  0.00     0.036 N 
HETATM   21  C14 UNL     1      -5.638   1.443   0.608  1.00  0.00     0.418 C 
ATOM     22  H6  UNL     1      -6.977  -0.275   0.008  1.00  0.00     0.166 HD
HETATM   23  O1  UNL     1      -5.964   2.262   1.452  1.00  0.00    -0.239 OA
HETATM   24  C15 UNL     1      -4.865   2.083  -1.509  1.00  0.00     0.288 C 
HETATM   25  C16 UNL     1      -3.271   1.797   0.285  1.00  0.00     0.281 C 
ENDBRANCH  13  15
BRANCH   1  26
HETATM   26  C6  UNL     1       2.333  -0.481   0.871  1.00  0.00     0.234 C 
BRANCH  26  27
HETATM   27  C5  UNL     1       3.817  -0.457   0.790  1.00  0.00    -0.086 C 
HETATM   28  C4  UNL     1       5.020  -0.431   0.700  1.00  0.00    -0.105 C 
BRANCH  28  29
HETATM   29  C3  UNL     1       6.477  -0.393   0.562  1.00  0.00     0.093 C 
BRANCH  29  30
HETATM   30  C2  UNL     1       7.024   0.951   1.032  1.00  0.00     0.007 C 
HETATM   31  C1  UNL     1       6.437   2.082   0.207  1.00  0.00     0.006 C 
ENDBRANCH  29  30
ENDBRANCH  28  29
ENDBRANCH  26  27
ENDBRANCH   1  26
TORSDOF 5
