REMARK  8 active torsions:
REMARK  status: ('A' for Active; 'I' for Inactive)
REMARK    1  A    between atoms: C2_2  and  N1_3 
REMARK       I    between atoms: N2_8  and  C7_9 
REMARK    2  A    between atoms: C7_9  and  C8_11 
REMARK    3  A    between atoms: C8_11  and  N3_12 
REMARK    4  A    between atoms: C8_11  and  C17_27 
REMARK       I    between atoms: N3_12  and  C9_14 
REMARK       I    between atoms: C9_14  and  N4_16 
REMARK    5  A    between atoms: N4_16  and  C10_18 
REMARK    6  A    between atoms: C10_18  and  C11_19 
REMARK    7  A    between atoms: C10_18  and  C14_22 
REMARK    8  A    between atoms: C14_22  and  O3_25 
ROOT
HETATM    1  C8  UNL     1       0.230   1.843   0.379  1.00  0.00     0.185 C 
ENDROOT
BRANCH   1   2
HETATM    2  C7  UNL     1       1.446   1.422  -0.300  1.00  0.00     0.243 C 
HETATM    3  N2  UNL     1       2.683   1.074   0.272  1.00  0.00    -0.349 N 
HETATM    4  C6  UNL     1       2.813   1.092   1.704  1.00  0.00     0.127 C 
HETATM    5  C21 UNL     1       3.773   0.716  -0.634  1.00  0.00     0.154 C 
HETATM    6  C5  UNL     1       3.748  -0.053   2.113  1.00  0.00     0.048 C 
HETATM    7  C4  UNL     1       3.357  -1.271   1.364  1.00  0.00     0.238 C 
HETATM    8  N1  UNL     1       4.147  -1.564   0.208  1.00  0.00    -0.070 N 
HETATM    9  C3  UNL     1       3.854  -2.954  -0.161  1.00  0.00     0.272 C 
HETATM   10  C22 UNL     1       3.799  -0.749  -0.912  1.00  0.00     0.256 C 
HETATM   11  O1  UNL     1       1.386   1.354  -1.593  1.00  0.00    -0.271 OA
BRANCH   8  12
HETATM   12  C2  UNL     1       5.576  -1.426   0.471  1.00  0.00     0.232 C 
HETATM   13  C1  UNL     1       6.398  -2.145  -0.578  1.00  0.00     0.035 C 
ENDBRANCH   8  12
ENDBRANCH   1   2
BRANCH   1  14
HETATM   14  N3  UNL     1      -0.907   1.274  -0.390  1.00  0.00    -0.329 N 
HETATM   15  C9  UNL     1      -1.840   0.422   0.215  1.00  0.00     0.317 C 
HETATM   16  O2  UNL     1      -1.758   0.104   1.423  1.00  0.00    -0.247 OA
HETATM   17  N4  UNL     1      -2.901  -0.096  -0.544  1.00  0.00    -0.335 N 
ATOM     18  H4  UNL     1      -2.971   0.161  -1.529  1.00  0.00     0.164 HD
ATOM     19  H3  UNL     1      -1.010   1.508  -1.377  1.00  0.00     0.165 HD
BRANCH  17  20
HETATM   20  C10 UNL     1      -3.918  -0.997   0.028  1.00  0.00     0.123 C 
BRANCH  20  21
HETATM   21  C11 UNL     1      -3.808  -2.267  -0.744  1.00  0.00     0.003 C 
HETATM   22  C12 UNL     1      -2.371  -2.771  -0.528  1.00  0.00     0.011 C 
HETATM   23  C13 UNL     1      -4.696  -3.384  -0.299  1.00  0.00     0.011 C 
ENDBRANCH  20  21
BRANCH  20  24
HETATM   24  C14 UNL     1      -5.211  -0.268  -0.065  1.00  0.00     0.071 C 
HETATM   25  C15 UNL     1      -6.382  -0.978   0.575  1.00  0.00     0.047 C 
HETATM   26  C16 UNL     1      -5.535   0.186  -1.473  1.00  0.00     0.047 C 
BRANCH  24  27
HETATM   27  O3  UNL     1      -5.043   0.921   0.688  1.00  0.00    -0.389 OA
ATOM     28  H3  UNL     1      -5.869   1.387   0.629  1.00  0.00     0.210 HD
ENDBRANCH  24  27
ENDBRANCH  20  24
ENDBRANCH  17  20
ENDBRANCH   1  14
BRANCH   1  29
HETATM   29  C17 UNL     1       0.015   3.344   0.401  1.00  0.00    -0.022 C 
HETATM   30  C18 UNL     1       1.133   4.047   1.094  1.00  0.00     0.017 C 
HETATM   31  C19 UNL     1      -0.236   3.910  -0.972  1.00  0.00     0.017 C 
HETATM   32  C20 UNL     1      -1.250   3.588   1.228  1.00  0.00     0.017 C 
ENDBRANCH   1  29
TORSDOF 8
