REMARK  1 active torsions:
REMARK  status: ('A' for Active; 'I' for Inactive)
REMARK    1  A    between atoms: C2_2  and  C3_3 
ROOT
HETATM    1  C3  UNL     1       0.740   0.361   0.284  1.00  0.00     0.027 A 
HETATM    2  C4  UNL     1      -0.203  -0.432   0.925  1.00  0.00     0.118 A 
HETATM    3  N1  UNL     1      -1.374  -0.332   0.269  1.00  0.00    -0.334 N 
HETATM    4  C5  UNL     1      -2.588  -1.029   0.659  1.00  0.00     0.158 C 
HETATM    5  C6  UNL     1      -1.201   0.503  -0.772  1.00  0.00     0.194 A 
HETATM    6  N2  UNL     1      -2.197   0.887  -1.732  1.00  0.00    -0.063 NA
HETATM    7  N3  UNL     1       0.086   0.914  -0.749  1.00  0.00    -0.333 N 
ATOM      8  H3  UNL     1       0.503   1.556  -1.423  1.00  0.00     0.168 HD
ENDROOT
BRANCH   1   9
HETATM    9  C2  UNL     1       2.167   0.541   0.681  1.00  0.00     0.054 C 
HETATM   10  C1  UNL     1       3.079  -0.450   0.044  1.00  0.00     0.011 C 
ENDBRANCH   1   9
TORSDOF 1
