REMARK  2 active torsions:
REMARK  status: ('A' for Active; 'I' for Inactive)
REMARK    1  A    between atoms: C2_2  and  N1_3 
REMARK    2  A    between atoms: C4_6  and  N3_7 
ROOT
HETATM    1  N1  UNL     1       0.081   0.308   0.448  1.00  0.00     0.055 N 
HETATM    2  C3  UNL     1       0.465   1.597   1.050  1.00  0.00     0.302 C 
HETATM    3  N2  UNL     1       0.479  -0.776   1.189  1.00  0.00     0.021 NA
HETATM    4  C4  UNL     1       1.041  -0.509  -0.152  1.00  0.00     0.524 A 
ENDROOT
BRANCH   4   5
HETATM    5  N3  UNL     1       2.427  -0.325  -0.149  1.00  0.00    -0.032 N 
ATOM      6  H33 UNL     1       2.587   0.613  -0.516  1.00  0.00     0.278 HD
ATOM      7  H32 UNL     1       2.698  -0.245   0.831  1.00  0.00     0.278 HD
ATOM      8  H31 UNL     1       3.128  -0.922  -0.587  1.00  0.00     0.278 HD
ENDBRANCH   4   5
BRANCH   1   9
HETATM    9  C2  UNL     1      -1.234   0.375  -0.134  1.00  0.00     0.260 C 
HETATM   10  C1  UNL     1      -1.832  -0.985  -0.388  1.00  0.00     0.036 C 
ENDBRANCH   1   9
TORSDOF 2
