REMARK  2 active torsions:
REMARK  status: ('A' for Active; 'I' for Inactive)
REMARK    1  A    between atoms: C3_4  and  C4_5 
REMARK    2  A    between atoms: C4_5  and  N2_6 
ROOT
HETATM    1  C1  UNL     1       2.746   0.793  -0.010  1.00  0.00     0.177 C 
HETATM    2  N1  UNL     1       1.464   0.115   0.038  1.00  0.00    -0.308 N 
HETATM    3  C2  UNL     1       0.303   0.582  -0.460  1.00  0.00     0.119 A 
HETATM    4  C3  UNL     1      -0.683  -0.343  -0.221  1.00  0.00     0.001 A 
HETATM    5  C5  UNL     1      -0.083  -1.393   0.441  1.00  0.00     0.117 A 
HETATM    6  N3  UNL     1       1.232  -1.072   0.580  1.00  0.00    -0.310 N 
ATOM      7  H3  UNL     1       1.934  -1.657   1.033  1.00  0.00     0.186 HD
ENDROOT
BRANCH   4   8
HETATM    8  C4  UNL     1      -2.104  -0.243  -0.594  1.00  0.00     0.271 C 
BRANCH   8   9
HETATM    9  N2  UNL     1      -2.832   0.372   0.449  1.00  0.00    -0.075 N 
ATOM     10  H23 UNL     1      -2.703  -0.107   1.340  1.00  0.00     0.274 HD
ATOM     11  H22 UNL     1      -2.439   1.277   0.708  1.00  0.00     0.274 HD
ATOM     12  H21 UNL     1      -3.816   0.441   0.191  1.00  0.00     0.274 HD
ENDBRANCH   8   9
ENDBRANCH   4   8
TORSDOF 2
