REMARK  8 active torsions:
REMARK  status: ('A' for Active; 'I' for Inactive)
REMARK    1  A    between atoms: N1_1  and  C1_4 
REMARK    2  A    between atoms: C2_7  and  N3_8 
REMARK    3  A    between atoms: N3_8  and  C3_10 
REMARK    4  A    between atoms: C3_10  and  C4_11 
REMARK    5  A    between atoms: C4_11  and  O1_12 
REMARK    6  A    between atoms: N5_21  and  C8_22 
REMARK    7  A    between atoms: C10_24  and  C11_25 
REMARK    8  A    between atoms: C11_25  and  O4_26 
ROOT
HETATM    1  C1  UNL     1      -1.439  -1.543  -1.154  1.00  0.00     0.679 A 
HETATM    2  N2  UNL     1      -2.633  -1.371  -0.523  1.00  0.00    -0.176 N 
ATOM      3  H2  UNL     1      -3.418  -1.974  -0.769  1.00  0.00     0.186 HD
HETATM    4  C2  UNL     1      -2.803  -0.425   0.417  1.00  0.00     0.136 A 
HETATM    5  C5  UNL     1      -1.732   0.379   0.735  1.00  0.00     0.121 A 
HETATM    6  C6  UNL     1      -1.859   1.358   1.689  1.00  0.00     0.267 A 
HETATM    7  O2  UNL     1      -2.964   1.499   2.256  1.00  0.00    -0.267 OA
HETATM    8  N4  UNL     1      -0.775   2.139   1.981  1.00  0.00    -0.274 N 
ATOM      9  H4  UNL     1      -0.856   2.870   2.688  1.00  0.00     0.173 HD
HETATM   10  C7  UNL     1       0.388   1.956   1.352  1.00  0.00     0.333 A 
HETATM   11  O3  UNL     1       1.360   2.674   1.630  1.00  0.00    -0.246 OA
HETATM   12  N5  UNL     1       0.520   1.003   0.421  1.00  0.00    -0.254 N 
HETATM   13  C13 UNL     1      -0.513   0.189   0.078  1.00  0.00     0.149 A 
HETATM   14  N7  UNL     1      -0.388  -0.766  -0.853  1.00  0.00    -0.175 N 
ATOM     15  H7  UNL     1       0.503  -0.902  -1.331  1.00  0.00     0.186 HD
ENDROOT
BRANCH  12  16
HETATM   16  C8  UNL     1       1.787   0.859  -0.214  1.00  0.00     0.259 C 
HETATM   17  C9  UNL     1       2.638  -0.260   0.335  1.00  0.00     0.064 C 
HETATM   18  C10 UNL     1       3.859  -0.351  -0.568  1.00  0.00     0.030 C 
HETATM   19  C12 UNL     1       4.584   0.963  -0.453  1.00  0.00     0.149 C 
HETATM   20  N6  UNL     1       3.658   2.012  -0.825  1.00  0.00    -0.098 NA
HETATM   21  O5  UNL     1       2.557   2.047  -0.094  1.00  0.00    -0.260 OA
BRANCH  18  22
HETATM   22  C11 UNL     1       4.729  -1.532  -0.213  1.00  0.00     0.170 C 
BRANCH  22  23
HETATM   23  O4  UNL     1       5.203  -1.487   1.073  1.00  0.00    -0.400 OA
ATOM     24  H4  UNL     1       5.751  -2.230   1.296  1.00  0.00     0.209 HD
ENDBRANCH  22  23
ENDBRANCH  18  22
ENDBRANCH  12  16
BRANCH   4  25
HETATM   25  N3  UNL     1      -3.906  -0.217   1.045  1.00  0.00    -0.373 N 
ATOM     26  H3  UNL     1      -3.905   0.533   1.736  1.00  0.00     0.161 HD
BRANCH  25  27
HETATM   27  C3  UNL     1      -5.133  -0.929   0.873  1.00  0.00     0.147 C 
BRANCH  27  28
HETATM   28  C4  UNL     1      -6.039  -0.066  -0.015  1.00  0.00     0.183 C 
BRANCH  28  29
HETATM   29  O1  UNL     1      -5.371   0.108  -1.217  1.00  0.00    -0.399 OA
ATOM     30  H1  UNL     1      -5.932   0.642  -1.767  1.00  0.00     0.209 HD
ENDBRANCH  28  29
ENDBRANCH  27  28
ENDBRANCH  25  27
ENDBRANCH   4  25
BRANCH   1  31
HETATM   31  N1  UNL     1      -1.353  -2.483  -2.055  1.00  0.00    -0.234 N 
ATOM     32  H12 UNL     1      -2.152  -3.074  -2.284  1.00  0.00     0.174 HD
ATOM     33  H11 UNL     1      -0.458  -2.612  -2.528  1.00  0.00     0.174 HD
ENDBRANCH   1  31
TORSDOF 8
