REMARK  13 active torsions:
REMARK  status: ('A' for Active; 'I' for Inactive)
REMARK    1  A    between atoms: C2_2  and  C3_3 
REMARK    2  A    between atoms: C3_3  and  C4_4 
REMARK    3  A    between atoms: C4_4  and  C5_5 
REMARK    4  A    between atoms: C5_5  and  C6_6 
REMARK    5  A    between atoms: C6_6  and  C7_7 
REMARK    6  A    between atoms: C7_7  and  C8_8 
REMARK    7  A    between atoms: C9_9  and  C10_10 
REMARK    8  A    between atoms: C10_10  and  O1_11 
REMARK    9  A    between atoms: C16_18  and  O2_19 
REMARK   10  A    between atoms: C17_21  and  O3_22 
REMARK   11  A    between atoms: C22_27  and  C23_28 
REMARK   12  A    between atoms: C24_29  and  C25_30 
REMARK   13  A    between atoms: C26_31  and  C27_32 
ROOT
HETATM    1  C10 UNL     1      -0.825  -1.533  -0.890  1.00  0.00     0.145 C 
HETATM    2  C11 UNL     1      -0.301  -2.820  -0.353  1.00  0.00     0.051 A 
HETATM    3  C12 UNL     1      -0.253  -2.690   1.030  1.00  0.00     0.012 A 
HETATM    4  C13 UNL     1      -1.298  -1.594   1.347  1.00  0.00     0.017 C 
HETATM    5  C14 UNL     1      -2.193  -2.446   2.213  1.00  0.00     0.015 C 
HETATM    6  C15 UNL     1      -2.165  -3.687   1.429  1.00  0.00     0.035 C 
HETATM    7  C16 UNL     1      -3.010  -3.668   0.188  1.00  0.00     0.094 C 
HETATM    8  C17 UNL     1      -1.832  -4.548  -0.282  1.00  0.00     0.165 C 
HETATM    9  C19 UNL     1      -0.986  -3.750   0.525  1.00  0.00     0.008 A 
HETATM   10  C20 UNL     1      -3.061  -2.296  -0.350  1.00  0.00     0.044 C 
HETATM   11  C21 UNL     1      -4.483  -1.775  -0.129  1.00  0.00     0.015 C 
HETATM   12  C22 UNL     1      -2.021  -1.335   0.059  1.00  0.00     0.077 C 
ENDROOT
BRANCH   1  13
HETATM   13  C9  UNL     1       0.149  -0.469  -0.625  1.00  0.00    -0.066 C 
HETATM   14  C8  UNL     1       0.964   0.397  -0.416  1.00  0.00    -0.098 C 
BRANCH  14  15
HETATM   15  C7  UNL     1       1.954   1.490  -0.171  1.00  0.00     0.146 C 
BRANCH  15  16
HETATM   16  C6  UNL     1       3.070   1.067   0.663  1.00  0.00    -0.007 C 
HETATM   17  N1  UNL     1       3.094  -0.200   1.001  1.00  0.00    -0.400 N 
HETATM   18  C30 UNL     1       4.147  -0.736   1.815  1.00  0.00     0.145 C 
ATOM     19  H1  UNL     1       2.349  -0.817   0.679  1.00  0.00     0.158 HD
BRANCH  16  20
HETATM   20  C5  UNL     1       4.171   1.874   1.167  1.00  0.00     0.053 C 
BRANCH  20  21
HETATM   21  C4  UNL     1       5.234   2.364   0.260  1.00  0.00     0.009 C 
BRANCH  21  22
HETATM   22  C3  UNL     1       4.758   3.250  -0.827  1.00  0.00     0.026 C 
BRANCH  22  23
HETATM   23  C2  UNL     1       5.988   3.717  -1.600  1.00  0.00    -0.037 C 
HETATM   24  C1  UNL     1       6.224   5.013  -1.650  1.00  0.00     0.007 C 
ENDBRANCH  22  23
ENDBRANCH  21  22
ENDBRANCH  20  21
ENDBRANCH  16  20
ENDBRANCH  15  16
ENDBRANCH  14  15
ENDBRANCH   1  13
BRANCH   1  25
HETATM   25  O1  UNL     1      -1.226  -1.582  -2.204  1.00  0.00    -0.375 OA
ATOM     26  H1  UNL     1      -1.857  -2.271  -2.376  1.00  0.00     0.211 HD
ENDBRANCH   1  25
BRANCH  12  27
HETATM   27  C23 UNL     1      -2.490   0.048  -0.038  1.00  0.00    -0.077 C 
HETATM   28  C24 UNL     1      -2.898   1.195  -0.111  1.00  0.00    -0.014 C 
BRANCH  28  29
HETATM   29  C25 UNL     1      -3.395   2.520  -0.189  1.00  0.00    -0.010 C 
HETATM   30  C26 UNL     1      -3.840   3.647  -0.255  1.00  0.00    -0.065 C 
BRANCH  30  31
HETATM   31  C27 UNL     1      -4.387   4.964  -0.337  1.00  0.00     0.061 C 
HETATM   32  C28 UNL     1      -3.583   6.017  -0.249  1.00  0.00    -0.022 C 
HETATM   33  C29 UNL     1      -2.127   5.865  -0.067  1.00  0.00     0.036 C 
ENDBRANCH  30  31
ENDBRANCH  28  29
ENDBRANCH  12  27
BRANCH   8  34
HETATM   34  O3  UNL     1      -1.772  -4.656  -1.641  1.00  0.00    -0.387 OA
HETATM   35  C18 UNL     1      -1.970  -5.951  -2.112  1.00  0.00     0.202 C 
ENDBRANCH   8  34
BRANCH   7  36
HETATM   36  O2  UNL     1      -4.192  -4.353   0.318  1.00  0.00    -0.386 OA
ATOM     37  H2  UNL     1      -4.727  -4.341  -0.467  1.00  0.00     0.210 HD
ENDBRANCH   7  36
TORSDOF 13
