REMARK  2 active torsions:
REMARK  status: ('A' for Active; 'I' for Inactive)
REMARK    1  A    between atoms: C2_2  and  C3_3 
REMARK    2  A    between atoms: C9_12  and  C10_13 
ROOT
HETATM    1  C1  UNL     1      -2.053  -0.547   1.447  1.00  0.00     0.048 C 
HETATM    2  C2  UNL     1      -1.430  -0.417   0.073  1.00  0.00     0.124 C 
HETATM    3  C4  UNL     1      -1.319   1.041  -0.243  1.00  0.00     0.040 C 
HETATM    4  C5  UNL     1      -0.180   1.378  -1.164  1.00  0.00     0.003 C 
HETATM    5  C6  UNL     1       0.908   2.156  -0.501  1.00  0.00     0.000 C 
HETATM    6  C7  UNL     1       2.067   1.315  -0.041  1.00  0.00     0.006 C 
HETATM    7  C8  UNL     1       1.706   0.304   0.999  1.00  0.00     0.060 C 
HETATM    8  C9  UNL     1       1.067  -0.897   0.422  1.00  0.00     0.044 C 
HETATM    9  N2  UNL     1      -0.173  -1.112   0.082  1.00  0.00    -0.374 N 
ATOM     10  H2  UNL     1      -0.284  -2.056  -0.288  1.00  0.00     0.160 HD
ENDROOT
BRANCH   2  11
HETATM   11  C3  UNL     1      -2.327  -1.145  -0.931  1.00  0.00     0.412 C 
HETATM   12  F1  UNL     1      -2.411  -2.469  -0.563  1.00  0.00    -0.168 F 
HETATM   13  F2  UNL     1      -3.545  -0.518  -0.981  1.00  0.00    -0.168 F 
HETATM   14  F3  UNL     1      -1.770  -1.114  -2.194  1.00  0.00    -0.168 F 
ENDBRANCH   2  11
BRANCH   8  15
HETATM   15  C10 UNL     1       1.947  -2.023   0.193  1.00  0.00     0.119 C 
HETATM   16  N1  UNL     1       1.549  -3.139  -0.302  1.00  0.00    -0.388 N 
ATOM     17  H12 UNL     1       0.564  -3.240  -0.547  1.00  0.00     0.157 HD
ATOM     18  H11 UNL     1       2.169  -3.933  -0.463  1.00  0.00     0.157 HD
HETATM   19 CL1  UNL     1       3.635  -1.850   0.612  1.00  0.00    -0.063 Cl
ENDBRANCH   8  15
TORSDOF 2
