REMARK  5 active torsions:
REMARK  status: ('A' for Active; 'I' for Inactive)
REMARK    1  A    between atoms: O1_2  and  C2_3 
REMARK    2  A    between atoms: C5_6  and  C6_7 
REMARK    3  A    between atoms: C6_7  and  N5_17 
REMARK    4  A    between atoms: N1_8  and  N2_10 
REMARK       I    between atoms: N2_10  and  C7_12 
REMARK    5  A    between atoms: N5_17  and  S1_19 
ROOT
HETATM    1  C6  UNL     1      -0.642   0.062   0.458  1.00  0.00     0.139 C 
HETATM    2  N1  UNL     1      -1.538   0.960   0.250  1.00  0.00    -0.282 N 
ATOM      3  H1  UNL     1      -1.263   1.806  -0.249  1.00  0.00     0.188 HD
ENDROOT
BRANCH   1   4
HETATM    4  C5  UNL     1       0.726   0.229   0.002  1.00  0.00     0.010 A 
HETATM    5  C4  UNL     1       0.967   0.978  -1.133  1.00  0.00     0.018 A 
HETATM    6  C3  UNL     1       2.249   1.166  -1.605  1.00  0.00     0.037 A 
HETATM    7  C2  UNL     1       3.282   0.581  -0.904  1.00  0.00     0.068 A 
HETATM    8  C10 UNL     1       3.076  -0.171   0.233  1.00  0.00     0.037 A 
HETATM    9  C9  UNL     1       1.788  -0.349   0.690  1.00  0.00     0.018 A 
BRANCH   7  10
HETATM   10  O1  UNL     1       4.580   0.773  -1.383  1.00  0.00    -0.356 OA
HETATM   11  C1  UNL     1       5.666   0.197  -0.702  1.00  0.00     0.210 C 
ENDBRANCH   7  10
ENDBRANCH   1   4
BRANCH   1  12
HETATM   12  N5  UNL     1      -1.002  -1.120   1.147  1.00  0.00    -0.268 N 
ATOM     13  H5  UNL     1      -1.209  -1.087   2.145  1.00  0.00     0.180 HD
BRANCH  12  14
HETATM   14  S1  UNL     1      -1.091  -2.619   0.295  1.00  0.00     0.228 S 
HETATM   15  C8  UNL     1      -2.339  -2.488  -0.972  1.00  0.00     0.186 C 
HETATM   16  O2  UNL     1       0.242  -2.899  -0.287  1.00  0.00    -0.206 OA
HETATM   17  O3  UNL     1      -1.510  -3.720   1.225  1.00  0.00    -0.206 OA
ENDBRANCH  12  14
ENDBRANCH   1  12
BRANCH   2  18
HETATM   18  N2  UNL     1      -2.858   0.845   0.665  1.00  0.00    -0.272 N 
HETATM   19  C7  UNL     1      -3.697   1.986   0.664  1.00  0.00     0.200 C 
HETATM   20  N3  UNL     1      -3.429   2.940  -0.152  1.00  0.00    -0.372 N 
HETATM   21  N4  UNL     1      -4.818   2.138   1.512  1.00  0.00    -0.062 NA
ATOM     22  H32 UNL     1      -2.620   2.830  -0.764  1.00  0.00     0.158 HD
ATOM     23  H31 UNL     1      -4.033   3.762  -0.153  1.00  0.00     0.158 HD
ATOM     24  H2  UNL     1      -3.222  -0.058   0.969  1.00  0.00     0.189 HD
ENDBRANCH   2  18
TORSDOF 5
