REMARK  5 active torsions:
REMARK  status: ('A' for Active; 'I' for Inactive)
REMARK       I    between atoms: C1_4  and  N3_6 
REMARK       I    between atoms: N3_6  and  C2_7 
REMARK    1  A    between atoms: C2_7  and  C3_9 
REMARK    2  A    between atoms: C8_14  and  C9_15 
REMARK    3  A    between atoms: C9_15  and  O2_16 
REMARK    4  A    between atoms: C9_15  and  N4_18 
REMARK    5  A    between atoms: C13_22  and  N5_23 
ROOT
HETATM    1  C3  UNL     1      -1.606  -1.064  -0.674  1.00  0.00     0.057 A 
HETATM    2  C4  UNL     1      -2.374  -2.160  -1.051  1.00  0.00     0.019 A 
HETATM    3  C5  UNL     1      -2.143  -3.390  -0.472  1.00  0.00     0.001 A 
HETATM    4  C6  UNL     1      -1.152  -3.489   0.464  1.00  0.00     0.001 A 
HETATM    5  C7  UNL     1      -0.407  -2.391   0.820  1.00  0.00     0.012 A 
HETATM    6  C8  UNL     1      -0.616  -1.126   0.252  1.00  0.00     0.006 A 
ENDROOT
BRANCH   6   7
HETATM    7  C9  UNL     1       0.197   0.028   0.666  1.00  0.00     0.251 C 
BRANCH   7   8
HETATM    8  O2  UNL     1       0.329   0.016   2.082  1.00  0.00    -0.373 OA
ATOM      9  H2  UNL     1       0.854   0.761   2.349  1.00  0.00     0.212 HD
ENDBRANCH   7   8
BRANCH   7  10
HETATM   10  N4  UNL     1       1.455   0.174   0.040  1.00  0.00    -0.382 N 
HETATM   11  C10 UNL     1       2.418  -0.851   0.187  1.00  0.00     0.119 C 
HETATM   12  C11 UNL     1       3.161  -0.804   1.505  1.00  0.00     0.022 C 
HETATM   13  C12 UNL     1       3.876   0.521   1.530  1.00  0.00     0.036 C 
HETATM   14  C13 UNL     1       3.010   1.700   1.205  1.00  0.00     0.201 C 
HETATM   15  C14 UNL     1       2.026   1.487   0.119  1.00  0.00     0.152 C 
BRANCH  14  16
HETATM   16  N5  UNL     1       3.889   2.793   0.830  1.00  0.00    -0.073 N 
ATOM     17  H53 UNL     1       4.593   2.999   1.539  1.00  0.00     0.274 HD
ATOM     18  H52 UNL     1       4.529   2.548   0.074  1.00  0.00     0.274 HD
ATOM     19  H51 UNL     1       3.300   3.596   0.609  1.00  0.00     0.274 HD
ENDBRANCH  14  16
ENDBRANCH   7  10
ENDBRANCH   6   7
BRANCH   1  20
HETATM   20  C2  UNL     1      -1.883   0.226  -1.348  1.00  0.00     0.329 C 
HETATM   21  N3  UNL     1      -3.169   0.686  -1.307  1.00  0.00    -0.334 NA
HETATM   22  C1  UNL     1      -4.422   1.140  -1.270  1.00  0.00     0.264 C 
HETATM   23  N1  UNL     1      -5.375   0.435  -0.617  1.00  0.00    -0.362 N 
HETATM   24  N2  UNL     1      -5.007   2.334  -1.839  1.00  0.00    -0.049 NA
ATOM     25  H12 UNL     1      -6.334   0.782  -0.589  1.00  0.00     0.159 HD
ATOM     26  H11 UNL     1      -4.962  -0.407  -0.216  1.00  0.00     0.159 HD
HETATM   27  O1  UNL     1      -0.900   0.754  -1.888  1.00  0.00    -0.251 OA
ENDBRANCH   1  20
TORSDOF 5
