REMARK  4 active torsions:
REMARK  status: ('A' for Active; 'I' for Inactive)
REMARK    1  A    between atoms: C4_6  and  C5_7 
REMARK    2  A    between atoms: C5_7  and  S1_8 
REMARK    3  A    between atoms: S1_8  and  C6_9 
REMARK    4  A    between atoms: C8_15  and  O4_16 
ROOT
HETATM    1  C1  UNL     1      -3.310  -0.433  -0.801  1.00  0.00     0.042 C 
HETATM    2  C2  UNL     1      -2.133  -0.891   0.004  1.00  0.00     0.152 C 
HETATM    3  O1  UNL     1      -1.032  -1.082  -0.828  1.00  0.00    -0.351 OA
HETATM    4  C3  UNL     1      -0.618   0.207  -1.171  1.00  0.00     0.295 C 
HETATM    5  O2  UNL     1       0.749   0.302  -1.370  1.00  0.00    -0.328 OA
HETATM    6  C4  UNL     1       1.318   0.740  -0.194  1.00  0.00     0.273 C 
HETATM    7  O3  UNL     1       0.384   1.409   0.539  1.00  0.00    -0.348 OA
HETATM    8  C7  UNL     1      -0.863   1.075   0.024  1.00  0.00     0.211 C 
HETATM    9  C8  UNL     1      -1.640   0.177   0.941  1.00  0.00     0.180 C 
ENDROOT
BRANCH   6  10
HETATM   10  C5  UNL     1       1.774  -0.481   0.568  1.00  0.00     0.140 C 
BRANCH  10  11
HETATM   11  S1  UNL     1       2.992  -1.376  -0.451  1.00  0.00    -0.120 SA
BRANCH  11  12
HETATM   12  C6  UNL     1       4.430  -0.309  -0.575  1.00  0.00     0.126 C 
HETATM   13  N1  UNL     1       5.083  -0.083   0.488  1.00  0.00    -0.403 N 
ATOM     14  H12 UNL     1       4.789  -0.499   1.372  1.00  0.00     0.155 HD
ATOM     15  H11 UNL     1       5.900   0.523   0.418  1.00  0.00     0.155 HD
ENDBRANCH  11  12
ENDBRANCH  10  11
ENDBRANCH   6  10
BRANCH   9  16
HETATM   16  O4  UNL     1      -2.688   0.850   1.569  1.00  0.00    -0.390 OA
ATOM     17  H4  UNL     1      -2.377   1.525   2.161  1.00  0.00     0.210 HD
ENDBRANCH   9  16
TORSDOF 4
