REMARK  13 active torsions:
REMARK  status: ('A' for Active; 'I' for Inactive)
REMARK    1  A    between atoms: C2_2  and  O1_3 
REMARK    2  A    between atoms: C2_2  and  C3_5 
REMARK    3  A    between atoms: C5_8  and  C6_9 
REMARK    4  A    between atoms: C6_9  and  C7_10 
REMARK    5  A    between atoms: C7_10  and  C8_11 
REMARK    6  A    between atoms: C8_11  and  C9_12 
REMARK    7  A    between atoms: C9_12  and  C10_13 
REMARK    8  A    between atoms: C10_13  and  C11_14 
REMARK    9  A    between atoms: C11_14  and  C12_15 
REMARK   10  A    between atoms: C12_15  and  C13_16 
REMARK   11  A    between atoms: C15_19  and  O4_20 
REMARK   12  A    between atoms: C16_22  and  O5_23 
REMARK   13  A    between atoms: C17_25  and  O6_26 
ROOT
HETATM    1  C10 UNL     1      -0.950   1.683  -0.405  1.00  0.00     0.000 C 
ENDROOT
BRANCH   1   2
HETATM    2  C9  UNL     1      -0.639   1.980   1.038  1.00  0.00     0.000 C 
BRANCH   2   3
HETATM    3  C8  UNL     1       0.645   1.344   1.496  1.00  0.00     0.000 C 
BRANCH   3   4
HETATM    4  C7  UNL     1       1.835   1.804   0.717  1.00  0.00     0.005 C 
BRANCH   4   5
HETATM    5  C6  UNL     1       3.107   1.161   1.198  1.00  0.00     0.061 C 
BRANCH   5   6
HETATM    6  C5  UNL     1       3.084  -0.334   1.081  1.00  0.00     0.260 C 
HETATM    7  O2  UNL     1       2.903  -0.686  -0.251  1.00  0.00    -0.359 OA
HETATM    8  C4  UNL     1       4.178  -0.742  -0.792  1.00  0.00     0.205 C 
HETATM    9  C3  UNL     1       5.113  -0.631   0.366  1.00  0.00     0.176 C 
HETATM   10  O7  UNL     1       4.315  -0.866   1.477  1.00  0.00    -0.351 OA
BRANCH   9  11
HETATM   11  C2  UNL     1       6.254  -1.627   0.276  1.00  0.00     0.145 C 
HETATM   12  C1  UNL     1       7.176  -1.299  -0.871  1.00  0.00     0.042 C 
BRANCH  11  13
HETATM   13  O1  UNL     1       5.733  -2.906   0.182  1.00  0.00    -0.393 OA
ATOM     14  H1  UNL     1       5.152  -3.113   0.905  1.00  0.00     0.210 HD
ENDBRANCH  11  13
ENDBRANCH   9  11
ENDBRANCH   5   6
ENDBRANCH   4   5
ENDBRANCH   3   4
ENDBRANCH   2   3
ENDBRANCH   1   2
BRANCH   1  15
HETATM   15  C11 UNL     1      -2.230   2.316  -0.854  1.00  0.00     0.002 C 
BRANCH  15  16
HETATM   16  C12 UNL     1      -3.401   1.828  -0.043  1.00  0.00     0.034 C 
BRANCH  16  17
HETATM   17  C13 UNL     1      -3.559   0.326  -0.174  1.00  0.00     0.152 C 
HETATM   18  O3  UNL     1      -3.765   0.037  -1.497  1.00  0.00    -0.381 OA
HETATM   19  C14 UNL     1      -4.037  -1.275  -1.779  1.00  0.00     0.202 C 
HETATM   20  C15 UNL     1      -5.168  -1.848  -0.958  1.00  0.00     0.173 C 
HETATM   21  C16 UNL     1      -4.936  -1.557   0.518  1.00  0.00     0.180 C 
HETATM   22  C17 UNL     1      -4.781  -0.055   0.641  1.00  0.00     0.178 C 
BRANCH  20  23
HETATM   23  O4  UNL     1      -6.376  -1.251  -1.302  1.00  0.00    -0.391 OA
ATOM     24  H4  UNL     1      -7.087  -1.611  -0.786  1.00  0.00     0.210 HD
ENDBRANCH  20  23
BRANCH  21  25
HETATM   25  O5  UNL     1      -6.028  -2.024   1.245  1.00  0.00    -0.390 OA
ATOM     26  H5  UNL     1      -5.883  -1.842   2.166  1.00  0.00     0.210 HD
ENDBRANCH  21  25
BRANCH  22  27
HETATM   27  O6  UNL     1      -4.644   0.331   1.970  1.00  0.00    -0.390 OA
ATOM     28  H6  UNL     1      -5.409   0.092   2.480  1.00  0.00     0.210 HD
ENDBRANCH  22  27
ENDBRANCH  16  17
ENDBRANCH  15  16
ENDBRANCH   1  15
TORSDOF 13
