REMARK  17 active torsions:
REMARK  status: ('A' for Active; 'I' for Inactive)
REMARK    1  A    between atoms: C2_2  and  O1_3 
REMARK    2  A    between atoms: C2_2  and  C3_5 
REMARK    3  A    between atoms: C3_5  and  C4_6 
REMARK    4  A    between atoms: C4_6  and  C5_7 
REMARK    5  A    between atoms: C5_7  and  C6_8 
REMARK    6  A    between atoms: C6_8  and  O2_9 
REMARK    7  A    between atoms: C6_8  and  C7_11 
REMARK    8  A    between atoms: C7_11  and  C8_12 
REMARK    9  A    between atoms: C8_12  and  C9_13 
REMARK   10  A    between atoms: C9_13  and  C10_14 
REMARK   11  A    between atoms: C11_15  and  C12_16 
REMARK   12  A    between atoms: C12_16  and  C13_17 
REMARK   13  A    between atoms: C15_19  and  C17_21 
REMARK   14  A    between atoms: C17_21  and  O3_22 
REMARK   15  A    between atoms: O3_22  and  C18_23 
REMARK   16  A    between atoms: C20_26  and  O5_27 
REMARK   17  A    between atoms: C21_30  and  O7_31 
ROOT
HETATM    1  C13 UNL     1       1.770  -3.454  -0.277  1.00  0.00    -0.000 A 
HETATM    2  C14 UNL     1       3.019  -3.657   0.513  1.00  0.00     0.017 A 
HETATM    3  C15 UNL     1       3.019  -3.564  -1.022  1.00  0.00    -0.018 A 
HETATM    4  C16 UNL     1       3.286  -4.938  -1.660  1.00  0.00     0.018 C 
ENDROOT
BRANCH   1   5
HETATM    5  C12 UNL     1       1.047  -2.163  -0.003  1.00  0.00     0.032 C 
BRANCH   5   6
HETATM    6  C11 UNL     1      -0.175  -2.035  -0.823  1.00  0.00    -0.030 C 
HETATM    7  C10 UNL     1      -1.411  -1.911  -0.396  1.00  0.00    -0.031 C 
BRANCH   7   8
HETATM    8  C9  UNL     1      -1.834  -1.874   0.999  1.00  0.00     0.027 C 
BRANCH   8   9
HETATM    9  C8  UNL     1      -2.546  -0.565   1.341  1.00  0.00     0.006 C 
BRANCH   9  10
HETATM   10  C7  UNL     1      -1.590   0.574   1.091  1.00  0.00     0.032 C 
BRANCH  10  11
HETATM   11  C6  UNL     1      -2.242   1.869   1.425  1.00  0.00     0.118 C 
BRANCH  11  12
HETATM   12  C5  UNL     1      -3.457   2.083   0.587  1.00  0.00     0.032 C 
BRANCH  12  13
HETATM   13  C4  UNL     1      -4.127   3.411   0.897  1.00  0.00     0.005 C 
BRANCH  13  14
HETATM   14  C3  UNL     1      -5.339   3.609   0.046  1.00  0.00     0.031 C 
BRANCH  14  15
HETATM   15  C2  UNL     1      -6.401   2.561   0.216  1.00  0.00     0.114 C 
HETATM   16  C1  UNL     1      -6.939   2.462   1.606  1.00  0.00     0.039 C 
BRANCH  15  17
HETATM   17  O1  UNL     1      -7.476   2.955  -0.607  1.00  0.00    -0.396 OA
ATOM     18  H1  UNL     1      -7.134   3.018  -1.491  1.00  0.00     0.210 HD
ENDBRANCH  15  17
ENDBRANCH  14  15
ENDBRANCH  13  14
ENDBRANCH  12  13
ENDBRANCH  11  12
BRANCH  11  19
HETATM   19  O2  UNL     1      -2.590   1.867   2.776  1.00  0.00    -0.396 OA
ATOM     20  H2  UNL     1      -1.816   1.731   3.310  1.00  0.00     0.210 HD
ENDBRANCH  11  19
ENDBRANCH  10  11
ENDBRANCH   9  10
ENDBRANCH   8   9
ENDBRANCH   7   8
ENDBRANCH   5   6
ENDBRANCH   1   5
BRANCH   3  21
HETATM   21  C17 UNL     1       3.745  -2.394  -1.640  1.00  0.00     0.180 C 
BRANCH  21  22
HETATM   22  O3  UNL     1       4.085  -1.505  -0.659  1.00  0.00    -0.355 OA
BRANCH  22  23
HETATM   23  C18 UNL     1       4.782  -0.386  -1.135  1.00  0.00     0.314 C 
HETATM   24  O4  UNL     1       6.057  -0.318  -0.651  1.00  0.00    -0.351 OA
HETATM   25  C19 UNL     1       6.722   0.850  -0.879  1.00  0.00     0.231 C 
HETATM   26  C20 UNL     1       5.842   2.077  -0.729  1.00  0.00     0.283 C 
HETATM   27  O6  UNL     1       4.676   1.974  -1.447  1.00  0.00    -0.325 OA
HETATM   28  C21 UNL     1       3.968   0.875  -0.998  1.00  0.00     0.315 C 
BRANCH  26  29
HETATM   29  O5  UNL     1       5.624   2.249   0.649  1.00  0.00    -0.369 OA
ATOM     30  H5  UNL     1       5.073   3.017   0.743  1.00  0.00     0.212 HD
ENDBRANCH  26  29
BRANCH  28  31
HETATM   31  O7  UNL     1       2.852   0.775  -1.865  1.00  0.00    -0.367 OA
ATOM     32  H7  UNL     1       2.339   1.570  -1.779  1.00  0.00     0.212 HD
ENDBRANCH  28  31
ENDBRANCH  22  23
ENDBRANCH  21  22
ENDBRANCH   3  21
TORSDOF 17
