REMARK  7 active torsions:
REMARK  status: ('A' for Active; 'I' for Inactive)
REMARK    1  A    between atoms: O1_2  and  N1_3 
REMARK    2  A    between atoms: C3_6  and  N2_7 
REMARK       I    between atoms: N2_7  and  C4_9 
REMARK    3  A    between atoms: C4_9  and  O3_11 
REMARK    4  A    between atoms: C7_15  and  O5_16 
REMARK    5  A    between atoms: C8_18  and  O6_19 
REMARK    6  A    between atoms: O6_19  and  C9_20 
REMARK    7  A    between atoms: C9_20  and  C10_22 
ROOT
HETATM    1  N1  UNL     1       1.193   1.228  -0.893  1.00  0.00    -0.268 N 
ATOM      2  H1  UNL     1       2.176   1.467  -1.027  1.00  0.00     0.194 HD
HETATM    3  C2  UNL     1       0.887   0.359   0.005  1.00  0.00     0.090 C 
HETATM    4  C3  UNL     1       1.873  -0.322   0.861  1.00  0.00     0.276 C 
HETATM    5  O4  UNL     1       1.437  -0.152   2.174  1.00  0.00    -0.358 OA
HETATM    6  C6  UNL     1       0.372  -0.981   2.392  1.00  0.00     0.205 C 
HETATM    7  C7  UNL     1      -0.652  -1.028   1.328  1.00  0.00     0.177 C 
HETATM    8  C8  UNL     1      -0.530  -0.025   0.242  1.00  0.00     0.212 C 
ENDROOT
BRANCH   8   9
HETATM    9  O6  UNL     1      -1.357   1.109   0.410  1.00  0.00    -0.327 OA
BRANCH   9  10
HETATM   10  C9  UNL     1      -2.695   0.973   0.639  1.00  0.00     0.151 C 
HETATM   11  S1  UNL     1      -3.324   1.866   1.875  1.00  0.00    -0.054 SA
BRANCH  10  12
HETATM   12  C10 UNL     1      -3.609   0.112  -0.113  1.00  0.00     0.275 C 
HETATM   13  N3  UNL     1      -4.974   0.154   0.327  1.00  0.00    -0.098 NA
HETATM   14  N4  UNL     1      -5.704   0.279  -0.869  1.00  0.00    -0.019 NA
HETATM   15  N5  UNL     1      -4.877  -0.213  -1.879  1.00  0.00    -0.019 NA
HETATM   16  N6  UNL     1      -3.627   0.369  -1.538  1.00  0.00    -0.098 NA
ENDBRANCH  10  12
ENDBRANCH   9  10
ENDBRANCH   8   9
BRANCH   7  17
HETATM   17  O5  UNL     1      -0.734  -2.328   0.778  1.00  0.00    -0.390 OA
ATOM     18  H5  UNL     1      -1.392  -2.358   0.094  1.00  0.00     0.210 HD
ENDBRANCH   7  17
BRANCH   1  19
HETATM   19  O1  UNL     1       0.251   1.848  -1.679  1.00  0.00    -0.285 OA
HETATM   20  C1  UNL     1       0.347   3.269  -1.851  1.00  0.00     0.237 C 
ENDBRANCH   1  19
BRANCH   4  21
HETATM   21  N2  UNL     1       3.219   0.067   0.648  1.00  0.00    -0.305 N 
HETATM   22  C4  UNL     1       4.184  -0.896   0.233  1.00  0.00     0.362 C 
HETATM   23  O2  UNL     1       3.869  -2.099   0.049  1.00  0.00    -0.238 OA
ATOM     24  H2  UNL     1       3.497   1.038   0.792  1.00  0.00     0.167 HD
BRANCH  22  25
HETATM   25  O3  UNL     1       5.517  -0.561   0.011  1.00  0.00    -0.309 OA
HETATM   26  C5  UNL     1       6.482  -1.513  -0.401  1.00  0.00     0.215 C 
ENDBRANCH  22  25
ENDBRANCH   4  21
TORSDOF 7
