REMARK  4 active torsions:
REMARK  status: ('A' for Active; 'I' for Inactive)
REMARK    1  A    between atoms: N1_2  and  C2_3 
REMARK    2  A    between atoms: C2_3  and  C3_4 
REMARK    3  A    between atoms: C3_4  and  N2_5 
REMARK    4  A    between atoms: C3_4  and  C11_21 
REMARK       I    between atoms: N2_5  and  C4_7 
REMARK       I    between atoms: C4_7  and  N3_9 
REMARK       I    between atoms: N4_13  and  C8_14 
REMARK       I    between atoms: C11_21  and  N7_23 
ROOT
HETATM    1  C3  UNL     1      -0.233   0.690  -0.159  1.00  0.00     0.204 C 
ENDROOT
BRANCH   1   2
HETATM    2  C2  UNL     1      -0.917   1.640   0.761  1.00  0.00     0.271 C 
BRANCH   2   3
HETATM    3  N1  UNL     1      -0.475   3.004   0.713  1.00  0.00    -0.069 N 
HETATM    4  C1  UNL     1      -0.171   3.473  -0.627  1.00  0.00     0.272 C 
HETATM    5  C20 UNL     1      -1.567   3.814   1.212  1.00  0.00     0.237 C 
HETATM    6  C21 UNL     1      -1.064   4.563   2.393  1.00  0.00     0.029 C 
HETATM    7  C22 UNL     1       0.431   4.636   2.154  1.00  0.00     0.029 C 
HETATM    8  C23 UNL     1       0.695   3.282   1.516  1.00  0.00     0.237 C 
ENDBRANCH   2   3
ENDBRANCH   1   2
BRANCH   1   9
HETATM    9  N2  UNL     1       1.199   0.666   0.166  1.00  0.00    -0.328 N 
HETATM   10  C4  UNL     1       2.219   0.763  -0.812  1.00  0.00     0.319 C 
HETATM   11  O1  UNL     1       1.926   0.876  -2.024  1.00  0.00    -0.247 OA
HETATM   12  N3  UNL     1       3.597   0.737  -0.462  1.00  0.00    -0.333 N 
HETATM   13  C5  UNL     1       3.782   0.603   0.979  1.00  0.00     0.129 C 
HETATM   14  C10 UNL     1       4.535   0.839  -1.552  1.00  0.00     0.147 C 
HETATM   15  C6  UNL     1       5.273   0.559   1.191  1.00  0.00     0.040 C 
HETATM   16  C7  UNL     1       5.733  -0.824   0.831  1.00  0.00     0.127 C 
HETATM   17  N4  UNL     1       5.774  -1.066  -0.581  1.00  0.00    -0.354 N 
HETATM   18  C8  UNL     1       6.353  -2.326  -0.874  1.00  0.00     0.184 C 
HETATM   19  C9  UNL     1       5.379  -0.361  -1.762  1.00  0.00     0.145 C 
HETATM   20  N5  UNL     1       7.083  -2.532  -1.926  1.00  0.00    -0.374 N 
HETATM   21  N6  UNL     1       6.189  -3.464  -0.048  1.00  0.00    -0.064 NA
ATOM     22  H52 UNL     1       7.201  -1.712  -2.521  1.00  0.00     0.158 HD
ATOM     23  H51 UNL     1       7.500  -3.439  -2.137  1.00  0.00     0.158 HD
ATOM     24  H2  UNL     1       1.473   0.575   1.144  1.00  0.00     0.165 HD
ENDBRANCH   1   9
BRANCH   1  25
HETATM   25  C11 UNL     1      -0.710  -0.720   0.060  1.00  0.00     0.244 C 
HETATM   26  O2  UNL     1       0.119  -1.569   0.542  1.00  0.00    -0.271 OA
HETATM   27  N7  UNL     1      -1.997  -1.189  -0.225  1.00  0.00    -0.347 N 
HETATM   28  C12 UNL     1      -3.019  -0.351  -0.792  1.00  0.00     0.154 C 
HETATM   29  C19 UNL     1      -2.350  -2.561   0.048  1.00  0.00     0.154 C 
HETATM   30  C13 UNL     1      -3.906  -1.294  -1.623  1.00  0.00     0.257 C 
HETATM   31  N8  UNL     1      -4.622  -2.195  -0.735  1.00  0.00    -0.064 N 
HETATM   32  C14 UNL     1      -5.139  -3.338  -1.458  1.00  0.00     0.237 C 
HETATM   33  C17 UNL     1      -5.846  -1.508  -0.300  1.00  0.00     0.237 C 
HETATM   34  C18 UNL     1      -3.825  -2.609   0.376  1.00  0.00     0.257 C 
HETATM   35  C15 UNL     1      -6.271  -3.863  -0.605  1.00  0.00     0.029 C 
HETATM   36  C16 UNL     1      -6.811  -2.624   0.041  1.00  0.00     0.029 C 
ENDBRANCH   1  25
TORSDOF 4
