REMARK  6 active torsions:
REMARK  status: ('A' for Active; 'I' for Inactive)
REMARK    1  A    between atoms: C2_2  and  N1_3 
REMARK    2  A    between atoms: C2_2  and  C12_16 
REMARK       I    between atoms: N1_3  and  C3_4 
REMARK    3  A    between atoms: C3_4  and  C4_6 
REMARK       I    between atoms: C4_6  and  N2_8 
REMARK    4  A    between atoms: C12_16  and  O3_17 
REMARK    5  A    between atoms: C12_16  and  C13_19 
REMARK    6  A    between atoms: C13_19  and  N3_20 
REMARK       I    between atoms: N5_27  and  C19_28 
ROOT
HETATM    1  C12 UNL     1      -0.230  -0.251  -0.574  1.00  0.00     0.179 C 
ENDROOT
BRANCH   1   2
HETATM    2  C2  UNL     1      -1.680  -0.361  -0.689  1.00  0.00     0.193 C 
HETATM    3  C1  UNL     1      -2.052  -1.913  -0.705  1.00  0.00     0.050 C 
BRANCH   2   4
HETATM    4  N1  UNL     1      -2.494   0.276   0.207  1.00  0.00    -0.399 NA
HETATM    5  C3  UNL     1      -3.243   0.883   1.040  1.00  0.00     0.379 C 
HETATM    6  O1  UNL     1      -3.682   1.651   1.740  1.00  0.00    -0.246 OA
BRANCH   5   7
HETATM    7  C4  UNL     1      -4.533  -0.242   1.326  1.00  0.00     0.327 C 
HETATM    8  O2  UNL     1      -4.281  -1.031   2.103  1.00  0.00    -0.261 OA
HETATM    9  N2  UNL     1      -5.591   0.198   0.397  1.00  0.00    -0.330 N 
HETATM   10  C5  UNL     1      -5.403   1.142  -0.656  1.00  0.00     0.084 C 
HETATM   11  C9  UNL     1      -6.917  -0.296   0.352  1.00  0.00     0.029 C 
HETATM   12  C6  UNL     1      -5.414   2.607  -0.396  1.00  0.00     0.032 C 
HETATM   13  C7  UNL     1      -6.483   0.674  -1.712  1.00  0.00     0.027 C 
HETATM   14  C8  UNL     1      -7.188  -0.496  -1.097  1.00  0.00     0.032 C 
HETATM   15  C10 UNL     1      -7.185  -1.481   1.221  1.00  0.00     0.038 C 
HETATM   16  C11 UNL     1      -7.832   0.856   0.810  1.00  0.00     0.038 C 
ENDBRANCH   5   7
ENDBRANCH   2   4
ENDBRANCH   1   2
BRANCH   1  17
HETATM   17  O3  UNL     1       0.079   1.083  -0.802  1.00  0.00    -0.391 OA
ATOM     18  H3  UNL     1       1.023   1.155  -0.727  1.00  0.00     0.210 HD
ENDBRANCH   1  17
BRANCH   1  19
HETATM   19  C13 UNL     1       0.897  -1.125  -0.248  1.00  0.00     0.271 C 
BRANCH  19  20
HETATM   20  N3  UNL     1       1.753  -0.562   0.786  1.00  0.00    -0.065 N 
HETATM   21  C14 UNL     1       0.925  -0.330   1.977  1.00  0.00     0.272 C 
HETATM   22  C15 UNL     1       2.418   0.640   0.473  1.00  0.00     0.265 C 
HETATM   23  C16 UNL     1       3.473   0.395  -0.602  1.00  0.00     0.265 C 
HETATM   24  N4  UNL     1       4.434  -0.543  -0.104  1.00  0.00    -0.061 N 
HETATM   25  C17 UNL     1       5.424  -0.793  -1.185  1.00  0.00     0.257 C 
HETATM   26  C21 UNL     1       5.143  -0.063   1.070  1.00  0.00     0.257 C 
HETATM   27  C22 UNL     1       3.846  -1.803   0.271  1.00  0.00     0.265 C 
HETATM   28  C18 UNL     1       6.787  -0.814  -0.698  1.00  0.00     0.153 C 
HETATM   29  N5  UNL     1       7.084   0.500  -0.154  1.00  0.00    -0.353 N 
HETATM   30  C19 UNL     1       8.249   1.240  -0.519  1.00  0.00     0.184 C 
HETATM   31  C20 UNL     1       6.122   1.050   0.854  1.00  0.00     0.153 C 
HETATM   32  N6  UNL     1       9.349   0.679  -1.010  1.00  0.00    -0.374 N 
HETATM   33  N7  UNL     1       8.332   2.631  -0.256  1.00  0.00    -0.064 NA
ATOM     34  H62 UNL     1       9.289  -0.322  -1.199  1.00  0.00     0.158 HD
ATOM     35  H61 UNL     1      10.181   1.208  -1.271  1.00  0.00     0.158 HD
HETATM   36  C23 UNL     1       2.644  -1.668   1.119  1.00  0.00     0.265 C 
ENDBRANCH  19  20
ENDBRANCH   1  19
TORSDOF 6
