REMARK  5 active torsions:
REMARK  status: ('A' for Active; 'I' for Inactive)
REMARK    1  A    between atoms: C2_2  and  N1_3 
REMARK    2  A    between atoms: C3_5  and  C4_6 
REMARK    3  A    between atoms: C12_14  and  C13_15 
REMARK    4  A    between atoms: C27_31  and  C28_32 
REMARK    5  A    between atoms: C28_32  and  O2_33 
ROOT
HETATM    1  C4  UNL     1       2.974  -0.056  -1.297  1.00  0.00     0.262 C 
HETATM    2  C5  UNL     1       3.632  -1.303  -1.856  1.00  0.00     0.048 C 
HETATM    3  C6  UNL     1       3.319  -2.294  -0.708  1.00  0.00     0.022 C 
HETATM    4  C7  UNL     1       3.667  -3.694  -1.140  1.00  0.00     0.012 C 
HETATM    5  C8  UNL     1       1.853  -2.013  -0.686  1.00  0.00     0.256 C 
HETATM    6  C9  UNL     1       1.090  -2.509   0.419  1.00  0.00    -0.053 C 
HETATM    7  C10 UNL     1       2.101  -2.223   1.443  1.00  0.00     0.045 C 
HETATM    8  C11 UNL     1      -0.056  -2.903   1.144  1.00  0.00    -0.001 C 
HETATM    9  C12 UNL     1      -1.154  -1.754   1.342  1.00  0.00     0.053 C 
HETATM   10  C14 UNL     1      -2.001  -1.914   0.168  1.00  0.00    -0.008 C 
HETATM   11  C15 UNL     1      -2.357  -1.209  -0.858  1.00  0.00    -0.004 C 
HETATM   12  C16 UNL     1      -2.000   0.148  -1.248  1.00  0.00     0.116 C 
HETATM   13  C17 UNL     1      -1.478   0.988  -0.129  1.00  0.00     0.056 C 
HETATM   14  C18 UNL     1      -2.658   0.995   0.763  1.00  0.00    -0.050 C 
HETATM   15  C19 UNL     1      -3.725   0.959  -0.003  1.00  0.00     0.010 C 
HETATM   16  C20 UNL     1      -5.205   0.952   0.272  1.00  0.00     0.057 C 
HETATM   17  C21 UNL     1      -5.762   1.969  -0.735  1.00  0.00     0.007 C 
HETATM   18  C22 UNL     1      -5.550   1.383  -2.097  1.00  0.00     0.020 C 
HETATM   19  C23 UNL     1      -4.086   1.328  -2.468  1.00  0.00     0.123 C 
HETATM   20  N2  UNL     1      -3.308   0.846  -1.389  1.00  0.00    -0.375 N 
HETATM   21  C24 UNL     1      -2.569   1.004   2.235  1.00  0.00     0.037 C 
HETATM   22  C25 UNL     1      -1.369   0.285   2.658  1.00  0.00     0.011 C 
HETATM   23  C26 UNL     1      -0.567  -0.441   1.585  1.00  0.00     0.022 C 
HETATM   24  C27 UNL     1      -0.221   0.503   0.520  1.00  0.00     0.022 C 
HETATM   25  C29 UNL     1       0.686   0.123  -0.587  1.00  0.00     0.287 C 
HETATM   26  N3  UNL     1       1.935  -0.515  -0.437  1.00  0.00     0.107 N 
ENDROOT
BRANCH   1  27
HETATM   27  C3  UNL     1       4.039   0.700  -0.576  1.00  0.00     0.095 C 
HETATM   28  N1  UNL     1       4.235   1.949  -0.747  1.00  0.00    -0.381 N 
ATOM     29  H1  UNL     1       3.627   2.431  -1.409  1.00  0.00     0.164 HD
BRANCH  28  30
HETATM   30  C2  UNL     1       5.220   2.717  -0.099  1.00  0.00     0.056 C 
HETATM   31  C1  UNL     1       5.161   4.139  -0.621  1.00  0.00     0.054 C 
ENDBRANCH  28  30
ENDBRANCH   1  27
BRANCH  24  32
HETATM   32  C28 UNL     1       0.401   1.731   1.166  1.00  0.00     0.176 C 
BRANCH  32  33
HETATM   33  O2  UNL     1       0.692   2.707   0.195  1.00  0.00    -0.400 OA
ATOM     34  H2  UNL     1       1.081   3.474   0.599  1.00  0.00     0.209 HD
ENDBRANCH  32  33
ENDBRANCH  24  32
BRANCH   9  35
HETATM   35  C13 UNL     1      -1.940  -2.275   2.491  1.00  0.00     0.249 C 
HETATM   36  O1  UNL     1      -1.454  -2.962   3.378  1.00  0.00    -0.305 OA
ENDBRANCH   9  35
TORSDOF 5
