REMARK  5 active torsions:
REMARK  status: ('A' for Active; 'I' for Inactive)
REMARK    1  A    between atoms: C2_2  and  C3_3 
REMARK    2  A    between atoms: C2_2  and  C6_8 
REMARK    3  A    between atoms: C3_3  and  O1_4 
REMARK    4  A    between atoms: O1_4  and  C4_5 
REMARK    5  A    between atoms: C4_5  and  O2_6 
ROOT
HETATM    1  C6  UNL     1       3.004   1.104  -0.490  1.00  0.00     0.045 C 
HETATM    2  C7  UNL     1       2.700   1.478  -1.926  1.00  0.00     0.014 C 
HETATM    3  C8  UNL     1       1.422   0.727  -2.265  1.00  0.00     0.010 C 
HETATM    4  C9  UNL     1       0.701   0.905  -0.919  1.00  0.00     0.016 C 
HETATM    5  C10 UNL     1      -0.635   0.375  -0.893  1.00  0.00     0.019 C 
HETATM    6  C11 UNL     1      -1.411  -0.004   0.262  1.00  0.00    -0.024 C 
HETATM    7  C12 UNL     1      -1.760   1.228   1.102  1.00  0.00     0.013 C 
HETATM    8  C13 UNL     1      -2.504   2.274   0.368  1.00  0.00     0.027 C 
HETATM    9  C14 UNL     1      -3.669   1.693  -0.376  1.00  0.00     0.093 C 
HETATM   10  N1  UNL     1      -4.868   2.450  -0.051  1.00  0.00    -0.356 N 
ATOM     11  H1  UNL     1      -4.825   3.314   0.490  1.00  0.00     0.162 HD
HETATM   12  C15 UNL     1      -6.093   1.932  -0.520  1.00  0.00     0.217 C 
HETATM   13  O3  UNL     1      -7.141   2.582  -0.325  1.00  0.00    -0.274 OA
HETATM   14  C16 UNL     1      -6.135   0.658  -1.222  1.00  0.00     0.103 C 
HETATM   15  C17 UNL     1      -4.962  -0.230  -1.049  1.00  0.00     0.020 C 
HETATM   16  C18 UNL     1      -3.931   0.271  -0.024  1.00  0.00    -0.019 C 
HETATM   17  C19 UNL     1      -4.625   0.231   1.319  1.00  0.00     0.018 C 
HETATM   18  C20 UNL     1      -2.736  -0.627  -0.126  1.00  0.00     0.005 C 
HETATM   19  C21 UNL     1      -2.947  -1.993   0.443  1.00  0.00     0.007 C 
HETATM   20  C22 UNL     1      -1.748  -2.834  -0.013  1.00  0.00     0.005 C 
HETATM   21  C23 UNL     1      -0.570  -2.323   0.798  1.00  0.00    -0.006 C 
HETATM   22  C24 UNL     1      -0.493  -3.212   2.026  1.00  0.00     0.011 C 
HETATM   23  C25 UNL     1      -0.807  -0.923   1.282  1.00  0.00     0.072 C 
HETATM   24  C26 UNL     1       0.436  -0.385   1.875  1.00  0.00     0.154 C 
HETATM   25  O4  UNL     1       0.494  -0.324   3.158  1.00  0.00    -0.293 OA
HETATM   26  C27 UNL     1       1.643   0.101   1.260  1.00  0.00     0.054 C 
HETATM   27  C28 UNL     1       1.735   0.643   0.040  1.00  0.00    -0.064 C 
ENDROOT
BRANCH   1  28
HETATM   28  C2  UNL     1       4.116   0.125  -0.605  1.00  0.00    -0.058 C 
HETATM   29  C1  UNL     1       4.058  -1.138  -0.347  1.00  0.00     0.017 C 
BRANCH  28  30
HETATM   30  C3  UNL     1       5.406   0.731  -1.011  1.00  0.00     0.204 C 
BRANCH  30  31
HETATM   31  O1  UNL     1       6.504  -0.036  -1.080  1.00  0.00    -0.363 OA
BRANCH  31  32
HETATM   32  C4  UNL     1       7.117  -0.464   0.051  1.00  0.00     0.337 C 
BRANCH  32  33
HETATM   33  O2  UNL     1       7.567   0.611   0.852  1.00  0.00    -0.372 OA
HETATM   34  C5  UNL     1       8.169   0.029   1.965  1.00  0.00     0.204 C 
ENDBRANCH  32  33
ENDBRANCH  31  32
ENDBRANCH  30  31
ENDBRANCH  28  30
ENDBRANCH   1  28
TORSDOF 5
