REMARK  16 active torsions:
REMARK  status: ('A' for Active; 'I' for Inactive)
REMARK    1  A    between atoms: C9_9  and  C10_10 
REMARK       I    between atoms: C10_10  and  N1_12 
REMARK    2  A    between atoms: N1_12  and  C11_14 
REMARK    3  A    between atoms: C11_14  and  C12_15 
REMARK    4  A    between atoms: C12_15  and  N2_16 
REMARK    5  A    between atoms: N3_20  and  C13_21 
REMARK    6  A    between atoms: C13_21  and  O2_22 
REMARK    7  A    between atoms: C13_21  and  C14_24 
REMARK    8  A    between atoms: C14_24  and  N4_25 
REMARK    9  A    between atoms: C14_24  and  C16_35 
REMARK   10  A    between atoms: C14_24  and  C22_47 
REMARK       I    between atoms: N4_25  and  C15_27 
REMARK       I    between atoms: C15_27  and  N5_29 
REMARK   11  A    between atoms: N5_29  and  N6_31 
REMARK   12  A    between atoms: N6_31  and  N7_32 
REMARK   13  A    between atoms: C16_35  and  O4_36 
REMARK   14  A    between atoms: C16_35  and  N8_38 
REMARK   15  A    between atoms: N8_38  and  C18_40 
REMARK   16  A    between atoms: C18_40  and  C19_41 
ROOT
HETATM    1  C14 UNL     1      -1.545  -0.836   0.772  1.00  0.00     0.171 C 
ENDROOT
BRANCH   1   2
HETATM    2  C13 UNL     1      -0.191  -0.279   0.967  1.00  0.00     0.153 C 
BRANCH   2   3
HETATM    3  N3  UNL     1       0.737   0.569   0.427  1.00  0.00    -0.345 N 
HETATM    4  C9  UNL     1       2.115   0.591   0.957  1.00  0.00     0.207 C 
HETATM    5  C8  UNL     1       3.091   1.252  -0.026  1.00  0.00    -0.048 C 
HETATM    6  C2  UNL     1       2.650   0.927  -1.411  1.00  0.00     0.018 C 
HETATM    7  C7  UNL     1       3.547   2.591   0.302  1.00  0.00    -0.021 C 
HETATM    8  C1  UNL     1       3.698   0.949  -2.463  1.00  0.00     0.015 C 
HETATM    9  C3  UNL     1       1.366   1.629  -1.756  1.00  0.00     0.011 C 
HETATM   10  C4  UNL     1       1.557   3.015  -2.272  1.00  0.00     0.007 C 
HETATM   11  C26 UNL     1       0.495   1.596  -0.510  1.00  0.00     0.131 C 
HETATM   12  C5  UNL     1       2.724   3.753  -1.770  1.00  0.00     0.004 C 
HETATM   13  C6  UNL     1       2.984   3.800  -0.318  1.00  0.00     0.027 C 
BRANCH   4  14
HETATM   14  C10 UNL     1       2.668  -0.714   1.324  1.00  0.00     0.244 C 
HETATM   15  O1  UNL     1       3.487  -0.689   2.317  1.00  0.00    -0.271 OA
HETATM   16  N1  UNL     1       2.448  -1.983   0.759  1.00  0.00    -0.357 N 
ATOM     17  H1  UNL     1       1.809  -2.061  -0.032  1.00  0.00     0.162 HD
BRANCH  16  18
HETATM   18  C11 UNL     1       3.083  -3.169   1.247  1.00  0.00     0.150 C 
BRANCH  18  19
HETATM   19  C12 UNL     1       4.573  -3.183   1.205  1.00  0.00     0.249 C 
BRANCH  19  20
HETATM   20  N2  UNL     1       5.123  -3.041  -0.133  1.00  0.00    -0.078 N 
ATOM     21  H23 UNL     1       4.739  -3.751  -0.757  1.00  0.00     0.274 HD
ATOM     22  H22 UNL     1       4.759  -2.202  -0.584  1.00  0.00     0.274 HD
ATOM     23  H21 UNL     1       6.143  -3.051  -0.162  1.00  0.00     0.274 HD
ENDBRANCH  19  20
ENDBRANCH  18  19
ENDBRANCH  16  18
ENDBRANCH   4  14
ENDBRANCH   2   3
BRANCH   2  24
HETATM   24  O2  UNL     1       0.327  -0.807   2.101  1.00  0.00    -0.347 OA
ATOM     25  H2  UNL     1      -0.317  -1.396   2.476  1.00  0.00     0.219 HD
ENDBRANCH   2  24
ENDBRANCH   1   2
BRANCH   1  26
HETATM   26  N4  UNL     1      -1.388  -2.165   1.555  1.00  0.00    -0.316 N 
HETATM   27  C15 UNL     1      -2.234  -3.105   1.977  1.00  0.00     0.348 C 
HETATM   28  O3  UNL     1      -3.453  -3.303   1.932  1.00  0.00    -0.245 OA
HETATM   29  N5  UNL     1      -1.582  -4.250   2.708  1.00  0.00    -0.165 N 
ATOM     30  H5  UNL     1      -1.222  -5.056   2.198  1.00  0.00     0.209 HD
ATOM     31  H4  UNL     1      -0.419  -2.365   1.803  1.00  0.00     0.166 HD
BRANCH  29  32
HETATM   32  N6  UNL     1      -1.495  -4.191   3.922  1.00  0.00    -0.239 NA
BRANCH  32  33
HETATM   33  N7  UNL     1      -1.532  -4.167   5.167  1.00  0.00    -0.260 N 
ATOM     34  H72 UNL     1      -2.499  -4.451   5.008  1.00  0.00     0.193 HD
ATOM     35  H71 UNL     1      -1.459  -4.118   6.183  1.00  0.00     0.193 HD
ENDBRANCH  32  33
ENDBRANCH  29  32
ENDBRANCH   1  26
BRANCH   1  36
HETATM   36  C16 UNL     1      -2.522  -0.117   1.561  1.00  0.00     0.155 C 
BRANCH  36  37
HETATM   37  O4  UNL     1      -2.825  -0.767   2.727  1.00  0.00    -0.347 OA
ATOM     38  H4  UNL     1      -3.466  -0.295   3.245  1.00  0.00     0.219 HD
ENDBRANCH  36  37
BRANCH  36  39
HETATM   39  N8  UNL     1      -3.270   1.039   1.532  1.00  0.00    -0.341 N 
HETATM   40  C17 UNL     1      -4.145   1.366   2.723  1.00  0.00     0.157 C 
BRANCH  39  41
HETATM   41  C18 UNL     1      -3.428   2.020   0.535  1.00  0.00     0.129 C 
BRANCH  41  42
HETATM   42  C19 UNL     1      -4.609   1.777  -0.390  1.00  0.00     0.089 A 
HETATM   43  N9  UNL     1      -4.705   2.031  -1.685  1.00  0.00    -0.359 N 
HETATM   44  C20 UNL     1      -5.791   1.749  -2.320  1.00  0.00     0.096 A 
ATOM     45  H9  UNL     1      -3.919   2.450  -2.181  1.00  0.00     0.166 HD
HETATM   46  C21 UNL     1      -6.819   1.187  -1.615  1.00  0.00     0.069 A 
HETATM   47  S1  UNL     1      -6.136   1.101  -0.041  1.00  0.00    -0.082 SA
ENDBRANCH  41  42
ENDBRANCH  39  41
ENDBRANCH  36  39
ENDBRANCH   1  36
BRANCH   1  48
HETATM   48  C22 UNL     1      -1.920  -1.377  -0.531  1.00  0.00    -0.010 C 
HETATM   49  C23 UNL     1      -1.821  -0.579  -1.782  1.00  0.00     0.018 C 
HETATM   50  C24 UNL     1      -3.438  -1.743  -0.532  1.00  0.00     0.018 C 
HETATM   51  C25 UNL     1      -1.243  -2.717  -0.838  1.00  0.00     0.018 C 
ENDBRANCH   1  48
TORSDOF 16
