REMARK  7 active torsions:
REMARK  status: ('A' for Active; 'I' for Inactive)
REMARK    1  A    between atoms: O1_2  and  C2_3 
REMARK    2  A    between atoms: C2_3  and  C3_5 
REMARK    3  A    between atoms: C3_5  and  O3_6 
REMARK    4  A    between atoms: O3_6  and  C4_7 
REMARK    5  A    between atoms: C4_7  and  O4_8 
REMARK    6  A    between atoms: N1_10  and  O5_12 
REMARK    7  A    between atoms: C7_17  and  O7_18 
ROOT
HETATM    1  C3  UNL     1       0.428  -0.041   0.103  1.00  0.00     0.282 C 
HETATM    2  O6  UNL     1      -0.453   0.111   1.138  1.00  0.00    -0.338 OA
HETATM    3  C5  UNL     1      -1.732   0.131   0.673  1.00  0.00     0.152 C 
HETATM    4  C6  UNL     1      -2.522  -1.104   1.048  1.00  0.00     0.042 C 
HETATM    5  C7  UNL     1      -1.717   0.399  -0.798  1.00  0.00     0.171 C 
HETATM    6  C8  UNL     1      -0.308   0.151  -1.191  1.00  0.00     0.187 C 
HETATM    7 CL1  UNL     1       0.380   1.443  -2.192  1.00  0.00    -0.116 Cl
ENDROOT
BRANCH   1   8
HETATM    8  C2  UNL     1       1.054  -1.390   0.058  1.00  0.00     0.324 C 
HETATM    9  O2  UNL     1       0.303  -2.395  -0.026  1.00  0.00    -0.259 OA
BRANCH   8  10
HETATM   10  O1  UNL     1       2.415  -1.621   0.103  1.00  0.00    -0.322 OA
HETATM   11  C1  UNL     1       2.933  -2.953   0.054  1.00  0.00     0.213 C 
ENDBRANCH   8  10
ENDBRANCH   1   8
BRANCH   1  12
HETATM   12  O3  UNL     1       1.526   0.876   0.197  1.00  0.00    -0.265 OA
BRANCH  12  13
HETATM   13  C4  UNL     1       1.336   2.239   0.261  1.00  0.00     0.285 C 
HETATM   14  N1  UNL     1       0.270   2.668   0.813  1.00  0.00    -0.227 N 
ATOM     15  H1  UNL     1      -0.393   1.986   1.181  1.00  0.00     0.198 HD
BRANCH  13  16
HETATM   16  O4  UNL     1       2.229   3.178  -0.236  1.00  0.00    -0.325 OA
ATOM     17  H4  UNL     1       2.098   4.118  -0.192  1.00  0.00     0.221 HD
ENDBRANCH  13  16
BRANCH  14  18
HETATM   18  O5  UNL     1      -0.027   3.982   0.935  1.00  0.00    -0.286 OA
ATOM     19  H5  UNL     1      -0.821   4.302   1.346  1.00  0.00     0.244 HD
ENDBRANCH  14  18
ENDBRANCH  12  13
ENDBRANCH   1  12
BRANCH   5  20
HETATM   20  O7  UNL     1      -2.607  -0.451  -1.445  1.00  0.00    -0.391 OA
ATOM     21  H7  UNL     1      -2.597  -0.281  -2.380  1.00  0.00     0.210 HD
ENDBRANCH   5  20
TORSDOF 7
