REMARK  9 active torsions:
REMARK  status: ('A' for Active; 'I' for Inactive)
REMARK    1  A    between atoms: C2_2  and  C3_3 
REMARK    2  A    between atoms: C3_3  and  C4_6 
REMARK    3  A    between atoms: C4_6  and  O1_7 
REMARK    4  A    between atoms: C4_6  and  O2_9 
REMARK    5  A    between atoms: C4_6  and  C5_11 
REMARK    6  A    between atoms: C5_11  and  N1_12 
REMARK    7  A    between atoms: C9_18  and  S2_19 
REMARK    8  A    between atoms: S2_19  and  N2_22 
REMARK    9  A    between atoms: C11_24  and  C12_25 
ROOT
HETATM    1  N1  UNL     1      -2.815  -0.745   0.939  1.00  0.00    -0.302 N 
HETATM    2  C6  UNL     1      -2.997  -0.189   2.150  1.00  0.00     0.291 A 
HETATM    3  O3  UNL     1      -4.022   0.259   2.728  1.00  0.00    -0.259 OA
HETATM    4  S1  UNL     1      -1.429  -0.184   2.886  1.00  0.00    -0.027 SA
HETATM    5  C7  UNL     1      -0.602  -0.912   1.576  1.00  0.00     0.038 A 
HETATM    6  C8  UNL     1       0.749  -1.269   1.401  1.00  0.00     0.046 A 
HETATM    7  C9  UNL     1       1.162  -1.871   0.233  1.00  0.00     0.076 A 
HETATM    8  C16 UNL     1       0.178  -2.079  -0.699  1.00  0.00     0.027 A 
HETATM    9  C17 UNL     1      -1.124  -1.730  -0.522  1.00  0.00     0.032 A 
HETATM   10  C18 UNL     1      -1.574  -1.114   0.658  1.00  0.00     0.055 A 
ENDROOT
BRANCH   7  11
HETATM   11  S2  UNL     1       2.829  -2.315   0.007  1.00  0.00     0.245 S 
HETATM   12  O4  UNL     1       2.962  -3.538  -0.887  1.00  0.00    -0.206 OA
HETATM   13  O5  UNL     1       3.466  -2.711   1.329  1.00  0.00    -0.206 OA
BRANCH  11  14
HETATM   14  N2  UNL     1       3.748  -1.057  -0.707  1.00  0.00    -0.187 NA
HETATM   15  C10 UNL     1       3.757   0.100   0.129  1.00  0.00     0.124 C 
HETATM   16  C11 UNL     1       4.441   1.279  -0.539  1.00  0.00     0.101 C 
HETATM   17  C13 UNL     1       5.178   0.782  -1.743  1.00  0.00     0.019 C 
HETATM   18  C14 UNL     1       5.976  -0.460  -1.536  1.00  0.00     0.038 C 
HETATM   19  C15 UNL     1       5.093  -1.518  -0.913  1.00  0.00     0.170 C 
HETATM   20 CL1  UNL     1       5.815  -2.105   0.584  1.00  0.00    -0.107 Cl
BRANCH  16  21
HETATM   21  C12 UNL     1       5.272   2.052   0.403  1.00  0.00     0.178 C 
HETATM   22  O6  UNL     1       5.009   3.255   0.593  1.00  0.00    -0.648 OA
HETATM   23  O7  UNL     1       6.321   1.490   1.073  1.00  0.00    -0.648 OA
ENDBRANCH  16  21
ENDBRANCH  11  14
ENDBRANCH   7  11
BRANCH   1  24
HETATM   24  C5  UNL     1      -3.974  -0.887   0.048  1.00  0.00     0.208 C 
BRANCH  24  25
HETATM   25  C4  UNL     1      -4.345   0.149  -0.871  1.00  0.00     0.244 C 
BRANCH  25  26
HETATM   26  C3  UNL     1      -4.743   1.511  -0.558  1.00  0.00     0.299 C 
HETATM   27  F1  UNL     1      -3.844   2.330   0.058  1.00  0.00    -0.200 F 
HETATM   28  F2  UNL     1      -4.973   2.174  -1.791  1.00  0.00    -0.200 F 
BRANCH  26  29
HETATM   29  C2  UNL     1      -6.081   1.648   0.132  1.00  0.00     0.080 C 
HETATM   30  C1  UNL     1      -6.545   3.087   0.041  1.00  0.00     0.011 C 
ENDBRANCH  26  29
ENDBRANCH  25  26
BRANCH  25  31
HETATM   31  O1  UNL     1      -5.386  -0.357  -1.713  1.00  0.00    -0.360 OA
ATOM     32  H1  UNL     1      -5.126  -1.247  -1.918  1.00  0.00     0.213 HD
ENDBRANCH  25  31
BRANCH  25  33
HETATM   33  O2  UNL     1      -3.327   0.285  -1.898  1.00  0.00    -0.360 OA
ATOM     34  H2  UNL     1      -3.067  -0.605  -2.103  1.00  0.00     0.213 HD
ENDBRANCH  25  33
ENDBRANCH  24  25
ENDBRANCH   1  24
TORSDOF 9
