REMARK  7 active torsions:
REMARK  status: ('A' for Active; 'I' for Inactive)
REMARK    1  A    between atoms: C2_2  and  N1_3 
REMARK    2  A    between atoms: N2_6  and  C5_7 
REMARK    3  A    between atoms: C7_11  and  N4_12 
REMARK    4  A    between atoms: N6_17  and  C9_18 
REMARK    5  A    between atoms: C12_21  and  O1_22 
REMARK    6  A    between atoms: C12_21  and  C13_24 
REMARK    7  A    between atoms: C18_32  and  C19_33 
ROOT
HETATM    1  C9  UNL     1      -4.160   0.414   0.252  1.00  0.00     0.125 C 
HETATM    2  C10 UNL     1      -3.610  -0.587  -0.698  1.00  0.00     0.032 C 
HETATM    3  C11 UNL     1      -4.609  -1.409  -1.432  1.00  0.00     0.046 C 
HETATM    4  C12 UNL     1      -5.958  -0.803  -1.608  1.00  0.00     0.118 C 
HETATM    5  C14 UNL     1      -6.440   0.039  -0.476  1.00  0.00     0.065 C 
HETATM    6  C15 UNL     1      -5.534   0.000   0.725  1.00  0.00     0.120 C 
HETATM    7  C16 UNL     1      -5.503  -1.285   1.385  1.00  0.00     0.066 C 
HETATM    8  N7  UNL     1      -5.479  -2.307   1.920  1.00  0.00    -0.197 NA
ENDROOT
BRANCH   1   9
HETATM    9  N6  UNL     1      -3.257   0.568   1.376  1.00  0.00    -0.295 N 
HETATM   10  N5  UNL     1      -1.934   0.645   1.303  1.00  0.00    -0.282 N 
HETATM   11  C8  UNL     1      -1.410   0.785   2.528  1.00  0.00     0.138 A 
ATOM     12  H5  UNL     1      -1.394   0.604   0.439  1.00  0.00     0.189 HD
HETATM   13  N4  UNL     1      -0.184   0.896   2.887  1.00  0.00    -0.327 N 
HETATM   14  C18 UNL     1      -2.469   0.798   3.433  1.00  0.00     0.091 A 
ATOM     15  H4  UNL     1       0.020   0.995   3.881  1.00  0.00     0.169 HD
HETATM   16  C17 UNL     1      -3.607   0.659   2.667  1.00  0.00     0.131 A 
BRANCH  13  17
HETATM   17  C7  UNL     1       0.889   0.888   1.988  1.00  0.00     0.108 A 
HETATM   18  N3  UNL     1       1.890   0.016   2.195  1.00  0.00    -0.350 N 
HETATM   19  C6  UNL     1       2.971  -0.068   1.385  1.00  0.00     0.120 A 
ATOM     20  H3  UNL     1       1.833  -0.610   2.998  1.00  0.00     0.166 HD
HETATM   21  C5  UNL     1       3.078   0.766   0.289  1.00  0.00     0.068 A 
HETATM   22  C21 UNL     1       2.060   1.661   0.070  1.00  0.00     0.065 A 
HETATM   23  C20 UNL     1       0.958   1.731   0.915  1.00  0.00     0.074 A 
HETATM   24 CL1  UNL     1       2.089   2.763  -1.274  1.00  0.00    -0.082 Cl
BRANCH  21  25
HETATM   25  N2  UNL     1       4.178   0.731  -0.602  1.00  0.00    -0.375 N 
HETATM   26  C4  UNL     1       3.992   0.360  -1.997  1.00  0.00     0.153 C 
HETATM   27  C3  UNL     1       5.292  -0.323  -2.449  1.00  0.00     0.292 C 
HETATM   28  N1  UNL     1       5.848  -0.974  -1.286  1.00  0.00     0.091 N 
HETATM   29  C23 UNL     1       6.526   0.018  -0.473  1.00  0.00     0.292 C 
HETATM   30  C22 UNL     1       5.507   1.074  -0.100  1.00  0.00     0.153 C 
BRANCH  28  31
HETATM   31  C2  UNL     1       6.728  -2.069  -1.641  1.00  0.00     0.268 C 
HETATM   32  C1  UNL     1       7.993  -1.577  -2.310  1.00  0.00     0.037 C 
ENDBRANCH  28  31
ENDBRANCH  21  25
ENDBRANCH  13  17
BRANCH  14  33
HETATM   33  C19 UNL     1      -2.349   0.932   4.874  1.00  0.00     0.270 C 
HETATM   34  N8  UNL     1      -1.086   1.063   5.490  1.00  0.00    -0.057 NA
HETATM   35  O2  UNL     1      -3.389   0.929   5.567  1.00  0.00    -0.271 OA
ENDBRANCH  14  33
ENDBRANCH   1   9
BRANCH   4  36
HETATM   36  O1  UNL     1      -6.887  -1.863  -1.738  1.00  0.00    -0.384 OA
ATOM     37  H1  UNL     1      -7.748  -1.476  -1.850  1.00  0.00     0.210 HD
ENDBRANCH   4  36
BRANCH   4  38
HETATM   38  C13 UNL     1      -6.045  -0.054  -2.942  1.00  0.00     0.387 C 
HETATM   39  F1  UNL     1      -5.105   0.955  -2.991  1.00  0.00    -0.211 F 
HETATM   40  F2  UNL     1      -5.782  -0.920  -3.986  1.00  0.00    -0.211 F 
ENDBRANCH   4  38
TORSDOF 7
