REMARK  12 active torsions:
REMARK  status: ('A' for Active; 'I' for Inactive)
REMARK    1  A    between atoms: C2_2  and  C4_7 
REMARK    2  A    between atoms: C4_7  and  O2_9 
REMARK    3  A    between atoms: O2_9  and  C5_10 
REMARK    4  A    between atoms: C5_10  and  O3_11 
REMARK    5  A    between atoms: C5_10  and  C6_13 
REMARK    6  A    between atoms: C6_13  and  N3_14 
REMARK    7  A    between atoms: C6_13  and  C7_18 
REMARK    8  A    between atoms: C7_18  and  O4_19 
REMARK    9  A    between atoms: C7_18  and  C8_21 
REMARK   10  A    between atoms: C11_26  and  N5_27 
REMARK   11  A    between atoms: N5_27  and  N6_29 
REMARK   12  A    between atoms: C14_35  and  N8_36 
ROOT
HETATM    1  C1  UNL     1       5.643  -0.546  -1.150  1.00  0.00     0.075 C 
HETATM    2  C2  UNL     1       5.346  -1.365   0.055  1.00  0.00     0.090 C 
HETATM    3  N1  UNL     1       6.130  -2.311   0.324  1.00  0.00    -0.292 N 
ATOM      4  H1  UNL     1       6.926  -2.470  -0.293  1.00  0.00     0.178 HD
HETATM    5  C3  UNL     1       5.967  -3.146   1.414  1.00  0.00     0.182 C 
HETATM    6  N2  UNL     1       5.850  -3.872   2.336  1.00  0.00    -0.172 NA
ENDROOT
BRANCH   2   7
HETATM    7  C4  UNL     1       4.195  -1.054   0.855  1.00  0.00     0.308 C 
HETATM    8  O1  UNL     1       3.900  -1.702   1.867  1.00  0.00    -0.258 OA
BRANCH   7   9
HETATM    9  O2  UNL     1       3.379   0.014   0.480  1.00  0.00    -0.283 OA
BRANCH   9  10
HETATM   10  C5  UNL     1       2.219   0.379   1.229  1.00  0.00     0.300 C 
BRANCH  10  11
HETATM   11  O3  UNL     1       2.381   1.682   1.620  1.00  0.00    -0.368 OA
ATOM     12  H3  UNL     1       1.609   1.925   2.118  1.00  0.00     0.212 HD
ENDBRANCH  10  11
BRANCH  10  13
HETATM   13  C6  UNL     1       1.028   0.167   0.324  1.00  0.00     0.271 C 
BRANCH  13  14
HETATM   14  N3  UNL     1       1.206   1.013  -0.825  1.00  0.00    -0.068 N 
ATOM     15  H33 UNL     1       1.351   1.992  -0.580  1.00  0.00     0.275 HD
ATOM     16  H32 UNL     1       2.097   0.861  -1.297  1.00  0.00     0.275 HD
ATOM     17  H31 UNL     1       0.402   0.870  -1.436  1.00  0.00     0.275 HD
ENDBRANCH  13  14
BRANCH  13  18
HETATM   18  C7  UNL     1      -0.273   0.317   1.045  1.00  0.00     0.186 C 
BRANCH  18  19
HETATM   19  O4  UNL     1      -0.332  -0.501   2.176  1.00  0.00    -0.389 OA
ATOM     20  H4  UNL     1      -1.159  -0.406   2.634  1.00  0.00     0.210 HD
ENDBRANCH  18  19
BRANCH  18  21
HETATM   21  C8  UNL     1      -1.489   0.237   0.229  1.00  0.00     0.005 C 
HETATM   22  C9  UNL     1      -2.347  -0.772   0.285  1.00  0.00     0.013 C 
HETATM   23  C10 UNL     1      -2.112  -1.930   1.181  1.00  0.00     0.068 C 
HETATM   24  N4  UNL     1      -3.634  -0.643  -0.357  1.00  0.00    -0.347 N 
HETATM   25  C11 UNL     1      -4.023   0.401  -0.968  1.00  0.00     0.116 C 
ATOM     26  H4  UNL     1      -4.270  -1.439  -0.318  1.00  0.00     0.167 HD
HETATM   27  C12 UNL     1      -3.181   1.616  -0.907  1.00  0.00     0.196 C 
HETATM   28  C13 UNL     1      -3.547   2.301   0.354  1.00  0.00     0.074 C 
HETATM   29  C14 UNL     1      -1.744   1.213  -0.866  1.00  0.00     0.241 C 
HETATM   30  N7  UNL     1      -3.844   2.846   1.330  1.00  0.00    -0.196 NA
BRANCH  25  31
HETATM   31  N5  UNL     1      -5.303   0.414  -1.577  1.00  0.00    -0.294 N 
ATOM     32  H5  UNL     1      -5.440   0.071  -2.528  1.00  0.00     0.187 HD
BRANCH  31  33
HETATM   33  N6  UNL     1      -6.368   0.913  -0.829  1.00  0.00    -0.344 N 
ATOM     34  H62 UNL     1      -6.215   1.253   0.121  1.00  0.00     0.176 HD
ATOM     35  H61 UNL     1      -7.289   0.922  -1.267  1.00  0.00     0.176 HD
ENDBRANCH  31  33
ENDBRANCH  25  31
BRANCH  29  36
HETATM   36  N8  UNL     1      -1.493   0.464  -2.106  1.00  0.00    -0.069 N 
ATOM     37  H83 UNL     1      -0.572   0.028  -2.147  1.00  0.00     0.275 HD
ATOM     38  H82 UNL     1      -2.033  -0.398  -2.186  1.00  0.00     0.275 HD
ATOM     39  H81 UNL     1      -1.668   1.133  -2.856  1.00  0.00     0.275 HD
ENDBRANCH  29  36
ENDBRANCH  18  21
ENDBRANCH  13  18
ENDBRANCH  10  13
ENDBRANCH   9  10
ENDBRANCH   7   9
ENDBRANCH   2   7
TORSDOF 12
