REMARK  9 active torsions:
REMARK  status: ('A' for Active; 'I' for Inactive)
REMARK       I    between atoms: C1_2  and  N1_3 
REMARK    1  A    between atoms: C1_2  and  C20_32 
REMARK    2  A    between atoms: N1_3  and  C2_5 
REMARK    3  A    between atoms: C2_5  and  C3_6 
REMARK    4  A    between atoms: C2_5  and  C14_26 
REMARK       I    between atoms: C3_6  and  N2_8 
REMARK    5  A    between atoms: N2_8  and  C4_10 
REMARK    6  A    between atoms: C4_10  and  C5_11 
REMARK    7  A    between atoms: C4_10  and  C7_16 
REMARK    8  A    between atoms: C5_11  and  C6_12 
REMARK       I    between atoms: C7_16  and  N3_18 
REMARK    9  A    between atoms: N3_18  and  C8_20 
ROOT
HETATM    1  C3  UNL     1      -0.903   0.749   0.874  1.00  0.00     0.241 C 
HETATM    2  O2  UNL     1      -0.587   1.962   0.731  1.00  0.00    -0.271 OA
HETATM    3  N2  UNL     1       0.101  -0.196   1.178  1.00  0.00    -0.346 N 
ATOM      4  H2  UNL     1      -0.170  -1.173   1.291  1.00  0.00     0.163 HD
ENDROOT
BRANCH   1   5
HETATM    5  C2  UNL     1      -2.332   0.404   0.710  1.00  0.00     0.181 C 
BRANCH   5   6
HETATM    6  N1  UNL     1      -3.154   1.527   0.407  1.00  0.00    -0.342 N 
HETATM    7  C1  UNL     1      -4.198   1.967   1.266  1.00  0.00     0.272 C 
HETATM    8  O1  UNL     1      -4.374   1.304   2.341  1.00  0.00    -0.266 OA
ATOM      9  H1  UNL     1      -2.987   2.036  -0.461  1.00  0.00     0.163 HD
BRANCH   7  10
HETATM   10  C20 UNL     1      -5.037   3.116   0.954  1.00  0.00     0.139 A 
HETATM   11  N4  UNL     1      -4.879   3.836  -0.165  1.00  0.00    -0.359 N 
HETATM   12  C21 UNL     1      -5.669   4.910  -0.453  1.00  0.00     0.089 A 
ATOM     13  H4  UNL     1      -4.145   3.573  -0.822  1.00  0.00     0.165 HD
HETATM   14  C22 UNL     1      -6.673   5.307   0.403  1.00  0.00     0.020 A 
HETATM   15  C23 UNL     1      -6.848   4.580   1.555  1.00  0.00     0.046 A 
HETATM   16  C24 UNL     1      -6.035   3.496   1.822  1.00  0.00     0.148 A 
HETATM   17  F4  UNL     1      -6.276   2.832   2.982  1.00  0.00    -0.203 F 
ENDBRANCH   7  10
ENDBRANCH   5   6
BRANCH   5  18
HETATM   18  C14 UNL     1      -2.477  -0.738  -0.260  1.00  0.00     0.018 C 
HETATM   19  C15 UNL     1      -3.891  -1.249  -0.293  1.00  0.00     0.007 C 
HETATM   20  C16 UNL     1      -4.229  -2.033  -1.511  1.00  0.00     0.000 C 
HETATM   21  C17 UNL     1      -3.098  -2.571  -2.296  1.00  0.00     0.000 C 
HETATM   22  C18 UNL     1      -1.863  -1.759  -2.341  1.00  0.00     0.000 C 
HETATM   23  C19 UNL     1      -2.075  -0.395  -1.667  1.00  0.00     0.007 C 
ENDBRANCH   5  18
ENDBRANCH   1   5
BRANCH   3  24
HETATM   24  C4  UNL     1       1.477   0.149   1.335  1.00  0.00     0.185 C 
BRANCH  24  25
HETATM   25  C5  UNL     1       2.043  -0.034   2.702  1.00  0.00     0.152 C 
BRANCH  25  26
HETATM   26  C6  UNL     1       2.006  -1.414   3.254  1.00  0.00     0.390 C 
HETATM   27  F1  UNL     1       2.589  -1.346   4.531  1.00  0.00    -0.171 F 
HETATM   28  F2  UNL     1       0.749  -1.954   3.399  1.00  0.00    -0.171 F 
HETATM   29  F3  UNL     1       2.774  -2.303   2.537  1.00  0.00    -0.171 F 
ENDBRANCH  25  26
ENDBRANCH  24  25
BRANCH  24  30
HETATM   30  C7  UNL     1       2.313  -0.515   0.313  1.00  0.00     0.241 C 
HETATM   31  O3  UNL     1       1.760  -1.269  -0.533  1.00  0.00    -0.271 OA
HETATM   32  N3  UNL     1       3.721  -0.355   0.223  1.00  0.00    -0.355 N 
ATOM     33  H3  UNL     1       4.176   0.253   0.904  1.00  0.00     0.162 HD
BRANCH  32  34
HETATM   34  C8  UNL     1       4.541  -0.988  -0.757  1.00  0.00     0.084 C 
HETATM   35  C9  UNL     1       5.461  -2.044  -0.130  1.00  0.00     0.025 C 
HETATM   36  C10 UNL     1       6.410  -2.458  -1.262  1.00  0.00     0.002 C 
HETATM   37  C11 UNL     1       7.464  -1.345  -1.311  1.00  0.00     0.000 C 
HETATM   38  C12 UNL     1       6.798   0.011  -1.250  1.00  0.00     0.002 C 
HETATM   39  C13 UNL     1       5.333  -0.062  -1.617  1.00  0.00     0.025 C 
ENDBRANCH  32  34
ENDBRANCH  24  30
ENDBRANCH   3  24
TORSDOF 9
