REMARK  5 active torsions:
REMARK  status: ('A' for Active; 'I' for Inactive)
REMARK    1  A    between atoms: C2_3  and  N1_4 
REMARK    2  A    between atoms: C5_7  and  C6_8 
REMARK    3  A    between atoms: C6_8  and  N2_9 
REMARK    4  A    between atoms: N2_9  and  C7_12 
REMARK    5  A    between atoms: C15_26  and  N5_27 
ROOT
HETATM    1  F1  UNL     1      -2.410  -0.576   1.196  1.00  0.00    -0.198 F 
HETATM    2  C1  UNL     1      -2.558  -0.032  -0.018  1.00  0.00     0.203 A 
HETATM    3  C2  UNL     1      -1.451   0.461  -0.678  1.00  0.00     0.147 A 
HETATM    4  N3  UNL     1      -1.704   0.976  -1.928  1.00  0.00    -0.336 N 
ATOM      5  H3  UNL     1      -0.920   1.353  -2.460  1.00  0.00     0.168 HD
HETATM    6  C14 UNL     1      -2.907   1.011  -2.480  1.00  0.00     0.183 A 
HETATM    7  N4  UNL     1      -3.948   0.529  -1.815  1.00  0.00    -0.336 N 
ATOM      8  H4  UNL     1      -4.870   0.561  -2.250  1.00  0.00     0.168 HD
HETATM    9  C15 UNL     1      -3.824  -0.012  -0.559  1.00  0.00     0.149 A 
ENDROOT
BRANCH   3  10
HETATM   10  N1  UNL     1      -0.137   0.520  -0.190  1.00  0.00    -0.365 N 
HETATM   11  C3  UNL     1       0.958   0.641  -1.189  1.00  0.00     0.125 C 
HETATM   12  C4  UNL     1       1.852  -0.547  -1.019  1.00  0.00     0.026 C 
HETATM   13  C5  UNL     1       2.344  -0.799   0.364  1.00  0.00     0.014 C 
HETATM   14  C12 UNL     1       1.242  -0.662   1.386  1.00  0.00     0.026 C 
HETATM   15  C13 UNL     1       0.331   0.518   1.165  1.00  0.00     0.125 C 
BRANCH  13  16
HETATM   16  C6  UNL     1       3.545   0.071   0.693  1.00  0.00     0.237 C 
BRANCH  16  17
HETATM   17  N2  UNL     1       4.624  -0.174  -0.242  1.00  0.00    -0.070 N 
ATOM     18  H22 UNL     1       4.736  -1.173  -0.414  1.00  0.00     0.277 HD
ATOM     19  H21 UNL     1       4.367   0.130  -1.181  1.00  0.00     0.277 HD
BRANCH  17  20
HETATM   20  C7  UNL     1       5.873   0.420   0.166  1.00  0.00     0.191 C 
HETATM   21  C8  UNL     1       6.442  -0.172   1.408  1.00  0.00     0.039 C 
HETATM   22  C9  UNL     1       7.865  -0.572   1.080  1.00  0.00     0.081 C 
HETATM   23  C10 UNL     1       8.182   0.035  -0.248  1.00  0.00     0.245 C 
HETATM   24  F2  UNL     1       8.861   1.220  -0.097  1.00  0.00    -0.206 F 
HETATM   25  F3  UNL     1       8.949  -0.839  -1.033  1.00  0.00    -0.206 F 
HETATM   26  C11 UNL     1       6.878   0.259  -0.921  1.00  0.00     0.112 C 
ENDBRANCH  17  20
ENDBRANCH  16  17
ENDBRANCH  13  16
ENDBRANCH   3  10
BRANCH   9  27
HETATM   27  N5  UNL     1      -4.988  -0.510   0.063  1.00  0.00    -0.332 N 
HETATM   28  C16 UNL     1      -5.381   0.044   1.326  1.00  0.00     0.155 C 
HETATM   29  C17 UNL     1      -6.219   1.290   1.008  1.00  0.00     0.252 C 
HETATM   30  N6  UNL     1      -7.519   0.855   0.587  1.00  0.00    -0.073 N 
HETATM   31  C18 UNL     1      -7.528   0.204  -0.701  1.00  0.00     0.237 C 
ATOM     32  H62 UNL     1      -7.944   0.256   1.295  1.00  0.00     0.277 HD
ATOM     33  H61 UNL     1      -8.180   1.632   0.601  1.00  0.00     0.277 HD
HETATM   34  C19 UNL     1      -7.208  -1.265  -0.639  1.00  0.00     0.086 C 
HETATM   35  C20 UNL     1      -5.722  -1.554  -0.642  1.00  0.00     0.274 C 
HETATM   36  F4  UNL     1      -5.497  -2.737   0.015  1.00  0.00    -0.227 F 
ENDBRANCH   9  27
TORSDOF 5
