REMARK  0 active torsions:
REMARK  status: ('A' for Active; 'I' for Inactive)
ROOT
HETATM    1  C1  UNL     1      -1.120   0.093  -0.029  1.00  0.00     0.034 A 
HETATM    2  C2  UNL     1      -0.534  -1.145  -0.000  1.00  0.00     0.090 A 
HETATM    3  N1  UNL     1       0.812  -1.218   0.035  1.00  0.00    -0.362 N 
ATOM      4  H1  UNL     1       1.251  -2.138   0.057  1.00  0.00     0.165 HD
HETATM    5  C3  UNL     1       1.596  -0.134   0.042  1.00  0.00     0.179 A 
HETATM    6  N2  UNL     1       0.998   1.063   0.013  1.00  0.00    -0.362 N 
ATOM      7  H2  UNL     1       1.583   1.899   0.019  1.00  0.00     0.165 HD
HETATM    8  C4  UNL     1      -0.332   1.215  -0.023  1.00  0.00     0.090 A 
ENDROOT
TORSDOF 0
