REMARK  7 active torsions:
REMARK  status: ('A' for Active; 'I' for Inactive)
REMARK    1  A    between atoms: C2_2  and  C3_3 
REMARK    2  A    between atoms: C3_3  and  N1_4 
REMARK    3  A    between atoms: C7_9  and  N2_10 
REMARK       I    between atoms: N2_10  and  C8_12 
REMARK    4  A    between atoms: C8_12  and  C9_14 
REMARK    5  A    between atoms: N4_24  and  C15_25 
REMARK    6  A    between atoms: N5_27  and  C17_28 
REMARK    7  A    between atoms: C17_28  and  C18_29 
ROOT
HETATM    1  N1  UNL     1      -3.032   0.127   0.686  1.00  0.00    -0.264 N 
HETATM    2  C4  UNL     1      -2.621   0.947  -0.332  1.00  0.00     0.281 A 
HETATM    3  O1  UNL     1      -3.496   1.523  -1.030  1.00  0.00    -0.265 OA
HETATM    4  C5  UNL     1      -1.288   1.160  -0.611  1.00  0.00     0.133 A 
HETATM    5  C6  UNL     1      -0.314   0.515   0.169  1.00  0.00     0.100 A 
HETATM    6  C7  UNL     1       0.908   0.921  -0.266  1.00  0.00     0.087 A 
HETATM    7  C13 UNL     1       0.699   1.825  -1.331  1.00  0.00     0.037 A 
HETATM    8  C14 UNL     1       1.761   2.517  -2.108  1.00  0.00     0.071 C 
HETATM    9  N4  UNL     1      -0.606   1.920  -1.482  1.00  0.00    -0.343 N 
HETATM   10  N5  UNL     1      -0.722  -0.287   1.161  1.00  0.00    -0.295 N 
HETATM   11  C20 UNL     1      -2.066  -0.443   1.374  1.00  0.00     0.332 A 
HETATM   12  O3  UNL     1      -2.380  -1.206   2.327  1.00  0.00    -0.246 OA
ENDROOT
BRANCH   6  13
HETATM   13  N2  UNL     1       2.179   0.571   0.187  1.00  0.00    -0.318 N 
HETATM   14  C8  UNL     1       3.131  -0.271  -0.419  1.00  0.00     0.273 C 
HETATM   15  O2  UNL     1       2.813  -0.792  -1.541  1.00  0.00    -0.266 OA
ATOM     16  H2  UNL     1       2.457   0.981   1.079  1.00  0.00     0.169 HD
BRANCH  14  17
HETATM   17  C9  UNL     1       4.429  -0.561   0.175  1.00  0.00     0.105 A 
HETATM   18  C10 UNL     1       4.849  -0.042   1.380  1.00  0.00     0.080 A 
HETATM   19  C11 UNL     1       6.136  -0.521   1.651  1.00  0.00     0.157 A 
HETATM   20  F1  UNL     1       6.900  -0.248   2.734  1.00  0.00    -0.203 F 
HETATM   21  C12 UNL     1       6.453  -1.324   0.586  1.00  0.00     0.143 A 
HETATM   22 CL1  UNL     1       7.961  -2.186   0.408  1.00  0.00    -0.061 Cl
HETATM   23  N3  UNL     1       5.415  -1.327  -0.276  1.00  0.00    -0.340 N 
ATOM     24  H3  UNL     1       5.391  -1.846  -1.154  1.00  0.00     0.167 HD
ENDBRANCH  14  17
ENDBRANCH   6  13
BRANCH  10  25
HETATM   25  C17 UNL     1       0.160  -1.068   1.952  1.00  0.00     0.134 C 
BRANCH  25  26
HETATM   26  C18 UNL     1       0.200  -2.518   1.603  1.00  0.00     0.016 C 
HETATM   27  C19 UNL     1       0.556  -2.925   0.238  1.00  0.00     0.006 C 
ENDBRANCH  25  26
ENDBRANCH  10  25
BRANCH   9  28
HETATM   28  C15 UNL     1      -1.255   2.752  -2.483  1.00  0.00     0.125 C 
HETATM   29  C16 UNL     1      -1.545   4.146  -1.952  1.00  0.00     0.027 C 
ENDBRANCH   9  28
BRANCH   1  30
HETATM   30  C3  UNL     1      -4.436   0.001   0.891  1.00  0.00     0.137 C 
BRANCH  30  31
HETATM   31  C2  UNL     1      -5.171  -1.013   0.114  1.00  0.00     0.016 C 
HETATM   32  C1  UNL     1      -4.627  -2.390   0.403  1.00  0.00     0.006 C 
ENDBRANCH  30  31
ENDBRANCH   1  30
TORSDOF 7
