REMARK  4 active torsions:
REMARK  status: ('A' for Active; 'I' for Inactive)
REMARK    1  A    between atoms: O1_1  and  C1_3 
REMARK    2  A    between atoms: C1_3  and  N1_4 
REMARK    3  A    between atoms: C1_3  and  N4_27 
REMARK       I    between atoms: N2_7  and  C4_8 
REMARK    4  A    between atoms: C4_8  and  C5_10 
ROOT
HETATM    1  N1  UNL     1      -0.907  -0.138  -0.671  1.00  0.00    -0.344 N 
HETATM    2  C2  UNL     1       0.031  -0.447  -1.751  1.00  0.00     0.146 C 
HETATM    3  C3  UNL     1       1.465  -0.241  -1.473  1.00  0.00     0.147 C 
HETATM    4  N2  UNL     1       1.747   0.077  -0.073  1.00  0.00    -0.335 N 
HETATM    5  C4  UNL     1       2.771   0.949   0.275  1.00  0.00     0.254 C 
HETATM    6  O2  UNL     1       2.809   1.249   1.535  1.00  0.00    -0.267 OA
HETATM    7  C11 UNL     1       0.891  -0.624   0.838  1.00  0.00     0.055 C 
HETATM    8  C12 UNL     1       1.307  -0.736   2.251  1.00  0.00     0.060 C 
HETATM    9  C13 UNL     1       2.484  -1.661   2.350  1.00  0.00     0.235 C 
HETATM   10  N3  UNL     1       1.967  -3.033   2.210  1.00  0.00    -0.075 N 
ATOM     11  H31 UNL     1       1.869  -3.484   3.120  1.00  0.00     0.277 HD
ATOM     12  H32 UNL     1       2.667  -3.650   1.797  1.00  0.00     0.277 HD
HETATM   13  C14 UNL     1       0.755  -3.078   1.484  1.00  0.00     0.235 C 
HETATM   14  C15 UNL     1       0.632  -2.043   0.356  1.00  0.00     0.060 C 
HETATM   15  C16 UNL     1      -0.480   0.104   0.672  1.00  0.00     0.157 C 
ENDROOT
BRANCH   1  16
HETATM   16  C1  UNL     1      -2.264  -0.120  -1.075  1.00  0.00     0.222 C 
BRANCH  16  17
HETATM   17  O1  UNL     1      -2.401  -0.464  -2.362  1.00  0.00    -0.332 OA
ATOM     18  H1  UNL     1      -3.311  -0.452  -2.633  1.00  0.00     0.220 HD
ENDBRANCH  16  17
BRANCH  16  19
HETATM   19  N4  UNL     1      -3.463   0.167  -0.466  1.00  0.00    -0.285 N 
HETATM   20  C17 UNL     1      -4.675  -0.025  -1.331  1.00  0.00     0.132 C 
HETATM   21  C18 UNL     1      -5.729  -0.763  -0.554  1.00  0.00     0.020 C 
HETATM   22  C19 UNL     1      -6.225   0.116   0.582  1.00  0.00     0.010 C 
HETATM   23  C20 UNL     1      -5.232   1.204   0.785  1.00  0.00     0.104 C 
HETATM   24  C21 UNL     1      -3.777   0.640   0.837  1.00  0.00     0.326 C 
HETATM   25  F1  UNL     1      -3.866  -0.352   1.801  1.00  0.00    -0.182 F 
HETATM   26  F2  UNL     1      -3.056   1.740   1.246  1.00  0.00    -0.182 F 
ENDBRANCH  16  19
ENDBRANCH   1  16
BRANCH   5  27
HETATM   27  C5  UNL     1       3.805   1.589  -0.499  1.00  0.00     0.034 A 
HETATM   28  C6  UNL     1       4.485   2.693   0.059  1.00  0.00     0.019 A 
HETATM   29  C7  UNL     1       5.515   3.346  -0.517  1.00  0.00     0.026 A 
HETATM   30  C8  UNL     1       5.957   2.922  -1.747  1.00  0.00     0.055 A 
HETATM   31 CL1  UNL     1       7.293   3.750  -2.524  1.00  0.00    -0.083 Cl
HETATM   32  C9  UNL     1       5.323   1.851  -2.324  1.00  0.00     0.056 A 
HETATM   33 CL2  UNL     1       5.939   1.359  -3.898  1.00  0.00    -0.083 Cl
HETATM   34  C10 UNL     1       4.272   1.190  -1.726  1.00  0.00     0.042 A 
ENDBRANCH   5  27
TORSDOF 4
