REMARK  0 active torsions:
REMARK  status: ('A' for Active; 'I' for Inactive)
ROOT
HETATM    1  C1  UNL     1      -4.303   2.245  -0.048  1.00  0.00     0.154 C 
HETATM    2  N1  UNL     1      -3.054   1.519  -0.098  1.00  0.00    -0.371 N 
HETATM    3  C2  UNL     1      -2.968   0.843  -1.406  1.00  0.00     0.086 C 
HETATM    4  C3  UNL     1      -2.183  -0.148  -1.859  1.00  0.00     0.000 C 
HETATM    5  C4  UNL     1      -1.149  -0.812  -1.017  1.00  0.00    -0.017 C 
HETATM    6  C5  UNL     1      -1.921  -1.764  -0.269  1.00  0.00     0.057 C 
HETATM    7  C6  UNL     1      -1.966  -2.076   1.145  1.00  0.00     0.246 C 
HETATM    8  F1  UNL     1      -3.211  -1.808   1.786  1.00  0.00    -0.243 F 
HETATM    9  C7  UNL     1      -0.954  -1.564   2.069  1.00  0.00     0.311 C 
HETATM   10  F2  UNL     1      -0.312  -2.686   2.686  1.00  0.00    -0.199 F 
HETATM   11  F3  UNL     1      -1.442  -0.968   3.234  1.00  0.00    -0.199 F 
HETATM   12  C8  UNL     1       0.193  -0.890   1.446  1.00  0.00     0.196 C 
HETATM   13  F4  UNL     1       1.026  -0.672   2.570  1.00  0.00    -0.234 F 
HETATM   14  C9  UNL     1       0.880  -1.954   0.629  1.00  0.00     0.113 C 
HETATM   15 BR1  UNL     1       2.364  -2.778   1.603  1.00  0.00    -0.087 Br
HETATM   16  C10 UNL     1       1.241  -1.462  -0.733  1.00  0.00    -0.022 C 
HETATM   17  C11 UNL     1       2.172  -2.535  -1.330  1.00  0.00     0.017 C 
HETATM   18  C12 UNL     1       0.022  -1.516  -1.688  1.00  0.00     0.024 C 
HETATM   19  C13 UNL     1       1.996  -0.217  -0.596  1.00  0.00     0.008 C 
HETATM   20  C14 UNL     1       3.493  -0.388  -0.315  1.00  0.00     0.084 C 
HETATM   21  C15 UNL     1       4.045   1.028  -0.465  1.00  0.00     0.128 C 
HETATM   22  O1  UNL     1       4.975   1.239  -1.224  1.00  0.00    -0.298 OA
HETATM   23  C16 UNL     1       3.463   2.138   0.298  1.00  0.00     0.098 C 
HETATM   24  C17 UNL     1       1.918   2.138   0.276  1.00  0.00     0.105 C 
HETATM   25  C18 UNL     1       1.499   2.893  -0.841  1.00  0.00     0.064 C 
HETATM   26  N2  UNL     1       1.178   3.517  -1.747  1.00  0.00    -0.197 NA
HETATM   27  C19 UNL     1       1.501   0.770   0.486  1.00  0.00     0.025 C 
HETATM   28  C20 UNL     1       0.036   0.419   0.711  1.00  0.00     0.028 C 
HETATM   29  C21 UNL     1      -0.869   1.408   1.347  1.00  0.00     0.004 C 
HETATM   30  C22 UNL     1      -2.244   1.636   1.062  1.00  0.00     0.087 C 
HETATM   31  C23 UNL     1      -0.397   0.384  -0.648  1.00  0.00     0.031 C 
ENDROOT
TORSDOF 0
