REMARK  7 active torsions:
REMARK  status: ('A' for Active; 'I' for Inactive)
REMARK    1  A    between atoms: C2_2  and  C11_22 
REMARK    2  A    between atoms: N1_3  and  N2_5 
REMARK       I    between atoms: N2_5  and  C3_7 
REMARK       I    between atoms: C3_7  and  N3_9 
REMARK    3  A    between atoms: N3_9  and  N4_11 
REMARK    4  A    between atoms: N4_11  and  C4_13 
REMARK    5  A    between atoms: C4_13  and  C5_15 
REMARK    6  A    between atoms: C11_22  and  O2_23 
REMARK    7  A    between atoms: N6_25  and  O3_27 
ROOT
HETATM    1  N2  UNL     1      -2.473   0.042  -1.200  1.00  0.00    -0.250 N 
ATOM      2  H2  UNL     1      -2.730  -0.528  -2.006  1.00  0.00     0.192 HD
HETATM    3  C3  UNL     1      -1.209  -0.091  -0.563  1.00  0.00     0.353 C 
HETATM    4  O1  UNL     1      -0.911   0.624   0.437  1.00  0.00    -0.244 OA
HETATM    5  N3  UNL     1      -0.286  -1.033  -1.063  1.00  0.00    -0.249 N 
ATOM      6  H3  UNL     1      -0.506  -1.622  -1.866  1.00  0.00     0.192 HD
ENDROOT
BRANCH   1   7
HETATM    7  N1  UNL     1      -3.333   0.981  -0.672  1.00  0.00    -0.297 N 
HETATM    8  C2  UNL     1      -4.599   0.782  -0.625  1.00  0.00     0.074 C 
HETATM    9  C1  UNL     1      -5.237  -0.455  -1.126  1.00  0.00     0.074 C 
ATOM     10  H1  UNL     1      -2.953   1.856  -0.310  1.00  0.00     0.187 HD
BRANCH   8  11
HETATM   11  C11 UNL     1      -5.464   1.838  -0.034  1.00  0.00     0.184 C 
HETATM   12  N6  UNL     1      -6.702   1.783   0.068  1.00  0.00    -0.246 N 
ATOM     13  H6  UNL     1      -7.167   2.583   0.497  1.00  0.00     0.196 HD
BRANCH  11  14
HETATM   14  O2  UNL     1      -4.824   3.009   0.454  1.00  0.00    -0.343 OA
ATOM     15  H2  UNL     1      -5.376   3.683   0.831  1.00  0.00     0.219 HD
ENDBRANCH  11  14
BRANCH  12  16
HETATM   16  O3  UNL     1      -7.487   0.764  -0.335  1.00  0.00    -0.288 OA
ATOM     17  H3  UNL     1      -8.433   0.722  -0.257  1.00  0.00     0.244 HD
ENDBRANCH  12  16
ENDBRANCH   8  11
ENDBRANCH   1   7
BRANCH   5  18
HETATM   18  N4  UNL     1       0.954  -1.122  -0.401  1.00  0.00    -0.286 N 
ATOM     19  H4  UNL     1       1.188  -1.936   0.167  1.00  0.00     0.188 HD
BRANCH  18  20
HETATM   20  C4  UNL     1       1.861  -0.055  -0.545  1.00  0.00     0.125 C 
HETATM   21  S1  UNL     1       1.495   1.235  -1.464  1.00  0.00    -0.058 SA
BRANCH  20  22
HETATM   22  C5  UNL     1       3.142  -0.124   0.142  1.00  0.00     0.003 A 
HETATM   23  C6  UNL     1       3.237  -0.692   1.394  1.00  0.00     0.016 A 
HETATM   24  C7  UNL     1       4.444  -0.740   2.047  1.00  0.00     0.027 A 
HETATM   25  C8  UNL     1       5.600  -0.227   1.484  1.00  0.00     0.046 A 
HETATM   26  N5  UNL     1       6.821  -0.300   2.207  1.00  0.00    -0.102 NA
HETATM   27  C9  UNL     1       5.474   0.332   0.236  1.00  0.00     0.027 A 
HETATM   28  C10 UNL     1       4.281   0.396  -0.445  1.00  0.00     0.016 A 
ENDBRANCH  20  22
ENDBRANCH  18  20
ENDBRANCH   5  18
TORSDOF 7
