REMARK  6 active torsions:
REMARK  status: ('A' for Active; 'I' for Inactive)
REMARK    1  A    between atoms: S1_2  and  C2_3 
REMARK    2  A    between atoms: C2_3  and  N2_7 
REMARK    3  A    between atoms: N3_9  and  N4_11 
REMARK    4  A    between atoms: N4_11  and  N5_13 
REMARK       I    between atoms: N5_13  and  C3_15 
REMARK       I    between atoms: C3_15  and  N6_17 
REMARK    5  A    between atoms: N6_17  and  N7_19 
REMARK       I    between atoms: N7_19  and  C4_21 
REMARK    6  A    between atoms: C4_21  and  C5_23 
ROOT
HETATM    1  N5  UNL     1       1.674   0.450   0.153  1.00  0.00    -0.234 N 
ATOM      2  H5  UNL     1       1.970   0.764   1.077  1.00  0.00     0.193 HD
HETATM    3  C3  UNL     1       0.330   0.046  -0.051  1.00  0.00     0.354 C 
HETATM    4  O1  UNL     1       0.011  -0.341  -1.218  1.00  0.00    -0.244 OA
HETATM    5  N6  UNL     1      -0.628   0.067   0.998  1.00  0.00    -0.247 N 
ATOM      6  H6  UNL     1      -0.339   0.382   1.924  1.00  0.00     0.192 HD
ENDROOT
BRANCH   1   7
HETATM    7  N4  UNL     1       2.594   0.424  -0.891  1.00  0.00    -0.224 N 
ATOM      8  H4  UNL     1       2.893  -0.453  -1.317  1.00  0.00     0.210 HD
BRANCH   7   9
HETATM    9  N3  UNL     1       3.087   1.651  -1.327  1.00  0.00    -0.226 N 
HETATM   10  N2  UNL     1       4.327   1.835  -1.388  1.00  0.00    -0.265 N 
ATOM     11  H2  UNL     1       4.653   2.745  -1.713  1.00  0.00     0.190 HD
ATOM     12  H3  UNL     1       2.444   2.396  -1.595  1.00  0.00     0.210 HD
BRANCH  10  13
HETATM   13  C2  UNL     1       5.302   0.882  -1.043  1.00  0.00     0.153 C 
HETATM   14  N1  UNL     1       6.380   0.826  -1.743  1.00  0.00    -0.379 N 
ATOM     15  H12 UNL     1       7.087   0.135  -1.493  1.00  0.00     0.158 HD
ATOM     16  H11 UNL     1       6.548   1.447  -2.535  1.00  0.00     0.158 HD
BRANCH  13  17
HETATM   17  S1  UNL     1       5.009  -0.200   0.337  1.00  0.00    -0.098 SA
HETATM   18  C1  UNL     1       6.451  -1.289   0.503  1.00  0.00     0.099 C 
ENDBRANCH  13  17
ENDBRANCH  10  13
ENDBRANCH   7   9
ENDBRANCH   1   7
BRANCH   5  19
HETATM   19  N7  UNL     1      -1.950  -0.329   0.804  1.00  0.00    -0.262 N 
HETATM   20  C4  UNL     1      -2.962   0.587   0.430  1.00  0.00     0.270 C 
HETATM   21  O2  UNL     1      -2.649   1.788   0.272  1.00  0.00    -0.266 OA
ATOM     22  H7  UNL     1      -2.196  -1.310   0.936  1.00  0.00     0.190 HD
BRANCH  20  23
HETATM   23  C5  UNL     1      -4.319   0.128   0.239  1.00  0.00     0.036 A 
HETATM   24  C6  UNL     1      -5.245   1.032  -0.222  1.00  0.00     0.034 A 
HETATM   25  C7  UNL     1      -6.543   0.622  -0.413  1.00  0.00     0.088 A 
HETATM   26  N8  UNL     1      -6.887  -0.648  -0.148  1.00  0.00    -0.375 N 
HETATM   27  C8  UNL     1      -6.014  -1.558   0.302  1.00  0.00     0.088 A 
ATOM     28  H8  UNL     1      -7.855  -0.932  -0.296  1.00  0.00     0.164 HD
HETATM   29  C9  UNL     1      -4.702  -1.158   0.500  1.00  0.00     0.034 A 
ENDBRANCH  20  23
ENDBRANCH   5  19
TORSDOF 6
