REMARK  6 active torsions:
REMARK  status: ('A' for Active; 'I' for Inactive)
REMARK    1  A    between atoms: C3_5  and  N2_6 
REMARK    2  A    between atoms: C4_11  and  N4_12 
REMARK    3  A    between atoms: C5_15  and  C6_16 
REMARK    4  A    between atoms: C6_16  and  N6_20 
REMARK    5  A    between atoms: N6_20  and  N7_22 
REMARK       I    between atoms: N7_22  and  C7_24 
REMARK    6  A    between atoms: C7_24  and  C8_26 
ROOT
HETATM    1  N1  UNL     1       1.084   2.979  -0.810  1.00  0.00    -0.189 NA
HETATM    2  C1  UNL     1       1.853   2.124  -0.639  1.00  0.00     0.126 C 
HETATM    3  C2  UNL     1       2.843   1.069  -0.488  1.00  0.00     0.176 A 
HETATM    4  O1  UNL     1       3.962   1.195  -1.135  1.00  0.00    -0.267 OA
HETATM    5  C3  UNL     1       4.947   0.318  -1.105  1.00  0.00     0.224 A 
HETATM    6  N3  UNL     1       4.811  -0.782  -0.366  1.00  0.00    -0.308 N 
ATOM      7  H3  UNL     1       5.558  -1.475  -0.328  1.00  0.00     0.171 HD
HETATM    8  C4  UNL     1       3.647  -0.969   0.345  1.00  0.00     0.119 A 
HETATM    9  C5  UNL     1       2.598  -0.026   0.308  1.00  0.00     0.097 A 
ENDROOT
BRANCH   9  10
HETATM   10  C6  UNL     1       1.422  -0.184   1.124  1.00  0.00     0.131 C 
HETATM   11  N5  UNL     1       1.267  -1.264   1.823  1.00  0.00    -0.384 N 
ATOM     12  H52 UNL     1       1.981  -1.984   1.710  1.00  0.00     0.157 HD
ATOM     13  H51 UNL     1       0.434  -1.376   2.401  1.00  0.00     0.157 HD
BRANCH  10  14
HETATM   14  N6  UNL     1       0.428   0.819   1.282  1.00  0.00    -0.282 N 
ATOM     15  H6  UNL     1       0.721   1.728   1.639  1.00  0.00     0.188 HD
BRANCH  14  16
HETATM   16  N7  UNL     1      -0.918   0.641   0.981  1.00  0.00    -0.264 N 
HETATM   17  C7  UNL     1      -1.463   0.097  -0.180  1.00  0.00     0.270 C 
HETATM   18  O2  UNL     1      -0.768  -0.312  -1.120  1.00  0.00    -0.266 OA
ATOM     19  H7  UNL     1      -1.583   0.944   1.693  1.00  0.00     0.190 HD
BRANCH  17  20
HETATM   20  C8  UNL     1      -2.944  -0.007  -0.300  1.00  0.00     0.033 A 
HETATM   21  C9  UNL     1      -3.772   0.750   0.499  1.00  0.00     0.017 A 
HETATM   22  C10 UNL     1      -5.144   0.638   0.390  1.00  0.00     0.001 A 
HETATM   23  C11 UNL     1      -5.728  -0.214  -0.496  1.00  0.00     0.000 A 
HETATM   24  C12 UNL     1      -4.929  -0.990  -1.314  1.00  0.00     0.001 A 
HETATM   25  C13 UNL     1      -3.549  -0.866  -1.196  1.00  0.00     0.017 A 
ENDBRANCH  17  20
ENDBRANCH  14  16
ENDBRANCH  10  14
ENDBRANCH   9  10
BRANCH   5  26
HETATM   26  N2  UNL     1       5.980   0.598  -1.800  1.00  0.00    -0.365 N 
ATOM     27  H22 UNL     1       6.084   1.440  -2.366  1.00  0.00     0.159 HD
ATOM     28  H21 UNL     1       6.742  -0.080  -1.777  1.00  0.00     0.159 HD
ENDBRANCH   5  26
BRANCH   8  29
HETATM   29  N4  UNL     1       3.574  -2.016   1.018  1.00  0.00    -0.385 N 
ATOM     30  H42 UNL     1       4.332  -2.698   1.045  1.00  0.00     0.157 HD
ATOM     31  H41 UNL     1       2.712  -2.155   1.545  1.00  0.00     0.157 HD
ENDBRANCH   8  29
TORSDOF 6
