REMARK  10 active torsions:
REMARK  status: ('A' for Active; 'I' for Inactive)
REMARK    1  A    between atoms: C2_2  and  O1_4 
REMARK    2  A    between atoms: C2_2  and  C4_6 
REMARK    3  A    between atoms: C4_6  and  C5_8 
REMARK    4  A    between atoms: C5_8  and  C6_9 
REMARK    5  A    between atoms: C6_9  and  C7_10 
REMARK    6  A    between atoms: C11_14  and  O3_15 
REMARK    7  A    between atoms: C11_14  and  C12_17 
REMARK    8  A    between atoms: C12_17  and  N1_18 
REMARK    9  A    between atoms: N1_18  and  C13_21 
REMARK   10  A    between atoms: C21_30  and  O5_32 
ROOT
HETATM    1  C7  UNL     1      -2.032   0.492   0.062  1.00  0.00     0.024 C 
HETATM    2  C8  UNL     1      -0.865  -0.376  -0.126  1.00  0.00    -0.001 C 
HETATM    3  C9  UNL     1      -0.437  -1.208   1.039  1.00  0.00     0.009 C 
HETATM    4  C10 UNL     1       1.093  -1.148   1.107  1.00  0.00     0.040 C 
HETATM    5  C11 UNL     1       1.431  -0.728  -0.279  1.00  0.00     0.086 C 
HETATM    6  C18 UNL     1       0.401   0.351  -0.540  1.00  0.00     0.026 C 
HETATM    7  C19 UNL     1       0.700   1.579   0.232  1.00  0.00     0.011 C 
HETATM    8  C20 UNL     1      -0.447   2.172   0.975  1.00  0.00     0.038 C 
HETATM    9  C21 UNL     1      -1.697   1.988   0.176  1.00  0.00     0.058 C 
HETATM   10  C22 UNL     1      -1.597   2.643  -1.166  1.00  0.00     0.046 C 
ENDROOT
BRANCH   5  11
HETATM   11  O3  UNL     1       1.191  -1.780  -1.154  1.00  0.00    -0.388 OA
ATOM     12  H3  UNL     1       1.407  -1.512  -2.039  1.00  0.00     0.210 HD
ENDBRANCH   5  11
BRANCH   5  13
HETATM   13  C12 UNL     1       2.836  -0.264  -0.480  1.00  0.00     0.273 C 
BRANCH  13  14
HETATM   14  N1  UNL     1       3.718  -1.378  -0.201  1.00  0.00    -0.046 N 
ATOM     15  H12 UNL     1       3.536  -1.758   0.728  1.00  0.00     0.280 HD
ATOM     16  H11 UNL     1       3.467  -2.188  -0.768  1.00  0.00     0.280 HD
BRANCH  14  17
HETATM   17  C13 UNL     1       5.102  -1.064  -0.355  1.00  0.00     0.320 C 
HETATM   18  C14 UNL     1       5.526   0.018   0.636  1.00  0.00     0.061 C 
HETATM   19  C15 UNL     1       7.060   0.040   0.561  1.00  0.00     0.006 C 
HETATM   20  C16 UNL     1       7.384   0.519  -0.843  1.00  0.00     0.026 C 
HETATM   21  C17 UNL     1       6.210   0.399  -1.769  1.00  0.00     0.170 C 
HETATM   22  O4  UNL     1       5.498  -0.771  -1.639  1.00  0.00    -0.359 OA
ENDBRANCH  14  17
ENDBRANCH  13  14
ENDBRANCH   5  13
BRANCH   1  23
HETATM   23  C6  UNL     1      -2.964   0.193   1.175  1.00  0.00     0.015 C 
BRANCH  23  24
HETATM   24  C5  UNL     1      -3.639  -1.134   1.159  1.00  0.00     0.082 C 
BRANCH  24  25
HETATM   25  C4  UNL     1      -4.471  -1.374  -0.026  1.00  0.00     0.160 C 
HETATM   26  O2  UNL     1      -3.973  -1.802  -1.048  1.00  0.00    -0.295 OA
BRANCH  25  27
HETATM   27  C2  UNL     1      -5.933  -1.110  -0.035  1.00  0.00     0.111 C 
HETATM   28  C1  UNL     1      -6.273  -0.068  -1.081  1.00  0.00     0.053 C 
HETATM   29  C3  UNL     1      -6.718  -2.363  -0.376  1.00  0.00     0.053 C 
BRANCH  27  30
HETATM   30  O1  UNL     1      -6.286  -0.617   1.220  1.00  0.00    -0.383 OA
ATOM     31  H1  UNL     1      -6.073  -1.270   1.876  1.00  0.00     0.211 HD
ENDBRANCH  27  30
ENDBRANCH  25  27
ENDBRANCH  24  25
ENDBRANCH  23  24
ENDBRANCH   1  23
BRANCH   9  32
HETATM   32  O5  UNL     1      -2.720   2.659   0.887  1.00  0.00    -0.390 OA
ATOM     33  H5  UNL     1      -2.513   3.583   0.957  1.00  0.00     0.210 HD
ENDBRANCH   9  32
TORSDOF 10
