REMARK  10 active torsions:
REMARK  status: ('A' for Active; 'I' for Inactive)
REMARK    1  A    between atoms: C2_2  and  C3_3 
REMARK    2  A    between atoms: C3_3  and  C4_4 
REMARK    3  A    between atoms: C4_4  and  C5_5 
REMARK    4  A    between atoms: C5_5  and  C6_6 
REMARK    5  A    between atoms: C7_7  and  O1_8 
REMARK    6  A    between atoms: C9_13  and  O2_14 
REMARK    7  A    between atoms: N2_16  and  C10_17 
REMARK    8  A    between atoms: C10_17  and  C11_18 
REMARK    9  A    between atoms: C13_20  and  N3_21 
REMARK   10  A    between atoms: C14_24  and  C15_25 
REMARK       I    between atoms: C15_25  and  N4_27 
ROOT
HETATM    1  C6  UNL     1       2.263  -0.032   1.229  1.00  0.00     0.044 A 
HETATM    2  C7  UNL     1       2.215   1.124   2.013  1.00  0.00     0.150 A 
HETATM    3  N1  UNL     1       1.156   1.927   1.841  1.00  0.00    -0.332 N 
ATOM      4  H1  UNL     1       1.090   2.780   2.397  1.00  0.00     0.168 HD
HETATM    5  C8  UNL     1       0.182   1.650   0.966  1.00  0.00     0.101 A 
HETATM    6  C9  UNL     1      -0.876   2.524   0.840  1.00  0.00     0.172 A 
HETATM    7  N2  UNL     1      -1.875   2.288  -0.029  1.00  0.00    -0.311 N 
HETATM    8  C13 UNL     1      -1.838   1.187  -0.780  1.00  0.00     0.120 A 
HETATM    9  C14 UNL     1      -0.799   0.262  -0.702  1.00  0.00     0.092 A 
HETATM   10  C20 UNL     1       0.216   0.504   0.181  1.00  0.00     0.065 A 
HETATM   11  C21 UNL     1       1.287  -0.355   0.322  1.00  0.00     0.196 A 
HETATM   12  O4  UNL     1       1.300  -1.374  -0.385  1.00  0.00    -0.287 OA
ENDROOT
BRANCH   9  13
HETATM   13  C15 UNL     1      -0.820  -0.922  -1.552  1.00  0.00     0.258 C 
HETATM   14  O3  UNL     1      -0.265  -0.843  -2.674  1.00  0.00    -0.267 OA
HETATM   15  N4  UNL     1      -1.429  -2.151  -1.192  1.00  0.00    -0.348 N 
HETATM   16  C16 UNL     1      -1.474  -3.352  -1.998  1.00  0.00     0.126 C 
HETATM   17  C19 UNL     1      -2.134  -2.420   0.071  1.00  0.00     0.126 C 
HETATM   18  C17 UNL     1      -2.428  -4.283  -1.307  1.00  0.00     0.021 C 
HETATM   19  C18 UNL     1      -2.166  -3.930   0.163  1.00  0.00     0.021 C 
ENDBRANCH   9  13
BRANCH   8  20
HETATM   20  N3  UNL     1      -2.809   0.940  -1.637  1.00  0.00    -0.384 N 
ATOM     21  H32 UNL     1      -3.570   1.617  -1.694  1.00  0.00     0.157 HD
ATOM     22  H31 UNL     1      -2.781   0.098  -2.212  1.00  0.00     0.157 HD
ENDBRANCH   8  20
BRANCH   7  23
HETATM   23  C10 UNL     1      -2.976   3.194  -0.163  1.00  0.00     0.132 C 
BRANCH  23  24
HETATM   24  C11 UNL     1      -4.124   2.868   0.766  1.00  0.00     0.016 C 
HETATM   25  C12 UNL     1      -5.244   3.865   0.566  1.00  0.00     0.006 C 
ENDBRANCH  23  24
ENDBRANCH   7  23
BRANCH   6  26
HETATM   26  O2  UNL     1      -0.859   3.659   1.652  1.00  0.00    -0.344 OA
ATOM     27  H2  UNL     1      -1.588   4.262   1.565  1.00  0.00     0.219 HD
ENDBRANCH   6  26
BRANCH   1  28
HETATM   28  C5  UNL     1       3.424  -0.910   1.454  1.00  0.00     0.047 C 
BRANCH  28  29
HETATM   29  C4  UNL     1       4.717  -0.352   0.944  1.00  0.00     0.009 C 
BRANCH  29  30
HETATM   30  C3  UNL     1       4.831  -0.125  -0.521  1.00  0.00     0.026 C 
BRANCH  30  31
HETATM   31  C2  UNL     1       4.761  -1.384  -1.281  1.00  0.00    -0.037 C 
HETATM   32  C1  UNL     1       5.763  -1.742  -2.065  1.00  0.00     0.007 C 
ENDBRANCH  30  31
ENDBRANCH  29  30
ENDBRANCH  28  29
ENDBRANCH   1  28
BRANCH   2  33
HETATM   33  O1  UNL     1       3.225   1.408   2.920  1.00  0.00    -0.346 OA
ATOM     34  H1  UNL     1       3.192   2.194   3.453  1.00  0.00     0.219 HD
ENDBRANCH   2  33
TORSDOF 10
