REMARK  6 active torsions:
REMARK  status: ('A' for Active; 'I' for Inactive)
REMARK    1  A    between atoms: O1_1  and  C1_3 
REMARK    2  A    between atoms: C2_7  and  C3_8 
REMARK    3  A    between atoms: C3_8  and  O4_9 
REMARK    4  A    between atoms: C3_8  and  C4_11 
REMARK    5  A    between atoms: C8_16  and  O6_17 
REMARK    6  A    between atoms: C9_19  and  O7_20 
ROOT
HETATM    1  C1  UNL     1       3.331   0.955  -0.197  1.00  0.00     0.304 C 
HETATM    2  O2  UNL     1       3.113   1.783   0.899  1.00  0.00    -0.261 OA
HETATM    3  S1  UNL     1       1.714   2.719   0.584  1.00  0.00     0.162 SA
HETATM    4  O3  UNL     1       0.460   1.643   0.119  1.00  0.00    -0.286 OA
HETATM    5  C2  UNL     1       0.625   0.455   0.785  1.00  0.00     0.202 C 
HETATM    6  C8  UNL     1       1.349  -0.573  -0.018  1.00  0.00     0.184 C 
HETATM    7  C9  UNL     1       2.850  -0.455   0.069  1.00  0.00     0.205 C 
ENDROOT
BRANCH   5   8
HETATM    8  C3  UNL     1      -0.701  -0.135   1.229  1.00  0.00     0.180 C 
BRANCH   8   9
HETATM    9  O4  UNL     1      -0.497  -1.336   1.900  1.00  0.00    -0.390 OA
ATOM     10  H4  UNL     1      -1.327  -1.705   2.178  1.00  0.00     0.210 HD
ENDBRANCH   8   9
BRANCH   8  11
HETATM   11  C4  UNL     1      -1.614  -0.411   0.069  1.00  0.00     0.152 C 
HETATM   12  C5  UNL     1      -2.988  -0.751   0.657  1.00  0.00     0.036 C 
HETATM   13  C6  UNL     1      -3.861  -0.557  -0.579  1.00  0.00     0.029 C 
HETATM   14  C7  UNL     1      -3.108   0.528  -1.306  1.00  0.00     0.168 C 
HETATM   15  O5  UNL     1      -1.899   0.701  -0.683  1.00  0.00    -0.383 OA
ENDBRANCH   8  11
ENDBRANCH   5   8
BRANCH   6  16
HETATM   16  O6  UNL     1       0.962  -0.627  -1.347  1.00  0.00    -0.390 OA
ATOM     17  H6  UNL     1       1.423  -1.282  -1.858  1.00  0.00     0.210 HD
ENDBRANCH   6  16
BRANCH   7  18
HETATM   18  O7  UNL     1       3.386  -1.282  -0.918  1.00  0.00    -0.388 OA
ATOM     19  H7  UNL     1       3.084  -2.167  -0.751  1.00  0.00     0.210 HD
ENDBRANCH   7  18
BRANCH   1  20
HETATM   20  O1  UNL     1       4.693   0.868  -0.489  1.00  0.00    -0.368 OA
ATOM     21  H1  UNL     1       4.842   0.302  -1.238  1.00  0.00     0.212 HD
ENDBRANCH   1  20
TORSDOF 6
