REMARK  2 active torsions:
REMARK  status: ('A' for Active; 'I' for Inactive)
REMARK    1  A    between atoms: O1_2  and  C2_3 
REMARK    2  A    between atoms: C7_8  and  O2_9 
ROOT
HETATM    1  C2  UNL     1       1.092  -0.151  -0.144  1.00  0.00     0.159 C 
HETATM    2  C3  UNL     1       0.364  -0.956  -1.232  1.00  0.00     0.020 C 
HETATM    3  C4  UNL     1      -0.469  -1.966  -0.505  1.00  0.00     0.007 C 
HETATM    4  C5  UNL     1      -1.644  -1.297   0.141  1.00  0.00     0.004 C 
HETATM    5  C6  UNL     1      -1.230   0.025   0.760  1.00  0.00     0.041 C 
HETATM    6  C7  UNL     1      -0.161   0.674  -0.047  1.00  0.00     0.087 C 
HETATM    7  C9  UNL     1      -0.418   0.327  -1.518  1.00  0.00     0.048 C 
ENDROOT
BRANCH   1   8
HETATM    8  O1  UNL     1       1.450  -0.874   0.965  1.00  0.00    -0.387 OA
HETATM    9  C1  UNL     1       2.821  -0.680   1.222  1.00  0.00     0.202 C 
ENDBRANCH   1   8
BRANCH   6  10
HETATM   10  O2  UNL     1       0.100   1.987   0.115  1.00  0.00    -0.382 OA
HETATM   11  C8  UNL     1      -0.984   2.821   0.214  1.00  0.00     0.202 C 
ENDBRANCH   6  10
TORSDOF 2
