REMARK  2 active torsions:
REMARK  status: ('A' for Active; 'I' for Inactive)
REMARK    1  A    between atoms: C2_2  and  C3_3 
REMARK    2  A    between atoms: C6_7  and  C7_8 
ROOT
HETATM    1  C3  UNL     1       1.503   0.705  -0.384  1.00  0.00     0.148 C 
HETATM    2  C4  UNL     1       1.859  -0.627  -0.990  1.00  0.00     0.062 C 
HETATM    3  C5  UNL     1       0.651  -1.451  -1.355  1.00  0.00     0.173 C 
HETATM    4  O1  UNL     1      -0.472  -0.641  -1.184  1.00  0.00    -0.361 OA
HETATM    5  C6  UNL     1      -0.505  -0.300   0.173  1.00  0.00     0.263 C 
HETATM    6  O2  UNL     1       0.443   0.633   0.508  1.00  0.00    -0.352 OA
ENDROOT
BRANCH   5   7
HETATM    7  C7  UNL     1      -1.899   0.060   0.622  1.00  0.00     0.033 C 
HETATM    8  C8  UNL     1      -2.479   1.222  -0.116  1.00  0.00     0.014 C 
HETATM    9  C9  UNL     1      -2.801  -1.144   0.485  1.00  0.00     0.014 C 
ENDBRANCH   5   7
BRANCH   1  10
HETATM   10  C2  UNL     1       2.728   1.236   0.274  1.00  0.00    -0.005 C 
HETATM   11  C1  UNL     1       2.935   1.207   1.565  1.00  0.00     0.009 C 
ENDBRANCH   1  10
TORSDOF 2
