REMARK  5 active torsions:
REMARK  status: ('A' for Active; 'I' for Inactive)
REMARK    1  A    between atoms: C2_2  and  N1_3 
REMARK    2  A    between atoms: N1_3  and  C3_4 
REMARK    3  A    between atoms: C15_21  and  O5_22 
REMARK    4  A    between atoms: O5_22  and  C16_23 
REMARK    5  A    between atoms: C16_23  and  O6_25 
ROOT
HETATM    1  N1  UNL     1      -2.380  -0.719   0.441  1.00  0.00    -0.034 N 
HETATM    2  C5  UNL     1      -1.883   0.618   0.084  1.00  0.00     0.275 C 
HETATM    3  C6  UNL     1      -0.641   0.712   0.890  1.00  0.00     0.185 C 
HETATM    4  O1  UNL     1      -0.600  -0.382   1.706  1.00  0.00    -0.345 OA
HETATM    5  C7  UNL     1      -1.263  -1.406   1.004  1.00  0.00     0.382 C 
HETATM    6  C8  UNL     1      -0.253  -1.900  -0.014  1.00  0.00     0.320 C 
HETATM    7  O2  UNL     1       0.803  -2.417   0.668  1.00  0.00    -0.354 OA
HETATM    8  C9  UNL     1       1.921  -1.656   0.830  1.00  0.00     0.220 C 
HETATM    9  C10 UNL     1       2.182  -0.921  -0.451  1.00  0.00     0.265 A 
HETATM   10  C11 UNL     1       2.666  -1.857  -1.568  1.00  0.00     0.324 A 
HETATM   11  N2  UNL     1       3.426  -0.717  -1.024  1.00  0.00     0.112 N 
HETATM   12  C12 UNL     1       3.607   0.327  -1.950  1.00  0.00     0.300 C 
HETATM   13  C13 UNL     1       2.360   1.026  -2.388  1.00  0.00     0.202 C 
HETATM   14  O3  UNL     1       1.201   0.379  -2.134  1.00  0.00    -0.349 OA
HETATM   15  C14 UNL     1       1.010  -0.106  -0.842  1.00  0.00     0.236 C 
HETATM   16  O4  UNL     1      -0.042  -1.016  -1.006  1.00  0.00    -0.315 OA
HETATM   17  C15 UNL     1       0.621   0.978   0.108  1.00  0.00     0.220 C 
ENDROOT
BRANCH  17  18
HETATM   18  O5  UNL     1       1.590   1.303   1.032  1.00  0.00    -0.348 OA
BRANCH  18  19
HETATM   19  C16 UNL     1       2.027   2.590   1.045  1.00  0.00     0.253 C 
HETATM   20  C17 UNL     1       3.492   2.823   1.015  1.00  0.00     0.070 C 
BRANCH  19  21
HETATM   21  O6  UNL     1       1.563   3.138   2.270  1.00  0.00    -0.372 OA
ATOM     22  H6  UNL     1       1.868   4.038   2.279  1.00  0.00     0.212 HD
ENDBRANCH  19  21
ENDBRANCH  18  19
ENDBRANCH  17  18
BRANCH   1  23
HETATM   23  C2  UNL     1      -3.345  -0.520   1.503  1.00  0.00     0.236 C 
HETATM   24  C1  UNL     1      -4.328  -1.631   1.643  1.00  0.00     0.035 C 
ENDBRANCH   1  23
BRANCH   1  25
HETATM   25  C3  UNL     1      -2.999  -1.311  -0.687  1.00  0.00     0.236 C 
HETATM   26  C4  UNL     1      -3.816  -0.215  -1.386  1.00  0.00     0.035 C 
ENDBRANCH   1  25
TORSDOF 5
