REMARK  18 active torsions:
REMARK  status: ('A' for Active; 'I' for Inactive)
REMARK    1  A    between atoms: N1_2  and  C2_5 
REMARK    2  A    between atoms: C3_7  and  C4_8 
REMARK    3  A    between atoms: C5_12  and  N3_13 
REMARK    4  A    between atoms: C6_19  and  N5_20 
REMARK    5  A    between atoms: N6_24  and  C7_25 
REMARK    6  A    between atoms: C8_28  and  C9_29 
REMARK    7  A    between atoms: C9_29  and  N8_30 
REMARK    8  A    between atoms: C9_29  and  N9_34 
REMARK    9  A    between atoms: C10_38  and  C11_39 
REMARK   10  A    between atoms: C11_39  and  O4_40 
REMARK   11  A    between atoms: C11_39  and  N10_42 
REMARK   12  A    between atoms: N10_42  and  C12_45 
REMARK   13  A    between atoms: C12_45  and  C13_46 
REMARK   14  A    between atoms: C13_46  and  C14_48 
REMARK   15  A    between atoms: C14_48  and  C15_50 
REMARK   16  A    between atoms: C15_50  and  O6_53 
REMARK   17  A    between atoms: C18_56  and  O8_57 
REMARK   18  A    between atoms: C20_60  and  N11_61 
ROOT
HETATM    1  C2  UNL     1       5.191  -0.070  -1.265  1.00  0.00     0.334 C 
HETATM    2  O1  UNL     1       4.796   1.230  -1.451  1.00  0.00    -0.313 OA
HETATM    3  C3  UNL     1       3.948   1.598  -0.401  1.00  0.00     0.261 C 
HETATM    4  O3  UNL     1       2.749   1.946  -0.930  1.00  0.00    -0.297 OA
HETATM    5  C6  UNL     1       1.636   1.188  -0.652  1.00  0.00     0.436 C 
HETATM    6  N6  UNL     1       1.827  -0.213  -0.650  1.00  0.00    -0.270 N 
HETATM    7  C18 UNL     1       2.969  -1.022  -1.032  1.00  0.00     0.238 C 
HETATM    8  C19 UNL     1       4.208  -0.689  -0.279  1.00  0.00     0.127 C 
HETATM    9  C20 UNL     1       3.962   0.515   0.616  1.00  0.00     0.266 C 
ENDROOT
BRANCH   6  10
HETATM   10  C7  UNL     1       0.706  -0.998  -0.190  1.00  0.00     0.232 A 
HETATM   11  N7  UNL     1       0.702  -2.355  -0.134  1.00  0.00    -0.320 N 
HETATM   12  C8  UNL     1      -0.495  -2.796   0.348  1.00  0.00     0.104 A 
ATOM     13  H7  UNL     1       1.479  -2.955  -0.411  1.00  0.00     0.169 HD
HETATM   14  C10 UNL     1      -1.224  -1.659   0.585  1.00  0.00     0.139 A 
HETATM   15  O7  UNL     1      -0.461  -0.623   0.244  1.00  0.00    -0.277 OA
BRANCH  12  16
HETATM   16  C9  UNL     1      -0.782  -4.233   0.559  1.00  0.00     0.430 C 
BRANCH  16  17
HETATM   17  N8  UNL     1      -1.315  -4.536   1.843  1.00  0.00    -0.045 N 
ATOM     18  H83 UNL     1      -0.702  -4.182   2.577  1.00  0.00     0.277 HD
ATOM     19  H82 UNL     1      -2.146  -3.974   2.027  1.00  0.00     0.277 HD
ATOM     20  H81 UNL     1      -1.513  -5.526   1.988  1.00  0.00     0.277 HD
ENDBRANCH  16  17
BRANCH  16  21
HETATM   21  N9  UNL     1      -1.609  -4.756  -0.531  1.00  0.00    -0.045 N 
ATOM     22  H93 UNL     1      -2.463  -4.212  -0.653  1.00  0.00     0.277 HD
ATOM     23  H92 UNL     1      -1.187  -4.583  -1.444  1.00  0.00     0.277 HD
ATOM     24  H91 UNL     1      -1.807  -5.746  -0.386  1.00  0.00     0.277 HD
ENDBRANCH  16  21
ENDBRANCH  12  16
BRANCH  14  25
HETATM   25  C11 UNL     1      -2.587  -1.642   1.116  1.00  0.00     0.379 C 
BRANCH  25  26
HETATM   26  O4  UNL     1      -2.598  -0.606   2.110  1.00  0.00    -0.365 OA
ATOM     27  H4  UNL     1      -3.483  -0.595   2.455  1.00  0.00     0.212 HD
ENDBRANCH  25  26
BRANCH  25  28
HETATM   28  N10 UNL     1      -3.686  -1.452   0.231  1.00  0.00    -0.040 N 
ATOM     29 2H10 UNL     1      -3.434  -1.707  -0.724  1.00  0.00     0.280 HD
ATOM     30 1H10 UNL     1      -4.415  -2.145   0.400  1.00  0.00     0.280 HD
BRANCH  28  31
HETATM   31  C12 UNL     1      -4.225  -0.109   0.284  1.00  0.00     0.281 C 
BRANCH  31  32
HETATM   32  C13 UNL     1      -5.621  -0.123  -0.326  1.00  0.00     0.268 C 
HETATM   33  F1  UNL     1      -6.390  -1.048   0.389  1.00  0.00    -0.239 F 
BRANCH  32  34
HETATM   34  C14 UNL     1      -6.253   1.231  -0.077  1.00  0.00     0.195 C 
HETATM   35  O5  UNL     1      -5.586   2.173   0.280  1.00  0.00    -0.291 OA
BRANCH  34  36
HETATM   36  C15 UNL     1      -7.708   1.387  -0.267  1.00  0.00     0.114 C 
HETATM   37  C16 UNL     1      -8.050   2.637  -1.019  1.00  0.00     0.054 C 
HETATM   38  C17 UNL     1      -8.299   1.619   1.165  1.00  0.00     0.054 C 
BRANCH  36  39
HETATM   39  O6  UNL     1      -8.293   0.241  -0.797  1.00  0.00    -0.383 OA
ATOM     40  H6  UNL     1      -9.230   0.341  -0.919  1.00  0.00     0.211 HD
ENDBRANCH  36  39
ENDBRANCH  34  36
ENDBRANCH  32  34
ENDBRANCH  31  32
ENDBRANCH  28  31
ENDBRANCH  25  28
ENDBRANCH  14  25
ENDBRANCH   6  10
BRANCH   5  41
HETATM   41  N5  UNL     1       0.897   1.720   0.477  1.00  0.00    -0.034 N 
ATOM     42  H53 UNL     1       1.493   1.822   1.298  1.00  0.00     0.279 HD
ATOM     43  H52 UNL     1       0.654   2.700   0.335  1.00  0.00     0.279 HD
ATOM     44  H51 UNL     1       0.071   1.158   0.683  1.00  0.00     0.279 HD
ENDBRANCH   5  41
BRANCH   7  45
HETATM   45  O8  UNL     1       3.108  -0.829  -2.413  1.00  0.00    -0.376 OA
ATOM     46  H8  UNL     1       3.856  -1.359  -2.663  1.00  0.00     0.212 HD
ENDBRANCH   7  45
BRANCH   3  47
HETATM   47  C4  UNL     1       4.570   2.822   0.190  1.00  0.00     0.171 A 
HETATM   48  N2  UNL     1       3.988   3.707   1.017  1.00  0.00    -0.240 N 
HETATM   49  O2  UNL     1       4.867   4.631   1.325  1.00  0.00    -0.200 OA
ATOM     50  H2  UNL     1       3.025   3.667   1.349  1.00  0.00     0.196 HD
HETATM   51  C5  UNL     1       6.011   4.400   0.735  1.00  0.00     0.242 A 
HETATM   52  N4  UNL     1       5.838   3.290   0.037  1.00  0.00    -0.304 N 
ATOM     53  H4  UNL     1       6.556   2.847  -0.536  1.00  0.00     0.171 HD
BRANCH  51  54
HETATM   54  N3  UNL     1       7.112   5.076   0.788  1.00  0.00    -0.364 N 
ATOM     55  H32 UNL     1       7.245   5.932   1.326  1.00  0.00     0.159 HD
ATOM     56  H31 UNL     1       8.004   4.896   0.328  1.00  0.00     0.159 HD
ENDBRANCH  51  54
ENDBRANCH   3  47
BRANCH   1  57
HETATM   57  N1  UNL     1       6.554  -0.231  -0.840  1.00  0.00    -0.052 N 
HETATM   58  C1  UNL     1       6.841  -1.649  -0.780  1.00  0.00     0.270 C 
ATOM     59  H12 UNL     1       6.752   0.249   0.038  1.00  0.00     0.279 HD
ATOM     60  H11 UNL     1       7.213   0.280  -1.427  1.00  0.00     0.279 HD
ENDBRANCH   1  57
BRANCH   9  61
HETATM   61  N11 UNL     1       5.039   0.558   1.564  1.00  0.00    -0.069 N 
ATOM     62 3H11 UNL     1       5.932   0.583   1.073  1.00  0.00     0.275 HD
ATOM     63 2H11 UNL     1       5.058   1.467   2.026  1.00  0.00     0.275 HD
ATOM     64 1H11 UNL     1       5.049  -0.186   2.262  1.00  0.00     0.275 HD
ENDBRANCH   9  61
TORSDOF 18
