REMARK  13 active torsions:
REMARK  status: ('A' for Active; 'I' for Inactive)
REMARK    1  A    between atoms: C2_2  and  C3_3 
REMARK    2  A    between atoms: C3_3  and  C4_4 
REMARK    3  A    between atoms: C4_4  and  C5_5 
REMARK    4  A    between atoms: C6_6  and  O1_7 
REMARK    5  A    between atoms: C7_11  and  C8_12 
REMARK    6  A    between atoms: C11_15  and  O2_16 
REMARK    7  A    between atoms: C13_20  and  C14_21 
REMARK    8  A    between atoms: C18_30  and  C19_31 
REMARK    9  A    between atoms: C19_31  and  C20_32 
REMARK   10  A    between atoms: C20_32  and  C21_33 
REMARK   11  A    between atoms: C21_33  and  N5_34 
REMARK   12  A    between atoms: C24_43  and  C25_44 
REMARK   13  A    between atoms: C25_44  and  C26_45 
ROOT
HETATM    1  C5  UNL     1      -2.298   1.958  -0.449  1.00  0.00     0.161 C 
HETATM    2  C6  UNL     1      -1.507   0.706  -0.548  1.00  0.00     0.135 C 
HETATM    3  N1  UNL     1      -1.698  -0.535   0.032  1.00  0.00    -0.360 N 
ATOM      4  H1  UNL     1      -1.091  -0.701   0.835  1.00  0.00     0.162 HD
HETATM    5  C7  UNL     1      -2.571  -1.642  -0.257  1.00  0.00     0.161 C 
HETATM    6  C11 UNL     1      -1.895  -2.777  -0.907  1.00  0.00     0.141 C 
HETATM    7  N2  UNL     1      -1.058  -3.820  -0.546  1.00  0.00    -0.340 N 
HETATM    8  C12 UNL     1      -1.597  -5.163  -0.959  1.00  0.00     0.158 C 
HETATM    9  C13 UNL     1       0.226  -3.905   0.084  1.00  0.00     0.008 C 
HETATM   10  C16 UNL     1       1.172  -2.739  -0.108  1.00  0.00     0.176 C 
HETATM   11  N3  UNL     1       1.537  -2.134   1.134  1.00  0.00    -0.338 N 
ATOM     12  H3  UNL     1       0.777  -2.096   1.813  1.00  0.00     0.164 HD
HETATM   13  C17 UNL     1       2.725  -1.590   1.591  1.00  0.00     0.317 C 
HETATM   14  O3  UNL     1       3.203  -2.067   2.693  1.00  0.00    -0.247 OA
HETATM   15  N4  UNL     1       3.514  -0.556   1.008  1.00  0.00    -0.330 N 
ATOM     16  H4  UNL     1       4.527  -0.676   0.991  1.00  0.00     0.165 HD
HETATM   17  C18 UNL     1       2.963   0.650   0.441  1.00  0.00     0.178 C 
HETATM   18  C23 UNL     1       2.834   1.696   1.507  1.00  0.00     0.241 C 
HETATM   19  O4  UNL     1       3.779   1.709   2.368  1.00  0.00    -0.271 OA
HETATM   20  N8  UNL     1       1.811   2.631   1.646  1.00  0.00    -0.346 N 
ATOM     21  H8  UNL     1       2.093   3.585   1.871  1.00  0.00     0.163 HD
HETATM   22  C24 UNL     1       0.366   2.388   1.502  1.00  0.00     0.177 C 
HETATM   23  C29 UNL     1      -0.194   3.144   0.405  1.00  0.00     0.243 C 
HETATM   24  O5  UNL     1       0.608   4.020  -0.121  1.00  0.00    -0.271 OA
HETATM   25  N9  UNL     1      -1.456   3.115  -0.215  1.00  0.00    -0.343 N 
HETATM   26  C30 UNL     1      -2.005   4.384  -0.695  1.00  0.00     0.153 C 
ENDROOT
BRANCH  17  27
HETATM   27  C19 UNL     1       3.894   1.208  -0.590  1.00  0.00     0.036 C 
BRANCH  27  28
HETATM   28  C20 UNL     1       4.209   0.408  -1.781  1.00  0.00     0.022 C 
BRANCH  28  29
HETATM   29  C21 UNL     1       4.872  -0.913  -1.621  1.00  0.00     0.122 C 
BRANCH  29  30
HETATM   30  N5  UNL     1       5.124  -1.528  -2.949  1.00  0.00    -0.367 N 
HETATM   31  C22 UNL     1       6.274  -2.068  -3.107  1.00  0.00     0.196 C 
HETATM   32  N6  UNL     1       7.275  -2.104  -2.112  1.00  0.00    -0.067 NA
HETATM   33  N7  UNL     1       6.569  -2.670  -4.358  1.00  0.00    -0.067 NA
ATOM     34  H5  UNL     1       4.423  -1.521  -3.690  1.00  0.00     0.161 HD
ENDBRANCH  29  30
ENDBRANCH  28  29
ENDBRANCH  27  28
ENDBRANCH  17  27
BRANCH  22  35
HETATM   35  C25 UNL     1      -0.345   2.500   2.791  1.00  0.00     0.038 C 
BRANCH  35  36
HETATM   36  C26 UNL     1      -0.285   3.731   3.585  1.00  0.00    -0.020 C 
HETATM   37  C27 UNL     1      -0.836   4.951   2.910  1.00  0.00     0.009 C 
HETATM   38  C28 UNL     1      -1.130   3.557   4.868  1.00  0.00     0.009 C 
ENDBRANCH  35  36
ENDBRANCH  22  35
BRANCH   9  39
HETATM   39  C14 UNL     1       0.276  -4.436   1.487  1.00  0.00     0.050 C 
HETATM   40  C15 UNL     1      -0.225  -5.836   1.685  1.00  0.00     0.011 C 
ENDBRANCH   9  39
BRANCH   1  41
HETATM   41  C4  UNL     1      -3.164   2.041  -1.670  1.00  0.00     0.034 C 
BRANCH  41  42
HETATM   42  C3  UNL     1      -2.474   2.053  -2.981  1.00  0.00     0.002 C 
BRANCH  42  43
HETATM   43  C2  UNL     1      -3.517   2.161  -4.088  1.00  0.00    -0.004 C 
HETATM   44  C1  UNL     1      -4.356   3.389  -4.013  1.00  0.00     0.005 C 
ENDBRANCH  42  43
ENDBRANCH  41  42
ENDBRANCH   1  41
BRANCH   6  45
HETATM   45  O2  UNL     1      -2.174  -2.796  -2.203  1.00  0.00    -0.348 OA
ATOM     46  H2  UNL     1      -1.738  -3.528  -2.622  1.00  0.00     0.219 HD
ENDBRANCH   6  45
BRANCH   2  47
HETATM   47  O1  UNL     1      -0.474   0.896  -1.333  1.00  0.00    -0.348 OA
ATOM     48  H1  UNL     1       0.032   0.095  -1.396  1.00  0.00     0.219 HD
ENDBRANCH   2  47
BRANCH   5  49
HETATM   49  C8  UNL     1      -3.527  -1.991   0.860  1.00  0.00     0.008 C 
HETATM   50  C9  UNL     1      -4.447  -0.781   1.153  1.00  0.00     0.012 C 
HETATM   51  C10 UNL     1      -2.908  -2.311   2.169  1.00  0.00     0.012 C 
ENDBRANCH   5  49
TORSDOF 13
