REMARK  6 active torsions:
REMARK  status: ('A' for Active; 'I' for Inactive)
REMARK    1  A    between atoms: C5_6  and  C6_7 
REMARK    2  A    between atoms: C6_7  and  C7_8 
REMARK    3  A    between atoms: C7_8  and  N1_9 
REMARK    4  A    between atoms: C8_12  and  N3_13 
REMARK    5  A    between atoms: N3_13  and  C9_15 
REMARK    6  A    between atoms: C12_18  and  N4_19 
ROOT
HETATM    1  N1  UNL     1       0.305   0.608  -0.751  1.00  0.00    -0.252 N 
HETATM    2  N2  UNL     1      -0.618   1.042   0.088  1.00  0.00    -0.128 N 
ATOM      3  H2  UNL     1      -0.428   1.593   0.925  1.00  0.00     0.206 HD
HETATM    4  C8  UNL     1      -1.853   0.655  -0.317  1.00  0.00     0.695 A 
HETATM    5  N5  UNL     1      -1.695  -0.038  -1.437  1.00  0.00    -0.163 N 
ATOM      6  H5  UNL     1      -2.436  -0.468  -1.991  1.00  0.00     0.187 HD
HETATM    7  C14 UNL     1      -0.397  -0.069  -1.703  1.00  0.00     0.211 A 
HETATM    8 CL1  UNL     1       0.324  -0.873  -3.091  1.00  0.00    -0.043 Cl
ENDROOT
BRANCH   1   9
HETATM    9  C7  UNL     1       1.741   0.799  -0.693  1.00  0.00     0.157 C 
BRANCH   9  10
HETATM   10  C6  UNL     1       2.360  -0.336   0.087  1.00  0.00     0.067 C 
BRANCH  10  11
HETATM   11  C5  UNL     1       3.815  -0.236   0.202  1.00  0.00     0.024 A 
HETATM   12  C4  UNL     1       4.419   0.652   1.074  1.00  0.00     0.126 A 
HETATM   13  C3  UNL     1       5.815   0.717   1.154  1.00  0.00     0.052 A 
HETATM   14  F1  UNL     1       3.682   1.474   1.865  1.00  0.00    -0.205 F 
HETATM   15  C2  UNL     1       6.606  -0.095   0.372  1.00  0.00    -0.017 A 
HETATM   16  C1  UNL     1       8.101  -0.034   0.450  1.00  0.00     0.052 C 
HETATM   17  C16 UNL     1       6.001  -0.979  -0.495  1.00  0.00     0.161 A 
HETATM   18  C15 UNL     1       4.629  -1.038  -0.569  1.00  0.00     0.164 A 
HETATM   19  F3  UNL     1       6.755  -1.794  -1.281  1.00  0.00    -0.202 F 
HETATM   20  F2  UNL     1       4.032  -1.906  -1.421  1.00  0.00    -0.202 F 
ENDBRANCH  10  11
ENDBRANCH   9  10
ENDBRANCH   1   9
BRANCH   4  21
HETATM   21  N3  UNL     1      -2.979   0.901   0.261  1.00  0.00    -0.220 N 
ATOM     22  H3  UNL     1      -2.998   1.444   1.124  1.00  0.00     0.178 HD
BRANCH  21  23
HETATM   23  C9  UNL     1      -4.217   0.411  -0.307  1.00  0.00     0.101 C 
HETATM   24  C10 UNL     1      -5.367   1.364  -0.071  1.00  0.00     0.027 C 
HETATM   25  C11 UNL     1      -6.557   0.446   0.237  1.00  0.00     0.035 C 
HETATM   26  C12 UNL     1      -5.868  -0.639   1.039  1.00  0.00     0.185 C 
HETATM   27  C13 UNL     1      -4.639  -0.921   0.223  1.00  0.00     0.058 C 
BRANCH  26  28
HETATM   28  N4  UNL     1      -6.712  -1.809   1.186  1.00  0.00    -0.075 N 
ATOM     29  H43 UNL     1      -7.618  -1.567   1.587  1.00  0.00     0.274 HD
ATOM     30  H42 UNL     1      -7.027  -2.158   0.281  1.00  0.00     0.274 HD
ATOM     31  H41 UNL     1      -6.248  -2.540   1.726  1.00  0.00     0.274 HD
ENDBRANCH  26  28
ENDBRANCH  21  23
ENDBRANCH   4  21
TORSDOF 6
