REMARK  14 active torsions:
REMARK  status: ('A' for Active; 'I' for Inactive)
REMARK    1  A    between atoms: O1_2  and  C2_3 
REMARK    2  A    between atoms: C2_3  and  C3_5 
REMARK    3  A    between atoms: C3_5  and  C4_6 
REMARK    4  A    between atoms: C5_7  and  O3_8 
REMARK    5  A    between atoms: C14_18  and  C15_19 
REMARK    6  A    between atoms: C15_19  and  C17_21 
REMARK    7  A    between atoms: C17_21  and  C18_22 
REMARK    8  A    between atoms: C18_22  and  C19_23 
REMARK    9  A    between atoms: C18_22  and  O6_31 
REMARK   10  A    between atoms: C20_24  and  C21_25 
REMARK   11  A    between atoms: C21_25  and  C22_26 
REMARK   12  A    between atoms: C21_25  and  O5_29 
REMARK   13  A    between atoms: C22_26  and  O4_27 
REMARK   14  A    between atoms: O6_31  and  C24_32 
ROOT
HETATM    1  C4  UNL     1       5.276  -1.074  -0.078  1.00  0.00     0.037 C 
HETATM    2  C5  UNL     1       5.871  -1.678  -1.367  1.00  0.00     0.127 C 
HETATM    3  C6  UNL     1       5.714  -0.695  -2.452  1.00  0.00     0.067 C 
HETATM    4  C7  UNL     1       4.587   0.164  -1.995  1.00  0.00    -0.072 C 
HETATM    5  C8  UNL     1       3.722   0.939  -2.605  1.00  0.00    -0.023 C 
HETATM    6  C9  UNL     1       2.654   1.732  -1.998  1.00  0.00     0.033 C 
HETATM    7  C10 UNL     1       2.279   1.273  -0.616  1.00  0.00    -0.001 C 
HETATM    8  C11 UNL     1       0.839   1.073  -0.440  1.00  0.00    -0.001 C 
HETATM    9  C12 UNL     1      -0.072   2.141  -0.909  1.00  0.00     0.006 C 
HETATM   10  C13 UNL     1      -1.360   1.574  -0.277  1.00  0.00     0.006 C 
HETATM   11  C14 UNL     1      -1.247   0.062  -0.569  1.00  0.00    -0.002 C 
HETATM   12  C25 UNL     1       0.195  -0.169  -0.951  1.00  0.00    -0.036 C 
HETATM   13  C26 UNL     1       0.204  -0.371  -2.436  1.00  0.00     0.016 C 
HETATM   14  C27 UNL     1       0.899  -1.296  -0.318  1.00  0.00     0.010 C 
HETATM   15  C28 UNL     1       2.393  -1.226  -0.687  1.00  0.00     0.007 C 
HETATM   16  C29 UNL     1       3.024   0.037  -0.172  1.00  0.00     0.003 C 
HETATM   17  C30 UNL     1       4.484   0.092  -0.487  1.00  0.00    -0.010 C 
HETATM   18  C31 UNL     1       5.112   1.399  -0.012  1.00  0.00     0.021 C 
ENDROOT
BRANCH  11  19
HETATM   19  C15 UNL     1      -1.758  -0.644   0.607  1.00  0.00    -0.011 C 
HETATM   20  C16 UNL     1      -1.743  -2.155   0.496  1.00  0.00     0.010 C 
BRANCH  19  21
HETATM   21  C17 UNL     1      -3.081  -0.206   1.060  1.00  0.00     0.041 C 
BRANCH  21  22
HETATM   22  C18 UNL     1      -4.293  -0.330   0.240  1.00  0.00     0.155 C 
BRANCH  22  23
HETATM   23  C19 UNL     1      -5.410   0.256   1.106  1.00  0.00     0.004 C 
HETATM   24  C20 UNL     1      -6.647  -0.151   0.884  1.00  0.00     0.005 C 
BRANCH  24  25
HETATM   25  C21 UNL     1      -7.806   0.372   1.686  1.00  0.00     0.167 C 
BRANCH  25  26
HETATM   26  C22 UNL     1      -7.458   1.665   2.393  1.00  0.00     0.200 C 
BRANCH  26  27
HETATM   27  O4  UNL     1      -6.999   2.618   1.503  1.00  0.00    -0.398 OA
ATOM     28  H4  UNL     1      -6.781   3.429   1.947  1.00  0.00     0.209 HD
ENDBRANCH  26  27
ENDBRANCH  25  26
BRANCH  25  29
HETATM   29  O5  UNL     1      -8.267  -0.596   2.545  1.00  0.00    -0.385 OA
HETATM   30  C23 UNL     1      -9.575  -0.952   2.241  1.00  0.00     0.202 C 
ENDBRANCH  25  29
ENDBRANCH  24  25
ENDBRANCH  22  23
BRANCH  22  31
HETATM   31  O6  UNL     1      -4.365   0.194  -1.023  1.00  0.00    -0.303 OA
BRANCH  31  32
HETATM   32  C24 UNL     1      -4.813  -0.503  -2.114  1.00  0.00     0.334 C 
HETATM   33  O7  UNL     1      -5.173  -1.677  -1.968  1.00  0.00    -0.251 OA
HETATM   34  S1  UNL     1      -4.876   0.259  -3.707  1.00  0.00     0.022 SA
ENDBRANCH  31  32
ENDBRANCH  22  31
ENDBRANCH  21  22
ENDBRANCH  19  21
ENDBRANCH  11  19
BRANCH   1  35
HETATM   35  C3  UNL     1       6.468  -0.878   0.815  1.00  0.00     0.119 C 
BRANCH  35  36
HETATM   36  C2  UNL     1       6.234  -0.375   2.163  1.00  0.00     0.258 C 
HETATM   37  O2  UNL     1       5.107  -0.227   2.644  1.00  0.00    -0.265 OA
BRANCH  36  38
HETATM   38  O1  UNL     1       7.323  -0.042   2.956  1.00  0.00    -0.326 OA
HETATM   39  C1  UNL     1       7.142   0.457   4.290  1.00  0.00     0.213 C 
ENDBRANCH  36  38
ENDBRANCH  35  36
ENDBRANCH   1  35
BRANCH   2  40
HETATM   40  O3  UNL     1       5.260  -2.919  -1.653  1.00  0.00    -0.395 OA
ATOM     41  H3  UNL     1       5.626  -3.291  -2.447  1.00  0.00     0.210 HD
ENDBRANCH   2  40
TORSDOF 14
