REMARK  12 active torsions:
REMARK  status: ('A' for Active; 'I' for Inactive)
REMARK    1  A    between atoms: C3_5  and  C4_6 
REMARK    2  A    between atoms: C9_11  and  O1_12 
REMARK    3  A    between atoms: C12_16  and  C13_17 
REMARK    4  A    between atoms: C13_17  and  O2_19 
REMARK    5  A    between atoms: C13_17  and  C15_21 
REMARK    6  A    between atoms: C16_23  and  C17_24 
REMARK    7  A    between atoms: C17_24  and  O4_25 
REMARK    8  A    between atoms: C18_27  and  C19_28 
REMARK    9  A    between atoms: C19_28  and  C21_30 
REMARK   10  A    between atoms: C21_30  and  C22_31 
REMARK   11  A    between atoms: C22_31  and  C23_32 
REMARK   12  A    between atoms: C23_32  and  C24_33 
ROOT
HETATM    1  C1  UNL     1       6.303   3.860   2.540  1.00  0.00     0.071 C 
HETATM    2  C2  UNL     1       5.894   2.456   2.256  1.00  0.00     0.043 A 
HETATM    3  N1  UNL     1       5.028   2.209   1.313  1.00  0.00    -0.355 N 
ATOM      4  H1  UNL     1       4.666   3.016   0.804  1.00  0.00     0.166 HD
HETATM    5  C3  UNL     1       4.546   0.964   0.927  1.00  0.00     0.064 A 
HETATM    6  C31 UNL     1       5.069  -0.046   1.632  1.00  0.00     0.034 A 
HETATM    7  C32 UNL     1       4.844  -1.456   1.358  1.00  0.00     0.070 C 
HETATM    8  N2  UNL     1       5.995   0.172   2.648  1.00  0.00    -0.348 N 
ATOM      9  H2  UNL     1       6.369  -0.624   3.165  1.00  0.00     0.166 HD
HETATM   10  C33 UNL     1       6.395   1.384   2.951  1.00  0.00     0.136 A 
HETATM   11  C34 UNL     1       7.358   1.650   4.008  1.00  0.00     0.119 C 
HETATM   12  N3  UNL     1       8.113   1.850   4.860  1.00  0.00    -0.190 NA
ENDROOT
BRANCH   5  13
HETATM   13  C4  UNL     1       3.596   0.997  -0.206  1.00  0.00     0.001 C 
HETATM   14  C5  UNL     1       3.854   2.024  -1.053  1.00  0.00    -0.014 C 
HETATM   15  C6  UNL     1       2.952   2.148  -2.203  1.00  0.00     0.028 C 
HETATM   16  C7  UNL     1       1.532   2.233  -1.472  1.00  0.00     0.012 C 
HETATM   17  C8  UNL     1       1.212   0.813  -1.138  1.00  0.00     0.034 C 
HETATM   18  C9  UNL     1       2.390   0.189  -0.447  1.00  0.00     0.091 C 
HETATM   19  C29 UNL     1      -0.160   0.417  -0.803  1.00  0.00    -0.027 C 
HETATM   20  C10 UNL     1       2.641  -1.028  -1.262  1.00  0.00     0.044 C 
HETATM   21  C11 UNL     1       1.585  -1.504  -2.186  1.00  0.00     0.012 C 
HETATM   22  C12 UNL     1       0.268  -1.995  -1.601  1.00  0.00     0.038 C 
HETATM   23  C16 UNL     1      -0.702  -0.918  -1.379  1.00  0.00    -0.001 C 
HETATM   24  C18 UNL     1      -1.932  -0.999  -0.610  1.00  0.00     0.001 C 
HETATM   25  C27 UNL     1      -1.436  -0.821   0.830  1.00  0.00     0.007 C 
HETATM   26  C28 UNL     1      -0.638   0.482   0.612  1.00  0.00     0.011 C 
HETATM   27  C30 UNL     1      -0.855   1.666  -1.375  1.00  0.00     0.016 C 
BRANCH  18  28
HETATM   28  O1  UNL     1       2.055  -0.120   0.889  1.00  0.00    -0.384 OA
ATOM     29  H1  UNL     1       1.276  -0.642   0.733  1.00  0.00     0.211 HD
ENDBRANCH  18  28
BRANCH  22  30
HETATM   30  C13 UNL     1       0.584  -3.206  -0.848  1.00  0.00     0.111 C 
HETATM   31  C14 UNL     1       1.320  -4.192  -1.815  1.00  0.00     0.054 C 
BRANCH  30  32
HETATM   32  O2  UNL     1       1.347  -3.253   0.248  1.00  0.00    -0.383 OA
ATOM     33  H2  UNL     1       1.553  -4.041   0.738  1.00  0.00     0.211 HD
ENDBRANCH  30  32
BRANCH  30  34
HETATM   34  C15 UNL     1      -0.527  -4.177  -0.538  1.00  0.00     0.269 C 
HETATM   35  O3  UNL     1      -1.257  -4.623  -1.408  1.00  0.00    -0.304 OA
ENDBRANCH  30  34
ENDBRANCH  22  30
BRANCH  23  36
HETATM   36  C17 UNL     1      -1.161  -0.557  -2.801  1.00  0.00     0.175 C 
BRANCH  36  37
HETATM   37  O4  UNL     1      -2.120   0.358  -2.962  1.00  0.00    -0.400 OA
ATOM     38  H4  UNL     1      -2.404   0.581  -3.841  1.00  0.00     0.209 HD
ENDBRANCH  36  37
ENDBRANCH  23  36
BRANCH  24  39
HETATM   39  C19 UNL     1      -3.149  -1.719  -0.643  1.00  0.00    -0.014 C 
HETATM   40  C20 UNL     1      -4.084  -1.692  -1.825  1.00  0.00     0.010 C 
BRANCH  39  41
HETATM   41  C21 UNL     1      -4.122  -1.276   0.491  1.00  0.00     0.005 C 
BRANCH  41  42
HETATM   42  C22 UNL     1      -4.511   0.140   0.465  1.00  0.00     0.001 C 
BRANCH  42  43
HETATM   43  C23 UNL     1      -5.456   0.314   1.668  1.00  0.00     0.004 C 
BRANCH  43  44
HETATM   44  C24 UNL     1      -5.935   1.743   1.756  1.00  0.00    -0.023 C 
HETATM   45  C25 UNL     1      -6.858   1.861   2.951  1.00  0.00     0.009 C 
HETATM   46  C26 UNL     1      -4.785   2.702   1.977  1.00  0.00     0.009 C 
ENDBRANCH  43  44
ENDBRANCH  42  43
ENDBRANCH  41  42
ENDBRANCH  39  41
ENDBRANCH  24  39
ENDBRANCH   5  13
TORSDOF 12
