REMARK  10 active torsions:
REMARK  status: ('A' for Active; 'I' for Inactive)
REMARK    1  A    between atoms: C2_2  and  N1_4 
REMARK    2  A    between atoms: C18_22  and  N3_23 
REMARK    3  A    between atoms: N3_23  and  C19_25 
REMARK    4  A    between atoms: C19_25  and  O2_26 
REMARK    5  A    between atoms: C19_25  and  C20_28 
REMARK    6  A    between atoms: C20_28  and  C21_29 
REMARK    7  A    between atoms: C20_28  and  N7_39 
REMARK    8  A    between atoms: C21_29  and  C22_30 
REMARK    9  A    between atoms: C22_30  and  C23_31 
REMARK   10  A    between atoms: C23_31  and  N4_32 
REMARK       I    between atoms: N4_32  and  C24_34 
REMARK       I    between atoms: N7_39  and  C25_41 
ROOT
HETATM    1  N1  UNL     1       1.631  -3.206   0.222  1.00  0.00    -0.346 N 
HETATM    2  C4  UNL     1       2.929  -2.720   0.544  1.00  0.00     0.126 C 
HETATM    3  C5  UNL     1       3.185  -2.380   1.977  1.00  0.00     0.023 C 
HETATM    4  C6  UNL     1       4.548  -1.667   2.007  1.00  0.00     0.028 C 
HETATM    5  C7  UNL     1       4.451  -0.359   2.707  1.00  0.00    -0.030 C 
HETATM    6  C8  UNL     1       4.928   0.789   2.249  1.00  0.00    -0.022 C 
HETATM    7  C9  UNL     1       5.642   0.964   0.957  1.00  0.00     0.129 C 
HETATM    8  C10 UNL     1       6.176   2.349   0.883  1.00  0.00     0.221 C 
HETATM    9  O1  UNL     1       6.922   2.726   1.826  1.00  0.00    -0.273 OA
HETATM   10  N2  UNL     1       5.867   3.213  -0.198  1.00  0.00    -0.361 N 
ATOM     11  H2  UNL     1       5.871   4.219  -0.032  1.00  0.00     0.162 HD
HETATM   12  C11 UNL     1       5.546   2.736  -1.524  1.00  0.00     0.122 C 
HETATM   13  C12 UNL     1       4.095   2.759  -1.863  1.00  0.00     0.020 C 
HETATM   14  C13 UNL     1       3.293   3.850  -1.242  1.00  0.00     0.002 C 
HETATM   15  C14 UNL     1       2.175   3.345  -0.345  1.00  0.00     0.000 C 
HETATM   16  C15 UNL     1       1.369   2.267  -1.021  1.00  0.00     0.000 C 
HETATM   17  C16 UNL     1       1.450   1.029  -0.173  1.00  0.00     0.002 C 
HETATM   18  C17 UNL     1       1.020  -0.209  -0.935  1.00  0.00     0.034 C 
HETATM   19  C18 UNL     1       0.209  -1.051   0.037  1.00  0.00     0.171 C 
HETATM   20  C26 UNL     1       0.473  -2.496  -0.098  1.00  0.00     0.242 C 
HETATM   21  O3  UNL     1      -0.509  -3.171  -0.578  1.00  0.00    -0.271 OA
ENDROOT
BRANCH  19  22
HETATM   22  N3  UNL     1      -1.163  -0.729  -0.255  1.00  0.00    -0.383 N 
ATOM     23  H3  UNL     1      -1.449  -0.436  -1.189  1.00  0.00     0.156 HD
BRANCH  22  24
HETATM   24  C19 UNL     1      -2.103  -0.833   0.799  1.00  0.00     0.237 C 
BRANCH  24  25
HETATM   25  O2  UNL     1      -2.403  -2.076   1.265  1.00  0.00    -0.375 OA
ATOM     26  H2  UNL     1      -3.034  -2.146   1.972  1.00  0.00     0.212 HD
ENDBRANCH  24  25
BRANCH  24  27
HETATM   27  C20 UNL     1      -3.409  -0.139   0.243  1.00  0.00     0.132 C 
BRANCH  27  28
HETATM   28  C21 UNL     1      -4.386  -0.125   1.381  1.00  0.00     0.031 C 
BRANCH  28  29
HETATM   29  C22 UNL     1      -5.658   0.568   1.081  1.00  0.00     0.022 C 
BRANCH  29  30
HETATM   30  C23 UNL     1      -5.444   2.043   0.748  1.00  0.00     0.122 C 
BRANCH  30  31
HETATM   31  N4  UNL     1      -6.670   2.734   0.485  1.00  0.00    -0.365 N 
HETATM   32  C24 UNL     1      -7.436   2.459  -0.673  1.00  0.00     0.181 C 
HETATM   33  N5  UNL     1      -8.443   1.636  -0.653  1.00  0.00    -0.374 N 
HETATM   34  N6  UNL     1      -7.067   3.127  -1.873  1.00  0.00    -0.064 NA
ATOM     35  H52 UNL     1      -8.708   1.157   0.208  1.00  0.00     0.158 HD
ATOM     36  H51 UNL     1      -8.995   1.438  -1.488  1.00  0.00     0.158 HD
ATOM     37  H4  UNL     1      -6.998   3.439   1.145  1.00  0.00     0.162 HD
ENDBRANCH  30  31
ENDBRANCH  29  30
ENDBRANCH  28  29
ENDBRANCH  27  28
BRANCH  27  38
HETATM   38  N7  UNL     1      -3.890  -0.960  -0.821  1.00  0.00    -0.356 N 
HETATM   39  C25 UNL     1      -4.837  -0.732  -1.816  1.00  0.00     0.182 C 
HETATM   40  N8  UNL     1      -5.788  -1.599  -1.979  1.00  0.00    -0.374 N 
HETATM   41  N9  UNL     1      -4.742   0.405  -2.656  1.00  0.00    -0.064 NA
ATOM     42  H82 UNL     1      -5.856  -2.418  -1.374  1.00  0.00     0.158 HD
ATOM     43  H81 UNL     1      -6.482  -1.432  -2.708  1.00  0.00     0.158 HD
ATOM     44  H7  UNL     1      -3.461  -1.884  -0.860  1.00  0.00     0.162 HD
ENDBRANCH  27  38
ENDBRANCH  24  27
ENDBRANCH  22  24
ENDBRANCH  19  22
BRANCH   1  45
HETATM   45  C2  UNL     1       1.500  -4.688   0.229  1.00  0.00     0.079 C 
HETATM   46  C1  UNL     1       1.082  -5.067  -1.198  1.00  0.00     0.032 C 
HETATM   47  C3  UNL     1       0.343  -5.010   1.146  1.00  0.00     0.032 C 
ENDBRANCH   1  45
TORSDOF 10
