REMARK  4 active torsions:
REMARK  status: ('A' for Active; 'I' for Inactive)
REMARK    1  A    between atoms: O1_1  and  C1_3 
REMARK    2  A    between atoms: C1_3  and  C2_4 
REMARK    3  A    between atoms: C5_8  and  C6_9 
REMARK    4  A    between atoms: C6_9  and  C7_10 
ROOT
HETATM    1  C6  UNL     1      -0.175   0.242  -0.283  1.00  0.00     0.072 C 
HETATM    2  C13 UNL     1      -0.558  -0.423   1.054  1.00  0.00     0.078 C 
HETATM    3  C14 UNL     1      -1.733  -1.242   0.784  1.00  0.00    -0.025 A 
HETATM    4  C15 UNL     1      -2.636  -1.872   1.601  1.00  0.00     0.051 A 
HETATM    5  C16 UNL     1      -3.684  -2.604   1.067  1.00  0.00     0.118 A 
HETATM    6  F1  UNL     1      -4.600  -3.244   1.840  1.00  0.00    -0.206 F 
HETATM    7  C17 UNL     1      -3.844  -2.715  -0.300  1.00  0.00     0.063 A 
HETATM    8  C18 UNL     1      -2.950  -2.091  -1.129  1.00  0.00     0.040 A 
HETATM    9 BR1  UNL     1      -3.155  -2.234  -3.020  1.00  0.00    -0.049 Br
HETATM   10  C19 UNL     1      -1.903  -1.359  -0.564  1.00  0.00     0.053 A 
HETATM   11  N1  UNL     1      -0.892  -0.650  -1.213  1.00  0.00    -0.374 N 
ATOM     12  H1  UNL     1      -0.676  -0.738  -2.206  1.00  0.00     0.161 HD
ENDROOT
BRANCH   1  13
HETATM   13  C5  UNL     1      -0.819   1.538  -0.340  1.00  0.00     0.019 A 
HETATM   14  C2  UNL     1      -0.731   2.765   0.206  1.00  0.00    -0.019 A 
HETATM   15  C3  UNL     1      -1.604   3.728  -0.183  1.00  0.00     0.017 A 
HETATM   16  C4  UNL     1      -2.542   3.408  -1.120  1.00  0.00     0.051 A 
HETATM   17  S1  UNL     1      -2.169   1.777  -1.422  1.00  0.00    -0.103 SA
BRANCH  14  18
HETATM   18  C1  UNL     1       0.312   3.070   1.231  1.00  0.00     0.204 C 
BRANCH  18  19
HETATM   19  O1  UNL     1       0.209   4.396   1.695  1.00  0.00    -0.396 OA
ATOM     20  H1  UNL     1       0.872   4.590   2.347  1.00  0.00     0.209 HD
ENDBRANCH  18  19
ENDBRANCH  14  18
ENDBRANCH   1  13
BRANCH   1  21
HETATM   21  C7  UNL     1       1.227  -0.039  -0.529  1.00  0.00     0.019 C 
HETATM   22  C8  UNL     1       1.381  -1.588  -0.624  1.00  0.00     0.007 C 
HETATM   23  C9  UNL     1       2.702  -1.879  -1.370  1.00  0.00     0.000 C 
HETATM   24  C10 UNL     1       3.786  -0.998  -0.782  1.00  0.00     0.000 C 
HETATM   25  C11 UNL     1       3.375  -0.705   0.627  1.00  0.00     0.000 C 
HETATM   26  C12 UNL     1       2.220   0.270   0.585  1.00  0.00     0.007 C 
ENDBRANCH   1  21
TORSDOF 4
