REMARK  13 active torsions:
REMARK  status: ('A' for Active; 'I' for Inactive)
REMARK    1  A    between atoms: C4_4  and  C5_5 
REMARK    2  A    between atoms: C5_5  and  C6_6 
REMARK    3  A    between atoms: C6_6  and  O1_9 
REMARK    4  A    between atoms: C11_15  and  C12_16 
REMARK    5  A    between atoms: C15_21  and  O6_22 
REMARK    6  A    between atoms: C15_21  and  C16_24 
REMARK    7  A    between atoms: C17_25  and  C18_26 
REMARK    8  A    between atoms: C19_27  and  C21_29 
REMARK    9  A    between atoms: C23_31  and  C24_32 
REMARK   10  A    between atoms: C24_32  and  C25_33 
REMARK   11  A    between atoms: C26_35  and  O8_36 
REMARK   12  A    between atoms: C26_35  and  C27_38 
REMARK   13  A    between atoms: N1_43  and  C32_44 
ROOT
HETATM    1  C1  UNL     1      -1.116   0.886  -2.331  1.00  0.00     0.015 C 
HETATM    2  C2  UNL     1      -0.597   1.367  -1.242  1.00  0.00    -0.079 C 
HETATM    3  C3  UNL     1      -0.351   2.860  -1.184  1.00  0.00     0.065 C 
HETATM    4  C4  UNL     1       1.112   2.951  -0.822  1.00  0.00     0.130 C 
HETATM    5  O2  UNL     1       1.480   2.197   0.238  1.00  0.00    -0.362 OA
HETATM    6  C9  UNL     1       1.263   0.773   0.083  1.00  0.00     0.171 C 
HETATM    7  C10 UNL     1       2.082   0.443  -1.090  1.00  0.00     0.184 C 
HETATM    8  O3  UNL     1       1.786  -0.056  -2.115  1.00  0.00    -0.293 OA
HETATM    9  C11 UNL     1       3.443   0.886  -0.711  1.00  0.00     0.201 C 
HETATM   10  C14 UNL     1       3.479   0.368   0.694  1.00  0.00     0.187 C 
HETATM   11  O5  UNL     1       4.501   0.125   1.282  1.00  0.00    -0.293 OA
HETATM   12  C15 UNL     1       2.058   0.220   1.200  1.00  0.00     0.176 C 
HETATM   13  C23 UNL     1      -0.176   0.648  -0.010  1.00  0.00     0.064 C 
ENDROOT
BRANCH  12  14
HETATM   14  O6  UNL     1       2.003   1.222   2.248  1.00  0.00    -0.374 OA
ATOM     15  H6  UNL     1       2.514   0.867   2.966  1.00  0.00     0.211 HD
ENDBRANCH  12  14
BRANCH  12  16
HETATM   16  C16 UNL     1       1.767  -1.059   1.783  1.00  0.00     0.022 C 
HETATM   17  C17 UNL     1       2.128  -2.283   1.557  1.00  0.00    -0.000 C 
BRANCH  17  18
HETATM   18  C18 UNL     1       3.005  -2.850   0.583  1.00  0.00     0.002 C 
HETATM   19  C19 UNL     1       3.310  -4.129   0.438  1.00  0.00    -0.084 C 
HETATM   20  C20 UNL     1       4.257  -4.529  -0.651  1.00  0.00     0.043 C 
BRANCH  19  21
HETATM   21  C21 UNL     1       2.787  -5.209   1.271  1.00  0.00     0.029 C 
HETATM   22  C22 UNL     1       3.966  -5.910   1.956  1.00  0.00     0.010 C 
ENDBRANCH  19  21
ENDBRANCH  17  18
ENDBRANCH  12  16
BRANCH  13  23
HETATM   23  C24 UNL     1      -0.925  -0.598   0.119  1.00  0.00     0.077 C 
BRANCH  23  24
HETATM   24  C25 UNL     1      -2.428  -0.425   0.225  1.00  0.00     0.362 C 
HETATM   25  O7  UNL     1      -2.978  -1.726   0.347  1.00  0.00    -0.320 OA
HETATM   26  C26 UNL     1      -4.331  -1.716   0.143  1.00  0.00     0.169 C 
HETATM   27  C29 UNL     1      -5.053  -0.487   0.528  1.00  0.00     0.072 C 
HETATM   28  C30 UNL     1      -5.735   0.076  -0.729  1.00  0.00     0.017 C 
HETATM   29  C31 UNL     1      -4.273   0.556   1.240  1.00  0.00     0.285 C 
HETATM   30  N1  UNL     1      -2.868   0.299   1.355  1.00  0.00     0.117 N 
BRANCH  26  31
HETATM   31  O8  UNL     1      -4.536  -2.044  -1.220  1.00  0.00    -0.365 OA
ATOM     32  H8  UNL     1      -5.475  -2.037  -1.362  1.00  0.00     0.213 HD
ENDBRANCH  26  31
BRANCH  26  33
HETATM   33  C27 UNL     1      -4.891  -2.927   0.908  1.00  0.00     0.064 C 
HETATM   34  C28 UNL     1      -4.315  -4.214   0.422  1.00  0.00     0.010 C 
ENDBRANCH  26  33
BRANCH  30  35
HETATM   35  C32 UNL     1      -2.477  -0.253   2.625  1.00  0.00     0.271 C 
HETATM   36  C33 UNL     1      -2.991   0.569   3.794  1.00  0.00     0.037 C 
ENDBRANCH  30  35
ENDBRANCH  23  24
ENDBRANCH  13  23
BRANCH   4  37
HETATM   37  C5  UNL     1       1.440   4.373  -0.469  1.00  0.00     0.069 C 
BRANCH  37  38
HETATM   38  C6  UNL     1       1.244   5.404  -1.505  1.00  0.00     0.053 C 
HETATM   39  C7  UNL     1       2.046   5.154  -2.769  1.00  0.00     0.045 C 
HETATM   40  C8  UNL     1      -0.158   5.858  -1.772  1.00  0.00     0.045 C 
BRANCH  38  41
HETATM   41  O1  UNL     1       1.885   6.582  -0.959  1.00  0.00    -0.391 OA
ATOM     42  H1  UNL     1       1.759   7.246  -1.626  1.00  0.00     0.210 HD
ENDBRANCH  38  41
ENDBRANCH  37  38
ENDBRANCH   4  37
BRANCH   9  43
HETATM   43  C12 UNL     1       4.524   0.372  -1.568  1.00  0.00     0.141 C 
HETATM   44  C13 UNL     1       4.505   0.693  -3.003  1.00  0.00     0.092 C 
HETATM   45  O4  UNL     1       5.450  -0.315  -1.155  1.00  0.00    -0.297 OA
ENDBRANCH   9  43
TORSDOF 13
