REMARK  5 active torsions:
REMARK  status: ('A' for Active; 'I' for Inactive)
REMARK    1  A    between atoms: C4_4  and  C5_5 
REMARK    2  A    between atoms: C4_4  and  C10_13 
REMARK    3  A    between atoms: C10_13  and  S2_16 
REMARK    4  A    between atoms: S2_16  and  C12_17 
REMARK    5  A    between atoms: C12_17  and  C13_18 
ROOT
HETATM    1  C1  UNL     1      -1.526   3.466  -1.616  1.00  0.00     0.040 C 
HETATM    2  C2  UNL     1      -0.353   2.720  -0.949  1.00  0.00     0.182 C 
HETATM    3  C3  UNL     1      -0.458   1.261  -1.165  1.00  0.00     0.045 C 
HETATM    4  C4  UNL     1      -0.100   0.353  -0.023  1.00  0.00    -0.003 C 
HETATM    5  C15 UNL     1       0.072   1.084   1.302  1.00  0.00     0.040 C 
HETATM    6  C16 UNL     1      -0.843   2.308   1.365  1.00  0.00     0.233 C 
HETATM    7  N1  UNL     1      -0.291   3.205   0.383  1.00  0.00    -0.071 N 
ATOM      8  H11 UNL     1      -0.732   4.122   0.450  1.00  0.00     0.277 HD
ATOM      9  H12 UNL     1       0.667   3.455   0.627  1.00  0.00     0.277 HD
ENDROOT
BRANCH   4  10
HETATM   10  C5  UNL     1      -1.294  -0.541   0.167  1.00  0.00    -0.002 C 
HETATM   11  C6  UNL     1      -1.599  -1.376  -1.080  1.00  0.00     0.020 C 
HETATM   12  C7  UNL     1      -3.123  -1.440  -1.304  1.00  0.00     0.140 C 
HETATM   13  S1  UNL     1      -3.756  -2.105   0.235  1.00  0.00     0.144 S 
HETATM   14  O1  UNL     1      -4.574  -1.046   0.885  1.00  0.00    -0.228 OA
HETATM   15  O2  UNL     1      -4.499  -3.371  -0.006  1.00  0.00    -0.228 OA
HETATM   16  C8  UNL     1      -2.334  -2.493   1.218  1.00  0.00     0.140 C 
HETATM   17  C9  UNL     1      -1.433  -1.267   1.437  1.00  0.00     0.020 C 
ENDBRANCH   4  10
BRANCH   4  18
HETATM   18  C10 UNL     1       1.198  -0.289  -0.267  1.00  0.00     0.089 C 
HETATM   19  C11 UNL     1       1.407  -1.162  -1.441  1.00  0.00     0.045 C 
HETATM   20 CL1  UNL     1       2.343   1.098  -0.578  1.00  0.00    -0.107 Cl
BRANCH  18  21
HETATM   21  S2  UNL     1       1.956  -1.066   1.195  1.00  0.00    -0.140 SA
BRANCH  21  22
HETATM   22  C12 UNL     1       3.538  -1.834   0.786  1.00  0.00     0.110 C 
BRANCH  22  23
HETATM   23  C13 UNL     1       4.583  -0.858   0.391  1.00  0.00     0.154 A 
HETATM   24  C14 UNL     1       5.092   0.212   1.194  1.00  0.00     0.201 A 
HETATM   25  O3  UNL     1       5.801  -1.024   1.217  1.00  0.00    -0.380 OA
ENDBRANCH  22  23
ENDBRANCH  21  22
ENDBRANCH  18  21
ENDBRANCH   4  18
TORSDOF 5
