REMARK  9 active torsions:
REMARK  status: ('A' for Active; 'I' for Inactive)
REMARK    1  A    between atoms: C2_2  and  N1_5 
REMARK       I    between atoms: N1_5  and  C5_7 
REMARK    2  A    between atoms: C5_7  and  C6_9 
REMARK    3  A    between atoms: C6_9  and  O2_10 
REMARK    4  A    between atoms: O2_10  and  C7_11 
REMARK    5  A    between atoms: C7_11  and  C8_13 
REMARK    6  A    between atoms: C12_20  and  C13_21 
REMARK    7  A    between atoms: C13_21  and  O5_22 
REMARK    8  A    between atoms: O5_22  and  C14_23 
REMARK    9  A    between atoms: C14_23  and  C15_25 
ROOT
HETATM    1  C8  UNL     1      -0.809  -1.815   0.618  1.00  0.00     0.063 A 
HETATM    2  C9  UNL     1      -0.801  -3.091   1.178  1.00  0.00     0.109 A 
HETATM    3  N2  UNL     1      -1.774  -3.572   1.947  1.00  0.00    -0.333 N 
ATOM      4  H2  UNL     1      -1.712  -4.516   2.329  1.00  0.00     0.168 HD
HETATM    5  C10 UNL     1      -2.833  -2.803   2.212  1.00  0.00     0.245 A 
HETATM    6  O4  UNL     1      -3.768  -3.262   2.950  1.00  0.00    -0.268 OA
HETATM    7  C11 UNL     1      -2.945  -1.527   1.711  1.00  0.00     0.084 A 
HETATM    8  C12 UNL     1      -1.915  -1.032   0.902  1.00  0.00    -0.011 A 
ENDROOT
BRANCH   1   9
HETATM    9  C7  UNL     1       0.315  -1.386  -0.182  1.00  0.00     0.295 C 
HETATM   10  O3  UNL     1       1.233  -2.257  -0.424  1.00  0.00    -0.259 OA
BRANCH   9  11
HETATM   11  O2  UNL     1       0.554  -0.164  -0.730  1.00  0.00    -0.308 OA
BRANCH  11  12
HETATM   12  C6  UNL     1       1.624   0.268  -1.494  1.00  0.00     0.281 C 
BRANCH  12  13
HETATM   13  C5  UNL     1       2.945   0.213  -0.856  1.00  0.00     0.242 C 
HETATM   14  N1  UNL     1       4.115   0.610  -1.532  1.00  0.00    -0.351 N 
ATOM     15  H1  UNL     1       4.042   0.945  -2.492  1.00  0.00     0.163 HD
HETATM   16  O1  UNL     1       3.069  -0.199   0.341  1.00  0.00    -0.271 OA
BRANCH  14  17
HETATM   17  C2  UNL     1       5.421   0.556  -0.903  1.00  0.00     0.022 C 
HETATM   18  C1  UNL     1       5.485   1.413   0.329  1.00  0.00     0.037 C 
HETATM   19  C3  UNL     1       6.479   1.107  -1.868  1.00  0.00     0.037 C 
HETATM   20  C4  UNL     1       5.801  -0.880  -0.631  1.00  0.00     0.037 C 
ENDBRANCH  14  17
ENDBRANCH  12  13
ENDBRANCH  11  12
ENDBRANCH   9  11
ENDBRANCH   1   9
BRANCH   8  21
HETATM   21  C13 UNL     1      -1.918   0.327   0.323  1.00  0.00     0.218 C 
BRANCH  21  22
HETATM   22  O5  UNL     1      -3.063   1.096   0.560  1.00  0.00    -0.315 OA
BRANCH  22  23
HETATM   23  C14 UNL     1      -4.311   0.816   0.085  1.00  0.00     0.282 C 
HETATM   24  O6  UNL     1      -4.489  -0.205  -0.640  1.00  0.00    -0.263 OA
BRANCH  23  25
HETATM   25  C15 UNL     1      -5.512   1.647   0.367  1.00  0.00     0.117 C 
HETATM   26  C16 UNL     1      -6.750   1.095  -0.290  1.00  0.00     0.043 C 
HETATM   27  C17 UNL     1      -5.733   1.885   1.828  1.00  0.00     0.043 C 
HETATM   28 CL1  UNL     1      -5.190   3.249  -0.383  1.00  0.00    -0.109 Cl
ENDBRANCH  23  25
ENDBRANCH  22  23
ENDBRANCH  21  22
ENDBRANCH   8  21
TORSDOF 9
