REMARK  8 active torsions:
REMARK  status: ('A' for Active; 'I' for Inactive)
REMARK    1  A    between atoms: N1_2  and  C2_3 
REMARK    2  A    between atoms: N1_2  and  C4_9 
REMARK    3  A    between atoms: C2_3  and  C3_4 
REMARK    4  A    between atoms: C3_4  and  N2_5 
REMARK    5  A    between atoms: C4_9  and  C5_10 
REMARK    6  A    between atoms: C7_18  and  O1_19 
REMARK    7  A    between atoms: C7_18  and  C8_21 
REMARK    8  A    between atoms: C8_21  and  O2_22 
ROOT
HETATM    1  C5  UNL     1      -0.707  -0.080  -0.268  1.00  0.00     0.185 C 
HETATM    2  N3  UNL     1      -0.687   0.255  -1.652  1.00  0.00    -0.127 NA
HETATM    3  N4  UNL     1      -1.758   1.117  -1.907  1.00  0.00    -0.277 N 
ATOM      4  H4  UNL     1      -1.769   1.637  -2.784  1.00  0.00     0.185 HD
HETATM    5  C6  UNL     1      -2.833   1.299  -0.994  1.00  0.00     0.202 C 
HETATM    6  N5  UNL     1      -3.696   2.406  -1.090  1.00  0.00    -0.062 NA
HETATM    7  N6  UNL     1      -3.016   0.413  -0.049  1.00  0.00    -0.329 N 
ATOM      8  H6  UNL     1      -3.774   0.502   0.628  1.00  0.00     0.165 HD
HETATM    9  C7  UNL     1      -2.076  -0.717  -0.010  1.00  0.00     0.176 C 
ENDROOT
BRANCH   1  10
HETATM   10  C4  UNL     1       0.376  -0.988   0.189  1.00  0.00     0.299 C 
BRANCH  10  11
HETATM   11  N1  UNL     1       1.702  -0.523   0.006  1.00  0.00     0.087 N 
HETATM   12  C1  UNL     1       2.607  -1.529   0.518  1.00  0.00     0.310 C 
BRANCH  11  13
HETATM   13  C2  UNL     1       1.988   0.810   0.404  1.00  0.00     0.299 C 
BRANCH  13  14
HETATM   14  C3  UNL     1       3.277   1.347  -0.205  1.00  0.00     0.259 C 
BRANCH  14  15
HETATM   15  N2  UNL     1       4.430   0.554   0.172  1.00  0.00    -0.078 N 
ATOM     16  H23 UNL     1       4.506   0.472   1.186  1.00  0.00     0.274 HD
ATOM     17  H22 UNL     1       4.294  -0.430  -0.060  1.00  0.00     0.274 HD
ATOM     18  H21 UNL     1       5.293   0.914  -0.236  1.00  0.00     0.274 HD
ENDBRANCH  14  15
ENDBRANCH  13  14
ENDBRANCH  11  13
ENDBRANCH  10  11
ENDBRANCH   1  10
BRANCH   9  19
HETATM   19  O1  UNL     1      -2.453  -1.556  -1.053  1.00  0.00    -0.367 OA
ATOM     20  H1  UNL     1      -3.302  -1.951  -0.893  1.00  0.00     0.212 HD
ENDBRANCH   9  19
BRANCH   9  21
HETATM   21  C8  UNL     1      -2.153  -1.375   1.327  1.00  0.00     0.227 C 
BRANCH  21  22
HETATM   22  O2  UNL     1      -3.482  -1.817   1.479  1.00  0.00    -0.396 OA
ATOM     23  H2  UNL     1      -3.531  -2.236   2.330  1.00  0.00     0.209 HD
ENDBRANCH  21  22
ENDBRANCH   9  21
TORSDOF 8
