REMARK  9 active torsions:
REMARK  status: ('A' for Active; 'I' for Inactive)
REMARK    1  A    between atoms: C2_2  and  C13_39 
REMARK    2  A    between atoms: N1_3  and  N2_5 
REMARK    3  A    between atoms: N2_5  and  O1_6 
REMARK       I    between atoms: N2_5  and  C3_8 
REMARK    4  A    between atoms: C3_8  and  C4_10 
REMARK    5  A    between atoms: C6_12  and  N3_13 
REMARK    6  A    between atoms: N3_13  and  C7_15 
REMARK    7  A    between atoms: C7_15  and  O3_16 
REMARK    8  A    between atoms: C7_15  and  C8_18 
REMARK    9  A    between atoms: C10_30  and  N9_31 
ROOT
HETATM    1  C4  UNL     1      -0.034   0.511   0.219  1.00  0.00     0.108 A 
HETATM    2  C5  UNL     1      -1.038  -0.454   0.347  1.00  0.00     0.067 A 
HETATM    3  C6  UNL     1      -2.324  -0.159  -0.028  1.00  0.00     0.064 A 
HETATM    4  C9  UNL     1      -2.585   1.114  -0.530  1.00  0.00     0.120 A 
HETATM    5  N8  UNL     1      -3.714   1.680  -0.966  1.00  0.00    -0.186 N 
ATOM      6  H8  UNL     1      -4.623   1.217  -0.994  1.00  0.00     0.184 HD
HETATM    7  C10 UNL     1      -3.483   2.960  -1.368  1.00  0.00     0.680 A 
HETATM    8  N10 UNL     1      -2.173   3.179  -1.169  1.00  0.00    -0.170 N 
HETATM    9  C11 UNL     1      -1.442   4.399  -1.444  1.00  0.00     0.177 C 
HETATM   10  C12 UNL     1      -1.600   2.061  -0.655  1.00  0.00     0.153 A 
HETATM   11  N11 UNL     1      -0.359   1.729  -0.278  1.00  0.00    -0.335 N 
ATOM     12  H11 UNL     1       0.379   2.428  -0.369  1.00  0.00     0.168 HD
ENDROOT
BRANCH   1  13
HETATM   13  C3  UNL     1       1.321   0.182   0.620  1.00  0.00     0.313 C 
HETATM   14  N2  UNL     1       2.368   1.126   0.508  1.00  0.00    -0.120 N 
HETATM   15  O2  UNL     1       1.577  -0.950   1.071  1.00  0.00    -0.262 OA
BRANCH  14  16
HETATM   16  N1  UNL     1       3.669   0.804   0.895  1.00  0.00    -0.272 N 
HETATM   17  C2  UNL     1       4.401   0.062   0.151  1.00  0.00     0.070 C 
HETATM   18  C1  UNL     1       3.843  -0.445  -1.122  1.00  0.00     0.074 C 
ATOM     19  H1  UNL     1       4.039   1.162   1.776  1.00  0.00     0.189 HD
BRANCH  17  20
HETATM   20  C13 UNL     1       5.761  -0.278   0.550  1.00  0.00     0.155 C 
HETATM   21  N12 UNL     1       6.402   0.067   1.604  1.00  0.00    -0.269 N 
HETATM   22  N13 UNL     1       7.686  -0.457   1.633  1.00  0.00    -0.007 NA
ATOM     23  H12 UNL     1       6.013   0.659   2.338  1.00  0.00     0.185 HD
HETATM   24  N14 UNL     1       7.772  -1.433   0.627  1.00  0.00    -0.007 NA
HETATM   25  N15 UNL     1       6.672  -1.094  -0.192  1.00  0.00    -0.269 N 
ATOM     26  H15 UNL     1       6.547  -1.386  -1.161  1.00  0.00     0.185 HD
ENDBRANCH  17  20
ENDBRANCH  14  16
BRANCH  14  27
HETATM   27  O1  UNL     1       2.126   2.379   0.018  1.00  0.00    -0.265 OA
ATOM     28  H1  UNL     1       1.240   2.598  -0.246  1.00  0.00     0.247 HD
ENDBRANCH  14  27
ENDBRANCH   1  13
BRANCH   3  29
HETATM   29  N3  UNL     1      -3.399  -1.073   0.065  1.00  0.00    -0.356 N 
ATOM     30  H3  UNL     1      -4.331  -0.792  -0.241  1.00  0.00     0.162 HD
BRANCH  29  31
HETATM   31  C7  UNL     1      -3.188  -2.392   0.586  1.00  0.00     0.290 C 
BRANCH  31  32
HETATM   32  O3  UNL     1      -2.735  -2.410   1.902  1.00  0.00    -0.369 OA
ATOM     33  H3  UNL     1      -2.595  -3.284   2.247  1.00  0.00     0.212 HD
ENDBRANCH  31  32
BRANCH  31  34
HETATM   34  C8  UNL     1      -4.433  -3.215   0.557  1.00  0.00     0.162 A 
HETATM   35  N4  UNL     1      -5.290  -3.304  -0.475  1.00  0.00    -0.269 N 
HETATM   36  N5  UNL     1      -6.266  -4.116  -0.146  1.00  0.00    -0.227 N 
ATOM     37  H4  UNL     1      -5.196  -2.819  -1.368  1.00  0.00     0.190 HD
HETATM   38  N6  UNL     1      -6.062  -4.555   1.074  1.00  0.00    -0.227 N 
ATOM     39  H5  UNL     1      -7.055  -4.366  -0.742  1.00  0.00     0.210 HD
HETATM   40  N7  UNL     1      -4.946  -4.009   1.507  1.00  0.00    -0.269 N 
ATOM     41  H6  UNL     1      -6.659  -5.201   1.591  1.00  0.00     0.210 HD
ATOM     42  H7  UNL     1      -4.534  -4.166   2.427  1.00  0.00     0.190 HD
ENDBRANCH  31  34
ENDBRANCH  29  31
ENDBRANCH   3  29
BRANCH   7  43
HETATM   43  N9  UNL     1      -4.338   3.801  -1.843  1.00  0.00    -0.234 N 
ATOM     44  H92 UNL     1      -5.333   3.635  -1.994  1.00  0.00     0.174 HD
ATOM     45  H91 UNL     1      -4.165   4.760  -2.144  1.00  0.00     0.174 HD
ENDBRANCH   7  43
TORSDOF 9
