REMARK  9 active torsions:
REMARK  status: ('A' for Active; 'I' for Inactive)
REMARK    1  A    between atoms: C2_2  and  C3_4 
REMARK    2  A    between atoms: C3_4  and  C4_5 
REMARK    3  A    between atoms: C4_5  and  C5_6 
REMARK    4  A    between atoms: C5_6  and  C6_7 
REMARK    5  A    between atoms: C6_7  and  C7_8 
REMARK    6  A    between atoms: C7_8  and  O3_10 
REMARK    7  A    between atoms: O3_10  and  C8_11 
REMARK    8  A    between atoms: C14_17  and  O4_18 
REMARK    9  A    between atoms: C21_26  and  O5_27 
ROOT
HETATM    1  C8  UNL     1       1.797   0.586  -0.437  1.00  0.00     0.132 C 
HETATM    2  C9  UNL     1       1.125  -0.657  -0.930  1.00  0.00     0.033 C 
HETATM    3  C10 UNL     1      -0.216  -0.904  -0.290  1.00  0.00     0.008 C 
HETATM    4  C11 UNL     1      -0.829   0.420   0.080  1.00  0.00    -0.003 C 
HETATM    5  C12 UNL     1      -0.047   1.073   1.156  1.00  0.00     0.021 C 
HETATM    6  C13 UNL     1       1.445   0.915   1.000  1.00  0.00     0.040 C 
HETATM    7  C14 UNL     1      -0.401   0.689   2.550  1.00  0.00     0.123 C 
HETATM    8  C15 UNL     1      -1.576  -0.226   2.683  1.00  0.00     0.037 C 
HETATM    9  C16 UNL     1      -2.712   0.136   1.753  1.00  0.00    -0.004 C 
HETATM   10  C17 UNL     1      -3.721  -0.987   1.925  1.00  0.00     0.032 C 
HETATM   11  C18 UNL     1      -5.065  -0.632   1.381  1.00  0.00    -0.023 C 
HETATM   12  C19 UNL     1      -5.353  -0.195   0.168  1.00  0.00    -0.071 C 
HETATM   13  C20 UNL     1      -6.799   0.056  -0.026  1.00  0.00     0.066 C 
HETATM   14  C21 UNL     1      -7.243  -0.918  -1.097  1.00  0.00     0.123 C 
HETATM   15  C22 UNL     1      -6.076  -1.692  -1.690  1.00  0.00     0.053 C 
HETATM   16  C23 UNL     1      -4.967  -0.742  -2.130  1.00  0.00     0.097 C 
HETATM   17 CL1  UNL     1      -3.700  -1.679  -2.921  1.00  0.00    -0.124 Cl
HETATM   18  C24 UNL     1      -4.439   0.048  -0.946  1.00  0.00    -0.004 C 
HETATM   19  C25 UNL     1      -4.446   1.497  -1.296  1.00  0.00     0.021 C 
HETATM   20  C26 UNL     1      -3.034  -0.462  -0.685  1.00  0.00     0.020 C 
HETATM   21  C27 UNL     1      -2.289   0.387   0.349  1.00  0.00    -0.005 C 
ENDROOT
BRANCH   1  22
HETATM   22  O3  UNL     1       3.169   0.482  -0.623  1.00  0.00    -0.316 OA
BRANCH  22  23
HETATM   23  C7  UNL     1       3.984   1.309  -1.372  1.00  0.00     0.259 C 
HETATM   24  O2  UNL     1       3.502   2.261  -1.962  1.00  0.00    -0.265 OA
BRANCH  23  25
HETATM   25  C6  UNL     1       5.465   1.030  -1.458  1.00  0.00     0.111 C 
BRANCH  25  26
HETATM   26  C5  UNL     1       6.026   1.473  -0.132  1.00  0.00     0.010 C 
BRANCH  26  27
HETATM   27  C4  UNL     1       7.518   1.236  -0.002  1.00  0.00     0.008 C 
BRANCH  27  28
HETATM   28  C3  UNL     1       7.840  -0.234  -0.143  1.00  0.00     0.077 C 
BRANCH  28  29
HETATM   29  C2  UNL     1       9.290  -0.508  -0.005  1.00  0.00     0.123 C 
HETATM   30  C1  UNL     1       9.826  -1.894  -0.143  1.00  0.00     0.091 C 
HETATM   31  O1  UNL     1      10.051   0.389   0.220  1.00  0.00    -0.298 OA
ENDBRANCH  28  29
ENDBRANCH  27  28
ENDBRANCH  26  27
ENDBRANCH  25  26
ENDBRANCH  23  25
ENDBRANCH  22  23
ENDBRANCH   1  22
BRANCH   7  32
HETATM   32  O4  UNL     1       0.657   0.068   3.252  1.00  0.00    -0.395 OA
ATOM     33  H4  UNL     1       0.431  -0.177   4.142  1.00  0.00     0.210 HD
ENDBRANCH   7  32
BRANCH  14  34
HETATM   34  O5  UNL     1      -8.040  -0.333  -2.050  1.00  0.00    -0.395 OA
ATOM     35  H5  UNL     1      -8.319  -0.944  -2.722  1.00  0.00     0.210 HD
ENDBRANCH  14  34
TORSDOF 9
