REMARK  8 active torsions:
REMARK  status: ('A' for Active; 'I' for Inactive)
REMARK    1  A    between atoms: C3_3  and  C4_4 
REMARK    2  A    between atoms: C4_4  and  C7_7 
REMARK    3  A    between atoms: C8_8  and  C9_9 
REMARK    4  A    between atoms: C11_11  and  S1_12 
REMARK    5  A    between atoms: S1_12  and  C12_13 
REMARK    6  A    between atoms: C13_16  and  C14_17 
REMARK    7  A    between atoms: C16_19  and  C17_20 
REMARK    8  A    between atoms: C17_20  and  C18_21 
ROOT
HETATM    1  C1  UNL     1      -8.853   2.466   1.571  1.00  0.00     0.112 C 
HETATM    2  C2  UNL     1      -7.993   1.313   1.205  1.00  0.00    -0.109 C 
HETATM    3  C3  UNL     1      -7.310   0.365   0.907  1.00  0.00    -0.085 C 
ENDROOT
BRANCH   3   4
HETATM    4  C4  UNL     1      -6.500  -0.801   0.556  1.00  0.00     0.080 C 
HETATM    5  C5  UNL     1      -6.113  -1.566   1.817  1.00  0.00     0.043 C 
HETATM    6  C6  UNL     1      -7.342  -1.698  -0.357  1.00  0.00     0.043 C 
BRANCH   4   7
HETATM    7  C7  UNL     1      -5.315  -0.431  -0.215  1.00  0.00    -0.079 C 
HETATM    8  C8  UNL     1      -4.332  -0.149  -0.853  1.00  0.00    -0.064 C 
BRANCH   8   9
HETATM    9  C9  UNL     1      -3.136   0.165  -1.627  1.00  0.00     0.040 A 
HETATM   10  C10 UNL     1      -2.042  -0.672  -1.563  1.00  0.00     0.041 A 
HETATM   11  C11 UNL     1      -0.901  -0.400  -2.289  1.00  0.00     0.009 A 
HETATM   12  C23 UNL     1      -0.883   0.729  -3.078  1.00  0.00     0.021 A 
HETATM   13  C24 UNL     1      -1.974   1.580  -3.151  1.00  0.00     0.026 A 
HETATM   14  C25 UNL     1      -3.123   1.295  -2.413  1.00  0.00     0.052 A 
HETATM   15 CL1  UNL     1      -4.540   2.324  -2.457  1.00  0.00    -0.083 Cl
BRANCH  11  16
HETATM   16  S1  UNL     1       0.510  -1.521  -2.181  1.00  0.00    -0.054 SA
BRANCH  16  17
HETATM   17  C12 UNL     1       1.613  -1.016  -0.875  1.00  0.00     0.149 A 
HETATM   18  N1  UNL     1       1.476   0.047  -0.079  1.00  0.00    -0.338 N 
HETATM   19  C13 UNL     1       2.526   0.110   0.800  1.00  0.00     0.034 A 
ATOM     20  H1  UNL     1       0.705   0.713  -0.119  1.00  0.00     0.168 HD
HETATM   21  C16 UNL     1       3.339  -0.956   0.533  1.00  0.00     0.040 A 
HETATM   22  N3  UNL     1       2.737  -1.620  -0.505  1.00  0.00    -0.338 N 
ATOM     23  H3  UNL     1       3.105  -2.468  -0.937  1.00  0.00     0.168 HD
BRANCH  19  24
HETATM   24  C14 UNL     1       2.656   1.203   1.796  1.00  0.00     0.055 C 
HETATM   25  C15 UNL     1       3.574   2.261   1.249  1.00  0.00     0.011 C 
ENDBRANCH  19  24
BRANCH  21  26
HETATM   26  C17 UNL     1       4.572  -1.384   1.205  1.00  0.00     0.125 C 
BRANCH  26  27
HETATM   27  C18 UNL     1       5.800  -0.644   0.939  1.00  0.00     0.075 A 
HETATM   28  O1  UNL     1       6.342   0.188   1.817  1.00  0.00    -0.265 OA
HETATM   29  C19 UNL     1       7.418   0.867   1.654  1.00  0.00     0.372 A 
HETATM   30  O2  UNL     1       7.802   1.617   2.593  1.00  0.00    -0.238 OA
HETATM   31  N2  UNL     1       8.084   0.749   0.497  1.00  0.00    -0.269 N 
HETATM   32  C20 UNL     1       7.633  -0.062  -0.468  1.00  0.00     0.258 A 
ATOM     33  H2  UNL     1       8.942   1.281   0.350  1.00  0.00     0.174 HD
HETATM   34  O3  UNL     1       8.260  -0.177  -1.566  1.00  0.00    -0.267 OA
HETATM   35  C21 UNL     1       6.471  -0.782  -0.264  1.00  0.00     0.036 A 
HETATM   36  C22 UNL     1       6.011  -1.680  -1.357  1.00  0.00     0.056 C 
ENDBRANCH  26  27
ENDBRANCH  21  26
ENDBRANCH  16  17
ENDBRANCH  11  16
ENDBRANCH   8   9
ENDBRANCH   4   7
ENDBRANCH   3   4
TORSDOF 8
