REMARK  7 active torsions:
REMARK  status: ('A' for Active; 'I' for Inactive)
REMARK    1  A    between atoms: C2_2  and  C3_3 
REMARK    2  A    between atoms: C8_8  and  C9_9 
REMARK    3  A    between atoms: C9_9  and  S1_11 
REMARK    4  A    between atoms: S1_11  and  C11_12 
REMARK    5  A    between atoms: C14_17  and  C15_18 
REMARK    6  A    between atoms: C17_21  and  O1_22 
REMARK    7  A    between atoms: C18_24  and  O2_25 
ROOT
HETATM    1  C11 UNL     1       5.166  -1.592   0.266  1.00  0.00     0.197 C 
HETATM    2  C12 UNL     1       6.390  -0.933  -0.125  1.00  0.00     0.069 C 
HETATM    3  N1  UNL     1       7.378  -0.425  -0.424  1.00  0.00    -0.197 NA
ENDROOT
BRANCH   1   4
HETATM    4  S1  UNL     1       3.970  -1.876  -1.007  1.00  0.00    -0.150 SA
BRANCH   4   5
HETATM    5  C9  UNL     1       3.183  -0.373  -1.683  1.00  0.00     0.050 C 
HETATM    6  C10 UNL     1       4.385   0.564  -1.944  1.00  0.00     0.022 C 
BRANCH   5   7
HETATM    7  C8  UNL     1       2.356   0.328  -0.672  1.00  0.00     0.023 C 
HETATM    8  C7  UNL     1       1.091  -0.280  -0.212  1.00  0.00     0.018 C 
HETATM    9  C6  UNL     1       0.617  -1.475  -0.966  1.00  0.00     0.008 C 
HETATM   10  C16 UNL     1       0.033   0.808  -0.373  1.00  0.00     0.125 C 
HETATM   11  C5  UNL     1      -0.219  -2.259   0.009  1.00  0.00     0.014 C 
HETATM   12  C3  UNL     1      -1.657  -1.934   0.056  1.00  0.00    -0.020 C 
HETATM   13  C4  UNL     1      -2.125  -2.742   1.289  1.00  0.00     0.020 C 
HETATM   14  C23 UNL     1      -2.110  -0.536   0.092  1.00  0.00     0.040 C 
HETATM   15  C17 UNL     1      -1.244   0.618   0.290  1.00  0.00     0.109 C 
HETATM   16  C21 UNL     1      -3.359  -0.307   0.968  1.00  0.00    -0.010 C 
HETATM   17  C18 UNL     1      -2.141   1.801  -0.166  1.00  0.00     0.155 C 
HETATM   18  C19 UNL     1      -2.876   2.205   1.051  1.00  0.00     0.035 C 
HETATM   19  C20 UNL     1      -3.521   0.990   1.624  1.00  0.00     0.007 C 
HETATM   20  C22 UNL     1      -4.642  -0.644   0.197  1.00  0.00     0.010 C 
HETATM   21  N2  UNL     1       0.774   1.949  -0.221  1.00  0.00    -0.384 N 
HETATM   22  C13 UNL     1       1.938   1.734  -1.061  1.00  0.00     0.128 C 
HETATM   23  C14 UNL     1       1.037   2.741   0.848  1.00  0.00     0.069 C 
BRANCH  12  24
HETATM   24  C2  UNL     1      -2.244  -2.739  -1.092  1.00  0.00    -0.027 C 
HETATM   25  C1  UNL     1      -2.414  -2.268  -2.290  1.00  0.00     0.007 C 
ENDBRANCH  12  24
BRANCH  15  26
HETATM   26  O1  UNL     1      -1.006   0.723   1.683  1.00  0.00    -0.385 OA
ATOM     27  H1  UNL     1      -1.842   0.599   2.117  1.00  0.00     0.210 HD
ENDBRANCH  15  26
BRANCH  17  28
HETATM   28  O2  UNL     1      -1.511   2.750  -0.893  1.00  0.00    -0.392 OA
ATOM     29  H2  UNL     1      -2.060   3.474  -1.172  1.00  0.00     0.210 HD
ENDBRANCH  17  28
BRANCH  23  30
HETATM   30  C15 UNL     1       1.943   2.311   1.963  1.00  0.00     0.129 C 
HETATM   31 BR1  UNL     1       1.950   3.810   3.237  1.00  0.00    -0.091 Br
ENDBRANCH  23  30
ENDBRANCH   5   7
ENDBRANCH   4   5
ENDBRANCH   1   4
TORSDOF 7
