REMARK  9 active torsions:
REMARK  status: ('A' for Active; 'I' for Inactive)
REMARK    1  A    between atoms: C2_2  and  N1_3 
REMARK    2  A    between atoms: C2_2  and  C17_22 
REMARK       I    between atoms: N1_3  and  C3_5 
REMARK    3  A    between atoms: C3_5  and  C4_7 
REMARK    4  A    between atoms: C4_7  and  C5_8 
REMARK    5  A    between atoms: C5_8  and  N2_9 
REMARK    6  A    between atoms: C10_14  and  C11_15 
REMARK    7  A    between atoms: C17_22  and  O2_23 
REMARK    8  A    between atoms: C18_25  and  C19_26 
REMARK    9  A    between atoms: C19_26  and  N5_30 
ROOT
HETATM    1  N1  UNL     1       2.234   0.250  -0.090  1.00  0.00    -0.351 N 
ATOM      2  H1  UNL     1       2.020   0.286  -1.087  1.00  0.00     0.163 HD
HETATM    3  C3  UNL     1       1.272  -0.351   0.822  1.00  0.00     0.219 C 
HETATM    4  O1  UNL     1       1.593  -0.363   2.023  1.00  0.00    -0.274 OA
ENDROOT
BRANCH   1   5
HETATM    5  C2  UNL     1       3.471   0.790   0.378  1.00  0.00     0.137 C 
HETATM    6  C1  UNL     1       3.589   2.241  -0.015  1.00  0.00     0.039 C 
BRANCH   5   7
HETATM    7  C17 UNL     1       4.638   0.070  -0.243  1.00  0.00     0.069 C 
HETATM    8  C18 UNL     1       4.481  -0.910  -1.085  1.00  0.00     0.083 C 
BRANCH   7   9
HETATM    9  O2  UNL     1       5.882   0.510   0.135  1.00  0.00    -0.363 OA
ATOM     10  H2  UNL     1       6.618   0.056  -0.257  1.00  0.00     0.217 HD
ENDBRANCH   7   9
BRANCH   8  11
HETATM   11  C19 UNL     1       5.499  -1.676  -1.745  1.00  0.00     0.115 C 
HETATM   12  N4  UNL     1       6.741  -1.551  -1.639  1.00  0.00    -0.384 N 
ATOM     13  H42 UNL     1       7.060  -0.817  -1.007  1.00  0.00     0.157 HD
ATOM     14  H41 UNL     1       7.465  -2.096  -2.108  1.00  0.00     0.157 HD
BRANCH  11  15
HETATM   15  N5  UNL     1       5.045  -2.722  -2.646  1.00  0.00    -0.292 N 
HETATM   16  N6  UNL     1       4.299  -2.453  -3.621  1.00  0.00    -0.344 N 
ATOM     17  H62 UNL     1       4.018  -1.484  -3.768  1.00  0.00     0.176 HD
ATOM     18  H61 UNL     1       3.980  -3.187  -4.253  1.00  0.00     0.176 HD
ATOM     19  H5  UNL     1       5.335  -3.686  -2.485  1.00  0.00     0.188 HD
ENDBRANCH  11  15
ENDBRANCH   8  11
ENDBRANCH   5   7
ENDBRANCH   1   5
BRANCH   3  20
HETATM   20  C4  UNL     1       0.027  -0.889   0.319  1.00  0.00     0.123 C 
BRANCH  20  21
HETATM   21  C5  UNL     1      -1.004  -1.432   1.219  1.00  0.00     0.138 C 
BRANCH  21  22
HETATM   22  N2  UNL     1      -1.552  -0.524   2.181  1.00  0.00    -0.356 N 
HETATM   23  C6  UNL     1      -1.057  -0.578   3.462  1.00  0.00     0.091 A 
HETATM   24  C7  UNL     1      -1.590   0.224   4.441  1.00  0.00     0.017 A 
HETATM   25  C8  UNL     1      -2.623   1.090   4.165  1.00  0.00     0.004 A 
HETATM   26  C9  UNL     1      -3.111   1.134   2.885  1.00  0.00     0.030 A 
HETATM   27  C10 UNL     1      -2.556   0.306   1.879  1.00  0.00     0.044 A 
BRANCH  27  28
HETATM   28  C11 UNL     1      -3.146   0.357   0.554  1.00  0.00    -0.007 A 
HETATM   29  C12 UNL     1      -2.881   1.426  -0.278  1.00  0.00     0.031 A 
HETATM   30  C13 UNL     1      -3.425   1.526  -1.539  1.00  0.00     0.090 A 
HETATM   31  N3  UNL     1      -4.243   0.575  -2.010  1.00  0.00    -0.371 N 
HETATM   32  C14 UNL     1      -4.815   0.691  -3.352  1.00  0.00     0.154 C 
HETATM   33  C15 UNL     1      -4.538  -0.502  -1.233  1.00  0.00     0.090 A 
HETATM   34  C16 UNL     1      -3.991  -0.597   0.028  1.00  0.00     0.031 A 
ENDBRANCH  27  28
ENDBRANCH  21  22
ENDBRANCH  20  21
ENDBRANCH   3  20
TORSDOF 9
