REMARK  6 active torsions:
REMARK  status: ('A' for Active; 'I' for Inactive)
REMARK    1  A    between atoms: C2_2  and  C3_3 
REMARK    2  A    between atoms: C3_3  and  C4_4 
REMARK    3  A    between atoms: N1_7  and  N2_8 
REMARK       I    between atoms: N2_8  and  C7_10 
REMARK    4  A    between atoms: C7_10  and  C8_12 
REMARK    5  A    between atoms: C9_13  and  C10_14 
REMARK    6  A    between atoms: C10_14  and  C11_15 
ROOT
HETATM    1  C8  UNL     1      -0.188  -0.158   0.066  1.00  0.00    -0.004 C 
HETATM    2  C9  UNL     1      -1.360  -0.157  -0.231  1.00  0.00    -0.086 C 
ENDROOT
BRANCH   1   3
HETATM    3  C7  UNL     1       1.210  -0.156   0.391  1.00  0.00     0.310 C 
HETATM    4  N2  UNL     1       2.227   0.074  -0.551  1.00  0.00    -0.278 N 
ATOM      5  H2  UNL     1       1.913   0.243  -1.507  1.00  0.00     0.184 HD
HETATM    6  O1  UNL     1       1.533  -0.371   1.581  1.00  0.00    -0.257 OA
BRANCH   4   7
HETATM    7  N1  UNL     1       3.566   0.102  -0.362  1.00  0.00    -0.228 NA
HETATM    8  C6  UNL     1       4.150  -1.189  -0.185  1.00  0.00     0.114 C 
HETATM    9  C5  UNL     1       5.449  -1.002   0.575  1.00  0.00     0.022 C 
HETATM   10  C4  UNL     1       5.551   0.489   0.730  1.00  0.00     0.005 C 
HETATM   11  C21 UNL     1       4.095   0.957   0.649  1.00  0.00     0.118 C 
BRANCH  10  12
HETATM   12  C3  UNL     1       6.396   1.076  -0.330  1.00  0.00     0.032 C 
BRANCH  12  13
HETATM   13  C2  UNL     1       7.783   0.598  -0.271  1.00  0.00    -0.036 C 
HETATM   14  C1  UNL     1       8.318  -0.104   0.704  1.00  0.00     0.007 C 
ENDBRANCH  12  13
ENDBRANCH  10  12
ENDBRANCH   4   7
ENDBRANCH   1   3
BRANCH   2  15
HETATM   15  C10 UNL     1      -2.804  -0.147  -0.625  1.00  0.00     0.031 C 
HETATM   16  C17 UNL     1      -2.903  -1.302  -1.627  1.00  0.00     0.049 C 
HETATM   17  C18 UNL     1      -2.212  -0.750  -2.867  1.00  0.00     0.169 C 
HETATM   18  O2  UNL     1      -3.069   0.136  -3.460  1.00  0.00    -0.391 OA
HETATM   19  C19 UNL     1      -3.657   1.059  -2.655  1.00  0.00     0.169 C 
HETATM   20  C20 UNL     1      -3.127   1.157  -1.248  1.00  0.00     0.049 C 
BRANCH  15  21
HETATM   21  C11 UNL     1      -3.552  -0.482   0.646  1.00  0.00     0.006 C 
HETATM   22  C12 UNL     1      -3.239   0.493   1.751  1.00  0.00     0.006 C 
HETATM   23  C13 UNL     1      -4.305   1.438   2.138  1.00  0.00     0.000 C 
HETATM   24  C14 UNL     1      -5.702   0.920   2.116  1.00  0.00     0.000 C 
HETATM   25  C15 UNL     1      -5.951   0.332   0.755  1.00  0.00     0.000 C 
HETATM   26  C16 UNL     1      -4.989  -0.795   0.492  1.00  0.00     0.006 C 
ENDBRANCH  15  21
ENDBRANCH   2  15
TORSDOF 6
