REMARK  4 active torsions:
REMARK  status: ('A' for Active; 'I' for Inactive)
REMARK    1  A    between atoms: C5_6  and  C6_7 
REMARK       I    between atoms: C6_7  and  N2_9 
REMARK    2  A    between atoms: N2_9  and  C7_11 
REMARK    3  A    between atoms: C7_11  and  C8_12 
REMARK    4  A    between atoms: C8_12  and  N3_13 
ROOT
HETATM    1  C7  UNL     1      -1.117  -1.395   1.190  1.00  0.00     0.154 C 
ENDROOT
BRANCH   1   2
HETATM    2  N2  UNL     1       0.253  -1.123   0.976  1.00  0.00    -0.358 N 
HETATM    3  C6  UNL     1       1.083  -1.403  -0.117  1.00  0.00     0.221 C 
HETATM    4  O1  UNL     1       0.826  -1.978  -1.180  1.00  0.00    -0.273 OA
ATOM      5  H2  UNL     1       0.715  -0.642   1.747  1.00  0.00     0.162 HD
BRANCH   3   6
HETATM    6  C5  UNL     1       2.548  -0.948  -0.038  1.00  0.00     0.079 C 
HETATM    7  C4  UNL     1       3.286  -1.349  -1.265  1.00  0.00     0.016 C 
HETATM    8  C3  UNL     1       4.739  -1.685  -1.011  1.00  0.00     0.031 C 
HETATM    9  C2  UNL     1       5.501  -0.378  -0.864  1.00  0.00     0.272 C 
HETATM   10  N1  UNL     1       5.022   0.400   0.253  1.00  0.00     0.084 N 
HETATM   11  C1  UNL     1       6.090   1.274   0.670  1.00  0.00     0.309 C 
HETATM   12  C20 UNL     1       3.871   1.168  -0.208  1.00  0.00     0.272 C 
HETATM   13  C19 UNL     1       2.607   0.522   0.255  1.00  0.00     0.044 C 
ENDBRANCH   3   6
ENDBRANCH   1   2
BRANCH   1  14
HETATM   14  C8  UNL     1      -2.166  -0.739   0.352  1.00  0.00     0.051 C 
HETATM   15  C14 UNL     1      -3.503  -1.005   1.043  1.00  0.00     0.033 C 
HETATM   16  C15 UNL     1      -4.340  -2.083   0.490  1.00  0.00     0.002 C 
HETATM   17  C16 UNL     1      -4.216  -2.420  -0.948  1.00  0.00     0.000 C 
HETATM   18  C17 UNL     1      -3.594  -1.207  -1.640  1.00  0.00     0.002 C 
HETATM   19  C18 UNL     1      -2.149  -1.204  -1.037  1.00  0.00     0.033 C 
BRANCH  14  20
HETATM   20  N3  UNL     1      -1.938   0.673   0.536  1.00  0.00    -0.362 N 
HETATM   21  C9  UNL     1      -2.056   1.199   1.815  1.00  0.00     0.064 C 
HETATM   22  C10 UNL     1      -2.952   2.402   1.989  1.00  0.00     0.045 C 
HETATM   23  C11 UNL     1      -2.443   3.441   0.989  1.00  0.00     0.010 C 
HETATM   24  C12 UNL     1      -2.670   2.859  -0.369  1.00  0.00     0.045 C 
HETATM   25  C13 UNL     1      -1.943   1.520  -0.570  1.00  0.00     0.064 C 
ENDBRANCH  14  20
ENDBRANCH   1  14
TORSDOF 4
