REMARK  14 active torsions:
REMARK  status: ('A' for Active; 'I' for Inactive)
REMARK    1  A    between atoms: C2_2  and  C4_4 
REMARK    2  A    between atoms: C4_4  and  C5_5 
REMARK    3  A    between atoms: C6_8  and  O1_9 
REMARK    4  A    between atoms: C8_13  and  C9_14 
REMARK    5  A    between atoms: C9_14  and  C10_15 
REMARK    6  A    between atoms: C10_15  and  C11_16 
REMARK    7  A    between atoms: N2_17  and  N3_19 
REMARK    8  A    between atoms: C13_26  and  C14_27 
REMARK    9  A    between atoms: C14_27  and  C15_28 
REMARK   10  A    between atoms: C19_33  and  O4_34 
REMARK   11  A    between atoms: C20_36  and  C21_37 
REMARK   12  A    between atoms: C21_37  and  C22_38 
REMARK   13  A    between atoms: C26_45  and  C27_46 
REMARK   14  A    between atoms: C27_46  and  C28_47 
ROOT
HETATM    1  C5  UNL     1       2.414   1.940   0.265  1.00  0.00     0.176 C 
HETATM    2  N1  UNL     1       1.820   2.517   1.479  1.00  0.00    -0.355 N 
ATOM      3  H1  UNL     1       2.275   3.343   1.868  1.00  0.00     0.162 HD
HETATM    4  C6  UNL     1       0.687   2.039   2.154  1.00  0.00     0.185 C 
HETATM    5  C7  UNL     1      -0.614   1.745   1.661  1.00  0.00     0.222 C 
HETATM    6  O2  UNL     1      -1.367   0.989   2.382  1.00  0.00    -0.286 OA
HETATM    7  C8  UNL     1      -1.263   2.185   0.409  1.00  0.00     0.163 C 
HETATM    8  N4  UNL     1      -2.692   1.949   0.365  1.00  0.00    -0.344 N 
ATOM      9  H4  UNL     1      -3.259   2.776   0.180  1.00  0.00     0.163 HD
HETATM   10  C12 UNL     1      -3.408   0.778   0.535  1.00  0.00     0.264 C 
HETATM   11  O3  UNL     1      -4.268   0.766   1.503  1.00  0.00    -0.266 OA
HETATM   12  C13 UNL     1      -3.341  -0.503  -0.246  1.00  0.00     0.081 C 
HETATM   13  N5  UNL     1      -2.852  -1.608   0.507  1.00  0.00    -0.329 N 
HETATM   14  C18 UNL     1      -3.921  -2.276   1.341  1.00  0.00     0.158 C 
HETATM   15  C19 UNL     1      -1.598  -2.201   0.680  1.00  0.00     0.165 C 
HETATM   16  C20 UNL     1      -0.445  -2.471  -0.175  1.00  0.00     0.063 C 
HETATM   17  N6  UNL     1       0.403  -1.340  -0.501  1.00  0.00    -0.325 N 
ATOM     18  H6  UNL     1      -0.063  -0.522  -0.893  1.00  0.00     0.169 HD
HETATM   19  C25 UNL     1       1.806  -1.246  -0.336  1.00  0.00     0.244 C 
HETATM   20  O5  UNL     1       2.570  -1.021  -1.358  1.00  0.00    -0.271 OA
HETATM   21  C26 UNL     1       2.512  -1.383   0.933  1.00  0.00     0.177 C 
HETATM   22  N7  UNL     1       3.302  -0.247   1.335  1.00  0.00    -0.346 N 
ATOM     23  H7  UNL     1       3.802  -0.356   2.217  1.00  0.00     0.163 HD
HETATM   24  C31 UNL     1       3.485   0.985   0.693  1.00  0.00     0.241 C 
HETATM   25  O6  UNL     1       4.664   1.337   0.450  1.00  0.00    -0.271 OA
ENDROOT
BRANCH   7  26
HETATM   26  C9  UNL     1      -1.020   3.701   0.340  1.00  0.00     0.038 C 
BRANCH  26  27
HETATM   27  C10 UNL     1      -1.662   4.334   1.583  1.00  0.00     0.048 C 
BRANCH  27  28
HETATM   28  C11 UNL     1      -1.468   5.798   1.586  1.00  0.00     0.079 C 
HETATM   29  N2  UNL     1      -1.242   6.449   2.664  1.00  0.00    -0.322 N 
ATOM     30  H2  UNL     1      -1.195   5.942   3.548  1.00  0.00     0.185 HD
BRANCH  29  31
HETATM   31  N3  UNL     1      -1.060   7.817   2.666  1.00  0.00    -0.346 N 
ATOM     32  H32 UNL     1      -1.110   8.308   1.774  1.00  0.00     0.176 HD
ATOM     33  H31 UNL     1      -0.880   8.336   3.525  1.00  0.00     0.176 HD
ENDBRANCH  29  31
ENDBRANCH  27  28
ENDBRANCH  26  27
ENDBRANCH   7  26
BRANCH   4  34
HETATM   34  O1  UNL     1       0.837   1.830   3.429  1.00  0.00    -0.344 OA
ATOM     35  H1  UNL     1       0.070   1.506   3.886  1.00  0.00     0.219 HD
ENDBRANCH   4  34
BRANCH  12  36
HETATM   36  C14 UNL     1      -2.999  -0.328  -1.669  1.00  0.00     0.067 C 
BRANCH  36  37
HETATM   37  C15 UNL     1      -4.042   0.549  -2.406  1.00  0.00    -0.017 C 
HETATM   38  C16 UNL     1      -3.667   0.706  -3.848  1.00  0.00     0.010 C 
HETATM   39  C17 UNL     1      -5.430  -0.038  -2.248  1.00  0.00     0.010 C 
ENDBRANCH  36  37
ENDBRANCH  12  36
BRANCH   1  40
HETATM   40  C4  UNL     1       3.009   3.085  -0.476  1.00  0.00     0.038 C 
BRANCH  40  41
HETATM   41  C2  UNL     1       3.652   2.828  -1.783  1.00  0.00    -0.020 C 
HETATM   42  C1  UNL     1       2.635   2.262  -2.780  1.00  0.00     0.009 C 
HETATM   43  C3  UNL     1       4.117   4.153  -2.400  1.00  0.00     0.009 C 
ENDBRANCH  40  41
ENDBRANCH   1  40
BRANCH  15  44
HETATM   44  O4  UNL     1      -1.382  -2.629   1.918  1.00  0.00    -0.344 OA
ATOM     45  H4  UNL     1      -0.530  -3.032   2.036  1.00  0.00     0.219 HD
ENDBRANCH  15  44
BRANCH  16  46
HETATM   46  C21 UNL     1      -0.568  -3.384  -1.334  1.00  0.00     0.065 C 
BRANCH  46  47
HETATM   47  C22 UNL     1      -0.916  -4.792  -1.157  1.00  0.00    -0.017 C 
HETATM   48  C23 UNL     1      -2.229  -5.078  -0.517  1.00  0.00     0.010 C 
HETATM   49  C24 UNL     1       0.129  -5.635  -0.461  1.00  0.00     0.010 C 
ENDBRANCH  46  47
ENDBRANCH  16  46
BRANCH  21  50
HETATM   50  C27 UNL     1       3.383  -2.632   0.787  1.00  0.00     0.038 C 
BRANCH  50  51
HETATM   51  C28 UNL     1       4.184  -2.931   2.005  1.00  0.00    -0.020 C 
HETATM   52  C29 UNL     1       4.990  -4.199   1.694  1.00  0.00     0.009 C 
HETATM   53  C30 UNL     1       3.271  -3.179   3.165  1.00  0.00     0.009 C 
ENDBRANCH  50  51
ENDBRANCH  21  50
TORSDOF 14
