REMARK  13 active torsions:
REMARK  status: ('A' for Active; 'I' for Inactive)
REMARK    1  A    between atoms: S1_2  and  C2_3 
REMARK    2  A    between atoms: C2_3  and  C3_4 
REMARK    3  A    between atoms: C3_4  and  C4_5 
REMARK    4  A    between atoms: C6_10  and  C7_11 
REMARK    5  A    between atoms: C7_11  and  C8_12 
REMARK    6  A    between atoms: C8_12  and  C9_13 
REMARK    7  A    between atoms: C9_13  and  C10_14 
REMARK    8  A    between atoms: C10_14  and  N2_15 
REMARK    9  A    between atoms: C12_22  and  O2_23 
REMARK   10  A    between atoms: C13_25  and  C14_26 
REMARK   11  A    between atoms: C14_26  and  C15_27 
REMARK   12  A    between atoms: C25_39  and  C26_40 
REMARK   13  A    between atoms: C26_40  and  C27_41 
ROOT
HETATM    1  C4  UNL     1      -0.536  -3.095   0.145  1.00  0.00     0.177 C 
HETATM    2  N1  UNL     1       0.703  -2.506  -0.232  1.00  0.00    -0.346 N 
ATOM      3  H1  UNL     1       1.319  -3.146  -0.733  1.00  0.00     0.163 HD
HETATM    4  C5  UNL     1       1.255  -1.222  -0.056  1.00  0.00     0.241 C 
HETATM    5  O1  UNL     1       1.431  -0.582  -1.143  1.00  0.00    -0.271 OA
HETATM    6  C6  UNL     1       1.656  -0.516   1.155  1.00  0.00     0.175 C 
HETATM    7  N5  UNL     1       1.010   0.722   1.484  1.00  0.00    -0.359 N 
ATOM      8  H5  UNL     1       1.587   1.317   2.078  1.00  0.00     0.162 HD
HETATM    9  C12 UNL     1      -0.215   1.300   1.184  1.00  0.00     0.135 C 
HETATM   10  C13 UNL     1      -0.693   2.051   0.005  1.00  0.00     0.152 C 
HETATM   11  N6  UNL     1      -2.095   1.829  -0.069  1.00  0.00    -0.405 N 
ATOM     12  H6  UNL     1      -2.575   1.517   0.775  1.00  0.00     0.154 HD
HETATM   13  C21 UNL     1      -2.845   2.010  -1.211  1.00  0.00     0.085 A 
HETATM   14  C22 UNL     1      -2.440   2.286  -2.579  1.00  0.00     0.036 A 
HETATM   15  C23 UNL     1      -3.125   0.939  -2.145  1.00  0.00     0.034 A 
HETATM   16  C24 UNL     1      -2.259  -0.185  -2.425  1.00  0.00     0.005 C 
HETATM   17  C25 UNL     1      -2.371  -1.484  -1.738  1.00  0.00     0.009 C 
HETATM   18  N7  UNL     1      -2.495  -1.490  -0.315  1.00  0.00    -0.329 N 
ATOM     19  H7  UNL     1      -3.243  -0.937   0.104  1.00  0.00     0.168 HD
HETATM   20  C30 UNL     1      -1.629  -2.228   0.558  1.00  0.00     0.244 C 
HETATM   21  O3  UNL     1      -1.859  -2.094   1.781  1.00  0.00    -0.271 OA
ENDROOT
BRANCH   6  22
HETATM   22  C7  UNL     1       3.170  -0.248   1.154  1.00  0.00     0.035 C 
BRANCH  22  23
HETATM   23  C8  UNL     1       3.670   0.577   0.038  1.00  0.00     0.004 C 
BRANCH  23  24
HETATM   24  C9  UNL     1       5.186   0.757   0.271  1.00  0.00     0.020 C 
BRANCH  24  25
HETATM   25  C10 UNL     1       5.908  -0.565   0.290  1.00  0.00     0.122 C 
BRANCH  25  26
HETATM   26  N2  UNL     1       5.750  -1.292  -0.947  1.00  0.00    -0.367 N 
HETATM   27  C11 UNL     1       6.563  -2.172  -1.387  1.00  0.00     0.196 C 
HETATM   28  N3  UNL     1       6.289  -2.816  -2.625  1.00  0.00    -0.067 NA
HETATM   29  N4  UNL     1       7.740  -2.547  -0.695  1.00  0.00    -0.067 NA
ATOM     30  H2  UNL     1       4.926  -1.087  -1.512  1.00  0.00     0.161 HD
ENDBRANCH  25  26
ENDBRANCH  24  25
ENDBRANCH  23  24
ENDBRANCH  22  23
ENDBRANCH   6  22
BRANCH   9  31
HETATM   31  O2  UNL     1      -1.181   1.195   2.082  1.00  0.00    -0.348 OA
ATOM     32  H2  UNL     1      -2.020   1.591   1.877  1.00  0.00     0.219 HD
ENDBRANCH   9  31
BRANCH   1  33
HETATM   33  C3  UNL     1      -0.298  -4.275   1.036  1.00  0.00     0.045 C 
BRANCH  33  34
HETATM   34  C2  UNL     1       0.402  -4.057   2.309  1.00  0.00     0.076 C 
BRANCH  34  35
HETATM   35  S1  UNL     1       0.531  -5.682   3.150  1.00  0.00    -0.173 SA
HETATM   36  C1  UNL     1      -1.070  -6.318   3.637  1.00  0.00     0.089 C 
ENDBRANCH  34  35
ENDBRANCH  33  34
ENDBRANCH   1  33
BRANCH  10  37
HETATM   37  C14 UNL     1      -0.249   3.450  -0.142  1.00  0.00     0.037 C 
BRANCH  37  38
HETATM   38  C15 UNL     1      -0.512   4.489   0.841  1.00  0.00    -0.012 C 
HETATM   39  C16 UNL     1       0.061   4.383   2.216  1.00  0.00     0.005 C 
HETATM   40  C17 UNL     1      -0.739   5.357   3.075  1.00  0.00     0.000 C 
HETATM   41  C18 UNL     1      -0.377   6.740   2.550  1.00  0.00     0.000 C 
HETATM   42  C19 UNL     1      -0.621   6.915   1.091  1.00  0.00     0.000 C 
HETATM   43  C20 UNL     1       0.045   5.826   0.295  1.00  0.00     0.005 C 
ENDBRANCH  37  38
ENDBRANCH  10  37
BRANCH  17  44
HETATM   44  C26 UNL     1      -3.273  -2.438  -2.458  1.00  0.00     0.060 C 
BRANCH  44  45
HETATM   45  C27 UNL     1      -4.677  -2.070  -2.665  1.00  0.00    -0.017 C 
HETATM   46  C28 UNL     1      -5.375  -1.863  -1.350  1.00  0.00     0.010 C 
HETATM   47  C29 UNL     1      -5.371  -3.292  -3.302  1.00  0.00     0.010 C 
ENDBRANCH  44  45
ENDBRANCH  17  44
TORSDOF 13
