REMARK  12 active torsions:
REMARK  status: ('A' for Active; 'I' for Inactive)
REMARK    1  A    between atoms: C2_2  and  C3_3 
REMARK    2  A    between atoms: C3_3  and  C4_4 
REMARK    3  A    between atoms: C4_4  and  C5_5 
REMARK    4  A    between atoms: C5_5  and  C6_6 
REMARK    5  A    between atoms: C6_6  and  C7_7 
REMARK    6  A    between atoms: C14_18  and  C15_19 
REMARK    7  A    between atoms: C15_19  and  C16_20 
REMARK    8  A    between atoms: C20_27  and  C21_28 
REMARK    9  A    between atoms: C25_35  and  C26_36 
REMARK   10  A    between atoms: C26_36  and  C27_37 
REMARK   11  A    between atoms: C27_37  and  C28_38 
REMARK   12  A    between atoms: C28_38  and  N4_39 
ROOT
HETATM    1  C7  UNL     1       2.819  -0.495   1.237  1.00  0.00     0.176 C 
HETATM    2  N1  UNL     1       2.977  -1.768   1.872  1.00  0.00    -0.348 N 
ATOM      3  H1  UNL     1       3.901  -1.985   2.245  1.00  0.00     0.163 HD
HETATM    4  C8  UNL     1       1.973  -2.756   2.032  1.00  0.00     0.218 C 
HETATM    5  O1  UNL     1       2.252  -3.938   1.703  1.00  0.00    -0.274 OA
HETATM    6  C9  UNL     1       0.606  -2.516   2.560  1.00  0.00     0.103 C 
HETATM    7  C10 UNL     1      -0.340  -3.636   2.227  1.00  0.00     0.010 C 
HETATM    8  C11 UNL     1      -0.624  -3.727   0.766  1.00  0.00     0.008 C 
HETATM    9  C12 UNL     1      -1.608  -2.692   0.289  1.00  0.00     0.085 C 
HETATM   10  C13 UNL     1      -3.021  -3.032   0.691  1.00  0.00     0.171 C 
HETATM   11  O2  UNL     1      -3.149  -4.224   1.033  1.00  0.00    -0.291 OA
HETATM   12  C14 UNL     1      -4.130  -2.060   0.683  1.00  0.00     0.058 C 
HETATM   13  N2  UNL     1      -3.958  -1.053   1.728  1.00  0.00    -0.326 N 
ATOM     14  H2  UNL     1      -3.937  -1.436   2.673  1.00  0.00     0.168 HD
HETATM   15  C19 UNL     1      -3.818   0.321   1.675  1.00  0.00     0.245 C 
HETATM   16  O3  UNL     1      -4.760   0.994   2.249  1.00  0.00    -0.271 OA
HETATM   17  C20 UNL     1      -2.753   1.156   1.065  1.00  0.00     0.180 C 
HETATM   18  N3  UNL     1      -1.537   1.174   1.837  1.00  0.00    -0.346 N 
ATOM     19  H3  UNL     1      -1.576   0.597   2.677  1.00  0.00     0.163 HD
HETATM   20  C24 UNL     1      -0.323   1.822   1.662  1.00  0.00     0.241 C 
HETATM   21  O4  UNL     1       0.063   2.647   2.576  1.00  0.00    -0.271 OA
HETATM   22  C25 UNL     1       0.680   1.759   0.582  1.00  0.00     0.176 C 
HETATM   23  N7  UNL     1       0.759   0.416  -0.018  1.00  0.00    -0.346 N 
ATOM     24  H7  UNL     1      -0.027   0.119  -0.596  1.00  0.00     0.163 HD
HETATM   25  C30 UNL     1       1.809  -0.482   0.134  1.00  0.00     0.241 C 
HETATM   26  O5  UNL     1       1.940  -1.387  -0.735  1.00  0.00    -0.271 OA
ENDROOT
BRANCH  22  27
HETATM   27  C26 UNL     1       0.466   2.713  -0.560  1.00  0.00     0.036 C 
BRANCH  27  28
HETATM   28  C27 UNL     1       0.499   4.112   0.014  1.00  0.00     0.022 C 
BRANCH  28  29
HETATM   29  C28 UNL     1       0.305   5.190  -1.031  1.00  0.00     0.122 C 
BRANCH  29  30
HETATM   30  N4  UNL     1       0.342   6.500  -0.440  1.00  0.00    -0.367 N 
HETATM   31  C29 UNL     1       1.247   7.383  -0.591  1.00  0.00     0.196 C 
HETATM   32  N5  UNL     1       1.084   8.621   0.092  1.00  0.00    -0.067 NA
HETATM   33  N6  UNL     1       2.395   7.215  -1.387  1.00  0.00    -0.067 NA
ATOM     34  H4  UNL     1      -0.441   6.749   0.165  1.00  0.00     0.161 HD
ENDBRANCH  29  30
ENDBRANCH  28  29
ENDBRANCH  27  28
ENDBRANCH  22  27
BRANCH  17  35
HETATM   35  C21 UNL     1      -3.260   2.501   0.680  1.00  0.00     0.009 C 
HETATM   36  C22 UNL     1      -3.788   3.284   1.856  1.00  0.00     0.012 C 
HETATM   37  C23 UNL     1      -4.360   2.328  -0.346  1.00  0.00     0.012 C 
ENDBRANCH  17  35
BRANCH   1  38
HETATM   38  C6  UNL     1       4.084   0.044   0.684  1.00  0.00     0.035 C 
BRANCH  38  39
HETATM   39  C5  UNL     1       4.801  -0.697  -0.364  1.00  0.00     0.002 C 
BRANCH  39  40
HETATM   40  C4  UNL     1       5.275  -2.084  -0.043  1.00  0.00     0.000 C 
BRANCH  40  41
HETATM   41  C3  UNL     1       6.044  -2.674  -1.239  1.00  0.00    -0.000 C 
BRANCH  41  42
HETATM   42  C2  UNL     1       6.479  -4.066  -0.820  1.00  0.00    -0.005 C 
HETATM   43  C1  UNL     1       7.251  -4.777  -1.889  1.00  0.00     0.005 C 
ENDBRANCH  41  42
ENDBRANCH  40  41
ENDBRANCH  39  40
ENDBRANCH  38  39
ENDBRANCH   1  38
BRANCH  12  44
HETATM   44  C15 UNL     1      -4.612  -1.536  -0.601  1.00  0.00     0.065 C 
BRANCH  44  45
HETATM   45  C16 UNL     1      -5.186  -2.443  -1.616  1.00  0.00    -0.017 C 
HETATM   46  C17 UNL     1      -4.256  -3.488  -2.122  1.00  0.00     0.010 C 
HETATM   47  C18 UNL     1      -5.602  -1.549  -2.807  1.00  0.00     0.010 C 
ENDBRANCH  44  45
ENDBRANCH  12  44
TORSDOF 12
