REMARK  15 active torsions:
REMARK  status: ('A' for Active; 'I' for Inactive)
REMARK    1  A    between atoms: C2_2  and  C3_3 
REMARK    2  A    between atoms: C3_3  and  C5_5 
REMARK    3  A    between atoms: C5_5  and  C6_6 
REMARK    4  A    between atoms: C8_11  and  C9_12 
REMARK    5  A    between atoms: C9_12  and  C10_13 
REMARK    6  A    between atoms: C10_13  and  C11_14 
REMARK    7  A    between atoms: C11_14  and  N2_15 
REMARK    8  A    between atoms: C13_22  and  O2_23 
REMARK    9  A    between atoms: C14_25  and  C15_26 
REMARK   10  A    between atoms: C18_31  and  O3_32 
REMARK   11  A    between atoms: C19_34  and  C20_35 
REMARK   12  A    between atoms: C20_35  and  C21_36 
REMARK   13  A    between atoms: C24_41  and  O4_42 
REMARK   14  A    between atoms: C25_44  and  C26_45 
REMARK   15  A    between atoms: C26_45  and  C27_46 
ROOT
HETATM    1  C6  UNL     1      -0.750   1.954  -0.562  1.00  0.00     0.187 C 
HETATM    2  N1  UNL     1       0.231   1.298   0.294  1.00  0.00    -0.335 N 
ATOM      3  H1  UNL     1      -0.173   0.973   1.172  1.00  0.00     0.164 HD
HETATM    4  C7  UNL     1       1.568   1.015   0.197  1.00  0.00     0.265 C 
HETATM    5  O1  UNL     1       2.312   1.648   1.051  1.00  0.00    -0.266 OA
HETATM    6  C8  UNL     1       2.382   0.139  -0.666  1.00  0.00     0.079 C 
HETATM    7  N5  UNL     1       1.793  -0.400  -1.840  1.00  0.00    -0.338 N 
ATOM      8  H5  UNL     1       2.273  -0.104  -2.690  1.00  0.00     0.167 HD
HETATM    9  C13 UNL     1       0.724  -1.230  -2.100  1.00  0.00     0.139 C 
HETATM   10  C14 UNL     1       0.335  -2.559  -1.625  1.00  0.00     0.161 C 
HETATM   11  N6  UNL     1      -0.044  -2.763  -0.287  1.00  0.00    -0.360 N 
ATOM     12  H6  UNL     1       0.501  -3.499   0.162  1.00  0.00     0.162 HD
HETATM   13  C18 UNL     1      -0.984  -2.202   0.574  1.00  0.00     0.135 C 
HETATM   14  C19 UNL     1      -2.396  -1.870   0.404  1.00  0.00     0.158 C 
HETATM   15  N7  UNL     1      -2.649  -0.685  -0.372  1.00  0.00    -0.357 N 
ATOM     16  H7  UNL     1      -2.427  -0.849  -1.354  1.00  0.00     0.162 HD
HETATM   17  C24 UNL     1      -3.095   0.588  -0.192  1.00  0.00     0.163 C 
HETATM   18  C25 UNL     1      -2.788   1.696   0.767  1.00  0.00     0.079 C 
HETATM   19  N8  UNL     1      -1.746   2.532   0.330  1.00  0.00    -0.360 N 
HETATM   20  C30 UNL     1      -1.049   3.359   1.230  1.00  0.00     0.152 C 
ENDROOT
BRANCH   6  21
HETATM   21  C9  UNL     1       3.187  -0.894   0.110  1.00  0.00     0.064 C 
BRANCH  21  22
HETATM   22  C10 UNL     1       4.188  -0.368   1.063  1.00  0.00     0.026 C 
BRANCH  22  23
HETATM   23  C11 UNL     1       5.279   0.483   0.476  1.00  0.00     0.122 C 
BRANCH  23  24
HETATM   24  N2  UNL     1       6.130   0.885   1.589  1.00  0.00    -0.367 N 
HETATM   25  C12 UNL     1       7.368   0.600   1.668  1.00  0.00     0.196 C 
HETATM   26  N3  UNL     1       8.072  -0.141   0.685  1.00  0.00    -0.067 NA
HETATM   27  N4  UNL     1       8.088   1.052   2.807  1.00  0.00    -0.067 NA
ATOM     28  H2  UNL     1       5.710   1.424   2.346  1.00  0.00     0.161 HD
ENDBRANCH  23  24
ENDBRANCH  22  23
ENDBRANCH  21  22
ENDBRANCH   6  21
BRANCH   9  29
HETATM   29  O2  UNL     1      -0.106  -0.706  -2.960  1.00  0.00    -0.348 OA
ATOM     30  H2  UNL     1      -0.843  -1.278  -3.139  1.00  0.00     0.219 HD
ENDBRANCH   9  29
BRANCH   1  31
HETATM   31  C5  UNL     1      -0.139   2.925  -1.529  1.00  0.00     0.051 C 
BRANCH  31  32
HETATM   32  C3  UNL     1      -1.066   3.591  -2.449  1.00  0.00    -0.015 C 
HETATM   33  C4  UNL     1      -2.246   4.319  -1.921  1.00  0.00     0.010 C 
BRANCH  32  34
HETATM   34  C2  UNL     1      -0.307   4.545  -3.403  1.00  0.00    -0.000 C 
HETATM   35  C1  UNL     1       0.137   5.778  -2.641  1.00  0.00     0.005 C 
ENDBRANCH  32  34
ENDBRANCH  31  32
ENDBRANCH   1  31
BRANCH  10  36
HETATM   36  C15 UNL     1       1.411  -3.592  -2.074  1.00  0.00     0.008 C 
HETATM   37  C16 UNL     1       1.485  -3.568  -3.603  1.00  0.00     0.012 C 
HETATM   38  C17 UNL     1       0.862  -4.948  -1.716  1.00  0.00     0.012 C 
ENDBRANCH  10  36
BRANCH  18  39
HETATM   39  C26 UNL     1      -2.859   1.176   2.155  1.00  0.00     0.011 C 
BRANCH  39  40
HETATM   40  C27 UNL     1      -2.691   2.041   3.332  1.00  0.00     0.002 C 
HETATM   41  C28 UNL     1      -2.838   1.044   4.545  1.00  0.00     0.013 C 
HETATM   42  C29 UNL     1      -3.873   2.973   3.572  1.00  0.00     0.013 C 
ENDBRANCH  39  40
ENDBRANCH  18  39
BRANCH  13  43
HETATM   43  O3  UNL     1      -0.480  -1.930   1.745  1.00  0.00    -0.348 OA
ATOM     44  H3  UNL     1      -1.121  -1.547   2.332  1.00  0.00     0.219 HD
ENDBRANCH  13  43
BRANCH  17  45
HETATM   45  O4  UNL     1      -4.016   0.939  -1.061  1.00  0.00    -0.345 OA
ATOM     46  H4  UNL     1      -4.327   1.828  -0.935  1.00  0.00     0.219 HD
ENDBRANCH  17  45
BRANCH  14  47
HETATM   47  C20 UNL     1      -3.269  -3.008  -0.098  1.00  0.00     0.037 C 
BRANCH  47  48
HETATM   48  C21 UNL     1      -3.363  -4.205   0.761  1.00  0.00    -0.020 C 
HETATM   49  C22 UNL     1      -4.313  -5.202   0.050  1.00  0.00     0.009 C 
HETATM   50  C23 UNL     1      -2.125  -4.986   1.018  1.00  0.00     0.009 C 
ENDBRANCH  47  48
ENDBRANCH  14  47
TORSDOF 15
