REMARK  2 active torsions:
REMARK  status: ('A' for Active; 'I' for Inactive)
REMARK    1  A    between atoms: N1_1  and  C1_4 
REMARK    2  A    between atoms: C2_7  and  N3_8 
ROOT
HETATM    1  C1  UNL     1       3.275   0.277   0.466  1.00  0.00     0.692 A 
HETATM    2  N2  UNL     1       1.948   0.428   0.618  1.00  0.00    -0.174 N 
ATOM      3  H2  UNL     1       1.598   0.935   1.431  1.00  0.00     0.186 HD
HETATM    4  C2  UNL     1       1.054  -0.077  -0.284  1.00  0.00     0.136 A 
HETATM    5  C7  UNL     1       1.613  -0.746  -1.354  1.00  0.00     0.156 A 
HETATM    6  N5  UNL     1       2.946  -0.879  -1.476  1.00  0.00    -0.294 N 
ATOM      7  H5  UNL     1       3.322  -1.381  -2.281  1.00  0.00     0.186 HD
HETATM    8  N6  UNL     1       3.782  -0.379  -0.585  1.00  0.00    -0.133 N 
ATOM      9  H6  UNL     1       4.790  -0.490  -0.695  1.00  0.00     0.205 HD
ENDROOT
BRANCH   4  10
HETATM   10  N3  UNL     1      -0.335   0.081  -0.123  1.00  0.00    -0.362 N 
HETATM   11  C3  UNL     1      -1.269  -0.436  -1.090  1.00  0.00     0.152 C 
HETATM   12  C4  UNL     1      -2.677   0.004  -0.918  1.00  0.00     0.252 C 
HETATM   13  N4  UNL     1      -3.089   0.346   0.401  1.00  0.00    -0.072 N 
HETATM   14  C5  UNL     1      -2.127   0.041   1.434  1.00  0.00     0.252 C 
ATOM     15  H42 UNL     1      -3.354   1.330   0.444  1.00  0.00     0.277 HD
ATOM     16  H41 UNL     1      -3.987  -0.089   0.615  1.00  0.00     0.277 HD
HETATM   17  C6  UNL     1      -0.850   0.774   1.036  1.00  0.00     0.152 C 
ENDBRANCH   4  10
BRANCH   1  18
HETATM   18  N1  UNL     1       4.104   0.761   1.329  1.00  0.00    -0.233 N 
ATOM     19  H12 UNL     1       3.718   1.261   2.130  1.00  0.00     0.174 HD
ATOM     20  H11 UNL     1       5.111   0.646   1.214  1.00  0.00     0.174 HD
ENDBRANCH   1  18
TORSDOF 2
