REMARK  6 active torsions:
REMARK  status: ('A' for Active; 'I' for Inactive)
REMARK    1  A    between atoms: C2_2  and  C4_5 
REMARK    2  A    between atoms: C4_5  and  N1_6 
REMARK       I    between atoms: N1_6  and  C5_8 
REMARK       I    between atoms: C5_8  and  N5_24 
REMARK    3  A    between atoms: N2_9  and  C6_11 
REMARK    4  A    between atoms: C6_11  and  C7_12 
REMARK    5  A    between atoms: C7_12  and  C8_13 
REMARK    6  A    between atoms: C8_13  and  N3_14 
ROOT
HETATM    1  N1  UNL     1      -2.556  -0.336   0.394  1.00  0.00    -0.223 N 
ATOM      2  H1  UNL     1      -1.873  -1.082   0.261  1.00  0.00     0.177 HD
HETATM    3  C5  UNL     1      -2.149   1.022   0.321  1.00  0.00     0.672 C 
HETATM    4  N2  UNL     1      -0.931   1.347   0.476  1.00  0.00    -0.226 N 
ATOM      5  H2  UNL     1      -0.696   2.337   0.413  1.00  0.00     0.177 HD
HETATM    6  N5  UNL     1      -3.098   2.030   0.073  1.00  0.00    -0.214 N 
HETATM    7  C15 UNL     1      -3.793   2.674   1.151  1.00  0.00     0.167 C 
HETATM    8  C16 UNL     1      -4.133   4.105   0.721  1.00  0.00     0.188 C 
HETATM    9  O1  UNL     1      -3.174   4.567  -0.193  1.00  0.00    -0.388 OA
HETATM   10  C17 UNL     1      -3.310   3.926  -1.435  1.00  0.00     0.188 C 
HETATM   11  C18 UNL     1      -3.378   2.422  -1.280  1.00  0.00     0.167 C 
ENDROOT
BRANCH   4  12
HETATM   12  C6  UNL     1       0.148   0.418   0.735  1.00  0.00     0.139 C 
BRANCH  12  13
HETATM   13  C7  UNL     1       0.732   0.058  -0.637  1.00  0.00     0.040 C 
BRANCH  13  14
HETATM   14  C8  UNL     1       1.878  -0.919  -0.459  1.00  0.00     0.122 C 
BRANCH  14  15
HETATM   15  N3  UNL     1       2.883  -0.304   0.350  1.00  0.00    -0.380 N 
HETATM   16  C9  UNL     1       4.142  -0.592   0.315  1.00  0.00     0.072 C 
HETATM   17  C10 UNL     1       4.953   0.193   1.255  1.00  0.00     0.076 C 
HETATM   18  N4  UNL     1       4.533  -1.607  -0.613  1.00  0.00    -0.380 N 
HETATM   19  C11 UNL     1       6.253  -0.474   1.624  1.00  0.00     0.007 C 
HETATM   20  C12 UNL     1       7.155  -0.472   0.410  1.00  0.00     0.002 C 
HETATM   21  C13 UNL     1       6.959  -1.825  -0.273  1.00  0.00     0.020 C 
HETATM   22  C14 UNL     1       5.819  -1.729  -1.235  1.00  0.00     0.121 C 
ATOM     23  H4  UNL     1       3.833  -2.308  -0.855  1.00  0.00     0.160 HD
ATOM     24  H3  UNL     1       2.583   0.418   1.005  1.00  0.00     0.160 HD
ENDBRANCH  14  15
ENDBRANCH  13  14
ENDBRANCH  12  13
ENDBRANCH   4  12
BRANCH   1  25
HETATM   25  C4  UNL     1      -3.948  -0.661   0.658  1.00  0.00     0.180 C 
BRANCH  25  26
HETATM   26  C2  UNL     1      -4.189  -2.138   0.700  1.00  0.00     0.112 C 
HETATM   27  C1  UNL     1      -3.832  -2.823  -0.600  1.00  0.00     0.053 C 
HETATM   28  C3  UNL     1      -5.673  -2.355   0.923  1.00  0.00     0.053 C 
HETATM   29  F1  UNL     1      -3.516  -2.735   1.759  1.00  0.00    -0.242 F 
ENDBRANCH  25  26
ENDBRANCH   1  25
TORSDOF 6
