REMARK  7 active torsions:
REMARK  status: ('A' for Active; 'I' for Inactive)
REMARK    1  A    between atoms: C2_2  and  C3_4 
REMARK    2  A    between atoms: C3_4  and  N1_5 
REMARK       I    between atoms: N1_5  and  C5_7 
REMARK       I    between atoms: C5_7  and  N6_21 
REMARK    3  A    between atoms: N2_8  and  C6_10 
REMARK    4  A    between atoms: C6_10  and  C7_11 
REMARK    5  A    between atoms: C7_11  and  C8_12 
REMARK    6  A    between atoms: C8_12  and  C9_13 
REMARK    7  A    between atoms: C9_13  and  N3_14 
REMARK       I    between atoms: N3_14  and  C10_16 
ROOT
HETATM    1  N1  UNL     1      -1.602   1.830   0.466  1.00  0.00    -0.216 N 
HETATM    2  C4  UNL     1      -0.962   2.335   1.662  1.00  0.00     0.169 C 
HETATM    3  C5  UNL     1      -1.413   0.476   0.120  1.00  0.00     0.693 C 
HETATM    4  N2  UNL     1      -0.156   0.131  -0.027  1.00  0.00    -0.225 N 
ATOM      5  H2  UNL     1       0.590   0.814   0.105  1.00  0.00     0.177 HD
HETATM    6  N6  UNL     1      -2.461  -0.443  -0.048  1.00  0.00    -0.120 N 
HETATM    7  C11 UNL     1      -3.070  -0.619  -1.343  1.00  0.00     0.188 C 
HETATM    8  C12 UNL     1      -3.667  -1.980  -1.569  1.00  0.00     0.144 C 
HETATM    9  N7  UNL     1      -3.443  -2.925  -0.517  1.00  0.00    -0.364 N 
ATOM     10  H7  UNL     1      -3.315  -3.913  -0.736  1.00  0.00     0.162 HD
HETATM   11  C13 UNL     1      -3.400  -2.484   0.833  1.00  0.00     0.187 C 
HETATM   12  S1  UNL     1      -3.925  -3.457   2.044  1.00  0.00    -0.040 SA
HETATM   13  N8  UNL     1      -2.885  -1.183   1.080  1.00  0.00    -0.260 N 
ATOM     14  H8  UNL     1      -2.824  -0.802   2.024  1.00  0.00     0.190 HD
ENDROOT
BRANCH   1  15
HETATM   15  C3  UNL     1      -2.362   2.726  -0.345  1.00  0.00     0.186 C 
BRANCH  15  16
HETATM   16  C2  UNL     1      -3.581   3.273   0.284  1.00  0.00    -0.002 C 
HETATM   17  C1  UNL     1      -3.683   4.591   0.419  1.00  0.00     0.028 C 
HETATM   18 BR1  UNL     1      -4.964   2.136   0.891  1.00  0.00    -0.055 Br
ENDBRANCH  15  16
ENDBRANCH   1  15
BRANCH   4  19
HETATM   19  C6  UNL     1       0.147  -1.224  -0.376  1.00  0.00     0.138 C 
BRANCH  19  20
HETATM   20  C7  UNL     1       1.532  -1.334  -1.007  1.00  0.00     0.022 C 
BRANCH  20  21
HETATM   21  C8  UNL     1       2.523  -0.828   0.024  1.00  0.00     0.021 C 
BRANCH  21  22
HETATM   22  C9  UNL     1       3.917  -0.901  -0.520  1.00  0.00     0.122 C 
BRANCH  22  23
HETATM   23  N3  UNL     1       4.840  -0.417   0.469  1.00  0.00    -0.365 N 
HETATM   24  C10 UNL     1       6.252  -0.347   0.278  1.00  0.00     0.181 C 
HETATM   25  N4  UNL     1       6.711   0.808  -0.090  1.00  0.00    -0.374 N 
HETATM   26  N5  UNL     1       7.079  -1.464   0.479  1.00  0.00    -0.064 NA
ATOM     27  H42 UNL     1       6.110   1.619  -0.236  1.00  0.00     0.158 HD
ATOM     28  H41 UNL     1       7.721   0.858  -0.227  1.00  0.00     0.158 HD
ATOM     29  H3  UNL     1       4.462  -0.104   1.363  1.00  0.00     0.162 HD
ENDBRANCH  22  23
ENDBRANCH  21  22
ENDBRANCH  20  21
ENDBRANCH  19  20
ENDBRANCH   4  19
TORSDOF 7
