REMARK  4 active torsions:
REMARK  status: ('A' for Active; 'I' for Inactive)
REMARK    1  A    between atoms: C2_2  and  N1_3 
REMARK    2  A    between atoms: N1_3  and  C3_4 
REMARK    3  A    between atoms: N1_3  and  C5_7 
REMARK    4  A    between atoms: N3_10  and  C8_12 
ROOT
HETATM    1  C3  UNL     1      -4.797  -0.233  -1.464  1.00  0.00     0.248 C 
HETATM    2  C4  UNL     1      -5.855  -0.238  -0.462  1.00  0.00     0.079 C 
HETATM    3  N2  UNL     1      -6.711  -0.264   0.333  1.00  0.00    -0.196 NA
ENDROOT
BRANCH   1   4
HETATM    4  N1  UNL     1      -3.650   0.506  -1.013  1.00  0.00    -0.355 N 
BRANCH   4   5
HETATM    5  C2  UNL     1      -3.754   1.934  -0.905  1.00  0.00     0.121 C 
HETATM    6  C1  UNL     1      -4.673   2.388   0.211  1.00  0.00     0.026 C 
ENDBRANCH   4   5
BRANCH   4   7
HETATM    7  C5  UNL     1      -2.450  -0.158  -0.682  1.00  0.00     0.108 A 
HETATM    8  C6  UNL     1      -1.255   0.481  -0.414  1.00  0.00     0.096 A 
HETATM    9  C7  UNL     1      -0.104  -0.193  -0.062  1.00  0.00     0.107 A 
HETATM   10  N3  UNL     1       0.937   0.520   0.154  1.00  0.00    -0.354 N 
HETATM   11  N5  UNL     1      -0.124  -1.521   0.030  1.00  0.00    -0.333 N 
ATOM     12  H3  UNL     1       0.826   1.528   0.047  1.00  0.00     0.163 HD
HETATM   13  C16 UNL     1      -1.261  -2.182  -0.221  1.00  0.00     0.080 A 
ATOM     14  H5  UNL     1       0.720  -2.031   0.290  1.00  0.00     0.168 HD
HETATM   15  C17 UNL     1      -1.240  -3.662  -0.113  1.00  0.00     0.089 C 
HETATM   16  N6  UNL     1      -2.384  -1.517  -0.565  1.00  0.00    -0.332 N 
ATOM     17  H6  UNL     1      -3.229  -2.059  -0.747  1.00  0.00     0.168 HD
BRANCH  10  18
HETATM   18  C8  UNL     1       2.244   0.057   0.531  1.00  0.00     0.124 C 
HETATM   19  C9  UNL     1       2.092  -0.702   1.782  1.00  0.00     0.091 C 
HETATM   20  N4  UNL     1       1.958  -1.312   2.760  1.00  0.00    -0.195 NA
HETATM   21  C10 UNL     1       2.794  -0.810  -0.549  1.00  0.00     0.047 C 
HETATM   22  C11 UNL     1       4.284  -1.028  -0.447  1.00  0.00     0.004 C 
HETATM   23  C12 UNL     1       5.058   0.225  -0.192  1.00  0.00     0.001 C 
HETATM   24  C13 UNL     1       4.186   1.460  -0.216  1.00  0.00     0.008 C 
HETATM   25  C14 UNL     1       3.089   1.279   0.796  1.00  0.00     0.024 C 
HETATM   26  C15 UNL     1       3.614   1.237   2.213  1.00  0.00     0.013 C 
ENDBRANCH  10  18
ENDBRANCH   4   7
ENDBRANCH   1   4
TORSDOF 4
