REMARK  16 active torsions:
REMARK  status: ('A' for Active; 'I' for Inactive)
REMARK    1  A    between atoms: O1_2  and  C2_3 
REMARK    2  A    between atoms: C4_6  and  S1_7 
REMARK    3  A    between atoms: C6_9  and  N1_10 
REMARK    4  A    between atoms: C7_14  and  O3_15 
REMARK    5  A    between atoms: C8_17  and  O4_18 
REMARK    6  A    between atoms: O4_18  and  C9_19 
REMARK    7  A    between atoms: C10_20  and  N2_21 
REMARK    8  A    between atoms: C11_25  and  N3_26 
REMARK    9  A    between atoms: C12_30  and  N4_31 
REMARK       I    between atoms: N4_31  and  C13_33 
REMARK       I    between atoms: C13_33  and  N5_34 
REMARK       I    between atoms: C13_33  and  N6_38 
REMARK   10  A    between atoms: N6_38  and  C14_41 
REMARK   11  A    between atoms: C14_41  and  C15_42 
REMARK   12  A    between atoms: C15_42  and  C16_43 
REMARK   13  A    between atoms: C16_43  and  C17_44 
REMARK   14  A    between atoms: C17_44  and  C18_45 
REMARK   15  A    between atoms: C18_45  and  N7_46 
REMARK   16  A    between atoms: C19_50  and  O5_51 
ROOT
HETATM    1  C9  UNL     1      -1.284   0.935   0.785  1.00  0.00     0.185 C 
HETATM    2  C10 UNL     1      -0.758   1.249   2.183  1.00  0.00     0.247 C 
HETATM    3  C11 UNL     1       0.707   1.536   1.951  1.00  0.00     0.241 C 
HETATM    4  C12 UNL     1       1.114   0.947   0.661  1.00  0.00     0.144 C 
HETATM    5  C19 UNL     1      -0.128   0.176   0.203  1.00  0.00     0.173 C 
ENDROOT
BRANCH   4   6
HETATM    6  N4  UNL     1       2.216   0.092   0.583  1.00  0.00    -0.365 N 
HETATM    7  C13 UNL     1       3.517   0.546   0.859  1.00  0.00     0.478 C 
HETATM    8  N5  UNL     1       3.691   0.955   2.210  1.00  0.00    -0.033 N 
HETATM    9  N6  UNL     1       4.526  -0.508   0.622  1.00  0.00    -0.029 N 
ATOM     10  H53 UNL     1       2.998   1.658   2.469  1.00  0.00     0.278 HD
ATOM     11  H52 UNL     1       3.422   0.210   2.853  1.00  0.00     0.278 HD
ATOM     12  H51 UNL     1       4.635   1.285   2.410  1.00  0.00     0.278 HD
ATOM     13  H62 UNL     1       5.464  -0.220   0.899  1.00  0.00     0.281 HD
ATOM     14  H61 UNL     1       4.426  -1.295   1.263  1.00  0.00     0.281 HD
ATOM     15  H4  UNL     1       2.073  -0.883   0.320  1.00  0.00     0.157 HD
BRANCH   9  16
HETATM   16  C14 UNL     1       4.457  -0.908  -0.757  1.00  0.00     0.237 C 
BRANCH  16  17
HETATM   17  C15 UNL     1       5.466  -1.982  -1.033  1.00  0.00     0.028 C 
BRANCH  17  18
HETATM   18  C16 UNL     1       6.873  -1.558  -0.771  1.00  0.00     0.003 C 
BRANCH  18  19
HETATM   19  C17 UNL     1       7.287  -0.376  -1.622  1.00  0.00     0.027 C 
BRANCH  19  20
HETATM   20  C18 UNL     1       8.733  -0.030  -1.273  1.00  0.00     0.229 C 
BRANCH  20  21
HETATM   21  N7  UNL     1       9.565  -1.187  -1.559  1.00  0.00    -0.079 N 
ATOM     22  H73 UNL     1       9.239  -2.030  -1.087  1.00  0.00     0.274 HD
ATOM     23  H72 UNL     1       9.462  -1.516  -2.519  1.00  0.00     0.274 HD
ATOM     24  H71 UNL     1      10.531  -0.956  -1.326  1.00  0.00     0.274 HD
ENDBRANCH  20  21
ENDBRANCH  19  20
ENDBRANCH  18  19
ENDBRANCH  17  18
ENDBRANCH  16  17
ENDBRANCH   9  16
ENDBRANCH   4   6
BRANCH   3  25
HETATM   25  N3  UNL     1       0.837   3.001   1.825  1.00  0.00    -0.071 N 
ATOM     26  H33 UNL     1       0.230   3.399   1.108  1.00  0.00     0.274 HD
ATOM     27  H32 UNL     1       0.448   3.510   2.619  1.00  0.00     0.274 HD
ATOM     28  H31 UNL     1       1.826   3.195   1.668  1.00  0.00     0.274 HD
ENDBRANCH   3  25
BRANCH   5  29
HETATM   29  O5  UNL     1      -0.111  -1.085   0.797  1.00  0.00    -0.391 OA
ATOM     30  H5  UNL     1       0.621  -1.566   0.428  1.00  0.00     0.210 HD
ENDBRANCH   5  29
BRANCH   2  31
HETATM   31  N2  UNL     1      -0.855   0.119   3.070  1.00  0.00    -0.070 N 
ATOM     32  H23 UNL     1      -1.809  -0.239   3.107  1.00  0.00     0.274 HD
ATOM     33  H22 UNL     1      -0.390  -0.699   2.677  1.00  0.00     0.274 HD
ATOM     34  H21 UNL     1      -0.503   0.329   4.004  1.00  0.00     0.274 HD
ENDBRANCH   2  31
BRANCH   1  35
HETATM   35  O4  UNL     1      -2.375   0.123   0.827  1.00  0.00    -0.368 OA
BRANCH  35  36
HETATM   36  C8  UNL     1      -3.564   0.540   0.323  1.00  0.00     0.214 C 
HETATM   37  C2  UNL     1      -4.037  -0.405  -0.733  1.00  0.00     0.190 C 
HETATM   38  C3  UNL     1      -2.984  -0.472  -1.844  1.00  0.00     0.082 C 
HETATM   39  O2  UNL     1      -5.167   0.089  -1.337  1.00  0.00    -0.335 OA
HETATM   40  C4  UNL     1      -6.223   0.038  -0.440  1.00  0.00     0.219 C 
HETATM   41  C6  UNL     1      -5.958   1.042   0.659  1.00  0.00     0.253 C 
HETATM   42  C7  UNL     1      -4.639   0.729   1.372  1.00  0.00     0.186 C 
BRANCH  37  43
HETATM   43  O1  UNL     1      -4.285  -1.691  -0.243  1.00  0.00    -0.358 OA
HETATM   44  C1  UNL     1      -4.635  -2.571  -1.251  1.00  0.00     0.205 C 
ENDBRANCH  37  43
BRANCH  40  45
HETATM   45  S1  UNL     1      -7.687   0.673  -1.349  1.00  0.00    -0.140 SA
HETATM   46  C5  UNL     1      -8.155  -0.435  -2.691  1.00  0.00     0.092 C 
ENDBRANCH  40  45
BRANCH  41  47
HETATM   47  N1  UNL     1      -7.066   1.111   1.559  1.00  0.00    -0.069 N 
ATOM     48  H13 UNL     1      -7.939   1.308   1.069  1.00  0.00     0.275 HD
ATOM     49  H12 UNL     1      -7.305   0.193   1.935  1.00  0.00     0.275 HD
ATOM     50  H11 UNL     1      -6.887   1.788   2.300  1.00  0.00     0.275 HD
ENDBRANCH  41  47
BRANCH  42  51
HETATM   51  O3  UNL     1      -4.409   1.857   2.164  1.00  0.00    -0.391 OA
ATOM     52  H3  UNL     1      -3.591   1.663   2.606  1.00  0.00     0.210 HD
ENDBRANCH  42  51
ENDBRANCH  35  36
ENDBRANCH   1  35
TORSDOF 16
