REMARK  10 active torsions:
REMARK  status: ('A' for Active; 'I' for Inactive)
REMARK    1  A    between atoms: C2_2  and  C3_3 
REMARK    2  A    between atoms: C2_2  and  N1_11 
REMARK    3  A    between atoms: C4_4  and  C5_5 
REMARK    4  A    between atoms: C5_5  and  C7_7 
REMARK    5  A    between atoms: C7_7  and  O1_9 
REMARK    6  A    between atoms: N1_11  and  C9_14 
REMARK    7  A    between atoms: C10_16  and  C11_18 
REMARK    8  A    between atoms: C11_18  and  O3_19 
REMARK    9  A    between atoms: C12_21  and  O4_22 
REMARK   10  A    between atoms: C13_24  and  O5_25 
ROOT
HETATM    1  C9  UNL     1      -2.036  -0.309   0.015  1.00  0.00     0.356 C 
HETATM    2  O2  UNL     1      -2.965  -0.344   1.065  1.00  0.00    -0.311 OA
HETATM    3  C10 UNL     1      -4.122  -0.705   0.366  1.00  0.00     0.256 C 
HETATM    4  F1  UNL     1      -3.976  -1.940  -0.272  1.00  0.00    -0.206 F 
HETATM    5  C12 UNL     1      -4.170   0.379  -0.684  1.00  0.00     0.220 C 
HETATM    6  C13 UNL     1      -2.694   0.446  -1.114  1.00  0.00     0.209 C 
ENDROOT
BRANCH   1   7
HETATM    7  N1  UNL     1      -0.745   0.162   0.383  1.00  0.00    -0.039 N 
ATOM      8  H12 UNL     1      -0.417  -0.270   1.247  1.00  0.00     0.281 HD
ATOM      9  H11 UNL     1      -0.772   1.132   0.698  1.00  0.00     0.281 HD
BRANCH   7  10
HETATM   10  C2  UNL     1       0.179  -0.021  -0.683  1.00  0.00     0.207 C 
HETATM   11  C1  UNL     1       0.445  -1.472  -1.053  1.00  0.00     0.044 C 
BRANCH  10  12
HETATM   12  C3  UNL     1       1.488   0.631  -0.481  1.00  0.00     0.002 C 
HETATM   13  C4  UNL     1       2.332   0.130   0.399  1.00  0.00    -0.022 C 
BRANCH  13  14
HETATM   14  C5  UNL     1       3.650   0.793   0.597  1.00  0.00     0.032 C 
HETATM   15  C6  UNL     1       3.768   1.143   2.065  1.00  0.00     0.017 C 
BRANCH  14  16
HETATM   16  C7  UNL     1       4.761  -0.206   0.267  1.00  0.00     0.121 C 
HETATM   17  C8  UNL     1       4.653  -0.674  -1.168  1.00  0.00     0.040 C 
BRANCH  16  18
HETATM   18  O1  UNL     1       6.013   0.306   0.506  1.00  0.00    -0.395 OA
ATOM     19  H1  UNL     1       6.703  -0.314   0.301  1.00  0.00     0.210 HD
ENDBRANCH  16  18
ENDBRANCH  14  16
ENDBRANCH  13  14
ENDBRANCH  10  12
ENDBRANCH   7  10
ENDBRANCH   1   7
BRANCH   6  20
HETATM   20  O5  UNL     1      -2.271   1.767  -1.179  1.00  0.00    -0.388 OA
ATOM     21  H5  UNL     1      -2.685   2.242  -1.890  1.00  0.00     0.210 HD
ENDBRANCH   6  20
BRANCH   3  22
HETATM   22  C11 UNL     1      -5.351  -0.755   1.218  1.00  0.00     0.240 C 
BRANCH  22  23
HETATM   23  O3  UNL     1      -5.681   0.437   1.831  1.00  0.00    -0.395 OA
ATOM     24  H3  UNL     1      -6.461   0.405   2.372  1.00  0.00     0.209 HD
ENDBRANCH  22  23
ENDBRANCH   3  22
BRANCH   5  25
HETATM   25  O4  UNL     1      -4.574   1.603  -0.158  1.00  0.00    -0.387 OA
ATOM     26  H4  UNL     1      -4.604   2.285  -0.819  1.00  0.00     0.210 HD
ENDBRANCH   5  25
TORSDOF 10
