REMARK  6 active torsions:
REMARK  status: ('A' for Active; 'I' for Inactive)
REMARK    1  A    between atoms: N1_2  and  C2_4 
REMARK    2  A    between atoms: C5_13  and  N5_14 
REMARK    3  A    between atoms: N5_14  and  C6_16 
REMARK    4  A    between atoms: C7_19  and  N7_20 
REMARK    5  A    between atoms: C11_24  and  N8_25 
REMARK    6  A    between atoms: N8_25  and  C12_27 
ROOT
HETATM    1  C6  UNL     1      -0.292  -0.150  -0.691  1.00  0.00     0.687 A 
HETATM    2  N6  UNL     1      -0.537   1.157  -0.616  1.00  0.00    -0.176 N 
ATOM      3  H6  UNL     1       0.255   1.795  -0.693  1.00  0.00     0.186 HD
HETATM    4  C7  UNL     1      -1.766   1.695  -0.445  1.00  0.00     0.121 A 
HETATM    5  C10 UNL     1      -2.819   0.818  -0.346  1.00  0.00     0.097 A 
HETATM    6  C11 UNL     1      -2.583  -0.556  -0.423  1.00  0.00     0.120 A 
HETATM    7  N10 UNL     1      -1.342  -1.017  -0.592  1.00  0.00    -0.177 N 
ATOM      8  H10 UNL     1      -1.177  -2.022  -0.647  1.00  0.00     0.186 HD
ENDROOT
BRANCH   1   9
HETATM    9  N5  UNL     1       0.899  -0.579  -0.853  1.00  0.00    -0.174 N 
ATOM     10  H5  UNL     1       1.082  -1.581  -0.911  1.00  0.00     0.186 HD
BRANCH   9  11
HETATM   11  C5  UNL     1       1.965   0.351  -0.952  1.00  0.00     0.153 A 
HETATM   12  N4  UNL     1       1.903   1.485  -1.678  1.00  0.00    -0.336 N 
HETATM   13  C4  UNL     1       2.919   2.351  -1.761  1.00  0.00     0.183 A 
ATOM     14  H4  UNL     1       1.043   1.692  -2.187  1.00  0.00     0.168 HD
HETATM   15  N3  UNL     1       4.056   2.102  -1.103  1.00  0.00    -0.336 N 
HETATM   16  C3  UNL     1       4.209   1.007  -0.362  1.00  0.00     0.153 A 
ATOM     17  H3  UNL     1       4.826   2.768  -1.171  1.00  0.00     0.168 HD
HETATM   18  N2  UNL     1       5.185   0.482   0.395  1.00  0.00    -0.174 N 
HETATM   19  C15 UNL     1       3.142   0.105  -0.279  1.00  0.00     0.138 A 
HETATM   20  C2  UNL     1       4.745  -0.678   0.914  1.00  0.00     0.680 A 
ATOM     21  H2  UNL     1       6.105   0.893   0.550  1.00  0.00     0.186 HD
HETATM   22  N11 UNL     1       3.483  -0.920   0.503  1.00  0.00    -0.184 N 
ATOM     23  H11 UNL     1       2.905  -1.726   0.742  1.00  0.00     0.184 HD
BRANCH  20  24
HETATM   24  N1  UNL     1       5.380  -1.482   1.690  1.00  0.00    -0.230 N 
HETATM   25  C1  UNL     1       6.722  -1.155   2.084  1.00  0.00     0.165 C 
ATOM     26  H1  UNL     1       4.938  -2.339   2.021  1.00  0.00     0.177 HD
ENDBRANCH  20  24
ENDBRANCH   9  11
ENDBRANCH   1   9
BRANCH   4  27
HETATM   27  N7  UNL     1      -1.918   3.100  -0.378  1.00  0.00    -0.376 N 
HETATM   28  C8  UNL     1      -0.771   3.958  -0.489  1.00  0.00     0.150 C 
HETATM   29  C9  UNL     1      -3.229   3.667  -0.196  1.00  0.00     0.150 C 
ENDBRANCH   4  27
BRANCH   6  30
HETATM   30  N8  UNL     1      -3.673  -1.442  -0.328  1.00  0.00    -0.368 N 
ATOM     31  H8  UNL     1      -4.611  -1.060  -0.206  1.00  0.00     0.161 HD
BRANCH  30  32
HETATM   32  C12 UNL     1      -3.505  -2.864  -0.397  1.00  0.00     0.134 C 
HETATM   33  C13 UNL     1      -2.731  -3.536   0.683  1.00  0.00     0.259 C 
HETATM   34  N9  UNL     1      -3.985  -3.951   1.282  1.00  0.00    -0.071 N 
HETATM   35  C14 UNL     1      -4.705  -3.673   0.042  1.00  0.00     0.259 C 
ATOM     36  H92 UNL     1      -4.056  -4.875   1.707  1.00  0.00     0.277 HD
ATOM     37  H91 UNL     1      -4.295  -3.515   2.151  1.00  0.00     0.277 HD
ENDBRANCH  30  32
ENDBRANCH   6  30
TORSDOF 6
