REMARK  2 active torsions:
REMARK  status: ('A' for Active; 'I' for Inactive)
REMARK    1  A    between atoms: C6_6  and  O1_7 
REMARK    2  A    between atoms: C12_16  and  O4_17 
ROOT
HETATM    1  C1  UNL     1      -0.277   2.379  -1.053  1.00  0.00     0.016 C 
HETATM    2  C2  UNL     1      -0.256   1.174  -0.088  1.00  0.00    -0.031 C 
HETATM    3  C3  UNL     1       0.741   1.388   0.947  1.00  0.00     0.010 C 
HETATM    4  C4  UNL     1       2.123   1.215   0.298  1.00  0.00     0.003 C 
HETATM    5  C5  UNL     1       2.593  -0.161   0.611  1.00  0.00     0.034 C 
HETATM    6  C6  UNL     1       1.991  -1.233  -0.235  1.00  0.00     0.147 C 
HETATM    7  C7  UNL     1       0.486  -1.235  -0.225  1.00  0.00     0.158 C 
HETATM    8  O2  UNL     1       0.057  -1.417   1.060  1.00  0.00    -0.350 OA
HETATM    9  C8  UNL     1      -1.304  -1.530   1.099  1.00  0.00     0.289 C 
HETATM   10  O3  UNL     1      -1.857  -2.176   0.030  1.00  0.00    -0.358 OA
HETATM   11  C9  UNL     1      -2.101  -1.426  -1.074  1.00  0.00     0.176 C 
HETATM   12  C10 UNL     1      -1.538  -0.073  -1.123  1.00  0.00     0.024 C 
HETATM   13  C11 UNL     1      -1.620   0.716   0.161  1.00  0.00     0.034 C 
HETATM   14  C12 UNL     1      -1.896  -0.145   1.313  1.00  0.00     0.178 C 
HETATM   15  C13 UNL     1      -0.032  -0.066  -0.943  1.00  0.00     0.032 C 
ENDROOT
BRANCH   6  16
HETATM   16  O1  UNL     1       2.489  -1.252  -1.536  1.00  0.00    -0.393 OA
ATOM     17  H1  UNL     1       2.106  -1.934  -2.075  1.00  0.00     0.210 HD
ENDBRANCH   6  16
BRANCH  14  18
HETATM   18  O4  UNL     1      -1.577   0.362   2.553  1.00  0.00    -0.390 OA
ATOM     19  H4  UNL     1      -1.947   1.227   2.687  1.00  0.00     0.210 HD
ENDBRANCH  14  18
TORSDOF 2
