REMARK  9 active torsions:
REMARK  status: ('A' for Active; 'I' for Inactive)
REMARK    1  A    between atoms: C2_2  and  O1_4 
REMARK    2  A    between atoms: O1_4  and  C4_5 
REMARK    3  A    between atoms: C6_8  and  O3_9 
REMARK    4  A    between atoms: O3_9  and  C7_10 
REMARK    5  A    between atoms: C9_13  and  N1_14 
REMARK    6  A    between atoms: N1_14  and  C10_16 
REMARK    7  A    between atoms: C11_20  and  O5_21 
REMARK    8  A    between atoms: C12_23  and  O6_24 
REMARK    9  A    between atoms: C13_26  and  N3_27 
ROOT
HETATM    1  C4  UNL     1      -3.018   0.009   0.820  1.00  0.00     0.178 C 
HETATM    2  C5  UNL     1      -1.901  -0.818   1.397  1.00  0.00     0.205 C 
HETATM    3  O2  UNL     1      -0.840  -0.059   1.850  1.00  0.00    -0.356 OA
HETATM    4  C6  UNL     1      -0.300   0.640   0.779  1.00  0.00     0.293 C 
HETATM    5  C12 UNL     1      -1.250   1.765   0.503  1.00  0.00     0.206 C 
HETATM    6  C13 UNL     1      -2.545   1.187   0.026  1.00  0.00     0.247 C 
ENDROOT
BRANCH   4   7
HETATM    7  O3  UNL     1       0.998   1.016   0.962  1.00  0.00    -0.325 OA
BRANCH   7   8
HETATM    8  C7  UNL     1       1.960   0.531   0.128  1.00  0.00     0.301 C 
HETATM    9  O4  UNL     1       2.702   1.453  -0.537  1.00  0.00    -0.355 OA
HETATM   10  C8  UNL     1       3.255   1.084  -1.732  1.00  0.00     0.207 C 
HETATM   11  C9  UNL     1       4.317   0.022  -1.613  1.00  0.00     0.172 C 
HETATM   12  S2  UNL     1       3.758  -1.326  -0.499  1.00  0.00    -0.105 SA
HETATM   13  C11 UNL     1       2.918  -0.431   0.858  1.00  0.00     0.236 C 
BRANCH  11  14
HETATM   14  N1  UNL     1       5.513   0.571  -0.989  1.00  0.00    -0.354 N 
ATOM     15  H1  UNL     1       5.540   1.554  -0.720  1.00  0.00     0.162 HD
BRANCH  14  16
HETATM   16  C10 UNL     1       6.643  -0.259  -0.754  1.00  0.00     0.182 C 
HETATM   17  N2  UNL     1       7.810   0.268  -0.146  1.00  0.00    -0.070 NA
HETATM   18  S1  UNL     1       6.640  -1.850  -1.174  1.00  0.00    -0.044 SA
ENDBRANCH  14  16
ENDBRANCH  11  14
BRANCH  13  19
HETATM   19  O5  UNL     1       3.896   0.223   1.561  1.00  0.00    -0.380 OA
ATOM     20  H5  UNL     1       4.486  -0.370   2.011  1.00  0.00     0.211 HD
ENDBRANCH  13  19
ENDBRANCH   7   8
ENDBRANCH   4   7
BRANCH   5  21
HETATM   21  O6  UNL     1      -0.751   2.686  -0.409  1.00  0.00    -0.388 OA
ATOM     22  H6  UNL     1      -1.353   3.399  -0.584  1.00  0.00     0.210 HD
ENDBRANCH   5  21
BRANCH   6  23
HETATM   23  N3  UNL     1      -2.387   0.869  -1.383  1.00  0.00    -0.070 N 
ATOM     24  H33 UNL     1      -1.773   0.065  -1.514  1.00  0.00     0.274 HD
ATOM     25  H32 UNL     1      -3.246   0.482  -1.773  1.00  0.00     0.274 HD
ATOM     26  H31 UNL     1      -2.065   1.671  -1.924  1.00  0.00     0.274 HD
ENDBRANCH   6  23
BRANCH   1  27
HETATM   27  O1  UNL     1      -3.840  -0.858   0.113  1.00  0.00    -0.377 OA
BRANCH  27  28
HETATM   28  C2  UNL     1      -5.097  -0.999   0.672  1.00  0.00     0.114 C 
HETATM   29  C1  UNL     1      -5.473  -2.430   0.976  1.00  0.00     0.039 C 
HETATM   30  C3  UNL     1      -6.102  -0.492  -0.370  1.00  0.00     0.039 C 
ENDBRANCH  27  28
ENDBRANCH   1  27
TORSDOF 9
