REMARK  1 active torsions:
REMARK  status: ('A' for Active; 'I' for Inactive)
REMARK    1  A    between atoms: N4_17  and  O1_18 
ROOT
HETATM    1  N1  UNL     1      -4.884  -1.287  -0.801  1.00  0.00    -0.405 N 
ATOM      2  H11 UNL     1      -4.695  -2.025  -1.479  1.00  0.00     0.155 HD
ATOM      3  H12 UNL     1      -5.849  -1.333  -0.474  1.00  0.00     0.155 HD
HETATM    4  C1  UNL     1      -4.040  -0.407  -0.398  1.00  0.00    -0.014 C 
HETATM    5  C2  UNL     1      -4.317   0.673   0.593  1.00  0.00     0.053 C 
HETATM    6  C3  UNL     1      -2.901   1.073   0.986  1.00  0.00     0.013 C 
HETATM    7  C4  UNL     1      -2.186   1.010  -0.330  1.00  0.00     0.030 C 
HETATM    8  C5  UNL     1      -2.642  -0.341  -0.872  1.00  0.00     0.065 C 
HETATM    9  C6  UNL     1      -1.738  -1.304  -0.118  1.00  0.00     0.284 C 
HETATM   10  N2  UNL     1      -0.500  -0.631  -0.096  1.00  0.00     0.097 N 
HETATM   11  C7  UNL     1       0.413  -1.045   0.920  1.00  0.00     0.316 C 
HETATM   12  C8  UNL     1       1.777  -0.485   0.748  1.00  0.00     0.212 C 
HETATM   13  N3  UNL     1       1.870   0.613  -0.156  1.00  0.00    -0.373 N 
HETATM   14  C9  UNL     1       3.059   1.363  -0.069  1.00  0.00     0.061 C 
HETATM   15  C10 UNL     1       4.246   0.430   0.031  1.00  0.00     0.061 C 
HETATM   16  C11 UNL     1       3.866  -0.971  -0.348  1.00  0.00     0.128 C 
HETATM   17  N4  UNL     1       2.778  -1.508   0.418  1.00  0.00    -0.174 NA
HETATM   18  C12 UNL     1       1.327   0.423  -1.446  1.00  0.00     0.126 C 
HETATM   19  C13 UNL     1       0.010   1.218  -1.469  1.00  0.00     0.056 C 
HETATM   20  C14 UNL     1      -0.704   0.776  -0.183  1.00  0.00     0.229 C 
ENDROOT
BRANCH  17  21
HETATM   21  O1  UNL     1       2.197  -2.521  -0.246  1.00  0.00    -0.311 OA
ATOM     22  H1  UNL     1       2.844  -3.183  -0.459  1.00  0.00     0.237 HD
ENDBRANCH  17  21
TORSDOF 1
