REMARK  5 active torsions:
REMARK  status: ('A' for Active; 'I' for Inactive)
REMARK    1  A    between atoms: O1_2  and  N1_3 
REMARK    2  A    between atoms: C2_5  and  C3_6 
REMARK    3  A    between atoms: C3_6  and  C4_7 
REMARK    4  A    between atoms: C6_9  and  C7_10 
REMARK    5  A    between atoms: C6_9  and  C8_13 
ROOT
HETATM    1  C4  UNL     1      -0.032   0.226  -0.281  1.00  0.00     0.161 C 
HETATM    2  C5  UNL     1      -0.344  -1.085  -0.933  1.00  0.00     0.103 C 
HETATM    3  C6  UNL     1      -0.759  -2.024   0.177  1.00  0.00     0.301 C 
HETATM    4  N2  UNL     1      -0.868  -1.239   1.370  1.00  0.00    -0.039 N 
ATOM      5  H21 UNL     1      -0.172  -1.495   2.070  1.00  0.00     0.280 HD
ATOM      6  H22 UNL     1      -1.702  -1.466   1.911  1.00  0.00     0.280 HD
HETATM    7  C9  UNL     1      -0.805   0.147   1.016  1.00  0.00     0.224 C 
HETATM    8  C10 UNL     1      -2.206   0.705   0.821  1.00  0.00     0.041 C 
HETATM    9  C11 UNL     1      -2.058   2.189   0.542  1.00  0.00     0.009 C 
HETATM   10  C12 UNL     1      -3.167   2.691  -0.376  1.00  0.00     0.011 C 
HETATM   11  C13 UNL     1      -0.743   2.465  -0.188  1.00  0.00     0.237 C 
HETATM   12  N3  UNL     1      -0.459   1.362  -1.059  1.00  0.00    -0.063 N 
ATOM     13  H31 UNL     1      -1.248   1.138  -1.665  1.00  0.00     0.278 HD
ATOM     14  H32 UNL     1       0.217   1.608  -1.783  1.00  0.00     0.278 HD
ENDROOT
BRANCH   1  15
HETATM   15  C3  UNL     1       1.436   0.367   0.021  1.00  0.00     0.087 C 
BRANCH  15  16
HETATM   16  C2  UNL     1       2.267   0.289  -1.190  1.00  0.00     0.089 C 
HETATM   17  N1  UNL     1       3.489   0.694  -1.115  1.00  0.00    -0.282 N 
ATOM     18  H1  UNL     1       4.061   0.639  -1.958  1.00  0.00     0.193 HD
BRANCH  17  19
HETATM   19  O1  UNL     1       4.063   1.187   0.008  1.00  0.00    -0.286 OA
HETATM   20  C1  UNL     1       5.387   0.801   0.327  1.00  0.00     0.237 C 
ENDBRANCH  17  19
ENDBRANCH  15  16
ENDBRANCH   1  15
BRANCH   3  21
HETATM   21  C7  UNL     1      -2.022  -2.712  -0.104  1.00  0.00     0.222 C 
HETATM   22  O2  UNL     1      -2.994  -2.551   0.675  1.00  0.00    -0.646 OA
HETATM   23  O3  UNL     1      -2.235  -3.547  -1.189  1.00  0.00    -0.646 OA
ENDBRANCH   3  21
BRANCH   3  24
HETATM   24  C8  UNL     1       0.301  -3.060   0.274  1.00  0.00     0.222 C 
HETATM   25  O4  UNL     1       0.991  -3.185   1.314  1.00  0.00    -0.646 OA
HETATM   26  O5  UNL     1       0.492  -3.878  -0.828  1.00  0.00    -0.646 OA
ENDBRANCH   3  24
TORSDOF 5
