REMARK  7 active torsions:
REMARK  status: ('A' for Active; 'I' for Inactive)
REMARK    1  A    between atoms: O1_2  and  C2_3 
REMARK    2  A    between atoms: C2_3  and  C3_5 
REMARK    3  A    between atoms: C6_8  and  C7_9 
REMARK    4  A    between atoms: C9_11  and  C11_13 
REMARK    5  A    between atoms: C11_13  and  C12_19 
REMARK    6  A    between atoms: N1_14  and  N2_16 
REMARK    7  A    between atoms: C13_22  and  O5_24 
ROOT
HETATM    1  C7  UNL     1      -1.138  -0.532  -0.340  1.00  0.00    -0.068 C 
HETATM    2  C8  UNL     1      -1.363  -0.693  -1.844  1.00  0.00     0.044 C 
HETATM    3  C9  UNL     1      -2.131  -0.067   0.351  1.00  0.00    -0.025 C 
HETATM    4  C10 UNL     1      -2.204   0.050   1.843  1.00  0.00     0.051 C 
ENDROOT
BRANCH   1   5
HETATM    5  C6  UNL     1       0.135  -1.034   0.095  1.00  0.00     0.050 C 
HETATM    6  C5  UNL     1       0.599  -1.178   1.469  1.00  0.00     0.013 C 
HETATM    7  C4  UNL     1       2.112  -1.546   1.329  1.00  0.00     0.018 C 
HETATM    8  C3  UNL     1       2.437  -1.132  -0.048  1.00  0.00     0.120 C 
HETATM    9  C13 UNL     1       1.324  -0.224  -0.488  1.00  0.00     0.074 C 
HETATM   10  C14 UNL     1       1.410   1.120   0.178  1.00  0.00     0.047 C 
BRANCH   8  11
HETATM   11  C2  UNL     1       3.772  -0.512  -0.200  1.00  0.00     0.265 C 
HETATM   12  O2  UNL     1       4.602  -1.053  -0.972  1.00  0.00    -0.265 OA
BRANCH  11  13
HETATM   13  O1  UNL     1       4.091   0.631   0.491  1.00  0.00    -0.326 OA
HETATM   14  C1  UNL     1       5.406   1.162   0.283  1.00  0.00     0.213 C 
ENDBRANCH  11  13
ENDBRANCH   8  11
BRANCH   9  15
HETATM   15  O5  UNL     1       1.334  -0.108  -1.833  1.00  0.00    -0.389 OA
ATOM     16  H5  UNL     1       0.630   0.466  -2.111  1.00  0.00     0.210 HD
ENDBRANCH   9  15
ENDBRANCH   1   5
BRANCH   3  17
HETATM   17  C11 UNL     1      -3.327   0.526  -0.302  1.00  0.00     0.130 C 
HETATM   18  N1  UNL     1      -3.485   0.604  -1.569  1.00  0.00    -0.301 N 
ATOM     19  H1  UNL     1      -2.725   0.227  -2.135  1.00  0.00     0.186 HD
BRANCH  18  20
HETATM   20  N2  UNL     1      -4.531   1.122  -2.256  1.00  0.00    -0.344 N 
ATOM     21  H22 UNL     1      -5.281   1.493  -1.673  1.00  0.00     0.176 HD
ATOM     22  H21 UNL     1      -4.657   1.184  -3.266  1.00  0.00     0.176 HD
ENDBRANCH  18  20
BRANCH  17  23
HETATM   23  C12 UNL     1      -4.436   1.131   0.464  1.00  0.00     0.228 C 
HETATM   24  O3  UNL     1      -5.438   1.648  -0.173  1.00  0.00    -0.643 OA
HETATM   25  O4  UNL     1      -4.559   1.232   1.818  1.00  0.00    -0.643 OA
ENDBRANCH  17  23
ENDBRANCH   3  17
TORSDOF 7
