REMARK  5 active torsions:
REMARK  status: ('A' for Active; 'I' for Inactive)
REMARK    1  A    between atoms: C4_9  and  N3_10 
REMARK    2  A    between atoms: N3_10  and  C5_12 
REMARK    3  A    between atoms: C5_12  and  N4_14 
REMARK    4  A    between atoms: C7_18  and  N5_19 
REMARK    5  A    between atoms: N6_21  and  N7_23 
ROOT
HETATM    1  C1  UNL     1       2.037   2.728  -0.319  1.00  0.00     0.071 C 
HETATM    2  C2  UNL     1       0.593   2.356  -0.210  1.00  0.00     0.041 A 
HETATM    3  N1  UNL     1      -0.387   3.244  -0.454  1.00  0.00    -0.310 N 
ATOM      4  H1  UNL     1      -0.132   4.195  -0.721  1.00  0.00     0.170 HD
HETATM    5  C3  UNL     1      -1.689   2.926  -0.360  1.00  0.00     0.326 A 
HETATM    6  O1  UNL     1      -2.564   3.816  -0.605  1.00  0.00    -0.247 OA
HETATM    7  N2  UNL     1      -2.017   1.674  -0.010  1.00  0.00    -0.293 N 
ATOM      8  H2  UNL     1      -3.005   1.429   0.061  1.00  0.00     0.172 HD
HETATM    9  C4  UNL     1      -1.105   0.734   0.249  1.00  0.00     0.137 A 
HETATM   10  C7  UNL     1       0.246   1.088   0.145  1.00  0.00     0.115 A 
ENDROOT
BRANCH   9  11
HETATM   11  N3  UNL     1      -1.418  -0.486   0.590  1.00  0.00    -0.347 N 
ATOM     12  H3  UNL     1      -0.690  -1.175   0.779  1.00  0.00     0.163 HD
BRANCH  11  13
HETATM   13  C5  UNL     1      -2.799  -0.841   0.694  1.00  0.00     0.279 C 
HETATM   14  C6  UNL     1      -3.450  -1.075  -0.667  1.00  0.00     0.063 C 
BRANCH  13  15
HETATM   15  N4  UNL     1      -2.882  -2.096   1.460  1.00  0.00    -0.059 N 
ATOM     16  H43 UNL     1      -2.310  -2.841   1.063  1.00  0.00     0.276 HD
ATOM     17  H42 UNL     1      -2.418  -2.039   2.367  1.00  0.00     0.276 HD
ATOM     18  H41 UNL     1      -3.867  -2.349   1.534  1.00  0.00     0.276 HD
ENDBRANCH  13  15
ENDBRANCH  11  13
ENDBRANCH   9  11
BRANCH  10  19
HETATM   19  N5  UNL     1       1.232   0.109   0.414  1.00  0.00    -0.281 N 
HETATM   20  N6  UNL     1       1.730  -0.624  -0.502  1.00  0.00    -0.245 N 
ATOM     21  H6  UNL     1       1.413  -0.509  -1.465  1.00  0.00     0.208 HD
ATOM     22  H5  UNL     1       1.555  -0.014   1.374  1.00  0.00     0.188 HD
BRANCH  20  23
HETATM   23  N7  UNL     1       2.688  -1.567  -0.214  1.00  0.00    -0.322 N 
HETATM   24  C8  UNL     1       2.381  -2.965  -0.433  1.00  0.00     0.172 C 
HETATM   25  C9  UNL     1       3.991  -1.215   0.299  1.00  0.00     0.172 C 
ENDBRANCH  20  23
ENDBRANCH  10  19
TORSDOF 5
