REMARK  7 active torsions:
REMARK  status: ('A' for Active; 'I' for Inactive)
REMARK    1  A    between atoms: N2_4  and  N3_6 
REMARK    2  A    between atoms: C1_8  and  C2_9 
REMARK    3  A    between atoms: C3_10  and  C4_11 
REMARK    4  A    between atoms: C7_15  and  C8_16 
REMARK    5  A    between atoms: N4_17  and  N5_19 
REMARK    6  A    between atoms: N5_19  and  N6_21 
REMARK    7  A    between atoms: C11_26  and  O1_27 
ROOT
HETATM    1  C4  UNL     1       0.370   0.583  -0.227  1.00  0.00    -0.008 A 
HETATM    2  C5  UNL     1      -0.582   1.594  -0.513  1.00  0.00     0.022 A 
HETATM    3 BR1  UNL     1      -0.004   3.333  -1.079  1.00  0.00    -0.050 Br
HETATM    4  C6  UNL     1      -1.905   1.365  -0.392  1.00  0.00     0.033 A 
HETATM    5  C7  UNL     1      -2.451   0.174   0.005  1.00  0.00    -0.007 A 
HETATM    6  C9  UNL     1      -1.515  -0.839   0.287  1.00  0.00    -0.011 A 
HETATM    7  C10 UNL     1      -1.961  -2.073   0.649  1.00  0.00     0.051 A 
HETATM    8  C11 UNL     1      -1.085  -3.129   0.898  1.00  0.00     0.084 A 
HETATM    9  C12 UNL     1       0.253  -2.918   0.774  1.00  0.00     0.044 A 
HETATM   10 BR2  UNL     1       1.535  -4.309   1.092  1.00  0.00    -0.048 Br
HETATM   11  C13 UNL     1       0.714  -1.668   0.409  1.00  0.00     0.035 A 
HETATM   12  C14 UNL     1      -0.140  -0.628   0.169  1.00  0.00    -0.012 A 
ENDROOT
BRANCH   1  13
HETATM   13  C3  UNL     1       1.731   0.956  -0.400  1.00  0.00     0.015 C 
HETATM   14  C2  UNL     1       2.850   0.564   0.103  1.00  0.00     0.019 C 
BRANCH  14  15
HETATM   15  C1  UNL     1       4.107   1.207  -0.341  1.00  0.00     0.108 C 
HETATM   16  N3  UNL     1       5.245   0.869   0.113  1.00  0.00    -0.298 N 
ATOM     17  H3  UNL     1       5.310   0.128   0.811  1.00  0.00     0.187 HD
BRANCH  16  18
HETATM   18  N2  UNL     1       6.406   1.501  -0.334  1.00  0.00    -0.250 N 
HETATM   19  N1  UNL     1       6.501   2.765  -0.297  1.00  0.00    -0.331 N 
ATOM     20  H12 UNL     1       5.716   3.307   0.064  1.00  0.00     0.178 HD
ATOM     21  H11 UNL     1       7.350   3.227  -0.624  1.00  0.00     0.178 HD
ATOM     22  H2  UNL     1       7.182   0.944  -0.692  1.00  0.00     0.207 HD
ENDBRANCH  16  18
ENDBRANCH  14  15
ENDBRANCH   1  13
BRANCH   5  23
HETATM   23  C8  UNL     1      -3.871  -0.054   0.139  1.00  0.00     0.120 C 
HETATM   24  N4  UNL     1      -4.767   0.764  -0.086  1.00  0.00    -0.297 N 
ATOM     25  H4  UNL     1      -5.660   0.307   0.099  1.00  0.00     0.187 HD
BRANCH  24  26
HETATM   26  N5  UNL     1      -5.019   2.004  -0.474  1.00  0.00    -0.250 N 
ATOM     27  H5  UNL     1      -4.839   2.793   0.147  1.00  0.00     0.207 HD
BRANCH  26  28
HETATM   28  N6  UNL     1      -5.500   2.191  -1.661  1.00  0.00    -0.331 N 
ATOM     29  H62 UNL     1      -5.675   1.392  -2.270  1.00  0.00     0.178 HD
ATOM     30  H61 UNL     1      -5.694   3.147  -1.960  1.00  0.00     0.178 HD
ENDBRANCH  26  28
ENDBRANCH  24  26
ENDBRANCH   5  23
BRANCH   8  31
HETATM   31  O1  UNL     1      -1.545  -4.389   1.268  1.00  0.00    -0.359 OA
ATOM     32  H1  UNL     1      -0.948  -5.108   1.438  1.00  0.00     0.217 HD
ENDBRANCH   8  31
TORSDOF 7
