REMARK  15 active torsions:
REMARK  status: ('A' for Active; 'I' for Inactive)
REMARK    1  A    between atoms: C4_4  and  C5_5 
REMARK    2  A    between atoms: C5_5  and  C6_6 
REMARK    3  A    between atoms: C6_6  and  C7_7 
REMARK    4  A    between atoms: C9_9  and  C10_10 
REMARK    5  A    between atoms: C10_10  and  C11_11 
REMARK    6  A    between atoms: C11_11  and  O1_12 
REMARK    7  A    between atoms: C13_17  and  O2_18 
REMARK    8  A    between atoms: O2_18  and  C14_19 
REMARK    9  A    between atoms: C14_19  and  C15_20 
REMARK   10  A    between atoms: C16_22  and  C17_23 
REMARK   11  A    between atoms: C17_23  and  O4_24 
REMARK   12  A    between atoms: C18_26  and  O5_27 
REMARK   13  A    between atoms: C19_29  and  O6_30 
REMARK   14  A    between atoms: C20_32  and  O7_33 
REMARK   15  A    between atoms: C21_35  and  O8_36 
ROOT
HETATM    1  C11 UNL     1      -0.845  -1.105   0.875  1.00  0.00     0.095 C 
HETATM    2  C12 UNL     1      -0.356  -2.257   0.128  1.00  0.00     0.096 C 
HETATM    3  N1  UNL     1       0.792  -2.431  -0.299  1.00  0.00    -0.372 N 
ATOM      4  H1  UNL     1       1.017  -3.283  -0.812  1.00  0.00     0.161 HD
HETATM    5  C13 UNL     1       1.842  -1.413  -0.071  1.00  0.00     0.249 C 
HETATM    6  C21 UNL     1       1.522  -0.743   1.239  1.00  0.00     0.170 C 
HETATM    7  C22 UNL     1       0.183  -0.025   0.982  1.00  0.00     0.080 C 
ENDROOT
BRANCH   5   8
HETATM    8  O2  UNL     1       1.757  -0.536  -1.084  1.00  0.00    -0.362 OA
BRANCH   8   9
HETATM    9  C14 UNL     1       2.610  -0.432  -2.090  1.00  0.00     0.205 C 
BRANCH   9  10
HETATM   10  C15 UNL     1       4.003  -0.028  -1.749  1.00  0.00     0.177 C 
HETATM   11  O3  UNL     1       4.607  -0.866  -0.905  1.00  0.00    -0.371 OA
HETATM   12  C16 UNL     1       5.641  -0.481  -0.131  1.00  0.00     0.177 C 
HETATM   13  C18 UNL     1       6.345   0.717  -0.708  1.00  0.00     0.180 C 
HETATM   14  C19 UNL     1       5.326   1.844  -0.743  1.00  0.00     0.180 C 
HETATM   15  C20 UNL     1       4.039   1.433  -1.412  1.00  0.00     0.180 C 
BRANCH  12  16
HETATM   16  C17 UNL     1       6.597  -1.645   0.078  1.00  0.00     0.198 C 
BRANCH  16  17
HETATM   17  O4  UNL     1       5.884  -2.674   0.701  1.00  0.00    -0.398 OA
ATOM     18  H4  UNL     1       6.481  -3.401   0.832  1.00  0.00     0.209 HD
ENDBRANCH  16  17
ENDBRANCH  12  16
BRANCH  13  19
HETATM   19  O5  UNL     1       6.771   0.489  -2.010  1.00  0.00    -0.390 OA
ATOM     20  H5  UNL     1       7.216   1.245  -2.374  1.00  0.00     0.210 HD
ENDBRANCH  13  19
BRANCH  14  21
HETATM   21  O6  UNL     1       5.079   2.174   0.600  1.00  0.00    -0.390 OA
ATOM     22  H6  UNL     1       4.442   2.878   0.578  1.00  0.00     0.210 HD
ENDBRANCH  14  21
BRANCH  15  23
HETATM   23  O7  UNL     1       3.942   2.153  -2.603  1.00  0.00    -0.390 OA
ATOM     24  H7  UNL     1       3.965   3.078  -2.390  1.00  0.00     0.210 HD
ENDBRANCH  15  23
ENDBRANCH   9  10
ENDBRANCH   8   9
ENDBRANCH   5   8
BRANCH   6  25
HETATM   25  O8  UNL     1       2.497   0.178   1.547  1.00  0.00    -0.391 OA
ATOM     26  H8  UNL     1       2.295   0.601   2.373  1.00  0.00     0.210 HD
ENDBRANCH   6  25
BRANCH   1  27
HETATM   27  C10 UNL     1      -2.160  -0.580   0.304  1.00  0.00     0.071 C 
BRANCH  27  28
HETATM   28  C9  UNL     1      -2.581   0.525   1.173  1.00  0.00    -0.021 C 
HETATM   29  C7  UNL     1      -3.695   0.574   1.851  1.00  0.00    -0.087 C 
HETATM   30  C8  UNL     1      -4.004   1.771   2.707  1.00  0.00     0.043 C 
BRANCH  29  31
HETATM   31  C6  UNL     1      -4.708  -0.491   1.841  1.00  0.00     0.037 C 
BRANCH  31  32
HETATM   32  C5  UNL     1      -6.016   0.128   1.319  1.00  0.00     0.031 C 
BRANCH  32  33
HETATM   33  C4  UNL     1      -5.738   0.637  -0.043  1.00  0.00    -0.024 C 
HETATM   34  C2  UNL     1      -6.405   0.174  -1.077  1.00  0.00    -0.091 C 
HETATM   35  C1  UNL     1      -6.106   0.705  -2.436  1.00  0.00     0.042 C 
HETATM   36  C3  UNL     1      -7.446  -0.868  -0.875  1.00  0.00     0.042 C 
ENDBRANCH  32  33
ENDBRANCH  31  32
ENDBRANCH  29  31
ENDBRANCH  27  28
ENDBRANCH   1  27
BRANCH   1  37
HETATM   37  O1  UNL     1      -1.087  -1.544   2.197  1.00  0.00    -0.384 OA
ATOM     38  H1  UNL     1      -0.269  -1.871   2.552  1.00  0.00     0.211 HD
ENDBRANCH   1  37
TORSDOF 15
