REMARK  20 active torsions:
REMARK  status: ('A' for Active; 'I' for Inactive)
REMARK    1  A    between atoms: C2_2  and  C3_3 
REMARK    2  A    between atoms: C3_3  and  C4_4 
REMARK    3  A    between atoms: C4_4  and  C5_5 
REMARK    4  A    between atoms: C5_5  and  C6_6 
REMARK    5  A    between atoms: C6_6  and  N1_7 
REMARK    6  A    between atoms: N1_7  and  C7_10 
REMARK    7  A    between atoms: C7_10  and  C8_11 
REMARK    8  A    between atoms: C8_11  and  C9_12 
REMARK    9  A    between atoms: C9_12  and  N2_13 
REMARK       I    between atoms: N2_13  and  C10_15 
REMARK       I    between atoms: C10_15  and  N5_22 
REMARK   10  A    between atoms: N3_16  and  C11_18 
REMARK   11  A    between atoms: N5_22  and  C12_24 
REMARK   12  A    between atoms: C12_24  and  C13_25 
REMARK   13  A    between atoms: C13_25  and  C14_26 
REMARK   14  A    between atoms: C14_26  and  C15_27 
REMARK   15  A    between atoms: C17_31  and  N7_32 
REMARK       I    between atoms: N7_32  and  C18_34 
REMARK   16  A    between atoms: C18_34  and  C19_36 
REMARK   17  A    between atoms: C19_36  and  N8_37 
REMARK   18  A    between atoms: N8_37  and  C22_40 
REMARK   19  A    between atoms: C22_40  and  C23_41 
REMARK   20  A    between atoms: C23_41  and  N9_42 
ROOT
HETATM    1  C12 UNL     1       0.051   0.093  -1.752  1.00  0.00     0.138 C 
ENDROOT
BRANCH   1   2
HETATM    2  N5  UNL     1       1.318  -0.024  -1.115  1.00  0.00    -0.226 N 
HETATM    3  C10 UNL     1       1.696  -1.081  -0.249  1.00  0.00     0.674 C 
HETATM    4  N2  UNL     1       2.171  -0.797   1.087  1.00  0.00    -0.226 N 
HETATM    5  N3  UNL     1       1.630  -2.288  -0.638  1.00  0.00    -0.189 N 
ATOM      6  H2  UNL     1       1.537  -0.924   1.876  1.00  0.00     0.177 HD
ATOM      7  H3  UNL     1       1.926  -2.985   0.045  1.00  0.00     0.184 HD
ATOM      8  H5  UNL     1       2.006   0.707  -1.295  1.00  0.00     0.177 HD
BRANCH   4   9
HETATM    9  C9  UNL     1       3.505  -0.343   1.332  1.00  0.00     0.139 C 
BRANCH   9  10
HETATM   10  C8  UNL     1       4.505  -1.441   1.031  1.00  0.00     0.048 C 
BRANCH  10  11
HETATM   11  C7  UNL     1       5.908  -0.955   1.264  1.00  0.00     0.234 C 
BRANCH  11  12
HETATM   12  N1  UNL     1       6.877  -1.973   0.990  1.00  0.00    -0.075 N 
ATOM     13  H12 UNL     1       6.732  -2.370   0.062  1.00  0.00     0.277 HD
ATOM     14  H11 UNL     1       6.701  -2.802   1.558  1.00  0.00     0.277 HD
BRANCH  12  15
HETATM   15  C6  UNL     1       8.236  -1.526   1.147  1.00  0.00     0.232 C 
BRANCH  15  16
HETATM   16  C5  UNL     1       8.623  -0.520   0.084  1.00  0.00     0.027 C 
BRANCH  16  17
HETATM   17  C4  UNL     1      10.050  -0.045   0.235  1.00  0.00     0.002 C 
BRANCH  17  18
HETATM   18  C3  UNL     1      10.404   0.960  -0.853  1.00  0.00    -0.000 C 
BRANCH  18  19
HETATM   19  C2  UNL     1      11.815   1.435  -0.706  1.00  0.00    -0.005 C 
HETATM   20  C1  UNL     1      11.948   2.096   0.663  1.00  0.00     0.005 C 
ENDBRANCH  18  19
ENDBRANCH  17  18
ENDBRANCH  16  17
ENDBRANCH  15  16
ENDBRANCH  12  15
ENDBRANCH  11  12
ENDBRANCH  10  11
ENDBRANCH   9  10
ENDBRANCH   4   9
BRANCH   5  21
HETATM   21  C11 UNL     1       1.208  -2.797  -1.872  1.00  0.00     0.191 C 
HETATM   22  N4  UNL     1       0.485  -3.866  -1.893  1.00  0.00    -0.395 N 
ATOM     23  H42 UNL     1       0.234  -4.321  -1.015  1.00  0.00     0.156 HD
ATOM     24  H41 UNL     1       0.178  -4.237  -2.792  1.00  0.00     0.156 HD
ENDBRANCH   5  21
ENDBRANCH   1   2
BRANCH   1  25
HETATM   25  C13 UNL     1      -1.082   0.353  -0.761  1.00  0.00     0.026 C 
BRANCH  25  26
HETATM   26  C14 UNL     1      -2.339   0.456  -1.577  1.00  0.00     0.060 C 
BRANCH  26  27
HETATM   27  C15 UNL     1      -3.482   0.706  -0.639  1.00  0.00     0.042 A 
HETATM   28  C16 UNL     1      -3.408   0.823   0.728  1.00  0.00     0.131 A 
HETATM   29  N6  UNL     1      -4.663   1.040   1.151  1.00  0.00    -0.200 N 
HETATM   30  C17 UNL     1      -5.491   1.058   0.077  1.00  0.00     0.685 A 
ATOM     31  H6  UNL     1      -4.948   1.170   2.122  1.00  0.00     0.183 HD
HETATM   32  N10 UNL     1      -4.777   0.854  -1.020  1.00  0.00    -0.194 N 
ATOM     33  H10 UNL     1      -5.134   0.815  -1.975  1.00  0.00     0.184 HD
BRANCH  30  34
HETATM   34  N7  UNL     1      -6.784   1.241   0.128  1.00  0.00    -0.158 N 
HETATM   35  C18 UNL     1      -7.530   1.237  -1.065  1.00  0.00     0.262 C 
HETATM   36  O1  UNL     1      -7.165   2.014  -1.988  1.00  0.00    -0.271 OA
ATOM     37  H7  UNL     1      -7.248   1.385   1.025  1.00  0.00     0.187 HD
BRANCH  35  38
HETATM   38  C19 UNL     1      -8.690   0.396  -1.300  1.00  0.00     0.339 C 
BRANCH  38  39
HETATM   39  N8  UNL     1      -9.086  -0.474  -0.222  1.00  0.00    -0.065 N 
HETATM   40  C20 UNL     1      -8.010  -1.415   0.015  1.00  0.00     0.272 C 
HETATM   41  C21 UNL     1     -10.253  -1.264  -0.611  1.00  0.00     0.272 C 
BRANCH  39  42
HETATM   42  C22 UNL     1      -9.395   0.193   1.000  1.00  0.00     0.264 C 
BRANCH  42  43
HETATM   43  C23 UNL     1     -10.203   1.464   0.786  1.00  0.00     0.257 C 
BRANCH  43  44
HETATM   44  N9  UNL     1     -10.444   2.051   2.108  1.00  0.00    -0.078 N 
ATOM     45  H93 UNL     1     -10.885   1.402   2.759  1.00  0.00     0.274 HD
ATOM     46  H92 UNL     1      -9.587   2.207   2.639  1.00  0.00     0.274 HD
ATOM     47  H91 UNL     1     -10.986   2.903   1.965  1.00  0.00     0.274 HD
ENDBRANCH  43  44
ENDBRANCH  42  43
ENDBRANCH  39  42
ENDBRANCH  38  39
ENDBRANCH  35  38
ENDBRANCH  30  34
ENDBRANCH  26  27
ENDBRANCH  25  26
ENDBRANCH   1  25
TORSDOF 20
