REMARK  7 active torsions:
REMARK  status: ('A' for Active; 'I' for Inactive)
REMARK    1  A    between atoms: C2_2  and  O1_3 
REMARK    2  A    between atoms: C5_7  and  C6_8 
REMARK    3  A    between atoms: C6_8  and  C7_9 
REMARK    4  A    between atoms: C7_9  and  C8_10 
REMARK    5  A    between atoms: C8_10  and  C9_11 
REMARK    6  A    between atoms: C9_11  and  C10_12 
REMARK    7  A    between atoms: C22_27  and  O5_29 
ROOT
HETATM    1  C8  UNL     1       0.384  -0.416   0.918  1.00  0.00     0.002 C 
ENDROOT
BRANCH   1   2
HETATM    2  C7  UNL     1       0.785  -1.080  -0.336  1.00  0.00     0.000 C 
BRANCH   2   3
HETATM    3  C6  UNL     1       2.239  -1.136  -0.667  1.00  0.00     0.005 C 
BRANCH   3   4
HETATM    4  C5  UNL     1       2.991   0.134  -0.858  1.00  0.00    -0.012 C 
HETATM    5  C4  UNL     1       3.103   1.067   0.274  1.00  0.00     0.008 C 
HETATM    6  C3  UNL     1       4.502   1.687   0.278  1.00  0.00     0.041 C 
HETATM    7  C2  UNL     1       5.474   0.553   0.533  1.00  0.00     0.085 C 
HETATM    8  C1  UNL     1       6.842   1.132   0.760  1.00  0.00     0.049 C 
HETATM    9  C22 UNL     1       5.443  -0.443  -0.615  1.00  0.00     0.085 C 
HETATM   10  C21 UNL     1       4.316  -0.131  -1.571  1.00  0.00     0.045 C 
HETATM   11  C23 UNL     1       5.440  -1.877  -0.145  1.00  0.00     0.049 C 
BRANCH   7  12
HETATM   12  O1  UNL     1       5.044  -0.111   1.681  1.00  0.00    -0.387 OA
ATOM     13  H1  UNL     1       4.179  -0.477   1.537  1.00  0.00     0.210 HD
ENDBRANCH   7  12
BRANCH   9  14
HETATM   14  O5  UNL     1       6.629  -0.245  -1.331  1.00  0.00    -0.387 OA
ATOM     15  H5  UNL     1       6.610  -0.867  -2.048  1.00  0.00     0.210 HD
ENDBRANCH   9  14
ENDBRANCH   3   4
ENDBRANCH   2   3
ENDBRANCH   1   2
BRANCH   1  16
HETATM   16  C9  UNL     1      -1.069  -0.482   1.275  1.00  0.00     0.032 C 
BRANCH  16  17
HETATM   17  C10 UNL     1      -1.960   0.142   0.289  1.00  0.00     0.125 C 
HETATM   18  O2  UNL     1      -1.942  -0.406  -0.956  1.00  0.00    -0.385 OA
HETATM   19  C11 UNL     1      -2.774   0.183  -1.865  1.00  0.00     0.168 C 
HETATM   20  C12 UNL     1      -3.526   1.364  -1.365  1.00  0.00     0.032 C 
HETATM   21  C13 UNL     1      -4.143   1.156  -0.006  1.00  0.00     0.001 C 
HETATM   22  C14 UNL     1      -3.431   0.105   0.754  1.00  0.00     0.019 C 
HETATM   23  C20 UNL     1      -5.617   0.972  -0.134  1.00  0.00     0.028 C 
HETATM   24  C15 UNL     1      -3.952  -1.272   0.616  1.00  0.00     0.008 C 
HETATM   25  C16 UNL     1      -5.422  -1.397   0.466  1.00  0.00     0.015 C 
HETATM   26  C17 UNL     1      -6.041  -0.426  -0.485  1.00  0.00     0.092 C 
HETATM   27  C18 UNL     1      -7.506  -0.349  -0.133  1.00  0.00     0.263 C 
HETATM   28  O3  UNL     1      -8.476  -0.847  -0.761  1.00  0.00    -0.265 OA
HETATM   29  O4  UNL     1      -7.543   0.396   1.039  1.00  0.00    -0.321 OA
HETATM   30  C19 UNL     1      -6.374   1.202   1.151  1.00  0.00     0.184 C 
ENDBRANCH  16  17
ENDBRANCH   1  16
TORSDOF 7
