REMARK  13 active torsions:
REMARK  status: ('A' for Active; 'I' for Inactive)
REMARK    1  A    between atoms: C2_2  and  C3_3 
REMARK    2  A    between atoms: C3_3  and  C4_4 
REMARK    3  A    between atoms: C4_4  and  C5_5 
REMARK    4  A    between atoms: C5_5  and  C6_6 
REMARK    5  A    between atoms: C6_6  and  C7_7 
REMARK    6  A    between atoms: C7_7  and  S1_8 
REMARK    7  A    between atoms: S1_8  and  C8_9 
REMARK    8  A    between atoms: N2_12  and  C9_13 
REMARK    9  A    between atoms: C10_16  and  C11_17 
REMARK   10  A    between atoms: C11_17  and  O2_18 
REMARK   11  A    between atoms: C13_24  and  N5_25 
REMARK   12  A    between atoms: C14_30  and  N7_31 
REMARK   13  A    between atoms: N7_31  and  C15_32 
ROOT
HETATM    1  C8  UNL     1       0.190  -0.486  -0.825  1.00  0.00     0.103 A 
HETATM    2  N1  UNL     1       0.522   0.828  -0.915  1.00  0.00    -0.285 N 
ATOM      3  H1  UNL     1       1.475   1.185  -0.990  1.00  0.00     0.188 HD
HETATM    4  N2  UNL     1      -0.556   1.572  -0.892  1.00  0.00    -0.219 N 
HETATM    5  C12 UNL     1      -1.653   0.788  -0.786  1.00  0.00     0.160 A 
HETATM    6  N4  UNL     1      -2.973   1.025  -0.719  1.00  0.00    -0.174 N 
ATOM      7  H4  UNL     1      -3.321   1.983  -0.751  1.00  0.00     0.186 HD
HETATM    8  C13 UNL     1      -3.838  -0.004  -0.610  1.00  0.00     0.679 A 
HETATM    9  N6  UNL     1      -3.439  -1.261  -0.566  1.00  0.00    -0.164 N 
ATOM     10  H6  UNL     1      -4.130  -2.006  -0.483  1.00  0.00     0.187 HD
HETATM   11  C14 UNL     1      -2.081  -1.584  -0.632  1.00  0.00     0.207 A 
HETATM   12  C19 UNL     1      -1.188  -0.520  -0.743  1.00  0.00     0.103 A 
ENDROOT
BRANCH   1  13
HETATM   13  S1  UNL     1       1.350  -1.831  -0.818  1.00  0.00    -0.110 SA
BRANCH  13  14
HETATM   14  C7  UNL     1       1.899  -2.256   0.823  1.00  0.00     0.081 C 
BRANCH  14  15
HETATM   15  C6  UNL     1       2.726  -1.226   1.522  1.00  0.00     0.010 C 
BRANCH  15  16
HETATM   16  C5  UNL     1       4.007  -0.905   0.773  1.00  0.00     0.001 C 
BRANCH  16  17
HETATM   17  C4  UNL     1       4.843   0.102   1.474  1.00  0.00     0.004 C 
BRANCH  17  18
HETATM   18  C3  UNL     1       4.251   1.436   1.716  1.00  0.00     0.026 C 
BRANCH  18  19
HETATM   19  C2  UNL     1       3.915   2.259   0.563  1.00  0.00    -0.037 C 
HETATM   20  C1  UNL     1       4.243   2.016  -0.673  1.00  0.00     0.007 C 
ENDBRANCH  18  19
ENDBRANCH  17  18
ENDBRANCH  16  17
ENDBRANCH  15  16
ENDBRANCH  14  15
ENDBRANCH  13  14
ENDBRANCH   1  13
BRANCH   4  21
HETATM   21  C9  UNL     1      -0.548   3.023  -0.974  1.00  0.00     0.418 C 
HETATM   22  O1  UNL     1       0.636   3.506  -0.406  1.00  0.00    -0.229 OA
HETATM   23  N3  UNL     1       0.292   4.609   0.296  1.00  0.00    -0.061 NA
HETATM   24  C10 UNL     1      -1.019   4.238   0.796  1.00  0.00     0.270 C 
HETATM   25  O3  UNL     1      -1.586   3.637  -0.325  1.00  0.00    -0.315 OA
BRANCH  24  26
HETATM   26  C11 UNL     1      -1.739   5.542   1.114  1.00  0.00     0.215 C 
BRANCH  26  27
HETATM   27  O2  UNL     1      -3.006   5.338   1.600  1.00  0.00    -0.397 OA
ATOM     28  H2  UNL     1      -3.455   6.151   1.798  1.00  0.00     0.209 HD
ENDBRANCH  26  27
ENDBRANCH  24  26
ENDBRANCH   4  21
BRANCH  11  29
HETATM   29  N7  UNL     1      -1.720  -2.717  -0.595  1.00  0.00    -0.397 NA
BRANCH  29  30
HETATM   30  C15 UNL     1      -1.310  -3.997  -0.554  1.00  0.00     0.302 C 
HETATM   31  C16 UNL     1      -2.471  -4.914  -0.119  1.00  0.00     0.070 C 
HETATM   32  C17 UNL     1      -3.170  -5.016  -1.482  1.00  0.00     0.032 C 
HETATM   33  C18 UNL     1      -1.906  -5.295  -2.312  1.00  0.00     0.171 C 
HETATM   34  O4  UNL     1      -0.942  -4.469  -1.814  1.00  0.00    -0.355 OA
ENDBRANCH  29  30
ENDBRANCH  11  29
BRANCH   8  35
HETATM   35  N5  UNL     1      -5.093   0.271  -0.546  1.00  0.00    -0.234 N 
ATOM     36  H52 UNL     1      -5.401   1.243  -0.580  1.00  0.00     0.174 HD
ATOM     37  H51 UNL     1      -5.747  -0.507  -0.464  1.00  0.00     0.174 HD
ENDBRANCH   8  35
TORSDOF 13
