REMARK  9 active torsions:
REMARK  status: ('A' for Active; 'I' for Inactive)
REMARK    1  A    between atoms: C1_4  and  C2_5 
REMARK    2  A    between atoms: C1_4  and  N4_11 
REMARK    3  A    between atoms: C4_15  and  C5_16 
REMARK    4  A    between atoms: C6_19  and  S1_20 
REMARK    5  A    between atoms: S1_20  and  S2_21 
REMARK    6  A    between atoms: S2_21  and  C7_22 
REMARK    7  A    between atoms: C9_30  and  C10_31 
REMARK    8  A    between atoms: C10_31  and  O5_32 
REMARK    9  A    between atoms: C11_34  and  O6_35 
ROOT
HETATM    1  N4  UNL     1       2.652   0.091  -1.147  1.00  0.00    -0.217 N 
HETATM    2  N5  UNL     1       3.821   0.334  -0.373  1.00  0.00    -0.113 NA
HETATM    3  C3  UNL     1       4.059  -0.972   0.275  1.00  0.00     0.265 C 
HETATM    4  N6  UNL     1       2.707  -1.455   0.384  1.00  0.00    -0.304 N 
HETATM    5  C4  UNL     1       1.398  -1.954   0.635  1.00  0.00     0.133 C 
HETATM    6  C6  UNL     1       0.936  -1.679  -0.551  1.00  0.00     0.102 C 
HETATM    7  C11 UNL     1       2.257  -1.270  -1.014  1.00  0.00     0.276 C 
ENDROOT
BRANCH   6   8
HETATM    8  S1  UNL     1      -0.581  -1.830  -1.435  1.00  0.00    -0.046 SA
BRANCH   8   9
HETATM    9  S2  UNL     1      -2.158  -2.330  -0.157  1.00  0.00    -0.035 SA
BRANCH   9  10
HETATM   10  C7  UNL     1      -2.919  -0.851   0.464  1.00  0.00     0.105 C 
HETATM   11  N7  UNL     1      -3.883  -1.049   1.284  1.00  0.00    -0.283 N 
HETATM   12  N8  UNL     1      -4.676  -0.125   1.941  1.00  0.00    -0.244 N 
ATOM     13  H7  UNL     1      -4.096  -2.027   1.481  1.00  0.00     0.188 HD
HETATM   14  N9  UNL     1      -4.309   1.132   2.385  1.00  0.00    -0.100 NA
ATOM     15  H8  UNL     1      -5.641  -0.403   2.118  1.00  0.00     0.203 HD
HETATM   16  C8  UNL     1      -2.893   1.364   2.055  1.00  0.00     0.305 C 
HETATM   17  O4  UNL     1      -2.803   1.529   0.701  1.00  0.00    -0.360 OA
HETATM   18  C9  UNL     1      -2.371   0.427  -0.019  1.00  0.00     0.205 C 
BRANCH  18  19
HETATM   19  C10 UNL     1      -2.812   0.703  -1.465  1.00  0.00     0.203 C 
BRANCH  19  20
HETATM   20  O5  UNL     1      -2.179   1.885  -1.846  1.00  0.00    -0.398 OA
ATOM     21  H5  UNL     1      -2.452   2.056  -2.740  1.00  0.00     0.209 HD
ENDBRANCH  19  20
ENDBRANCH  18  19
ENDBRANCH   9  10
ENDBRANCH   8   9
ENDBRANCH   6   8
BRANCH   5  22
HETATM   22  C5  UNL     1       0.894  -2.568   1.883  1.00  0.00     0.228 C 
HETATM   23  O2  UNL     1      -0.259  -3.005   2.033  1.00  0.00    -0.643 OA
HETATM   24  O3  UNL     1       1.727  -2.696   3.019  1.00  0.00    -0.643 OA
ENDBRANCH   5  22
BRANCH   7  25
HETATM   25  O6  UNL     1       2.884  -2.160  -1.890  1.00  0.00    -0.348 OA
ATOM     26  H6  UNL     1       2.620  -3.068  -1.801  1.00  0.00     0.215 HD
ENDBRANCH   7  25
BRANCH   1  27
HETATM   27  C1  UNL     1       2.005   1.073  -1.920  1.00  0.00     0.166 C 
HETATM   28  N1  UNL     1       1.671   0.829  -3.135  1.00  0.00    -0.381 N 
ATOM     29  H12 UNL     1       1.202   1.541  -3.695  1.00  0.00     0.157 HD
ATOM     30  H11 UNL     1       1.886  -0.089  -3.524  1.00  0.00     0.157 HD
BRANCH  27  31
HETATM   31  C2  UNL     1       1.699   2.379  -1.367  1.00  0.00     0.194 A 
HETATM   32  N2  UNL     1       1.121   3.524  -1.765  1.00  0.00    -0.220 N 
HETATM   33  O1  UNL     1       1.309   4.090  -0.613  1.00  0.00    -0.153 OA
ATOM     34  H2  UNL     1       0.696   3.831  -2.640  1.00  0.00     0.198 HD
HETATM   35  N3  UNL     1       1.866   3.017  -0.197  1.00  0.00    -0.220 N 
ATOM     36  H3  UNL     1       2.283   2.746   0.694  1.00  0.00     0.198 HD
ENDBRANCH  27  31
ENDBRANCH   1  27
TORSDOF 9
