REMARK  3 active torsions:
REMARK  status: ('A' for Active; 'I' for Inactive)
REMARK    1  A    between atoms: C2_2  and  C3_3 
REMARK    2  A    between atoms: C3_3  and  C4_4 
REMARK    3  A    between atoms: C9_9  and  N1_10 
ROOT
HETATM    1  C4  UNL     1       0.908  -0.383   0.360  1.00  0.00    -0.033 C 
HETATM    2  C5  UNL     1       1.323  -1.753  -0.090  1.00  0.00     0.011 C 
HETATM    3  C6  UNL     1       0.982  -2.246   1.295  1.00  0.00     0.006 C 
HETATM    4  C7  UNL     1      -0.070  -1.123   1.279  1.00  0.00    -0.003 C 
HETATM    5  C8  UNL     1      -1.319  -1.579   0.695  1.00  0.00     0.044 C 
HETATM    6  C9  UNL     1      -1.744  -1.117  -0.635  1.00  0.00     0.124 C 
HETATM    7  C10 UNL     1      -2.934  -0.157  -0.449  1.00  0.00     0.039 C 
HETATM    8  C11 UNL     1      -2.357   1.197  -0.312  1.00  0.00     0.007 C 
HETATM    9  C12 UNL     1      -0.979   1.290   0.275  1.00  0.00    -0.014 C 
HETATM   10  C13 UNL     1      -0.624   2.782   0.180  1.00  0.00     0.010 C 
HETATM   11  C14 UNL     1       0.061   0.467  -0.506  1.00  0.00     0.000 C 
HETATM   12  C15 UNL     1      -0.764  -0.378  -1.459  1.00  0.00     0.044 C 
ENDROOT
BRANCH   6  13
HETATM   13  N1  UNL     1      -2.271  -2.213  -1.469  1.00  0.00    -0.070 N 
ATOM     14  H13 UNL     1      -1.598  -2.976  -1.543  1.00  0.00     0.275 HD
ATOM     15  H12 UNL     1      -3.026  -2.707  -0.993  1.00  0.00     0.275 HD
ATOM     16  H11 UNL     1      -2.566  -1.893  -2.391  1.00  0.00     0.275 HD
ENDBRANCH   6  13
BRANCH   1  17
HETATM   17  C3  UNL     1       1.938   0.359   1.116  1.00  0.00     0.010 C 
BRANCH  17  18
HETATM   18  C2  UNL     1       3.249   0.650   0.533  1.00  0.00    -0.004 C 
HETATM   19  C1  UNL     1       3.222   1.489  -0.716  1.00  0.00     0.005 C 
ENDBRANCH  17  18
ENDBRANCH   1  17
TORSDOF 3
