REMARK  5 active torsions:
REMARK  status: ('A' for Active; 'I' for Inactive)
REMARK    1  A    between atoms: C2_2  and  C3_3 
REMARK    2  A    between atoms: C2_2  and  C15_15 
REMARK    3  A    between atoms: C3_3  and  C4_4 
REMARK    4  A    between atoms: C4_4  and  C6_6 
REMARK    5  A    between atoms: C15_15  and  O1_16 
ROOT
HETATM    1  C6  UNL     1       0.439  -0.159   0.150  1.00  0.00    -0.066 C 
HETATM    2  C7  UNL     1       0.514   0.562  -1.194  1.00  0.00     0.036 C 
HETATM    3  C8  UNL     1       1.866   0.622  -1.783  1.00  0.00     0.009 C 
HETATM    4  C9  UNL     1       3.028   0.645  -0.859  1.00  0.00    -0.013 C 
HETATM    5  C10 UNL     1       3.616  -0.783  -0.893  1.00  0.00     0.005 C 
HETATM    6  C11 UNL     1       2.367  -1.526  -0.413  1.00  0.00     0.014 C 
HETATM    7  C12 UNL     1       1.730  -0.610   0.625  1.00  0.00    -0.020 C 
HETATM    8  C13 UNL     1       1.893  -1.129   2.000  1.00  0.00     0.020 C 
HETATM    9  C14 UNL     1       2.607   0.686   0.604  1.00  0.00     0.018 C 
ENDROOT
BRANCH   1  10
HETATM   10  C4  UNL     1      -0.750  -0.232   0.672  1.00  0.00    -0.058 C 
HETATM   11  C5  UNL     1      -1.082  -0.868   1.946  1.00  0.00     0.048 C 
BRANCH  10  12
HETATM   12  C3  UNL     1      -1.936   0.380  -0.062  1.00  0.00     0.015 C 
BRANCH  12  13
HETATM   13  C2  UNL     1      -3.112   0.288   0.514  1.00  0.00    -0.044 C 
HETATM   14  C1  UNL     1      -4.297   0.195   1.094  1.00  0.00     0.021 C 
BRANCH  13  15
HETATM   15  C15 UNL     1      -3.888   1.005  -1.025  1.00  0.00     0.201 C 
BRANCH  15  16
HETATM   16  O1  UNL     1      -4.430   2.083  -0.412  1.00  0.00    -0.396 OA
ATOM     17  H1  UNL     1      -4.825   2.448  -1.195  1.00  0.00     0.209 HD
ENDBRANCH  15  16
ENDBRANCH  13  15
ENDBRANCH  12  13
ENDBRANCH  10  12
ENDBRANCH   1  10
TORSDOF 5
