REMARK  13 active torsions:
REMARK  status: ('A' for Active; 'I' for Inactive)
REMARK    1  A    between atoms: C2_10  and  C3_11 
REMARK    2  A    between atoms: C4_14  and  C5_15 
REMARK    3  A    between atoms: C5_15  and  N6_20 
REMARK    4  A    between atoms: N5_16  and  O2_18 
REMARK    5  A    between atoms: N6_20  and  C6_22 
REMARK    6  A    between atoms: C9_25  and  S1_26 
REMARK    7  A    between atoms: S1_26  and  N7_27 
REMARK    8  A    between atoms: S1_26  and  N8_31 
REMARK    9  A    between atoms: C15_38  and  O5_39 
REMARK   10  A    between atoms: N10_43  and  C16_44 
REMARK   11  A    between atoms: C16_44  and  C17_45 
REMARK   12  A    between atoms: C17_45  and  C18_46 
REMARK   13  A    between atoms: C18_46  and  N11_47 
ROOT
HETATM    1  C5  UNL     1      -1.090  -2.260   0.989  1.00  0.00     0.172 C 
HETATM    2  N5  UNL     1      -0.843  -3.469   0.617  1.00  0.00    -0.250 N 
ATOM      3  H5  UNL     1       0.016  -3.907   0.951  1.00  0.00     0.196 HD
ENDROOT
BRANCH   1   4
HETATM    4  C4  UNL     1      -2.333  -1.655   0.494  1.00  0.00     0.168 A 
HETATM    5  N4  UNL     1      -3.474  -2.296   0.194  1.00  0.00    -0.321 N 
HETATM    6  C3  UNL     1      -4.393  -1.415  -0.228  1.00  0.00     0.157 A 
ATOM      7  H4  UNL     1      -3.620  -3.302   0.275  1.00  0.00     0.169 HD
HETATM    8  N10 UNL     1      -3.847  -0.199  -0.202  1.00  0.00    -0.273 N 
HETATM    9  N9  UNL     1      -2.585  -0.365   0.242  1.00  0.00    -0.278 N 
ATOM     10  H9  UNL     1      -1.912   0.391   0.369  1.00  0.00     0.189 HD
BRANCH   6  11
HETATM   11  C2  UNL     1      -5.749  -1.745  -0.639  1.00  0.00     0.147 A 
HETATM   12  C1  UNL     1      -6.328  -2.996  -0.670  1.00  0.00     0.154 A 
HETATM   13  N1  UNL     1      -5.848  -4.147  -0.360  1.00  0.00    -0.382 N 
HETATM   14  N2  UNL     1      -7.600  -2.783  -1.123  1.00  0.00    -0.224 N 
ATOM     15  H12 UNL     1      -6.276  -5.072  -0.383  1.00  0.00     0.157 HD
ATOM     16  H11 UNL     1      -4.899  -4.306  -0.022  1.00  0.00     0.157 HD
HETATM   17  O1  UNL     1      -7.753  -1.545  -1.335  1.00  0.00    -0.155 OA
ATOM     18  H2  UNL     1      -8.308  -3.503  -1.266  1.00  0.00     0.198 HD
HETATM   19  N3  UNL     1      -6.693  -0.901  -1.064  1.00  0.00    -0.234 N 
ATOM     20  H3  UNL     1      -6.579   0.108  -1.157  1.00  0.00     0.197 HD
ENDBRANCH   6  11
BRANCH   8  21
HETATM   21  C16 UNL     1      -4.422   1.098  -0.564  1.00  0.00     0.152 C 
BRANCH  21  22
HETATM   22  C17 UNL     1      -5.091   1.783   0.582  1.00  0.00     0.049 C 
BRANCH  22  23
HETATM   23  C18 UNL     1      -5.638   3.099   0.066  1.00  0.00     0.231 C 
BRANCH  23  24
HETATM   24  N11 UNL     1      -6.578   2.848  -0.985  1.00  0.00    -0.079 N 
ATOM     25 3H11 UNL     1      -6.179   2.278  -1.731  1.00  0.00     0.274 HD
ATOM     26 2H11 UNL     1      -7.319   2.210  -0.695  1.00  0.00     0.274 HD
ATOM     27 1H11 UNL     1      -6.946   3.734  -1.332  1.00  0.00     0.274 HD
ENDBRANCH  23  24
ENDBRANCH  22  23
ENDBRANCH  21  22
ENDBRANCH   8  21
ENDBRANCH   1   4
BRANCH   1  28
HETATM   28  N6  UNL     1      -0.185  -1.571   1.837  1.00  0.00    -0.336 N 
ATOM     29  H6  UNL     1      -0.316  -1.601   2.848  1.00  0.00     0.168 HD
BRANCH  28  30
HETATM   30  C6  UNL     1       0.911  -0.834   1.283  1.00  0.00     0.067 A 
HETATM   31  C7  UNL     1       1.072  -0.806  -0.087  1.00  0.00     0.034 A 
HETATM   32  C8  UNL     1       2.124  -0.099  -0.626  1.00  0.00     0.025 A 
HETATM   33  C9  UNL     1       3.023   0.582   0.153  1.00  0.00     0.056 A 
HETATM   34  C14 UNL     1       2.836   0.535   1.523  1.00  0.00     0.062 A 
HETATM   35  C15 UNL     1       1.796  -0.161   2.110  1.00  0.00     0.093 A 
BRANCH  33  36
HETATM   36  S1  UNL     1       4.363   1.486  -0.463  1.00  0.00     0.117 S 
HETATM   37  O3  UNL     1       4.001   1.998  -1.834  1.00  0.00    -0.229 OA
BRANCH  36  38
HETATM   38  N7  UNL     1       4.618   2.746   0.432  1.00  0.00    -0.345 N 
ATOM     39  H72 UNL     1       4.065   2.985   1.255  1.00  0.00     0.167 HD
ATOM     40  H71 UNL     1       5.408   3.279   0.069  1.00  0.00     0.167 HD
ENDBRANCH  36  38
BRANCH  36  41
HETATM   41  N8  UNL     1       5.787   0.540  -0.620  1.00  0.00    -0.220 NA
HETATM   42  C10 UNL     1       6.759   1.327  -1.360  1.00  0.00     0.132 C 
HETATM   43  C11 UNL     1       8.023   0.543  -1.631  1.00  0.00     0.183 C 
HETATM   44  O4  UNL     1       8.165  -0.529  -0.750  1.00  0.00    -0.389 OA
HETATM   45  C12 UNL     1       7.879  -0.045   0.528  1.00  0.00     0.183 C 
HETATM   46  C13 UNL     1       6.383   0.208   0.652  1.00  0.00     0.132 C 
ENDBRANCH  36  41
ENDBRANCH  33  36
BRANCH  35  47
HETATM   47  O5  UNL     1       1.598  -0.215   3.483  1.00  0.00    -0.358 OA
ATOM     48  H5  UNL     1       2.205   0.246   4.050  1.00  0.00     0.217 HD
ENDBRANCH  35  47
ENDBRANCH  28  30
ENDBRANCH   1  28
BRANCH   2  49
HETATM   49  O2  UNL     1      -1.656  -4.196  -0.192  1.00  0.00    -0.288 OA
ATOM     50  H2  UNL     1      -1.474  -5.087  -0.466  1.00  0.00     0.244 HD
ENDBRANCH   2  49
TORSDOF 13
