REMARK  14 active torsions:
REMARK  status: ('A' for Active; 'I' for Inactive)
REMARK    1  A    between atoms: N1_2  and  C2_4 
REMARK    2  A    between atoms: C3_7  and  N3_8 
REMARK    3  A    between atoms: N3_8  and  C5_10 
REMARK    4  A    between atoms: C5_10  and  C6_11 
REMARK    5  A    between atoms: C6_11  and  O1_12 
REMARK    6  A    between atoms: C6_11  and  O2_14 
REMARK    7  A    between atoms: C7_16  and  N4_17 
REMARK    8  A    between atoms: N4_17  and  C8_19 
REMARK    9  A    between atoms: C10_28  and  O3_29 
REMARK   10  A    between atoms: O3_29  and  C11_30 
REMARK   11  A    between atoms: C11_30  and  C13_32 
REMARK   12  A    between atoms: C13_32  and  O4_34 
REMARK   13  A    between atoms: C16_37  and  N8_38 
REMARK   14  A    between atoms: C18_44  and  O5_45 
ROOT
HETATM    1  C8  UNL     1      -0.134   0.264  -0.663  1.00  0.00     0.158 A 
HETATM    2  N5  UNL     1      -0.035   1.111  -1.709  1.00  0.00    -0.306 N 
ATOM      3  H5  UNL     1      -0.834   1.323  -2.307  1.00  0.00     0.176 HD
HETATM    4  S1  UNL     1       1.480   1.798  -1.973  1.00  0.00     0.024 SA
HETATM    5  C9  UNL     1       2.636   1.278  -0.834  1.00  0.00     0.169 A 
HETATM    6  N6  UNL     1       3.877   1.681  -0.847  1.00  0.00    -0.378 N 
ATOM      7  H61 UNL     1       4.569   1.370  -0.165  1.00  0.00     0.158 HD
ATOM      8  H62 UNL     1       4.232   2.336  -1.543  1.00  0.00     0.158 HD
HETATM    9  N7  UNL     1       2.165   0.409   0.089  1.00  0.00    -0.253 N 
HETATM   10  C10 UNL     1       3.115  -0.006   1.009  1.00  0.00     0.156 A 
HETATM   11  C15 UNL     1       2.799  -0.889   2.015  1.00  0.00     0.104 A 
HETATM   12  C16 UNL     1       1.490  -1.352   2.076  1.00  0.00     0.104 A 
HETATM   13  N9  UNL     1       0.621  -0.922   1.168  1.00  0.00    -0.325 N 
ATOM     14  H9  UNL     1      -0.337  -1.268   1.221  1.00  0.00     0.169 HD
HETATM   15  C17 UNL     1       0.930  -0.046   0.169  1.00  0.00     0.163 A 
ENDROOT
BRANCH   1  16
HETATM   16  N4  UNL     1      -1.286  -0.279  -0.458  1.00  0.00    -0.332 N 
ATOM     17  H4  UNL     1      -1.337  -0.915   0.338  1.00  0.00     0.168 HD
BRANCH  16  18
HETATM   18  C7  UNL     1      -2.467  -0.117  -1.172  1.00  0.00     0.131 A 
HETATM   19  C3  UNL     1      -3.546   0.589  -0.658  1.00  0.00     0.150 A 
HETATM   20  N2  UNL     1      -4.689   0.711  -1.405  1.00  0.00    -0.174 N 
HETATM   21  C2  UNL     1      -4.772   0.154  -2.624  1.00  0.00     0.681 A 
ATOM     22  H2  UNL     1      -5.484   1.230  -1.031  1.00  0.00     0.186 HD
HETATM   23  N10 UNL     1      -3.749  -0.538  -3.156  1.00  0.00    -0.168 N 
HETATM   24  C18 UNL     1      -2.610  -0.667  -2.427  1.00  0.00     0.188 A 
ATOM     25  H10 UNL     1      -3.826  -0.955  -4.083  1.00  0.00     0.186 HD
BRANCH  19  26
HETATM   26  N3  UNL     1      -3.404   1.165   0.622  1.00  0.00    -0.365 N 
HETATM   27  C4  UNL     1      -2.555   2.349   0.749  1.00  0.00     0.151 C 
BRANCH  26  28
HETATM   28  C5  UNL     1      -3.995   0.688   1.829  1.00  0.00     0.184 C 
BRANCH  28  29
HETATM   29  C6  UNL     1      -4.858  -0.515   1.750  1.00  0.00     0.271 C 
BRANCH  29  30
HETATM   30  O1  UNL     1      -5.986  -0.388   0.957  1.00  0.00    -0.370 OA
ATOM     31  H1  UNL     1      -6.539  -1.159   0.906  1.00  0.00     0.212 HD
ENDBRANCH  29  30
BRANCH  29  32
HETATM   32  O2  UNL     1      -5.220  -0.878   3.069  1.00  0.00    -0.370 OA
ATOM     33  H2  UNL     1      -5.773  -1.649   3.018  1.00  0.00     0.212 HD
ENDBRANCH  29  32
ENDBRANCH  28  29
ENDBRANCH  26  28
ENDBRANCH  19  26
BRANCH  21  34
HETATM   34  N1  UNL     1      -5.843   0.262  -3.336  1.00  0.00    -0.230 N 
HETATM   35  C1  UNL     1      -7.016   0.983  -2.877  1.00  0.00     0.165 C 
ATOM     36  H1  UNL     1      -5.866  -0.176  -4.257  1.00  0.00     0.177 HD
ENDBRANCH  21  34
BRANCH  24  37
HETATM   37  O5  UNL     1      -1.552  -1.381  -2.969  1.00  0.00    -0.339 OA
HETATM   38  C19 UNL     1      -1.584  -2.790  -2.800  1.00  0.00     0.211 C 
ENDBRANCH  24  37
ENDBRANCH  16  18
ENDBRANCH   1  16
BRANCH  10  39
HETATM   39  O3  UNL     1       4.400   0.480   0.910  1.00  0.00    -0.328 OA
BRANCH  39  40
HETATM   40  C11 UNL     1       5.490   0.201   1.713  1.00  0.00     0.154 C 
HETATM   41  C12 UNL     1       6.090   1.495   2.285  1.00  0.00     0.042 C 
BRANCH  40  42
HETATM   42  C13 UNL     1       6.617  -0.461   0.887  1.00  0.00     0.143 C 
HETATM   43  C14 UNL     1       7.802  -0.654   1.771  1.00  0.00     0.042 C 
BRANCH  42  44
HETATM   44  O4  UNL     1       6.100  -1.626   0.366  1.00  0.00    -0.393 OA
ATOM     45  H4  UNL     1       6.792  -2.033  -0.142  1.00  0.00     0.210 HD
ENDBRANCH  42  44
ENDBRANCH  40  42
ENDBRANCH  39  40
ENDBRANCH  10  39
BRANCH  12  46
HETATM   46  N8  UNL     1       1.170  -2.189   3.020  1.00  0.00    -0.385 N 
ATOM     47  H82 UNL     1       1.837  -2.519   3.717  1.00  0.00     0.157 HD
ATOM     48  H81 UNL     1       0.209  -2.529   3.065  1.00  0.00     0.157 HD
ENDBRANCH  12  46
TORSDOF 14
