REMARK  18 active torsions:
REMARK  status: ('A' for Active; 'I' for Inactive)
REMARK    1  A    between atoms: C2_2  and  O1_3 
REMARK    2  A    between atoms: C2_2  and  N1_5 
REMARK    3  A    between atoms: N1_5  and  S1_6 
REMARK    4  A    between atoms: N1_5  and  C15_47 
REMARK    5  A    between atoms: S1_6  and  C3_7 
REMARK    6  A    between atoms: C5_10  and  O2_11 
REMARK    7  A    between atoms: C9_23  and  N6_24 
REMARK    8  A    between atoms: N6_24  and  C10_26 
REMARK    9  A    between atoms: C10_26  and  C11_27 
REMARK   10  A    between atoms: C10_26  and  C12_29 
REMARK   11  A    between atoms: C12_29  and  N10_36 
REMARK   12  A    between atoms: N7_30  and  N8_32 
REMARK   13  A    between atoms: N8_32  and  N9_33 
REMARK   14  A    between atoms: N10_36  and  C13_38 
REMARK   15  A    between atoms: C13_38  and  N11_39 
REMARK   16  A    between atoms: C13_38  and  O3_43 
REMARK   17  A    between atoms: C15_47  and  O5_48 
REMARK   18  A    between atoms: C15_47  and  O6_50 
ROOT
HETATM    1  C3  UNL     1       3.154  -0.746  -0.335  1.00  0.00     0.087 C 
HETATM    2  C4  UNL     1       2.432  -1.725  -0.997  1.00  0.00     0.102 C 
HETATM    3  N2  UNL     1       3.148  -2.835  -1.466  1.00  0.00    -0.098 NA
HETATM    4  C5  UNL     1       1.054  -1.753  -1.272  1.00  0.00     0.109 C 
HETATM    5  C6  UNL     1       0.130  -1.037  -0.558  1.00  0.00     0.097 A 
HETATM    6  C7  UNL     1       0.248   0.157   0.145  1.00  0.00     0.125 A 
HETATM    7  N3  UNL     1       1.390   0.895   0.272  1.00  0.00    -0.327 N 
ATOM      8  H3  UNL     1       1.298   1.908   0.345  1.00  0.00     0.169 HD
HETATM    9  C8  UNL     1       2.649   0.361   0.308  1.00  0.00     0.120 C 
HETATM   10  N4  UNL     1       3.517   0.964   1.049  1.00  0.00    -0.384 N 
ATOM     11  H41 UNL     1       3.143   1.784   1.526  1.00  0.00     0.157 HD
ATOM     12  H42 UNL     1       4.456   0.566   1.076  1.00  0.00     0.157 HD
HETATM   13  N5  UNL     1      -1.010   0.461   0.699  1.00  0.00    -0.325 N 
ATOM     14  H5  UNL     1      -1.196   1.289   1.264  1.00  0.00     0.169 HD
HETATM   15  C9  UNL     1      -1.889  -0.416   0.414  1.00  0.00     0.155 A 
HETATM   16  C14 UNL     1      -1.261  -1.455  -0.410  1.00  0.00     0.232 A 
HETATM   17  O4  UNL     1      -1.799  -2.490  -0.891  1.00  0.00    -0.283 OA
ENDROOT
BRANCH  15  18
HETATM   18  N6  UNL     1      -3.290  -0.463   0.794  1.00  0.00    -0.361 N 
ATOM     19  H6  UNL     1      -3.639  -1.290   1.279  1.00  0.00     0.162 HD
BRANCH  18  20
HETATM   20  C10 UNL     1      -4.185   0.589   0.519  1.00  0.00     0.163 C 
BRANCH  20  21
HETATM   21  C11 UNL     1      -4.382   0.831  -0.972  1.00  0.00     0.119 C 
HETATM   22  S2  UNL     1      -5.030  -0.614  -1.811  1.00  0.00    -0.095 SA
ENDBRANCH  20  21
BRANCH  20  23
HETATM   23  C12 UNL     1      -5.494   0.427   1.170  1.00  0.00     0.132 C 
HETATM   24  N7  UNL     1      -5.899  -0.373   2.017  1.00  0.00    -0.202 N 
ATOM     25  H7  UNL     1      -6.876  -0.144   2.201  1.00  0.00     0.205 HD
BRANCH  24  26
HETATM   26  N8  UNL     1      -5.603  -1.364   2.755  1.00  0.00    -0.242 NA
BRANCH  26  27
HETATM   27  N9  UNL     1      -5.366  -2.231   3.419  1.00  0.00    -0.260 N 
ATOM     28  H92 UNL     1      -6.172  -1.609   3.474  1.00  0.00     0.193 HD
ATOM     29  H91 UNL     1      -5.128  -3.027   4.011  1.00  0.00     0.193 HD
ENDBRANCH  26  27
ENDBRANCH  24  26
BRANCH  23  30
HETATM   30  N10 UNL     1      -6.518   1.414   0.764  1.00  0.00    -0.328 N 
ATOM     31  H10 UNL     1      -6.225   2.337   0.443  1.00  0.00     0.165 HD
BRANCH  30  32
HETATM   32  C13 UNL     1      -7.914   1.096   0.814  1.00  0.00     0.424 C 
BRANCH  32  33
HETATM   33  N11 UNL     1      -8.667   2.257   0.360  1.00  0.00    -0.035 N 
ATOM     34 3H11 UNL     1      -8.438   3.102   0.884  1.00  0.00     0.279 HD
ATOM     35 2H11 UNL     1      -8.371   2.580  -0.561  1.00  0.00     0.279 HD
ATOM     36 1H11 UNL     1      -9.661   2.031   0.396  1.00  0.00     0.279 HD
ENDBRANCH  32  33
BRANCH  32  37
HETATM   37  O3  UNL     1      -8.193   0.049  -0.045  1.00  0.00    -0.355 OA
ATOM     38  H3  UNL     1      -9.119  -0.162  -0.012  1.00  0.00     0.213 HD
ENDBRANCH  32  37
ENDBRANCH  30  32
ENDBRANCH  23  30
ENDBRANCH  20  23
ENDBRANCH  18  20
ENDBRANCH  15  18
BRANCH   4  39
HETATM   39  O2  UNL     1       0.625  -2.530  -2.294  1.00  0.00    -0.358 OA
ATOM     40  H2  UNL     1      -0.306  -2.549  -2.480  1.00  0.00     0.217 HD
ENDBRANCH   4  39
BRANCH   1  41
HETATM   41  S1  UNL     1       4.919  -1.015  -0.363  1.00  0.00    -0.030 SA
BRANCH  41  42
HETATM   42  N1  UNL     1       5.778   0.267   0.493  1.00  0.00    -0.176 NA
BRANCH  42  43
HETATM   43  C2  UNL     1       6.403   1.100  -0.505  1.00  0.00     0.204 C 
HETATM   44  C1  UNL     1       7.177   2.247   0.067  1.00  0.00     0.057 C 
BRANCH  43  45
HETATM   45  O1  UNL     1       7.224   0.400  -1.371  1.00  0.00    -0.381 OA
ATOM     46  H1  UNL     1       6.733  -0.328  -1.734  1.00  0.00     0.211 HD
ENDBRANCH  43  45
ENDBRANCH  42  43
BRANCH  42  47
HETATM   47  C15 UNL     1       6.733  -0.375   1.367  1.00  0.00     0.351 C 
BRANCH  47  48
HETATM   48  O5  UNL     1       7.516   0.506   2.066  1.00  0.00    -0.358 OA
ATOM     49  H5  UNL     1       8.144   0.084   2.641  1.00  0.00     0.214 HD
ENDBRANCH  47  48
BRANCH  47  50
HETATM   50  O6  UNL     1       7.476  -1.304   0.632  1.00  0.00    -0.358 OA
ATOM     51  H6  UNL     1       8.104  -1.726   1.207  1.00  0.00     0.214 HD
ENDBRANCH  47  50
ENDBRANCH  42  47
ENDBRANCH  41  42
ENDBRANCH   1  41
TORSDOF 18
