REMARK  4 active torsions:
REMARK  status: ('A' for Active; 'I' for Inactive)
REMARK    1  A    between atoms: S1_2  and  C2_3 
REMARK    2  A    between atoms: C2_3  and  C3_4 
REMARK    3  A    between atoms: C3_4  and  C4_5 
REMARK    4  A    between atoms: C8_10  and  O2_11 
ROOT
HETATM    1  C4  UNL     1      -0.068   0.205  -0.639  1.00  0.00     0.039 C 
HETATM    2  C5  UNL     1      -0.413  -0.205   0.760  1.00  0.00     0.042 C 
HETATM    3  C6  UNL     1      -1.866  -0.175   1.093  1.00  0.00     0.121 C 
HETATM    4  C7  UNL     1      -2.059   0.572   2.406  1.00  0.00     0.040 C 
HETATM    5  O1  UNL     1      -2.663   0.452   0.150  1.00  0.00    -0.351 OA
HETATM    6  C8  UNL     1      -2.505  -0.254  -1.060  1.00  0.00     0.304 C 
HETATM    7  C9  UNL     1      -1.195   0.161  -1.575  1.00  0.00     0.039 C 
HETATM    8  N1  UNL     1      -1.058   0.466  -2.784  1.00  0.00    -0.401 N 
ATOM      9  H11 UNL     1      -1.842   0.435  -3.435  1.00  0.00     0.155 HD
ATOM     10  H12 UNL     1      -0.147   0.754  -3.142  1.00  0.00     0.155 HD
ENDROOT
BRANCH   1  11
HETATM   11  C3  UNL     1       0.996  -0.765  -1.176  1.00  0.00     0.021 C 
BRANCH  11  12
HETATM   12  C2  UNL     1       2.217  -0.675  -0.272  1.00  0.00     0.074 C 
BRANCH  12  13
HETATM   13  S1  UNL     1       2.898   0.996  -0.246  1.00  0.00    -0.173 SA
HETATM   14  C1  UNL     1       4.342   0.981   0.859  1.00  0.00     0.089 C 
ENDBRANCH  12  13
ENDBRANCH  11  12
ENDBRANCH   1  11
BRANCH   6  15
HETATM   15  O2  UNL     1      -3.517   0.063  -1.960  1.00  0.00    -0.366 OA
ATOM     16  H2  UNL     1      -3.411  -0.413  -2.775  1.00  0.00     0.213 HD
ENDBRANCH   6  15
TORSDOF 4
