REMARK  4 active torsions:
REMARK  status: ('A' for Active; 'I' for Inactive)
REMARK    1  A    between atoms: N2_5  and  C2_6 
REMARK    2  A    between atoms: C2_6  and  C3_7 
REMARK    3  A    between atoms: C3_7  and  N3_8 
REMARK    4  A    between atoms: C5_13  and  N4_14 
ROOT
HETATM    1  N1  UNL     1       0.708  -2.537  -1.728  1.00  0.00    -0.235 N 
ATOM      2  H11 UNL     1       0.359  -3.312  -2.292  1.00  0.00     0.174 HD
ATOM      3  H12 UNL     1       1.638  -2.813  -2.044  1.00  0.00     0.174 HD
HETATM    4  C1  UNL     1       0.191  -1.629  -0.968  1.00  0.00     0.675 C 
HETATM    5  N2  UNL     1       0.681  -0.542  -0.176  1.00  0.00    -0.193 N 
HETATM    6  C4  UNL     1      -0.547   0.130  -0.439  1.00  0.00     0.252 C 
HETATM    7  C5  UNL     1      -1.354   0.676   0.708  1.00  0.00     0.228 C 
HETATM    8  C6  UNL     1      -2.751   0.172   0.283  1.00  0.00     0.057 C 
HETATM    9  C7  UNL     1      -2.473  -1.232  -0.130  1.00  0.00     0.146 C 
HETATM   10  N5  UNL     1      -1.095  -1.247  -0.531  1.00  0.00    -0.194 N 
ENDROOT
BRANCH   5  11
HETATM   11  C2  UNL     1       1.919  -0.356   0.522  1.00  0.00     0.170 C 
BRANCH  11  12
HETATM   12  C3  UNL     1       2.681   0.749  -0.221  1.00  0.00     0.250 C 
BRANCH  12  13
HETATM   13  N3  UNL     1       3.955   1.023   0.362  1.00  0.00    -0.078 N 
ATOM     14  H33 UNL     1       3.865   1.243   1.354  1.00  0.00     0.274 HD
ATOM     15  H32 UNL     1       4.516   0.174   0.433  1.00  0.00     0.274 HD
ATOM     16  H31 UNL     1       4.462   1.758  -0.132  1.00  0.00     0.274 HD
ENDBRANCH  12  13
ENDBRANCH  11  12
ENDBRANCH   5  11
BRANCH   7  17
HETATM   17  N4  UNL     1      -1.454   2.127   0.656  1.00  0.00    -0.071 N 
ATOM     18  H43 UNL     1      -0.532   2.561   0.610  1.00  0.00     0.274 HD
ATOM     19  H42 UNL     1      -1.823   2.442  -0.241  1.00  0.00     0.274 HD
ATOM     20  H41 UNL     1      -2.001   2.497   1.433  1.00  0.00     0.274 HD
ENDBRANCH   7  17
TORSDOF 4
