REMARK  13 active torsions:
REMARK  status: ('A' for Active; 'I' for Inactive)
REMARK    1  A    between atoms: C7_7  and  O1_8 
REMARK    2  A    between atoms: C11_14  and  C12_15 
REMARK    3  A    between atoms: C12_15  and  C14_17 
REMARK    4  A    between atoms: C14_17  and  C15_18 
REMARK    5  A    between atoms: C15_18  and  C16_19 
REMARK    6  A    between atoms: C16_19  and  C17_20 
REMARK    7  A    between atoms: C17_20  and  C18_21 
REMARK    8  A    between atoms: C18_21  and  C19_22 
REMARK    9  A    between atoms: C19_22  and  C20_23 
REMARK   10  A    between atoms: C20_23  and  C21_24 
REMARK   11  A    between atoms: C21_24  and  C22_25 
REMARK   12  A    between atoms: C24_27  and  O3_28 
REMARK   13  A    between atoms: C25_30  and  O4_31 
ROOT
HETATM    1  C14 UNL     1       2.047   2.014  -2.449  1.00  0.00     0.007 C 
ENDROOT
BRANCH   1   2
HETATM    2  C12 UNL     1       2.569   0.605  -2.529  1.00  0.00     0.011 C 
HETATM    3  C13 UNL     1       3.099   0.398  -3.965  1.00  0.00     0.012 C 
BRANCH   2   4
HETATM    4  C11 UNL     1       3.739   0.426  -1.640  1.00  0.00     0.137 C 
HETATM    5  C10 UNL     1       4.373  -0.954  -1.778  1.00  0.00     0.074 C 
HETATM    6  C4  UNL     1       5.206  -1.010  -0.551  1.00  0.00    -0.021 A 
HETATM    7  C3  UNL     1       4.623  -0.143   0.349  1.00  0.00     0.084 A 
HETATM    8  C5  UNL     1       6.339  -1.704  -0.190  1.00  0.00     0.027 A 
HETATM    9  C2  UNL     1       5.214  -0.011   1.586  1.00  0.00     0.007 A 
HETATM   10  O6  UNL     1       3.488   0.438  -0.255  1.00  0.00    -0.344 OA
HETATM   11  C1  UNL     1       4.613   0.917   2.585  1.00  0.00     0.054 C 
HETATM   12  C9  UNL     1       6.349  -0.695   1.971  1.00  0.00     0.096 A 
HETATM   13  C6  UNL     1       6.925  -1.564   1.058  1.00  0.00     0.034 A 
HETATM   14  O2  UNL     1       7.090  -0.755   3.044  1.00  0.00    -0.318 OA
HETATM   15  C7  UNL     1       8.036  -2.135   1.643  1.00  0.00     0.101 A 
HETATM   16  C8  UNL     1       8.090  -1.583   2.905  1.00  0.00     0.179 A 
BRANCH  15  17
HETATM   17  O1  UNL     1       8.918  -3.060   1.104  1.00  0.00    -0.358 OA
ATOM     18  H1  UNL     1       9.683  -3.453   1.507  1.00  0.00     0.217 HD
ENDBRANCH  15  17
ENDBRANCH   2   4
ENDBRANCH   1   2
BRANCH   1  19
HETATM   19  C15 UNL     1       1.555   2.458  -1.116  1.00  0.00     0.000 C 
BRANCH  19  20
HETATM   20  C16 UNL     1       0.392   1.631  -0.609  1.00  0.00     0.000 C 
BRANCH  20  21
HETATM   21  C17 UNL     1      -0.749   1.762  -1.570  1.00  0.00     0.000 C 
BRANCH  21  22
HETATM   22  C18 UNL     1      -1.932   0.950  -1.116  1.00  0.00     0.000 C 
BRANCH  22  23
HETATM   23  C19 UNL     1      -2.416   1.404   0.229  1.00  0.00     0.000 C 
BRANCH  23  24
HETATM   24  C20 UNL     1      -3.623   0.604   0.691  1.00  0.00     0.002 C 
BRANCH  24  25
HETATM   25  C21 UNL     1      -4.793   0.723  -0.252  1.00  0.00     0.032 C 
BRANCH  25  26
HETATM   26  C22 UNL     1      -5.918  -0.115   0.323  1.00  0.00     0.124 C 
HETATM   27  C23 UNL     1      -6.302   0.388   1.697  1.00  0.00     0.066 C 
HETATM   28  C24 UNL     1      -7.624  -0.301   2.046  1.00  0.00     0.151 C 
HETATM   29  C25 UNL     1      -7.508  -1.787   1.860  1.00  0.00     0.170 C 
HETATM   30  C26 UNL     1      -6.720  -2.191   0.658  1.00  0.00     0.202 C 
HETATM   31  O5  UNL     1      -5.566  -1.452   0.461  1.00  0.00    -0.383 OA
BRANCH  28  32
HETATM   32  O3  UNL     1      -8.585   0.265   1.218  1.00  0.00    -0.393 OA
ATOM     33  H3  UNL     1      -9.405  -0.163   1.435  1.00  0.00     0.210 HD
ENDBRANCH  28  32
BRANCH  29  34
HETATM   34  O4  UNL     1      -8.821  -2.273   1.675  1.00  0.00    -0.391 OA
ATOM     35  H4  UNL     1      -8.748  -3.213   1.557  1.00  0.00     0.210 HD
ENDBRANCH  29  34
ENDBRANCH  25  26
ENDBRANCH  24  25
ENDBRANCH  23  24
ENDBRANCH  22  23
ENDBRANCH  21  22
ENDBRANCH  20  21
ENDBRANCH  19  20
ENDBRANCH   1  19
TORSDOF 13
