REMARK  10 active torsions:
REMARK  status: ('A' for Active; 'I' for Inactive)
REMARK    1  A    between atoms: C2_2  and  N1_3 
REMARK       I    between atoms: N1_3  and  C3_5 
REMARK    2  A    between atoms: C3_5  and  C4_7 
REMARK    3  A    between atoms: C4_7  and  O2_8 
REMARK    4  A    between atoms: C4_7  and  C5_10 
REMARK    5  A    between atoms: C5_10  and  O3_11 
REMARK    6  A    between atoms: C5_10  and  C6_13 
REMARK    7  A    between atoms: C6_13  and  N2_14 
REMARK    8  A    between atoms: C10_18  and  N3_19 
REMARK    9  A    between atoms: C13_24  and  C14_25 
REMARK   10  A    between atoms: C17_37  and  N10_38 
ROOT
HETATM    1  N2  UNL     1      -1.421  -0.659  -1.707  1.00  0.00    -0.340 N 
HETATM    2  C7  UNL     1      -0.699  -1.674  -1.203  1.00  0.00     0.094 A 
HETATM    3  C8  UNL     1       0.609  -1.216  -1.067  1.00  0.00     0.036 A 
HETATM    4  C9  UNL     1       0.674   0.088  -1.494  1.00  0.00     0.057 A 
HETATM    5  C10 UNL     1       1.691   1.012  -1.581  1.00  0.00     0.160 A 
HETATM    6  N9  UNL     1       1.390   2.231  -2.060  1.00  0.00    -0.174 N 
ATOM      7  H9  UNL     1       2.125   2.934  -2.135  1.00  0.00     0.186 HD
HETATM    8  C17 UNL     1       0.120   2.546  -2.448  1.00  0.00     0.679 A 
HETATM    9  N11 UNL     1      -0.859   1.633  -2.357  1.00  0.00    -0.176 N 
ATOM     10  H11 UNL     1      -1.803   1.883  -2.651  1.00  0.00     0.186 HD
HETATM   11  C18 UNL     1      -0.627   0.410  -1.892  1.00  0.00     0.137 A 
ENDROOT
BRANCH   5  12
HETATM   12  N3  UNL     1       2.994   0.619  -1.158  1.00  0.00    -0.201 N 
HETATM   13  N4  UNL     1       4.068   0.551  -1.925  1.00  0.00    -0.293 N 
HETATM   14  C11 UNL     1       5.138   0.146  -1.223  1.00  0.00     0.042 A 
ATOM     15  H4  UNL     1       4.082   0.777  -2.920  1.00  0.00     0.187 HD
HETATM   16  C12 UNL     1       6.538  -0.056  -1.727  1.00  0.00     0.071 C 
HETATM   17  C13 UNL     1       4.726  -0.060   0.078  1.00  0.00     0.104 A 
HETATM   18  C16 UNL     1       3.394   0.244   0.074  1.00  0.00     0.284 A 
HETATM   19  O4  UNL     1       2.643   0.182   1.079  1.00  0.00    -0.265 OA
BRANCH  17  20
HETATM   20  C14 UNL     1       5.546  -0.506   1.200  1.00  0.00     0.152 A 
HETATM   21  N5  UNL     1       5.735  -1.792   1.544  1.00  0.00    -0.266 N 
HETATM   22  N6  UNL     1       6.539  -1.814   2.613  1.00  0.00    -0.003 NA
ATOM     23  H5  UNL     1       5.337  -2.605   1.074  1.00  0.00     0.186 HD
HETATM   24  N7  UNL     1       6.858  -0.577   2.949  1.00  0.00    -0.221 N 
HETATM   25  C15 UNL     1       7.718  -0.256   4.070  1.00  0.00     0.197 C 
HETATM   26  N8  UNL     1       6.251   0.219   2.085  1.00  0.00    -0.269 N 
ATOM     27  H8  UNL     1       6.310   1.237   2.090  1.00  0.00     0.190 HD
ENDBRANCH  17  20
ENDBRANCH   5  12
BRANCH   8  28
HETATM   28  N10 UNL     1      -0.187   3.710  -2.910  1.00  0.00    -0.234 N 
ATOM     29 2H10 UNL     1       0.557   4.404  -2.979  1.00  0.00     0.174 HD
ATOM     30 1H10 UNL     1      -1.136   3.945  -3.200  1.00  0.00     0.174 HD
ENDBRANCH   8  28
BRANCH   1  31
HETATM   31  C6  UNL     1      -2.837  -0.712  -2.004  1.00  0.00     0.164 C 
BRANCH  31  32
HETATM   32  C5  UNL     1      -3.668  -0.289  -0.811  1.00  0.00     0.174 C 
BRANCH  32  33
HETATM   33  C4  UNL     1      -5.147  -0.344  -1.119  1.00  0.00     0.240 C 
BRANCH  33  34
HETATM   34  C3  UNL     1      -5.882   0.193   0.053  1.00  0.00     0.249 C 
HETATM   35  N1  UNL     1      -6.845  -0.601   0.741  1.00  0.00    -0.359 N 
ATOM     36  H1  UNL     1      -7.020  -1.550   0.411  1.00  0.00     0.162 HD
HETATM   37  O1  UNL     1      -5.681   1.359   0.474  1.00  0.00    -0.271 OA
BRANCH  35  38
HETATM   38  C2  UNL     1      -7.580  -0.124   1.879  1.00  0.00     0.118 C 
HETATM   39  C1  UNL     1      -6.643   0.263   3.020  1.00  0.00     0.026 C 
ENDBRANCH  35  38
ENDBRANCH  33  34
BRANCH  33  40
HETATM   40  O2  UNL     1      -5.547  -1.657  -1.392  1.00  0.00    -0.383 OA
ATOM     41  H2  UNL     1      -5.076  -2.001  -2.142  1.00  0.00     0.210 HD
ENDBRANCH  33  40
ENDBRANCH  32  33
BRANCH  32  42
HETATM   42  O3  UNL     1      -3.438  -1.091   0.301  1.00  0.00    -0.391 OA
ATOM     43  H3  UNL     1      -2.509  -1.056   0.495  1.00  0.00     0.210 HD
ENDBRANCH  32  42
ENDBRANCH  31  32
ENDBRANCH   1  31
TORSDOF 10
