REMARK  12 active torsions:
REMARK  status: ('A' for Active; 'I' for Inactive)
REMARK    1  A    between atoms: C2_2  and  C3_3 
REMARK    2  A    between atoms: C3_3  and  C4_4 
REMARK    3  A    between atoms: C4_4  and  C5_5 
REMARK    4  A    between atoms: C7_7  and  N1_8 
REMARK    5  A    between atoms: N1_8  and  C8_10 
REMARK    6  A    between atoms: C10_12  and  O1_13 
REMARK    7  A    between atoms: O1_13  and  C11_14 
REMARK    8  A    between atoms: C11_14  and  C12_15 
REMARK    9  A    between atoms: N4_24  and  C18_26 
REMARK   10  A    between atoms: C18_26  and  C19_27 
REMARK   11  A    between atoms: C19_27  and  C20_28 
REMARK   12  A    between atoms: C20_28  and  N5_29 
ROOT
HETATM    1  C8  UNL     1      -2.130   0.202   0.982  1.00  0.00     0.126 A 
HETATM    2  C9  UNL     1      -2.878  -0.893   0.751  1.00  0.00     0.105 A 
HETATM    3  C10 UNL     1      -2.283  -2.127   0.368  1.00  0.00     0.161 A 
HETATM    4  N3  UNL     1      -0.916  -2.110   0.266  1.00  0.00    -0.171 N 
ATOM      5  H3  UNL     1      -0.437  -2.970  -0.000  1.00  0.00     0.186 HD
HETATM    6  C17 UNL     1      -0.186  -1.024   0.498  1.00  0.00     0.681 A 
HETATM    7  N4  UNL     1       1.118  -0.969   0.358  1.00  0.00    -0.225 N 
ATOM      8  H4  UNL     1       1.612  -1.802   0.037  1.00  0.00     0.177 HD
HETATM    9  N7  UNL     1      -0.797   0.168   0.865  1.00  0.00    -0.177 N 
ATOM     10  H7  UNL     1      -0.239   1.003   1.042  1.00  0.00     0.186 HD
ENDROOT
BRANCH   7  11
HETATM   11  C18 UNL     1       1.867   0.202   0.635  1.00  0.00     0.149 C 
BRANCH  11  12
HETATM   12  C19 UNL     1       3.260   0.242   0.044  1.00  0.00     0.006 C 
HETATM   13  C26 UNL     1       3.938  -1.013  -0.117  1.00  0.00     0.039 C 
HETATM   14  C27 UNL     1       4.944  -1.087  -1.246  1.00  0.00     0.168 C 
HETATM   15  O2  UNL     1       4.522  -0.566  -2.452  1.00  0.00    -0.391 OA
HETATM   16  C28 UNL     1       4.022   0.704  -2.355  1.00  0.00     0.168 C 
HETATM   17  C29 UNL     1       2.847   0.678  -1.446  1.00  0.00     0.039 C 
BRANCH  12  18
HETATM   18  C20 UNL     1       3.915   1.489   0.595  1.00  0.00     0.283 C 
BRANCH  18  19
HETATM   19  N5  UNL     1       5.335   1.513   0.308  1.00  0.00     0.092 N 
HETATM   20  C21 UNL     1       5.911   2.873   0.390  1.00  0.00     0.302 C 
HETATM   21  C22 UNL     1       7.362   2.653  -0.060  1.00  0.00     0.302 C 
HETATM   22  N6  UNL     1       8.122   1.769   0.750  1.00  0.00     0.087 N 
HETATM   23  C23 UNL     1       9.142   1.135  -0.059  1.00  0.00     0.310 C 
HETATM   24  C24 UNL     1       7.379   0.704   1.370  1.00  0.00     0.302 C 
HETATM   25  C25 UNL     1       5.961   0.959   1.590  1.00  0.00     0.302 C 
ENDBRANCH  18  19
ENDBRANCH  12  18
ENDBRANCH  11  12
ENDBRANCH   7  11
BRANCH   3  26
HETATM   26  O1  UNL     1      -3.067  -3.143   0.162  1.00  0.00    -0.333 OA
BRANCH  26  27
HETATM   27  C11 UNL     1      -3.839  -4.146  -0.040  1.00  0.00     0.213 C 
BRANCH  27  28
HETATM   28  C12 UNL     1      -3.337  -5.433   0.649  1.00  0.00     0.246 C 
HETATM   29  C13 UNL     1      -4.369  -6.441   0.843  1.00  0.00     0.040 C 
HETATM   30  C14 UNL     1      -4.114  -7.408  -0.289  1.00  0.00     0.032 C 
HETATM   31  C15 UNL     1      -2.938  -6.812  -1.071  1.00  0.00     0.272 C 
HETATM   32  N2  UNL     1      -2.245  -5.933  -0.115  1.00  0.00     0.090 N 
HETATM   33  C16 UNL     1      -1.184  -6.634   0.513  1.00  0.00     0.310 C 
ENDBRANCH  27  28
ENDBRANCH  26  27
ENDBRANCH   3  26
BRANCH   1  34
HETATM   34  N1  UNL     1      -2.649   1.519   1.288  1.00  0.00    -0.327 N 
ATOM     35  H1  UNL     1      -2.366   2.017   2.132  1.00  0.00     0.169 HD
BRANCH  34  36
HETATM   36  C7  UNL     1      -3.505   2.052   0.431  1.00  0.00     0.123 A 
HETATM   37  C6  UNL     1      -4.069   3.284   0.561  1.00  0.00     0.076 A 
HETATM   38  C5  UNL     1      -4.949   3.471  -0.501  1.00  0.00     0.029 A 
HETATM   39  N9  UNL     1      -4.889   2.366  -1.227  1.00  0.00    -0.303 N 
HETATM   40  N8  UNL     1      -4.035   1.520  -0.685  1.00  0.00    -0.285 N 
ATOM     41  H9  UNL     1      -5.424   2.194  -2.079  1.00  0.00     0.186 HD
ATOM     42  H8  UNL     1      -3.809   0.598  -1.057  1.00  0.00     0.188 HD
BRANCH  38  43
HETATM   43  C4  UNL     1      -5.697   4.711  -0.725  1.00  0.00     0.058 C 
BRANCH  43  44
HETATM   44  C3  UNL     1      -6.907   4.674   0.211  1.00  0.00     0.006 C 
BRANCH  44  45
HETATM   45  C2  UNL     1      -7.647   6.005   0.132  1.00  0.00    -0.004 C 
HETATM   46  C1  UNL     1      -6.725   7.140   0.529  1.00  0.00     0.005 C 
ENDBRANCH  44  45
ENDBRANCH  43  44
ENDBRANCH  38  43
ENDBRANCH  34  36
ENDBRANCH   1  34
TORSDOF 12
