REMARK  14 active torsions:
REMARK  status: ('A' for Active; 'I' for Inactive)
REMARK    1  A    between atoms: O1_2  and  C2_3 
REMARK    2  A    between atoms: C7_10  and  N2_11 
REMARK    3  A    between atoms: N2_11  and  C8_12 
REMARK    4  A    between atoms: C8_12  and  C9_13 
REMARK    5  A    between atoms: C9_13  and  C10_14 
REMARK    6  A    between atoms: C10_14  and  N3_15 
REMARK    7  A    between atoms: N3_15  and  C11_17 
REMARK    8  A    between atoms: C12_20  and  N5_21 
REMARK    9  A    between atoms: N5_21  and  C13_23 
REMARK   10  A    between atoms: C13_23  and  C14_24 
REMARK   11  A    between atoms: C14_24  and  C15_25 
REMARK   12  A    between atoms: C15_25  and  N6_26 
REMARK   13  A    between atoms: N6_26  and  C17_28 
REMARK   14  A    between atoms: C23_38  and  O3_39 
ROOT
HETATM    1  C9  UNL     1      -1.543  -0.331   1.413  1.00  0.00     0.079 C 
ENDROOT
BRANCH   1   2
HETATM    2  C8  UNL     1      -1.966  -0.887   0.059  1.00  0.00     0.157 C 
BRANCH   2   3
HETATM    3  N2  UNL     1      -3.005  -0.226  -0.475  1.00  0.00    -0.421 NA
BRANCH   3   4
HETATM    4  C7  UNL     1      -4.118   0.153  -0.747  1.00  0.00     0.126 A 
HETATM    5  C6  UNL     1      -4.349   1.195  -1.683  1.00  0.00     0.006 A 
HETATM    6  C5  UNL     1      -5.598   1.638  -1.996  1.00  0.00     0.019 A 
HETATM    7  C25 UNL     1      -3.112   1.781  -2.315  1.00  0.00     0.044 C 
HETATM    8  N1  UNL     1      -6.645   1.062  -1.392  1.00  0.00    -0.358 N 
HETATM    9  C28 UNL     1      -5.837   2.740  -2.986  1.00  0.00     0.057 C 
HETATM   10  C4  UNL     1      -6.510   0.070  -0.496  1.00  0.00     0.049 A 
ATOM     11  H1  UNL     1      -7.583   1.390  -1.621  1.00  0.00     0.166 HD
HETATM   12  C3  UNL     1      -7.637  -0.493   0.103  1.00  0.00     0.070 A 
HETATM   13  C21 UNL     1      -5.263  -0.400  -0.158  1.00  0.00     0.035 A 
HETATM   14  C2  UNL     1      -7.540  -1.508   1.023  1.00  0.00     0.103 A 
HETATM   15  C23 UNL     1      -6.301  -1.989   1.371  1.00  0.00     0.102 A 
HETATM   16  C22 UNL     1      -5.187  -1.425   0.772  1.00  0.00     0.057 A 
HETATM   17  C27 UNL     1      -4.646   2.893  -3.877  1.00  0.00     0.006 C 
HETATM   18  C26 UNL     1      -3.443   3.090  -2.963  1.00  0.00     0.005 C 
BRANCH  14  19
HETATM   19  O1  UNL     1      -8.690  -2.032   1.588  1.00  0.00    -0.353 OA
HETATM   20  C1  UNL     1      -9.977  -1.590   1.283  1.00  0.00     0.210 C 
ENDBRANCH  14  19
BRANCH  15  21
HETATM   21  O3  UNL     1      -6.233  -3.001   2.291  1.00  0.00    -0.353 OA
HETATM   22  C24 UNL     1      -5.019  -3.583   2.732  1.00  0.00     0.210 C 
ENDBRANCH  15  21
ENDBRANCH   3   4
ENDBRANCH   2   3
ENDBRANCH   1   2
BRANCH   1  23
HETATM   23  C10 UNL     1      -0.380  -1.070   2.017  1.00  0.00     0.128 C 
BRANCH  23  24
HETATM   24  N3  UNL     1       0.817  -1.045   1.228  1.00  0.00    -0.370 N 
ATOM     25  H3  UNL     1       0.785  -1.198   0.220  1.00  0.00     0.161 HD
BRANCH  24  26
HETATM   26  C11 UNL     1       1.939  -0.823   1.834  1.00  0.00     0.164 A 
HETATM   27  N4  UNL     1       3.136  -0.773   1.217  1.00  0.00    -0.170 N 
HETATM   28  C12 UNL     1       4.307  -0.548   1.789  1.00  0.00     0.683 A 
ATOM     29  H4  UNL     1       3.139  -0.924   0.208  1.00  0.00     0.186 HD
HETATM   30  N7  UNL     1       4.537  -0.325   3.097  1.00  0.00    -0.150 N 
HETATM   31  C20 UNL     1       3.606  -0.292   4.062  1.00  0.00     0.305 A 
ATOM     32  H7  UNL     1       5.505  -0.167   3.379  1.00  0.00     0.188 HD
HETATM   33  O2  UNL     1       3.920  -0.073   5.277  1.00  0.00    -0.259 OA
HETATM   34  S1  UNL     1       2.016  -0.563   3.515  1.00  0.00     0.008 SA
BRANCH  28  35
HETATM   35  N5  UNL     1       5.373  -0.533   1.046  1.00  0.00    -0.226 N 
ATOM     36  H5  UNL     1       6.287  -0.361   1.465  1.00  0.00     0.177 HD
BRANCH  35  37
HETATM   37  C13 UNL     1       5.259  -0.759  -0.365  1.00  0.00     0.140 C 
BRANCH  37  38
HETATM   38  C14 UNL     1       6.614  -0.608  -1.061  1.00  0.00     0.050 C 
BRANCH  38  39
HETATM   39  C15 UNL     1       7.155   0.777  -0.857  1.00  0.00     0.274 C 
BRANCH  39  40
HETATM   40  N6  UNL     1       8.432   0.976  -1.486  1.00  0.00     0.088 N 
HETATM   41  C16 UNL     1       8.952   2.301  -1.295  1.00  0.00     0.310 C 
BRANCH  40  42
HETATM   42  C17 UNL     1       9.382  -0.049  -1.092  1.00  0.00     0.222 A 
HETATM   43  C18 UNL     1       9.775  -0.156   0.352  1.00  0.00     0.038 A 
HETATM   44  C19 UNL     1      10.732   0.376  -0.640  1.00  0.00     0.038 A 
ENDBRANCH  40  42
ENDBRANCH  39  40
ENDBRANCH  38  39
ENDBRANCH  37  38
ENDBRANCH  35  37
ENDBRANCH  28  35
ENDBRANCH  24  26
ENDBRANCH  23  24
ENDBRANCH   1  23
TORSDOF 14
