REMARK  6 active torsions:
REMARK  status: ('A' for Active; 'I' for Inactive)
REMARK    1  A    between atoms: C10_10  and  O1_11 
REMARK    2  A    between atoms: C12_14  and  O2_15 
REMARK    3  A    between atoms: C16_20  and  C17_21 
REMARK    4  A    between atoms: C17_21  and  C18_22 
REMARK    5  A    between atoms: C18_22  and  O3_24 
REMARK    6  A    between atoms: C21_27  and  C22_28 
ROOT
HETATM    1  C1  UNL     1       3.899  -0.607   2.314  1.00  0.00     0.014 C 
HETATM    2  C2  UNL     1       3.408  -1.163   1.217  1.00  0.00    -0.085 C 
HETATM    3  C3  UNL     1       4.237  -1.658   0.087  1.00  0.00     0.034 C 
HETATM    4  C4  UNL     1       3.284  -2.107  -0.964  1.00  0.00     0.013 C 
HETATM    5  C5  UNL     1       1.892  -1.727  -0.583  1.00  0.00     0.033 C 
HETATM    6  C6  UNL     1       1.999  -1.406   0.883  1.00  0.00     0.022 C 
HETATM    7  C7  UNL     1       1.062  -0.283   1.295  1.00  0.00     0.018 C 
HETATM    8  C8  UNL     1       1.267   0.969   0.529  1.00  0.00     0.019 C 
HETATM    9  C9  UNL     1       2.011   0.690  -0.798  1.00  0.00     0.052 C 
HETATM   10  C10 UNL     1       1.369  -0.513  -1.368  1.00  0.00     0.093 C 
HETATM   11  C11 UNL     1      -0.113  -0.439  -1.254  1.00  0.00     0.021 A 
HETATM   12  C12 UNL     1      -0.755  -1.475  -1.953  1.00  0.00     0.076 A 
HETATM   13  C13 UNL     1      -2.098  -1.595  -1.897  1.00  0.00     0.044 A 
HETATM   14  C14 UNL     1      -2.858  -0.713  -1.160  1.00  0.00    -0.052 A 
HETATM   15  C15 UNL     1      -4.327  -0.837  -1.191  1.00  0.00     0.049 C 
HETATM   16  C16 UNL     1      -2.220   0.313  -0.465  1.00  0.00    -0.038 A 
HETATM   17  C20 UNL     1      -0.839   0.493  -0.489  1.00  0.00    -0.014 A 
HETATM   18  C21 UNL     1      -0.072   1.560   0.025  1.00  0.00    -0.065 C 
ENDROOT
BRANCH  16  19
HETATM   19  C17 UNL     1      -3.054   1.160   0.341  1.00  0.00     0.071 C 
BRANCH  19  20
HETATM   20  C18 UNL     1      -3.577   0.647   1.665  1.00  0.00     0.118 C 
HETATM   21  C19 UNL     1      -2.527   0.241   2.661  1.00  0.00     0.039 C 
BRANCH  20  22
HETATM   22  O3  UNL     1      -4.624  -0.215   1.664  1.00  0.00    -0.396 OA
ATOM     23  H3  UNL     1      -4.952  -0.537   2.495  1.00  0.00     0.210 HD
ENDBRANCH  20  22
ENDBRANCH  19  20
ENDBRANCH  16  19
BRANCH  18  24
HETATM   24  C22 UNL     1      -0.329   2.728   0.787  1.00  0.00     0.031 C 
HETATM   25  C23 UNL     1       0.871   3.715   0.631  1.00  0.00     0.010 C 
ENDBRANCH  18  24
BRANCH  12  26
HETATM   26  O2  UNL     1      -0.051  -2.393  -2.712  1.00  0.00    -0.360 OA
ATOM     27  H2  UNL     1      -0.485  -3.093  -3.185  1.00  0.00     0.217 HD
ENDBRANCH  12  26
BRANCH  10  28
HETATM   28  O1  UNL     1       1.712  -0.734  -2.695  1.00  0.00    -0.384 OA
ATOM     29  H1  UNL     1       1.389   0.016  -3.180  1.00  0.00     0.211 HD
ENDBRANCH  10  28
TORSDOF 6
