REMARK  2 active torsions:
REMARK  status: ('A' for Active; 'I' for Inactive)
REMARK    1  A    between atoms: C4_4  and  O1_5 
REMARK    2  A    between atoms: C7_9  and  O2_10 
ROOT
HETATM    1  C1  UNL     1       2.445  -0.162  -0.452  1.00  0.00     0.012 C 
HETATM    2  C2  UNL     1       1.080  -0.225   0.224  1.00  0.00     0.013 C 
HETATM    3  C3  UNL     1       0.223  -1.142  -0.603  1.00  0.00     0.038 C 
HETATM    4  C4  UNL     1      -1.183  -1.271  -0.089  1.00  0.00     0.118 C 
HETATM    5  C5  UNL     1      -1.783   0.032   0.328  1.00  0.00     0.034 C 
HETATM    6  C6  UNL     1      -0.955   1.230  -0.009  1.00  0.00     0.034 C 
HETATM    7  C7  UNL     1       0.475   1.133   0.399  1.00  0.00     0.122 C 
ENDROOT
BRANCH   4   8
HETATM    8  O1  UNL     1      -1.922  -1.899  -1.116  1.00  0.00    -0.396 OA
ATOM      9  H1  UNL     1      -2.811  -1.981  -0.791  1.00  0.00     0.210 HD
ENDBRANCH   4   8
BRANCH   7  10
HETATM   10  O2  UNL     1       1.186   2.100  -0.348  1.00  0.00    -0.395 OA
ATOM     11  H2  UNL     1       0.802   2.962  -0.237  1.00  0.00     0.210 HD
ENDBRANCH   7  10
TORSDOF 2
