REMARK  4 active torsions:
REMARK  status: ('A' for Active; 'I' for Inactive)
REMARK    1  A    between atoms: N1_2  and  N2_4 
REMARK    2  A    between atoms: N5_12  and  C4_14 
REMARK    3  A    between atoms: C4_14  and  N6_15 
REMARK    4  A    between atoms: C6_22  and  N8_23 
ROOT
HETATM    1  N2  UNL     1       3.992   0.592  -0.578  1.00  0.00    -0.268 N 
ATOM      2  H2  UNL     1       4.925   0.588  -0.990  1.00  0.00     0.190 HD
HETATM    3  C2  UNL     1       3.258  -0.464  -0.691  1.00  0.00     0.261 A 
HETATM    4  N3  UNL     1       3.603  -1.599  -1.312  1.00  0.00    -0.261 N 
ATOM      5  H3  UNL     1       4.490  -1.784  -1.780  1.00  0.00     0.190 HD
HETATM    6  N4  UNL     1       2.580  -2.441  -1.209  1.00  0.00    -0.262 N 
ATOM      7  H4  UNL     1       2.533  -3.390  -1.580  1.00  0.00     0.190 HD
HETATM    8  C3  UNL     1       1.620  -1.801  -0.523  1.00  0.00     0.245 A 
HETATM    9  N5  UNL     1       0.475  -2.282  -0.218  1.00  0.00    -0.309 N 
ATOM     10  H5  UNL     1       0.257  -3.233  -0.514  1.00  0.00     0.166 HD
HETATM   11  O1  UNL     1       2.031  -0.600  -0.208  1.00  0.00    -0.243 OA
ENDROOT
BRANCH   9  12
HETATM   12  C4  UNL     1      -0.515  -1.558   0.516  1.00  0.00     0.287 C 
HETATM   13  C5  UNL     1      -1.850  -2.252   0.322  1.00  0.00     0.136 C 
HETATM   14  N7  UNL     1      -2.900  -1.336   0.269  1.00  0.00    -0.345 N 
HETATM   15  C6  UNL     1      -2.716  -0.139  -0.043  1.00  0.00     0.145 C 
ATOM     16  H7  UNL     1      -3.844  -1.651   0.491  1.00  0.00     0.167 HD
HETATM   17  S1  UNL     1      -0.947   0.016  -0.343  1.00  0.00    -0.028 SA
BRANCH  12  18
HETATM   18  N6  UNL     1      -0.192  -1.330   1.890  1.00  0.00    -0.037 N 
ATOM     19  H63 UNL     1       0.018  -2.213   2.355  1.00  0.00     0.278 HD
ATOM     20  H62 UNL     1       0.714  -0.869   1.969  1.00  0.00     0.278 HD
ATOM     21  H61 UNL     1      -0.898  -0.813   2.414  1.00  0.00     0.278 HD
ENDBRANCH  12  18
BRANCH  15  22
HETATM   22  N8  UNL     1      -3.615   0.960  -0.164  1.00  0.00    -0.370 N 
HETATM   23  C7  UNL     1      -5.012   0.726  -0.490  1.00  0.00     0.151 C 
HETATM   24  C8  UNL     1      -3.157   2.303   0.033  1.00  0.00     0.151 C 
ENDBRANCH  15  22
ENDBRANCH   9  12
BRANCH   1  25
HETATM   25  N1  UNL     1       3.561   1.727   0.080  1.00  0.00    -0.338 N 
HETATM   26  C1  UNL     1       4.493   2.809   0.334  1.00  0.00     0.167 C 
ATOM     27  H1  UNL     1       2.591   1.804   0.386  1.00  0.00     0.179 HD
ENDBRANCH   1  25
TORSDOF 4
