REMARK  5 active torsions:
REMARK  status: ('A' for Active; 'I' for Inactive)
REMARK    1  A    between atoms: C2_2  and  C4_4 
REMARK       I    between atoms: C4_4  and  N1_6 
REMARK    2  A    between atoms: N1_6  and  O2_8 
REMARK    3  A    between atoms: O2_8  and  C5_9 
REMARK    4  A    between atoms: C5_9  and  O3_10 
REMARK    5  A    between atoms: C7_14  and  N3_15 
ROOT
HETATM    1  C5  UNL     1      -0.426  -0.838  -0.057  1.00  0.00     0.302 C 
HETATM    2  C6  UNL     1      -1.668  -1.401  -0.713  1.00  0.00     0.262 C 
HETATM    3  N2  UNL     1      -2.703  -0.473  -0.230  1.00  0.00    -0.096 N 
HETATM    4  C7  UNL     1      -4.032  -0.637  -0.138  1.00  0.00     0.697 A 
HETATM    5  N4  UNL     1      -4.820   0.363   0.347  1.00  0.00    -0.150 N 
ATOM      6  H4  UNL     1      -5.829   0.230   0.414  1.00  0.00     0.188 HD
HETATM    7  C8  UNL     1      -4.271   1.516   0.734  1.00  0.00     0.331 A 
HETATM    8  O4  UNL     1      -4.964   2.469   1.189  1.00  0.00    -0.261 OA
HETATM    9  C9  UNL     1      -2.927   1.688   0.643  1.00  0.00     0.347 A 
HETATM   10  O5  UNL     1      -2.377   2.778   1.006  1.00  0.00    -0.259 OA
HETATM   11  N5  UNL     1      -2.172   0.665   0.153  1.00  0.00    -0.135 N 
HETATM   12  N6  UNL     1      -0.787   0.578  -0.044  1.00  0.00    -0.042 NA
ENDROOT
BRANCH   1  13
HETATM   13  O2  UNL     1       0.725  -1.050  -0.766  1.00  0.00    -0.216 OA
BRANCH  13  14
HETATM   14  N1  UNL     1       1.772  -0.350  -0.215  1.00  0.00    -0.226 N 
HETATM   15  C4  UNL     1       3.071  -0.456  -0.781  1.00  0.00     0.270 C 
HETATM   16  O1  UNL     1       3.240  -1.194  -1.784  1.00  0.00    -0.266 OA
ATOM     17  H1  UNL     1       1.617   0.245   0.599  1.00  0.00     0.198 HD
BRANCH  15  18
HETATM   18  C2  UNL     1       4.196   0.254  -0.243  1.00  0.00    -0.002 C 
HETATM   19  C1  UNL     1       4.071   1.037   0.805  1.00  0.00     0.024 C 
HETATM   20  C3  UNL     1       5.536   0.084  -0.910  1.00  0.00     0.053 C 
ENDBRANCH  15  18
ENDBRANCH  13  14
ENDBRANCH   1  13
BRANCH   1  21
HETATM   21  O3  UNL     1      -0.347  -1.234   1.282  1.00  0.00    -0.348 OA
ATOM     22  H3  UNL     1      -1.146  -1.087   1.774  1.00  0.00     0.214 HD
ENDBRANCH   1  21
BRANCH   4  23
HETATM   23  N3  UNL     1      -4.645  -1.719  -0.488  1.00  0.00    -0.233 N 
ATOM     24  H32 UNL     1      -4.055  -2.468  -0.851  1.00  0.00     0.174 HD
ATOM     25  H31 UNL     1      -5.655  -1.844  -0.418  1.00  0.00     0.174 HD
ENDBRANCH   4  23
TORSDOF 5
