REMARK  5 active torsions:
REMARK  status: ('A' for Active; 'I' for Inactive)
REMARK    1  A    between atoms: C2_5  and  C3_6 
REMARK    2  A    between atoms: C4_7  and  C5_8 
REMARK    3  A    between atoms: C5_8  and  N3_9 
REMARK    4  A    between atoms: N3_9  and  N4_11 
REMARK    5  A    between atoms: N7_22  and  N8_23 
ROOT
HETATM    1  C3  UNL     1      -0.478  -1.078   0.119  1.00  0.00     0.068 A 
HETATM    2  C4  UNL     1      -1.595  -0.299   0.319  1.00  0.00     0.067 A 
HETATM    3  C6  UNL     1      -2.792  -0.950   0.528  1.00  0.00     0.272 A 
HETATM    4  O1  UNL     1      -3.814  -0.239   0.710  1.00  0.00    -0.266 OA
HETATM    5  N5  UNL     1      -2.857  -2.308   0.536  1.00  0.00    -0.265 N 
ATOM      6  H5  UNL     1      -3.756  -2.764   0.693  1.00  0.00     0.190 HD
HETATM    7  N6  UNL     1      -1.780  -3.049   0.344  1.00  0.00    -0.287 N 
ATOM      8  H6  UNL     1      -1.846  -4.067   0.353  1.00  0.00     0.188 HD
HETATM    9  C7  UNL     1      -0.597  -2.448   0.137  1.00  0.00     0.130 A 
HETATM   10  S1  UNL     1       0.718  -3.409  -0.098  1.00  0.00    -0.058 SA
ENDROOT
BRANCH   1  11
HETATM   11  C2  UNL     1       0.800  -0.419  -0.104  1.00  0.00     0.161 A 
HETATM   12  N2  UNL     1       1.634  -0.093   0.901  1.00  0.00    -0.277 N 
HETATM   13  N1  UNL     1       2.713   0.491   0.415  1.00  0.00    -0.244 N 
ATOM     14  H2  UNL     1       1.458  -0.271   1.890  1.00  0.00     0.189 HD
HETATM   15  C1  UNL     1       3.865   1.000   1.150  1.00  0.00     0.183 C 
HETATM   16  C8  UNL     1       2.542   0.527  -0.922  1.00  0.00     0.363 A 
HETATM   17  N7  UNL     1       1.375  -0.027  -1.250  1.00  0.00    -0.192 N 
HETATM   18  O2  UNL     1       3.370   1.015  -1.732  1.00  0.00    -0.243 OA
BRANCH  17  19
HETATM   19  N8  UNL     1       0.785  -0.207  -2.507  1.00  0.00    -0.333 N 
ATOM     20  H82 UNL     1      -0.108  -0.631  -2.758  1.00  0.00     0.177 HD
ATOM     21  H81 UNL     1       1.222   0.091  -3.379  1.00  0.00     0.177 HD
ENDBRANCH  17  19
ENDBRANCH   1  11
BRANCH   2  22
HETATM   22  C5  UNL     1      -1.461   1.151   0.299  1.00  0.00     0.124 C 
BRANCH  22  23
HETATM   23  N3  UNL     1      -2.502   1.904   0.485  1.00  0.00    -0.317 N 
ATOM     24  H3  UNL     1      -3.402   1.452   0.643  1.00  0.00     0.185 HD
BRANCH  23  25
HETATM   25  N4  UNL     1      -2.457   3.281   0.480  1.00  0.00    -0.345 N 
ATOM     26  H42 UNL     1      -1.549   3.717   0.320  1.00  0.00     0.176 HD
ATOM     27  H41 UNL     1      -3.275   3.873   0.626  1.00  0.00     0.176 HD
ENDBRANCH  23  25
ENDBRANCH  22  23
ENDBRANCH   2  22
TORSDOF 5
