REMARK  8 active torsions:
REMARK  status: ('A' for Active; 'I' for Inactive)
REMARK    1  A    between atoms: S1_2  and  C2_3 
REMARK    2  A    between atoms: C3_4  and  C4_5 
REMARK    3  A    between atoms: C4_5  and  O1_6 
REMARK    4  A    between atoms: C4_5  and  N1_8 
REMARK    5  A    between atoms: N1_8  and  N2_10 
REMARK    6  A    between atoms: N3_15  and  N4_16 
REMARK    7  A    between atoms: C6_19  and  N5_20 
REMARK    8  A    between atoms: N7_24  and  O3_25 
ROOT
HETATM    1  N5  UNL     1      -3.490  -0.375  -0.011  1.00  0.00    -0.122 N 
ATOM      2  H5  UNL     1      -4.027  -0.955  -0.656  1.00  0.00     0.197 HD
HETATM    3  C7  UNL     1      -4.192   0.386   0.893  1.00  0.00     0.196 C 
HETATM    4  N6  UNL     1      -4.821   1.029   1.659  1.00  0.00    -0.171 NA
ENDROOT
BRANCH   1   5
HETATM    5  C6  UNL     1      -2.241  -0.411  -0.104  1.00  0.00     0.742 A 
HETATM    6  N3  UNL     1      -1.697  -1.209  -1.044  1.00  0.00    -0.051 N 
HETATM    7  C5  UNL     1      -0.395  -1.334  -1.240  1.00  0.00     0.299 A 
HETATM    8  C3  UNL     1       0.499  -0.598  -0.429  1.00  0.00     0.123 A 
HETATM    9  O2  UNL     1       0.064  -2.091  -2.130  1.00  0.00    -0.264 OA
HETATM   10  C2  UNL     1      -0.060   0.194   0.503  1.00  0.00     0.137 A 
HETATM   11  N7  UNL     1      -1.427   0.290   0.670  1.00  0.00    -0.042 N 
BRANCH   6  12
HETATM   12  N4  UNL     1      -2.569  -1.962  -1.876  1.00  0.00    -0.321 N 
ATOM     13  H42 UNL     1      -2.157  -2.566  -2.587  1.00  0.00     0.178 HD
ATOM     14  H41 UNL     1      -3.573  -1.866  -1.725  1.00  0.00     0.178 HD
ENDBRANCH   6  12
BRANCH   8  15
HETATM   15  C4  UNL     1       1.898  -0.810  -0.647  1.00  0.00     0.173 C 
BRANCH  15  16
HETATM   16  O1  UNL     1       2.293  -1.277  -1.802  1.00  0.00    -0.344 OA
ATOM     17  H1  UNL     1       3.221  -1.418  -1.947  1.00  0.00     0.219 HD
ENDBRANCH  15  16
BRANCH  15  18
HETATM   18  N1  UNL     1       2.912  -0.565   0.278  1.00  0.00    -0.286 N 
ATOM     19  H1  UNL     1       2.694  -0.208   1.209  1.00  0.00     0.188 HD
BRANCH  18  20
HETATM   20  N2  UNL     1       4.268  -0.826  -0.109  1.00  0.00    -0.343 N 
ATOM     21  H22 UNL     1       4.469  -1.183  -1.043  1.00  0.00     0.176 HD
ATOM     22  H21 UNL     1       5.010  -0.647   0.568  1.00  0.00     0.176 HD
ENDBRANCH  18  20
ENDBRANCH  15  18
ENDBRANCH   8  15
BRANCH  10  23
HETATM   23  S1  UNL     1       0.932   1.231   1.550  1.00  0.00    -0.113 SA
HETATM   24  C1  UNL     1       1.130   2.832   0.704  1.00  0.00     0.097 C 
ENDBRANCH  10  23
BRANCH  11  25
HETATM   25  O3  UNL     1      -1.888   1.127   1.652  1.00  0.00    -0.268 OA
ATOM     26  H3  UNL     1      -2.829   1.193   1.767  1.00  0.00     0.246 HD
ENDBRANCH  11  25
ENDBRANCH   1   5
TORSDOF 8
