REMARK  4 active torsions:
REMARK  status: ('A' for Active; 'I' for Inactive)
REMARK    1  A    between atoms: C3_6  and  N3_7 
REMARK    2  A    between atoms: N3_7  and  C4_9 
REMARK    3  A    between atoms: C4_9  and  C5_10 
REMARK    4  A    between atoms: C5_10  and  C6_11 
ROOT
HETATM    1  N1  UNL     1       5.703   1.748  -0.040  1.00  0.00    -0.188 NA
HETATM    2  C1  UNL     1       4.813   1.015  -0.183  1.00  0.00     0.139 C 
HETATM    3  C2  UNL     1       3.723   0.093  -0.356  1.00  0.00     0.217 A 
HETATM    4  N2  UNL     1       2.674   0.039   0.492  1.00  0.00    -0.164 N 
ATOM      5  H2  UNL     1       2.550   0.627   1.316  1.00  0.00     0.186 HD
HETATM    6  C3  UNL     1       1.821  -0.910   0.079  1.00  0.00     0.694 A 
HETATM    7  N4  UNL     1       2.388  -1.427  -1.042  1.00  0.00    -0.130 N 
ATOM      8  H4  UNL     1       1.981  -2.178  -1.600  1.00  0.00     0.205 HD
HETATM    9  N5  UNL     1       3.534  -0.831  -1.315  1.00  0.00    -0.262 N 
ATOM     10  H5  UNL     1       4.154  -1.032  -2.099  1.00  0.00     0.190 HD
ENDROOT
BRANCH   6  11
HETATM   11  N3  UNL     1       0.693  -1.273   0.620  1.00  0.00    -0.224 N 
ATOM     12  H3  UNL     1       0.118  -2.014   0.220  1.00  0.00     0.177 HD
BRANCH  11  13
HETATM   13  C4  UNL     1       0.302  -0.565   1.821  1.00  0.00     0.142 C 
BRANCH  13  14
HETATM   14  C5  UNL     1      -0.349   0.771   1.456  1.00  0.00     0.058 C 
BRANCH  14  15
HETATM   15  C6  UNL     1      -1.551   0.551   0.626  1.00  0.00    -0.057 A 
HETATM   16  C7  UNL     1      -1.521   0.494  -0.752  1.00  0.00     0.007 A 
HETATM   17  C8  UNL     1      -2.640   0.289  -1.530  1.00  0.00     0.001 A 
HETATM   18  C9  UNL     1      -3.848   0.133  -0.879  1.00  0.00     0.000 A 
HETATM   19  C10 UNL     1      -3.934   0.182   0.506  1.00  0.00     0.001 A 
HETATM   20  C11 UNL     1      -2.788   0.389   1.235  1.00  0.00     0.007 A 
ENDBRANCH  14  15
ENDBRANCH  13  14
ENDBRANCH  11  13
ENDBRANCH   6  11
TORSDOF 4
