REMARK  9 active torsions:
REMARK  status: ('A' for Active; 'I' for Inactive)
REMARK    1  A    between atoms: C1_2  and  C2_3 
REMARK    2  A    between atoms: C1_2  and  O3_6 
REMARK    3  A    between atoms: C2_3  and  O2_4 
REMARK    4  A    between atoms: O3_6  and  C3_7 
REMARK    5  A    between atoms: C3_7  and  C4_8 
REMARK    6  A    between atoms: C3_7  and  C5_10 
REMARK    7  A    between atoms: C5_10  and  O5_12 
REMARK    8  A    between atoms: O5_12  and  C6_13 
REMARK    9  A    between atoms: C6_13  and  N1_14 
ROOT
HETATM    1  C5  UNL     1       0.504  -0.470  -0.708  1.00  0.00     0.295 C 
HETATM    2  O4  UNL     1       0.400   0.754  -0.897  1.00  0.00    -0.262 OA
ENDROOT
BRANCH   1   3
HETATM    3  C3  UNL     1       1.810  -1.047  -0.281  1.00  0.00     0.241 C 
BRANCH   3   4
HETATM    4  O3  UNL     1       2.759  -0.006  -0.163  1.00  0.00    -0.303 OA
BRANCH   4   5
HETATM    5  C1  UNL     1       3.903   0.050  -0.943  1.00  0.00     0.283 C 
HETATM    6  O1  UNL     1       4.104  -0.854  -1.783  1.00  0.00    -0.263 OA
BRANCH   5   7
HETATM    7  C2  UNL     1       4.906   1.133  -0.832  1.00  0.00     0.275 C 
BRANCH   7   8
HETATM    8  O2  UNL     1       4.549   2.066   0.143  1.00  0.00    -0.391 OA
ATOM      9  H2  UNL     1       5.193   2.761   0.214  1.00  0.00     0.210 HD
ENDBRANCH   7   8
ENDBRANCH   5   7
ENDBRANCH   4   5
ENDBRANCH   3   4
BRANCH   3  10
HETATM   10  C4  UNL     1       1.654  -1.826   1.013  1.00  0.00     0.129 C 
HETATM   11  S1  UNL     1       1.106  -0.757   2.361  1.00  0.00    -0.095 SA
ENDBRANCH   3  10
ENDBRANCH   1   3
BRANCH   1  12
HETATM   12  O5  UNL     1      -0.578  -1.247  -0.897  1.00  0.00    -0.271 OA
BRANCH  12  13
HETATM   13  C6  UNL     1      -1.871  -1.065  -1.269  1.00  0.00     0.247 C 
BRANCH  13  14
HETATM   14  N1  UNL     1      -2.732  -0.233  -0.506  1.00  0.00    -0.278 N 
HETATM   15  C7  UNL     1      -3.263  -0.753   0.618  1.00  0.00     0.122 A 
HETATM   16  C8  UNL     1      -4.080   0.013   1.440  1.00  0.00     0.044 A 
HETATM   17 BR1  UNL     1      -4.846  -0.692   3.036  1.00  0.00    -0.048 Br
HETATM   18  C9  UNL     1      -4.346   1.327   1.094  1.00  0.00     0.035 A 
HETATM   19 BR2  UNL     1      -5.463   2.417   2.198  1.00  0.00    -0.049 Br
HETATM   20  C10 UNL     1      -3.805   1.847  -0.047  1.00  0.00     0.095 A 
HETATM   21  C11 UNL     1      -2.994   1.025  -0.830  1.00  0.00     0.254 A 
HETATM   22  O6  UNL     1      -2.539   1.590  -1.876  1.00  0.00    -0.268 OA
ENDBRANCH  13  14
ENDBRANCH  12  13
ENDBRANCH   1  12
TORSDOF 9
