REMARK  6 active torsions:
REMARK  status: ('A' for Active; 'I' for Inactive)
REMARK       I    between atoms: C1_4  and  N3_6 
REMARK    1  A    between atoms: N3_6  and  N4_8 
REMARK    2  A    between atoms: C2_10  and  C3_11 
REMARK    3  A    between atoms: C6_14  and  N5_15 
REMARK    4  A    between atoms: N5_15  and  N6_17 
REMARK    5  A    between atoms: N6_17  and  C7_19 
REMARK    6  A    between atoms: C11_27  and  C12_28 
ROOT
HETATM    1  N6  UNL     1      -0.862   0.273   2.248  1.00  0.00    -0.128 N 
ATOM      2  H6  UNL     1      -1.001   0.196   3.256  1.00  0.00     0.205 HD
ENDROOT
BRANCH   1   3
HETATM    3  N5  UNL     1      -0.174  -0.719   1.588  1.00  0.00    -0.287 N 
ATOM      4  H5  UNL     1      -0.655  -1.595   1.384  1.00  0.00     0.187 HD
BRANCH   3   5
HETATM    5  C6  UNL     1       1.169  -0.575   1.182  1.00  0.00     0.048 A 
HETATM    6  C5  UNL     1       2.004   0.468   1.511  1.00  0.00     0.032 A 
HETATM    7  C4  UNL     1       3.310   0.578   1.037  1.00  0.00     0.015 A 
HETATM    8  C3  UNL     1       3.828  -0.373   0.206  1.00  0.00    -0.019 A 
HETATM    9  C19 UNL     1       3.017  -1.445  -0.150  1.00  0.00     0.015 A 
HETATM   10  C18 UNL     1       1.745  -1.528   0.326  1.00  0.00     0.032 A 
BRANCH   8  11
HETATM   11  C2  UNL     1       5.184  -0.327  -0.345  1.00  0.00     0.118 C 
HETATM   12  N4  UNL     1       5.953   0.641  -0.030  1.00  0.00    -0.309 N 
ATOM     13  H4  UNL     1       5.617   1.370   0.599  1.00  0.00     0.186 HD
BRANCH  12  14
HETATM   14  N3  UNL     1       7.229   0.709  -0.530  1.00  0.00    -0.274 N 
HETATM   15  C1  UNL     1       8.062  -0.417  -0.554  1.00  0.00     0.200 C 
HETATM   16  N1  UNL     1       7.760  -1.464   0.116  1.00  0.00    -0.372 N 
HETATM   17  N2  UNL     1       9.244  -0.394  -1.319  1.00  0.00    -0.062 NA
ATOM     18  H12 UNL     1       8.367  -2.284   0.099  1.00  0.00     0.158 HD
ATOM     19  H11 UNL     1       6.904  -1.481   0.670  1.00  0.00     0.158 HD
ATOM     20  H3  UNL     1       7.578   1.597  -0.891  1.00  0.00     0.189 HD
ENDBRANCH  12  14
ENDBRANCH   8  11
ENDBRANCH   3   5
ENDBRANCH   1   3
BRANCH   1  21
HETATM   21  C7  UNL     1      -1.392   1.421   1.549  1.00  0.00     0.734 A 
HETATM   22  N7  UNL     1      -0.830   2.625   1.516  1.00  0.00    -0.127 N 
HETATM   23  N8  UNL     1      -1.546   3.458   0.767  1.00  0.00    -0.269 N 
ATOM     24  H7  UNL     1       0.033   2.876   1.999  1.00  0.00     0.206 HD
HETATM   25  C8  UNL     1      -2.599   2.748   0.314  1.00  0.00     0.160 A 
ATOM     26  H8  UNL     1      -1.340   4.438   0.574  1.00  0.00     0.189 HD
HETATM   27  C9  UNL     1      -3.647   3.113  -0.505  1.00  0.00     0.055 A 
HETATM   28  N10 UNL     1      -2.501   1.493   0.798  1.00  0.00    -0.065 N 
HETATM   29  C10 UNL     1      -4.573   2.129  -0.790  1.00  0.00     0.036 A 
HETATM   30  C11 UNL     1      -4.442   0.842  -0.270  1.00  0.00     0.059 A 
HETATM   31  N9  UNL     1      -3.376   0.553   0.533  1.00  0.00    -0.277 N 
ATOM     32  H9  UNL     1      -3.262  -0.383   0.922  1.00  0.00     0.188 HD
BRANCH  30  33
HETATM   33  C12 UNL     1      -5.456  -0.159  -0.554  1.00  0.00    -0.006 A 
HETATM   34  C13 UNL     1      -6.442   0.114  -1.463  1.00  0.00     0.014 A 
HETATM   35  C14 UNL     1      -7.437  -0.857  -1.683  1.00  0.00     0.003 A 
HETATM   36  C15 UNL     1      -7.421  -2.048  -1.005  1.00  0.00     0.024 A 
HETATM   37  C16 UNL     1      -6.433  -2.317  -0.096  1.00  0.00     0.035 A 
HETATM   38 CL1  UNL     1      -6.448  -3.835   0.766  1.00  0.00    -0.084 Cl
HETATM   39  C17 UNL     1      -5.452  -1.353   0.117  1.00  0.00     0.037 A 
ENDBRANCH  30  33
ENDBRANCH   1  21
TORSDOF 6
