REMARK  12 active torsions:
REMARK  status: ('A' for Active; 'I' for Inactive)
REMARK    1  A    between atoms: C2_2  and  C3_3 
REMARK    2  A    between atoms: C3_3  and  C4_4 
REMARK    3  A    between atoms: C4_4  and  C5_5 
REMARK    4  A    between atoms: C5_5  and  N1_6 
REMARK    5  A    between atoms: N1_6  and  C6_8 
REMARK    6  A    between atoms: C8_12  and  N3_13 
REMARK    7  A    between atoms: C9_18  and  N5_19 
REMARK    8  A    between atoms: N7_25  and  C11_26 
REMARK    9  A    between atoms: C12_28  and  C13_29 
REMARK   10  A    between atoms: C13_29  and  O2_30 
REMARK   11  A    between atoms: C14_32  and  O3_33 
REMARK   12  A    between atoms: C15_35  and  O4_36 
ROOT
HETATM    1  C6  UNL     1      -0.009  -0.408   0.406  1.00  0.00     0.684 A 
HETATM    2  N2  UNL     1       0.596  -1.614   0.369  1.00  0.00    -0.184 N 
ATOM      3  H2  UNL     1       1.604  -1.772   0.376  1.00  0.00     0.184 HD
HETATM    4  C7  UNL     1      -0.341  -2.571   0.321  1.00  0.00     0.138 A 
HETATM    5  C8  UNL     1      -0.262  -3.948   0.270  1.00  0.00     0.146 A 
HETATM    6  N4  UNL     1      -1.422  -4.627   0.229  1.00  0.00    -0.175 N 
ATOM      7  H4  UNL     1      -1.406  -5.646   0.190  1.00  0.00     0.186 HD
HETATM    8  C9  UNL     1      -2.617  -3.975   0.239  1.00  0.00     0.679 A 
HETATM    9  N6  UNL     1      -2.677  -2.622   0.289  1.00  0.00    -0.174 N 
ATOM     10  H6  UNL     1      -3.583  -2.153   0.295  1.00  0.00     0.186 HD
HETATM   11  C10 UNL     1      -1.558  -1.904   0.330  1.00  0.00     0.172 A 
HETATM   12  N7  UNL     1      -1.344  -0.575   0.383  1.00  0.00    -0.135 N 
ENDROOT
BRANCH  12  13
HETATM   13  C11 UNL     1      -2.316   0.507   0.411  1.00  0.00     0.279 C 
HETATM   14  O1  UNL     1      -2.054   1.420   1.393  1.00  0.00    -0.353 OA
HETATM   15  C12 UNL     1      -2.355   2.679   0.954  1.00  0.00     0.179 C 
HETATM   16  C14 UNL     1      -2.561   2.662  -0.516  1.00  0.00     0.182 C 
HETATM   17  C15 UNL     1      -2.380   1.236  -0.905  1.00  0.00     0.199 C 
BRANCH  15  18
HETATM   18  C13 UNL     1      -3.622   3.242   1.596  1.00  0.00     0.198 C 
BRANCH  18  19
HETATM   19  O2  UNL     1      -3.819   4.501   1.080  1.00  0.00    -0.398 OA
ATOM     20  H2  UNL     1      -4.607   4.851   1.479  1.00  0.00     0.209 HD
ENDBRANCH  18  19
ENDBRANCH  15  18
BRANCH  16  21
HETATM   21  O3  UNL     1      -1.589   3.457  -1.142  1.00  0.00    -0.390 OA
ATOM     22  H3  UNL     1      -1.721   3.446  -2.083  1.00  0.00     0.210 HD
ENDBRANCH  16  21
BRANCH  17  23
HETATM   23  O4  UNL     1      -3.462   0.834  -1.690  1.00  0.00    -0.388 OA
ATOM     24  H4  UNL     1      -3.502   1.294  -2.520  1.00  0.00     0.210 HD
ENDBRANCH  17  23
ENDBRANCH  12  13
BRANCH   1  25
HETATM   25  N1  UNL     1       0.574   0.743   0.457  1.00  0.00    -0.226 N 
ATOM     26  H1  UNL     1       0.003   1.588   0.482  1.00  0.00     0.177 HD
BRANCH  25  27
HETATM   27  C5  UNL     1       2.017   0.867   0.480  1.00  0.00     0.138 C 
BRANCH  27  28
HETATM   28  C4  UNL     1       2.622   0.823  -0.886  1.00  0.00     0.020 C 
BRANCH  28  29
HETATM   29  C3  UNL     1       4.112   0.958  -0.810  1.00  0.00     0.001 C 
BRANCH  29  30
HETATM   30  C2  UNL     1       4.753  -0.147   0.001  1.00  0.00    -0.004 C 
HETATM   31  C1  UNL     1       6.257   0.013   0.059  1.00  0.00     0.005 C 
ENDBRANCH  29  30
ENDBRANCH  28  29
ENDBRANCH  27  28
ENDBRANCH  25  27
ENDBRANCH   1  25
BRANCH   5  32
HETATM   32  N3  UNL     1       0.859  -4.588   0.260  1.00  0.00    -0.383 N 
ATOM     33  H32 UNL     1       1.739  -4.073   0.291  1.00  0.00     0.157 HD
ATOM     34  H31 UNL     1       0.917  -5.606   0.222  1.00  0.00     0.157 HD
ENDBRANCH   5  32
BRANCH   8  35
HETATM   35  N5  UNL     1      -3.729  -4.624   0.200  1.00  0.00    -0.234 N 
ATOM     36  H52 UNL     1      -3.684  -5.642   0.162  1.00  0.00     0.174 HD
ATOM     37  H51 UNL     1      -4.624  -4.135   0.207  1.00  0.00     0.174 HD
ENDBRANCH   8  35
TORSDOF 12
