REMARK  3 active torsions:
REMARK  status: ('A' for Active; 'I' for Inactive)
REMARK    1  A    between atoms: C2_2  and  N1_4 
REMARK    2  A    between atoms: C2_2  and  C13_21 
REMARK       I    between atoms: N1_4  and  C4_6 
REMARK       I    between atoms: C4_6  and  N3_10 
REMARK    3  A    between atoms: N3_10  and  C5_12 
ROOT
HETATM    1  N1  UNL     1       2.143   0.101  -1.278  1.00  0.00    -0.209 N 
ATOM      2  H1  UNL     1       2.556  -0.149  -2.176  1.00  0.00     0.178 HD
HETATM    3  C4  UNL     1       0.909   0.783  -1.314  1.00  0.00     0.673 C 
HETATM    4  N2  UNL     1       1.000   2.088  -1.209  1.00  0.00    -0.235 N 
ATOM      5  H21 UNL     1       0.108   2.581  -1.235  1.00  0.00     0.174 HD
ATOM      6  H22 UNL     1       1.895   2.561  -1.086  1.00  0.00     0.174 HD
HETATM    7  N3  UNL     1      -0.328   0.130  -1.484  1.00  0.00    -0.192 N 
ATOM      8  H3  UNL     1      -0.455  -0.463  -2.304  1.00  0.00     0.184 HD
ENDROOT
BRANCH   1   9
HETATM    9  C2  UNL     1       2.862  -0.269  -0.124  1.00  0.00     0.137 C 
HETATM   10  C1  UNL     1       2.014  -1.163   0.780  1.00  0.00     0.048 C 
HETATM   11  C3  UNL     1       4.030  -1.205  -0.548  1.00  0.00     0.048 C 
BRANCH   9  12
HETATM   12  C13 UNL     1       3.455   0.840   0.691  1.00  0.00     0.412 C 
HETATM   13  F1  UNL     1       2.577   1.656   1.319  1.00  0.00    -0.168 F 
HETATM   14  F2  UNL     1       4.326   0.345   1.664  1.00  0.00    -0.168 F 
HETATM   15  F3  UNL     1       4.263   1.663  -0.107  1.00  0.00    -0.168 F 
ENDBRANCH   9  12
ENDBRANCH   1   9
BRANCH   7  16
HETATM   16  C5  UNL     1      -1.411   0.258  -0.564  1.00  0.00     0.050 A 
HETATM   17  C6  UNL     1      -1.195   0.983   0.583  1.00  0.00     0.031 A 
HETATM   18  C7  UNL     1      -2.283   1.100   1.464  1.00  0.00     0.022 A 
HETATM   19  C8  UNL     1      -3.490   0.503   1.158  1.00  0.00     0.015 A 
HETATM   20  S1  UNL     1      -4.995   0.428   1.957  1.00  0.00    -0.101 SA
HETATM   21  C11 UNL     1      -3.711  -0.219   0.021  1.00  0.00    -0.017 A 
HETATM   22  C9  UNL     1      -5.863  -0.513   0.834  1.00  0.00     0.051 A 
HETATM   23  C10 UNL     1      -4.949  -0.749  -0.148  1.00  0.00     0.020 A 
HETATM   24  C12 UNL     1      -2.631  -0.342  -0.865  1.00  0.00     0.043 A 
ENDBRANCH   7  16
TORSDOF 3
