REMARK  7 active torsions:
REMARK  status: ('A' for Active; 'I' for Inactive)
REMARK    1  A    between atoms: N1_2  and  C3_4 
REMARK    2  A    between atoms: C3_4  and  N2_5 
REMARK    3  A    between atoms: N2_5  and  C4_7 
REMARK    4  A    between atoms: C9_20  and  N7_21 
REMARK    5  A    between atoms: N7_21  and  C10_23 
REMARK    6  A    between atoms: C10_23  and  C11_24 
REMARK    7  A    between atoms: C11_24  and  N8_25 
ROOT
HETATM    1  C4  UNL     1       1.745  -0.788   0.745  1.00  0.00     0.679 A 
HETATM    2  N3  UNL     1       2.177  -2.056   0.651  1.00  0.00    -0.200 N 
ATOM      3  H3  UNL     1       3.159  -2.281   0.811  1.00  0.00     0.183 HD
HETATM    4  C5  UNL     1       1.302  -3.020   0.344  1.00  0.00     0.138 A 
HETATM    5  C6  UNL     1      -0.029  -2.739   0.123  1.00  0.00     0.078 A 
HETATM    6  N4  UNL     1      -1.107  -3.476  -0.193  1.00  0.00    -0.339 N 
ATOM      7  H4  UNL     1      -1.116  -4.486  -0.338  1.00  0.00     0.167 HD
HETATM    8  C7  UNL     1      -2.169  -2.663  -0.286  1.00  0.00     0.123 A 
HETATM    9  N5  UNL     1      -3.453  -2.895  -0.570  1.00  0.00    -0.338 N 
ATOM     10  H5  UNL     1      -3.772  -3.844  -0.766  1.00  0.00     0.168 HD
HETATM   11  C8  UNL     1      -4.323  -1.869  -0.596  1.00  0.00     0.183 A 
HETATM   12  N6  UNL     1      -3.942  -0.587  -0.340  1.00  0.00    -0.338 N 
ATOM     13  H6  UNL     1      -4.633   0.163  -0.369  1.00  0.00     0.168 HD
HETATM   14  C9  UNL     1      -2.666  -0.304  -0.050  1.00  0.00     0.122 A 
HETATM   15  C12 UNL     1      -1.767  -1.345  -0.021  1.00  0.00     0.082 A 
HETATM   16  C13 UNL     1      -0.411  -1.402   0.236  1.00  0.00     0.095 A 
HETATM   17  N9  UNL     1       0.445  -0.438   0.540  1.00  0.00    -0.189 N 
ATOM     18  H9  UNL     1       0.141   0.533   0.618  1.00  0.00     0.184 HD
ENDROOT
BRANCH  14  19
HETATM   19  N7  UNL     1      -2.294   0.872   0.188  1.00  0.00    -0.353 N 
ATOM     20  H7  UNL     1      -1.300   0.970   0.395  1.00  0.00     0.166 HD
BRANCH  19  21
HETATM   21  C10 UNL     1      -3.020   2.075   0.216  1.00  0.00     0.089 C 
BRANCH  21  22
HETATM   22  C11 UNL     1      -3.388   2.653  -1.112  1.00  0.00     0.274 C 
BRANCH  22  23
HETATM   23  N8  UNL     1      -4.132   3.891  -0.858  1.00  0.00    -0.075 N 
ATOM     24  H83 UNL     1      -4.936   3.754  -0.246  1.00  0.00     0.274 HD
ATOM     25  H82 UNL     1      -3.624   4.547  -0.265  1.00  0.00     0.274 HD
ATOM     26  H81 UNL     1      -4.383   4.286  -1.764  1.00  0.00     0.274 HD
ENDBRANCH  22  23
ENDBRANCH  21  22
ENDBRANCH  19  21
ENDBRANCH  14  19
BRANCH   1  27
HETATM   27  N2  UNL     1       2.615   0.117   1.043  1.00  0.00    -0.199 N 
ATOM     28  H2  UNL     1       2.316   1.089   1.121  1.00  0.00     0.179 HD
BRANCH  27  29
HETATM   29  C3  UNL     1       3.993  -0.213   1.267  1.00  0.00     0.410 C 
BRANCH  29  30
HETATM   30  N1  UNL     1       4.871   0.294   0.243  1.00  0.00     0.097 N 
HETATM   31  C1  UNL     1       4.820   1.733   0.137  1.00  0.00     0.311 C 
HETATM   32  C2  UNL     1       4.535  -0.268  -1.057  1.00  0.00     0.311 C 
ENDBRANCH  29  30
ENDBRANCH  27  29
ENDBRANCH   1  27
TORSDOF 7
