REMARK  5 active torsions:
REMARK  status: ('A' for Active; 'I' for Inactive)
REMARK    1  A    between atoms: C2_2  and  C3_3 
REMARK    2  A    between atoms: C4_4  and  C5_5 
REMARK    3  A    between atoms: C7_7  and  N1_8 
REMARK    4  A    between atoms: C7_7  and  C8_12 
REMARK    5  A    between atoms: C8_12  and  C10_15 
ROOT
HETATM    1  C8  UNL     1      -1.593   0.445   0.416  1.00  0.00     0.167 C 
HETATM    2  C9  UNL     1      -3.039   0.768   0.518  1.00  0.00     0.071 C 
HETATM    3  N2  UNL     1      -4.166   1.014   0.598  1.00  0.00    -0.196 NA
ENDROOT
BRANCH   1   4
HETATM    4  C7  UNL     1      -1.443  -0.981   0.037  1.00  0.00     0.159 A 
HETATM    5  C5  UNL     1      -0.192  -1.685  -0.162  1.00  0.00     0.105 A 
HETATM    6  C6  UNL     1      -1.029  -1.258  -1.384  1.00  0.00     0.061 A 
BRANCH   5   7
HETATM    7  C4  UNL     1       1.122  -1.076   0.024  1.00  0.00    -0.099 C 
HETATM    8  C3  UNL     1       2.199  -0.597   0.187  1.00  0.00    -0.106 C 
BRANCH   8   9
HETATM    9  C2  UNL     1       3.526   0.016   0.402  1.00  0.00     0.089 C 
HETATM   10  C1  UNL     1       3.312   1.508   0.572  1.00  0.00     0.018 C 
ENDBRANCH   8   9
ENDBRANCH   5   7
BRANCH   4  11
HETATM   11  N1  UNL     1      -2.584  -1.813   0.467  1.00  0.00    -0.067 N 
ATOM     12  H13 UNL     1      -2.719  -2.584  -0.187  1.00  0.00     0.275 HD
ATOM     13  H12 UNL     1      -2.338  -2.331   1.310  1.00  0.00     0.275 HD
ATOM     14  H11 UNL     1      -3.464  -1.318   0.607  1.00  0.00     0.275 HD
ENDBRANCH   4  11
ENDBRANCH   1   4
BRANCH   1  15
HETATM   15  C10 UNL     1      -0.990   1.436  -0.461  1.00  0.00     0.074 C 
HETATM   16  N3  UNL     1      -1.536   2.568  -0.648  1.00  0.00    -0.410 N 
ATOM     17  H32 UNL     1      -2.413   2.769  -0.167  1.00  0.00     0.155 HD
ATOM     18  H31 UNL     1      -1.113   3.263  -1.263  1.00  0.00     0.155 HD
ENDBRANCH   1  15
TORSDOF 5
