REMARK  3 active torsions:
REMARK  status: ('A' for Active; 'I' for Inactive)
REMARK    1  A    between atoms: C2_2  and  C3_3 
REMARK    2  A    between atoms: C3_3  and  C4_4 
REMARK    3  A    between atoms: C4_4  and  N1_5 
ROOT
HETATM    1  N1  UNL     1       0.684  -0.508  -0.040  1.00  0.00    -0.181 N 
HETATM    2  C5  UNL     1       1.756  -1.464  -0.342  1.00  0.00     0.272 A 
HETATM    3  N2  UNL     1       3.066  -0.909  -0.259  1.00  0.00    -0.347 N 
ATOM      4  H2  UNL     1       3.826  -1.557  -0.466  1.00  0.00     0.163 HD
HETATM    5  C6  UNL     1       3.426   0.265   0.033  1.00  0.00     0.204 A 
HETATM    6  N3  UNL     1       4.783   0.700   0.083  1.00  0.00    -0.063 NA
HETATM    7  N4  UNL     1       2.437   1.230   0.334  1.00  0.00    -0.164 N 
ATOM      8  H4  UNL     1       2.686   2.190   0.574  1.00  0.00     0.187 HD
HETATM    9  C7  UNL     1       1.062   0.799   0.287  1.00  0.00     0.681 A 
HETATM   10  N5  UNL     1       0.208   1.711   0.567  1.00  0.00    -0.234 N 
ATOM     11  H51 UNL     1       0.484   2.664   0.805  1.00  0.00     0.174 HD
ATOM     12  H52 UNL     1      -0.765   1.406   0.534  1.00  0.00     0.174 HD
ENDROOT
BRANCH   1  13
HETATM   13  C4  UNL     1      -0.648  -0.958  -0.094  1.00  0.00     0.084 C 
BRANCH  13  14
HETATM   14  C3  UNL     1      -1.751  -0.024   0.205  1.00  0.00     0.045 C 
BRANCH  14  15
HETATM   15  C2  UNL     1      -3.122  -0.747   0.080  1.00  0.00     0.001 C 
HETATM   16  C1  UNL     1      -4.148   0.333   0.414  1.00  0.00     0.005 C 
ENDBRANCH  14  15
ENDBRANCH  13  14
ENDBRANCH   1  13
TORSDOF 3
