REMARK  7 active torsions:
REMARK  status: ('A' for Active; 'I' for Inactive)
REMARK    1  A    between atoms: O1_2  and  C2_3 
REMARK    2  A    between atoms: C2_3  and  C3_4 
REMARK    3  A    between atoms: C2_3  and  C12_15 
REMARK    4  A    between atoms: C2_3  and  C14_18 
REMARK    5  A    between atoms: C3_4  and  N1_5 
REMARK    6  A    between atoms: N1_5  and  C4_7 
REMARK    7  A    between atoms: C12_15  and  S1_16 
ROOT
HETATM    1  C3  UNL     1       0.440  -0.786  -0.409  1.00  0.00     0.104 C 
ENDROOT
BRANCH   1   2
HETATM    2  C2  UNL     1       1.868  -1.133  -0.010  1.00  0.00     0.197 C 
BRANCH   2   3
HETATM    3  O1  UNL     1       2.305  -1.821  -1.138  1.00  0.00    -0.370 OA
HETATM    4  C1  UNL     1       3.553  -2.274  -1.227  1.00  0.00     0.203 C 
ENDBRANCH   2   3
BRANCH   2   5
HETATM    5  C12 UNL     1       2.766   0.065   0.092  1.00  0.00     0.126 C 
BRANCH   5   6
HETATM    6  S1  UNL     1       2.476   1.174   1.450  1.00  0.00    -0.170 SA
HETATM    7  C13 UNL     1       3.649   2.560   1.333  1.00  0.00     0.089 C 
ENDBRANCH   5   6
ENDBRANCH   2   5
BRANCH   2   8
HETATM    8  C14 UNL     1       1.940  -1.995   1.186  1.00  0.00     0.424 C 
HETATM    9  F1  UNL     1       1.179  -3.144   1.111  1.00  0.00    -0.167 F 
HETATM   10  F2  UNL     1       3.194  -2.375   1.599  1.00  0.00    -0.167 F 
HETATM   11  F3  UNL     1       1.454  -1.253   2.300  1.00  0.00    -0.167 F 
ENDBRANCH   2   8
ENDBRANCH   1   2
BRANCH   1  12
HETATM   12  N1  UNL     1      -0.383  -0.136   0.481  1.00  0.00    -0.394 N 
ATOM     13  H1  UNL     1      -0.117   0.030   1.452  1.00  0.00     0.159 HD
BRANCH  12  14
HETATM   14  C4  UNL     1      -1.626   0.285  -0.050  1.00  0.00     0.092 C 
HETATM   15  C5  UNL     1      -2.115   1.587   0.575  1.00  0.00     0.027 C 
HETATM   16  C6  UNL     1      -1.079   2.654   0.626  1.00  0.00     0.016 C 
HETATM   17  C7  UNL     1      -3.275   2.039  -0.214  1.00  0.00    -0.024 C 
HETATM   18  C8  UNL     1      -4.009   1.216  -0.911  1.00  0.00    -0.030 C 
HETATM   19  C9  UNL     1      -3.787  -0.238  -1.007  1.00  0.00     0.033 C 
HETATM   20  C10 UNL     1      -2.787  -0.650   0.063  1.00  0.00     0.008 C 
HETATM   21  C11 UNL     1      -2.492  -2.104  -0.069  1.00  0.00     0.012 C 
ENDBRANCH  12  14
ENDBRANCH   1  12
TORSDOF 7
