REMARK  12 active torsions:
REMARK  status: ('A' for Active; 'I' for Inactive)
REMARK    1  A    between atoms: C2_2  and  C3_3 
REMARK    2  A    between atoms: C3_3  and  C5_5 
REMARK    3  A    between atoms: C5_5  and  C6_7 
REMARK       I    between atoms: C6_7  and  N2_9 
REMARK    4  A    between atoms: C10_13  and  C11_14 
REMARK    5  A    between atoms: C11_14  and  N3_17 
REMARK       I    between atoms: N3_17  and  C14_19 
REMARK    6  A    between atoms: N5_21  and  N6_23 
REMARK    7  A    between atoms: C15_25  and  C16_26 
REMARK    8  A    between atoms: C15_25  and  C20_34 
REMARK    9  A    between atoms: C16_26  and  C17_27 
REMARK   10  A    between atoms: C17_27  and  C18_28 
REMARK   11  A    between atoms: C18_28  and  N7_29 
REMARK       I    between atoms: C20_34  and  N10_36 
REMARK   12  A    between atoms: N10_36  and  C21_38 
ROOT
HETATM    1  N3  UNL     1       1.079   0.677  -0.683  1.00  0.00    -0.353 N 
ATOM      2  H3  UNL     1       1.365   1.321  -1.421  1.00  0.00     0.163 HD
HETATM    3  C14 UNL     1      -0.020  -0.191  -0.925  1.00  0.00     0.203 C 
HETATM    4  N4  UNL     1       0.021  -1.606  -0.865  1.00  0.00    -0.062 NA
HETATM    5  N5  UNL     1      -1.183   0.325  -1.236  1.00  0.00    -0.273 N 
ATOM      6  H5  UNL     1      -1.260   1.340  -1.296  1.00  0.00     0.189 HD
ENDROOT
BRANCH   5   7
HETATM    7  N6  UNL     1      -2.283  -0.413  -1.481  1.00  0.00    -0.297 N 
HETATM    8  C15 UNL     1      -3.527  -0.227  -1.319  1.00  0.00     0.093 C 
ATOM      9  H6  UNL     1      -2.068  -1.324  -1.887  1.00  0.00     0.187 HD
BRANCH   8  10
HETATM   10  C16 UNL     1      -4.421  -1.368  -1.752  1.00  0.00     0.066 C 
BRANCH  10  11
HETATM   11  C17 UNL     1      -5.040  -1.998  -0.554  1.00  0.00     0.026 C 
BRANCH  11  12
HETATM   12  C18 UNL     1      -5.948  -3.153  -0.921  1.00  0.00     0.122 C 
BRANCH  12  13
HETATM   13  N7  UNL     1      -6.487  -3.705   0.301  1.00  0.00    -0.367 N 
HETATM   14  C19 UNL     1      -7.463  -4.563   0.267  1.00  0.00     0.196 C 
HETATM   15  N8  UNL     1      -7.973  -4.930  -1.013  1.00  0.00    -0.067 NA
HETATM   16  N9  UNL     1      -8.038  -5.148   1.402  1.00  0.00    -0.067 NA
ATOM     17  H7  UNL     1      -6.098  -3.418   1.199  1.00  0.00     0.161 HD
ENDBRANCH  12  13
ENDBRANCH  11  12
ENDBRANCH  10  11
ENDBRANCH   8  10
BRANCH   8  18
HETATM   18  C20 UNL     1      -4.160   0.942  -0.755  1.00  0.00     0.266 C 
HETATM   19  O2  UNL     1      -5.452   0.929  -0.684  1.00  0.00    -0.266 OA
HETATM   20  N10 UNL     1      -3.502   2.097  -0.275  1.00  0.00    -0.348 N 
ATOM     21  H10 UNL     1      -2.484   2.139  -0.316  1.00  0.00     0.163 HD
BRANCH  20  22
HETATM   22  C21 UNL     1      -4.237   3.233   0.278  1.00  0.00     0.022 C 
HETATM   23  C22 UNL     1      -5.041   2.880   1.487  1.00  0.00     0.037 C 
HETATM   24  C23 UNL     1      -3.302   4.371   0.592  1.00  0.00     0.037 C 
HETATM   25  C24 UNL     1      -5.210   3.766  -0.781  1.00  0.00     0.037 C 
ENDBRANCH  20  22
ENDBRANCH   8  18
ENDBRANCH   5   7
BRANCH   1  26
HETATM   26  C11 UNL     1       1.799   0.685   0.551  1.00  0.00     0.046 C 
HETATM   27  C12 UNL     1       1.926  -0.655   1.158  1.00  0.00     0.040 C 
HETATM   28  C13 UNL     1       0.710   1.363   1.518  1.00  0.00     0.040 C 
BRANCH  26  29
HETATM   29  C10 UNL     1       2.967   1.595   0.643  1.00  0.00     0.115 C 
HETATM   30  N2  UNL     1       4.233   1.266   0.136  1.00  0.00    -0.340 N 
HETATM   31  C6  UNL     1       4.567   0.435  -0.963  1.00  0.00     0.264 C 
HETATM   32  C7  UNL     1       5.239   1.985   0.939  1.00  0.00     0.127 C 
HETATM   33  O1  UNL     1       3.632  -0.180  -1.545  1.00  0.00    -0.267 OA
HETATM   34  C8  UNL     1       4.543   2.579   2.110  1.00  0.00     0.022 C 
HETATM   35  C9  UNL     1       3.167   2.062   2.081  1.00  0.00     0.029 C 
BRANCH  31  36
HETATM   36  C5  UNL     1       5.928   0.201  -1.527  1.00  0.00     0.095 C 
HETATM   37  N1  UNL     1       6.953   1.061  -1.052  1.00  0.00    -0.101 NA
BRANCH  36  38
HETATM   38  C3  UNL     1       6.291  -1.244  -1.630  1.00  0.00     0.034 C 
HETATM   39  C4  UNL     1       5.164  -2.060  -2.283  1.00  0.00     0.016 C 
BRANCH  38  40
HETATM   40  C2  UNL     1       6.680  -1.971  -0.405  1.00  0.00     0.006 C 
HETATM   41  C1  UNL     1       7.793  -1.398   0.420  1.00  0.00     0.006 C 
ENDBRANCH  38  40
ENDBRANCH  36  38
ENDBRANCH  31  36
ENDBRANCH  26  29
ENDBRANCH   1  26
TORSDOF 12
