REMARK  15 active torsions:
REMARK  status: ('A' for Active; 'I' for Inactive)
REMARK    1  A    between atoms: C7_7  and  C8_8 
REMARK    2  A    between atoms: C10_14  and  C11_15 
REMARK    3  A    between atoms: C11_15  and  C12_16 
REMARK    4  A    between atoms: C12_16  and  C13_17 
REMARK    5  A    between atoms: C13_17  and  N2_18 
REMARK    6  A    between atoms: N2_18  and  C14_20 
REMARK    7  A    between atoms: C14_20  and  N3_22 
REMARK    8  A    between atoms: N3_22  and  C15_24 
REMARK    9  A    between atoms: C15_24  and  C16_25 
REMARK   10  A    between atoms: C16_25  and  C17_26 
REMARK   11  A    between atoms: C17_26  and  C18_27 
REMARK   12  A    between atoms: C18_27  and  C19_28 
REMARK   13  A    between atoms: C19_28  and  N4_29 
REMARK   14  A    between atoms: N4_29  and  C20_31 
REMARK   15  A    between atoms: C20_31  and  N5_33 
ROOT
HETATM    1  N5  UNL     1      10.092  -1.223   1.467  1.00  0.00    -0.270 N 
ATOM      2  H5  UNL     1      10.853  -1.153   2.142  1.00  0.00     0.180 HD
HETATM    3  C21 UNL     1       9.600  -2.482   1.191  1.00  0.00     0.184 C 
HETATM    4  N6  UNL     1       9.210  -3.574   0.979  1.00  0.00    -0.172 NA
ENDROOT
BRANCH   1   5
HETATM    5  C20 UNL     1       9.628  -0.032   0.892  1.00  0.00     0.180 C 
HETATM    6  S2  UNL     1      10.409   1.369   1.399  1.00  0.00    -0.040 SA
BRANCH   5   7
HETATM    7  N4  UNL     1       8.592   0.099  -0.047  1.00  0.00    -0.366 N 
ATOM      8  H4  UNL     1       8.376   1.040  -0.376  1.00  0.00     0.161 HD
BRANCH   7   9
HETATM    9  C19 UNL     1       7.812  -0.979  -0.582  1.00  0.00     0.122 C 
BRANCH   9  10
HETATM   10  C18 UNL     1       6.832  -0.405  -1.602  1.00  0.00     0.020 C 
BRANCH  10  11
HETATM   11  C17 UNL     1       5.909   0.599  -0.993  1.00  0.00     0.003 C 
BRANCH  11  12
HETATM   12  C16 UNL     1       5.091  -0.054   0.129  1.00  0.00     0.020 C 
BRANCH  12  13
HETATM   13  C15 UNL     1       4.303  -1.188  -0.432  1.00  0.00     0.122 C 
BRANCH  13  14
HETATM   14  N3  UNL     1       3.363  -0.857  -1.455  1.00  0.00    -0.367 N 
ATOM     15  H3  UNL     1       3.601  -1.162  -2.399  1.00  0.00     0.161 HD
BRANCH  14  16
HETATM   16  C14 UNL     1       2.149  -0.161  -1.316  1.00  0.00     0.167 C 
HETATM   17  S1  UNL     1       1.268   0.132  -2.673  1.00  0.00    -0.041 SA
BRANCH  16  18
HETATM   18  N2  UNL     1       1.639   0.320  -0.091  1.00  0.00    -0.367 N 
ATOM     19  H2  UNL     1       2.192   0.150   0.749  1.00  0.00     0.161 HD
BRANCH  18  20
HETATM   20  C13 UNL     1       0.411   1.024   0.062  1.00  0.00     0.122 C 
BRANCH  20  21
HETATM   21  C12 UNL     1      -0.837   0.241  -0.142  1.00  0.00     0.022 C 
BRANCH  21  22
HETATM   22  C11 UNL     1      -2.026   1.173   0.080  1.00  0.00     0.044 C 
BRANCH  22  23
HETATM   23  C10 UNL     1      -3.334   0.403  -0.121  1.00  0.00     0.277 C 
HETATM   24  C9  UNL     1      -4.440   1.366   0.113  1.00  0.00     0.252 C 
HETATM   25  N1  UNL     1      -5.853   1.321  -0.035  1.00  0.00    -0.331 N 
HETATM   26  O3  UNL     1      -4.079   2.491   0.543  1.00  0.00    -0.271 OA
HETATM   27  C5  UNL     1      -6.878   0.363  -0.280  1.00  0.00     0.090 C 
HETATM   28  C7  UNL     1      -6.869   2.355   0.015  1.00  0.00     0.190 C 
HETATM   29  C4  UNL     1      -6.788  -0.917   0.467  1.00  0.00     0.027 C 
HETATM   30  C6  UNL     1      -7.861   1.293   0.427  1.00  0.00     0.061 C 
HETATM   31  C3  UNL     1      -5.639  -1.055   1.405  1.00  0.00     0.034 C 
HETATM   32  C2  UNL     1      -4.433  -1.508   0.620  1.00  0.00     0.183 C 
HETATM   33  C1  UNL     1      -4.039  -2.938   0.934  1.00  0.00     0.040 C 
HETATM   34  N7  UNL     1      -3.355  -0.606   0.922  1.00  0.00    -0.058 N 
ATOM     35  H72 UNL     1      -3.417  -0.210   1.860  1.00  0.00     0.278 HD
ATOM     36  H71 UNL     1      -2.459  -1.079   1.038  1.00  0.00     0.278 HD
BRANCH  28  37
HETATM   37  C8  UNL     1      -7.252   2.914  -1.306  1.00  0.00     0.197 C 
HETATM   38  O1  UNL     1      -6.771   2.556  -2.390  1.00  0.00    -0.646 OA
HETATM   39  O2  UNL     1      -8.228   3.912  -1.289  1.00  0.00    -0.646 OA
ENDBRANCH  28  37
ENDBRANCH  22  23
ENDBRANCH  21  22
ENDBRANCH  20  21
ENDBRANCH  18  20
ENDBRANCH  16  18
ENDBRANCH  14  16
ENDBRANCH  13  14
ENDBRANCH  12  13
ENDBRANCH  11  12
ENDBRANCH  10  11
ENDBRANCH   9  10
ENDBRANCH   7   9
ENDBRANCH   5   7
ENDBRANCH   1   5
TORSDOF 15
