REMARK  13 active torsions:
REMARK  status: ('A' for Active; 'I' for Inactive)
REMARK       I    between atoms: C1_2  and  N3_10 
REMARK       I    between atoms: N2_3  and  C2_5 
REMARK    1  A    between atoms: C2_5  and  C3_7 
REMARK    2  A    between atoms: C3_7  and  O2_8 
REMARK    3  A    between atoms: N3_10  and  C4_12 
REMARK    4  A    between atoms: C4_12  and  C5_13 
REMARK    5  A    between atoms: C10_18  and  C11_19 
REMARK    6  A    between atoms: C11_19  and  C12_20 
REMARK    7  A    between atoms: C12_20  and  C13_21 
REMARK       I    between atoms: N4_25  and  C17_26 
REMARK    8  A    between atoms: C17_26  and  C18_28 
REMARK       I    between atoms: C18_28  and  N5_30 
REMARK    9  A    between atoms: N5_30  and  C19_32 
REMARK   10  A    between atoms: C19_32  and  C20_33 
REMARK   11  A    between atoms: C19_32  and  C29_44 
REMARK   12  A    between atoms: C20_33  and  C21_34 
REMARK   13  A    between atoms: C29_44  and  N7_45 
ROOT
HETATM    1  C13 UNL     1       1.632   1.729  -2.369  1.00  0.00     0.091 C 
HETATM    2  C14 UNL     1       1.686   3.271  -2.201  1.00  0.00     0.027 C 
HETATM    3  C15 UNL     1       1.606   3.409  -0.709  1.00  0.00     0.022 C 
HETATM    4  C16 UNL     1       0.807   2.197  -0.266  1.00  0.00     0.127 C 
HETATM    5  N4  UNL     1       0.530   1.454  -1.494  1.00  0.00    -0.339 N 
HETATM    6  C17 UNL     1      -0.632   0.716  -1.730  1.00  0.00     0.311 C 
HETATM    7  O3  UNL     1      -0.868   0.233  -2.893  1.00  0.00    -0.262 OA
ENDROOT
BRANCH   1   8
HETATM    8  C12 UNL     1       2.969   1.204  -1.848  1.00  0.00     0.053 C 
BRANCH   8   9
HETATM    9  C11 UNL     1       3.120  -0.225  -1.932  1.00  0.00    -0.013 C 
BRANCH   9  10
HETATM   10  C10 UNL     1       4.272  -0.981  -1.511  1.00  0.00    -0.027 A 
HETATM   11  C5  UNL     1       5.389  -0.582  -0.866  1.00  0.00    -0.010 A 
HETATM   12  C6  UNL     1       6.367  -1.541  -0.550  1.00  0.00     0.021 A 
HETATM   13  C7  UNL     1       6.254  -2.867  -0.859  1.00  0.00    -0.043 A 
HETATM   14  C8  UNL     1       5.123  -3.281  -1.514  1.00  0.00    -0.007 A 
HETATM   15  C41 UNL     1       7.353  -3.811  -0.480  1.00  0.00     0.066 C 
HETATM   16  C9  UNL     1       4.158  -2.372  -1.835  1.00  0.00     0.026 A 
HETATM   17  C39 UNL     1       5.027  -4.566  -1.812  1.00  0.00     0.146 C 
HETATM   18  O5  UNL     1       6.003  -5.474  -1.489  1.00  0.00    -0.362 OA
HETATM   19  C40 UNL     1       6.967  -5.239  -0.516  1.00  0.00     0.179 C 
BRANCH  11  20
HETATM   20  C4  UNL     1       5.659   0.664  -0.490  1.00  0.00     0.103 C 
BRANCH  20  21
HETATM   21  N3  UNL     1       6.898   0.946   0.202  1.00  0.00    -0.340 N 
HETATM   22  C1  UNL     1       6.847   0.923   1.617  1.00  0.00     0.194 C 
HETATM   23  N1  UNL     1       5.724   0.335   2.251  1.00  0.00    -0.063 NA
HETATM   24  N2  UNL     1       7.807   1.448   2.278  1.00  0.00    -0.299 N 
HETATM   25  C2  UNL     1       7.874   1.511   3.700  1.00  0.00     0.247 C 
ATOM     26  H2  UNL     1       8.581   1.851   1.749  1.00  0.00     0.171 HD
HETATM   27  O1  UNL     1       7.209   0.780   4.469  1.00  0.00    -0.271 OA
ATOM     28  H3  UNL     1       7.761   1.150  -0.302  1.00  0.00     0.167 HD
BRANCH  25  29
HETATM   29  C3  UNL     1       8.780   2.499   4.344  1.00  0.00     0.267 C 
BRANCH  29  30
HETATM   30  O2  UNL     1       9.525   3.181   3.384  1.00  0.00    -0.392 OA
ATOM     31  H2  UNL     1      10.104   3.812   3.795  1.00  0.00     0.210 HD
ENDBRANCH  29  30
ENDBRANCH  25  29
ENDBRANCH  20  21
ENDBRANCH  11  20
ENDBRANCH   9  10
ENDBRANCH   8   9
ENDBRANCH   1   8
BRANCH   6  32
HETATM   32  C18 UNL     1      -1.662   0.426  -0.734  1.00  0.00     0.309 C 
HETATM   33  O4  UNL     1      -1.373   0.673   0.452  1.00  0.00    -0.262 OA
HETATM   34  N5  UNL     1      -2.929  -0.095  -1.069  1.00  0.00    -0.346 N 
ATOM     35  H5  UNL     1      -3.099  -0.281  -2.057  1.00  0.00     0.163 HD
BRANCH  34  36
HETATM   36  C19 UNL     1      -4.000  -0.390  -0.171  1.00  0.00     0.107 C 
BRANCH  36  37
HETATM   37  C20 UNL     1      -3.586  -1.653   0.587  1.00  0.00     0.067 C 
BRANCH  37  38
HETATM   38  C21 UNL     1      -4.606  -2.082   1.568  1.00  0.00    -0.028 A 
HETATM   39  C22 UNL     1      -4.519  -1.916   2.947  1.00  0.00     0.096 A 
HETATM   40  N6  UNL     1      -5.629  -2.433   3.491  1.00  0.00    -0.365 N 
HETATM   41  C23 UNL     1      -6.436  -2.928   2.531  1.00  0.00     0.042 A 
ATOM     42  H6  UNL     1      -5.834  -2.450   4.490  1.00  0.00     0.165 HD
HETATM   43  C24 UNL     1      -7.680  -3.554   2.566  1.00  0.00     0.030 A 
HETATM   44  C28 UNL     1      -5.806  -2.713   1.340  1.00  0.00    -0.002 A 
HETATM   45  C25 UNL     1      -8.291  -3.964   1.405  1.00  0.00     0.002 A 
HETATM   46  C26 UNL     1      -7.659  -3.748   0.204  1.00  0.00     0.001 A 
HETATM   47  C27 UNL     1      -6.440  -3.136   0.163  1.00  0.00     0.014 A 
ENDBRANCH  37  38
ENDBRANCH  36  37
BRANCH  36  48
HETATM   48  C29 UNL     1      -4.422   0.699   0.737  1.00  0.00     0.154 C 
BRANCH  48  49
HETATM   49  N7  UNL     1      -4.898   1.915   0.112  1.00  0.00    -0.354 N 
HETATM   50  C30 UNL     1      -4.123   2.988  -0.136  1.00  0.00     0.091 A 
HETATM   51  C31 UNL     1      -4.528   4.166  -0.708  1.00  0.00     0.018 A 
HETATM   52  C32 UNL     1      -5.843   4.293  -1.073  1.00  0.00     0.015 A 
HETATM   53  C33 UNL     1      -6.672   3.224  -0.839  1.00  0.00    -0.009 A 
HETATM   54  C34 UNL     1      -8.012   3.338  -1.201  1.00  0.00     0.014 A 
HETATM   55  C38 UNL     1      -6.200   2.059  -0.257  1.00  0.00     0.044 A 
HETATM   56  C35 UNL     1      -8.872   2.285  -0.977  1.00  0.00     0.001 A 
HETATM   57  C36 UNL     1      -8.406   1.108  -0.391  1.00  0.00     0.002 A 
HETATM   58  C37 UNL     1      -7.064   1.012  -0.036  1.00  0.00     0.030 A 
ENDBRANCH  48  49
ENDBRANCH  36  48
ENDBRANCH  34  36
ENDBRANCH   6  32
TORSDOF 13
