REMARK  12 active torsions:
REMARK  status: ('A' for Active; 'I' for Inactive)
REMARK    1  A    between atoms: C2_2  and  C3_3 
REMARK       I    between atoms: C3_3  and  N1_5 
REMARK    2  A    between atoms: N1_5  and  C4_7 
REMARK    3  A    between atoms: C7_10  and  C8_11 
REMARK       I    between atoms: C8_11  and  N2_13 
REMARK    4  A    between atoms: C9_15  and  C10_16 
REMARK    5  A    between atoms: C9_15  and  C19_27 
REMARK    6  A    between atoms: C10_16  and  C11_17 
REMARK       I    between atoms: C19_27  and  N4_29 
REMARK    7  A    between atoms: N4_29  and  C20_31 
REMARK    8  A    between atoms: C20_31  and  C30_41 
REMARK    9  A    between atoms: C21_32  and  C22_33 
REMARK   10  A    between atoms: C27_38  and  C28_39 
REMARK   11  A    between atoms: C30_41  and  O4_42 
REMARK   12  A    between atoms: N5_44  and  C31_46 
ROOT
HETATM    1  C8  UNL     1       2.315  -0.678  -0.580  1.00  0.00     0.255 C 
HETATM    2  O2  UNL     1       2.174   0.014  -1.584  1.00  0.00    -0.271 OA
HETATM    3  N2  UNL     1       1.122  -1.373  -0.103  1.00  0.00    -0.324 N 
ATOM      4  H2  UNL     1       1.280  -1.943   0.728  1.00  0.00     0.169 HD
HETATM    5  C9  UNL     1      -0.144  -1.404  -0.552  1.00  0.00     0.085 C 
ENDROOT
BRANCH   5   6
HETATM    6  C10 UNL     1      -0.912  -2.529  -1.184  1.00  0.00     0.104 C 
BRANCH   6   7
HETATM    7  C11 UNL     1      -0.514  -3.052  -2.497  1.00  0.00    -0.025 A 
HETATM    8  C12 UNL     1      -0.354  -2.226  -3.630  1.00  0.00     0.096 A 
HETATM    9  N3  UNL     1       0.046  -2.932  -4.680  1.00  0.00    -0.365 N 
HETATM   10  C13 UNL     1       0.162  -4.236  -4.279  1.00  0.00     0.042 A 
ATOM     11  H3  UNL     1       0.233  -2.569  -5.615  1.00  0.00     0.165 HD
HETATM   12  C14 UNL     1       0.481  -5.364  -4.976  1.00  0.00     0.030 A 
HETATM   13  C18 UNL     1      -0.178  -4.303  -2.954  1.00  0.00    -0.002 A 
HETATM   14  C15 UNL     1       0.467  -6.589  -4.372  1.00  0.00     0.002 A 
HETATM   15  C16 UNL     1       0.127  -6.672  -3.053  1.00  0.00     0.001 A 
HETATM   16  C17 UNL     1      -0.200  -5.535  -2.324  1.00  0.00     0.014 A 
ENDBRANCH   6   7
ENDBRANCH   5   6
BRANCH   5  17
HETATM   17  C19 UNL     1      -1.209  -0.412  -0.197  1.00  0.00     0.269 C 
HETATM   18  O3  UNL     1      -1.537   0.424  -1.110  1.00  0.00    -0.266 OA
HETATM   19  N4  UNL     1      -1.902  -0.333   1.027  1.00  0.00    -0.318 N 
ATOM     20  H4  UNL     1      -1.623  -0.882   1.840  1.00  0.00     0.169 HD
BRANCH  19  21
HETATM   21  C20 UNL     1      -3.057   0.591   1.066  1.00  0.00     0.087 C 
HETATM   22  C21 UNL     1      -2.818   1.980   0.914  1.00  0.00     0.046 C 
BRANCH  22  23
HETATM   23  C22 UNL     1      -4.044   2.834   0.861  1.00  0.00    -0.028 A 
HETATM   24  C23 UNL     1      -4.361   3.370  -0.376  1.00  0.00     0.012 A 
HETATM   25  C24 UNL     1      -5.496   4.159  -0.565  1.00  0.00     0.001 A 
HETATM   26  C25 UNL     1      -6.326   4.420   0.496  1.00  0.00     0.001 A 
HETATM   27  C26 UNL     1      -5.999   3.888   1.722  1.00  0.00     0.008 A 
HETATM   28  C27 UNL     1      -4.853   3.089   1.909  1.00  0.00    -0.048 A 
BRANCH  28  29
HETATM   29  C28 UNL     1      -4.653   2.555   3.256  1.00  0.00     0.035 C 
HETATM   30  C29 UNL     1      -5.505   3.314   4.260  1.00  0.00     0.010 C 
ENDBRANCH  28  29
ENDBRANCH  22  23
BRANCH  21  31
HETATM   31  C30 UNL     1      -4.124  -0.097   0.300  1.00  0.00     0.169 C 
HETATM   32  N5  UNL     1      -5.040   0.258  -0.628  1.00  0.00    -0.321 N 
ATOM     33  H5  UNL     1      -4.683   0.518  -1.548  1.00  0.00     0.169 HD
BRANCH  31  34
HETATM   34  O4  UNL     1      -4.161  -1.384   0.615  1.00  0.00    -0.344 OA
ATOM     35  H4  UNL     1      -4.845  -1.825   0.124  1.00  0.00     0.219 HD
ENDBRANCH  31  34
BRANCH  32  36
HETATM   36  C31 UNL     1      -6.318   0.302  -0.470  1.00  0.00     0.106 A 
HETATM   37  C32 UNL     1      -6.907  -0.025   0.756  1.00  0.00     0.048 A 
HETATM   38  C33 UNL     1      -8.281  -0.027   0.893  1.00  0.00     0.005 A 
HETATM   39  C34 UNL     1      -9.098   0.293  -0.173  1.00  0.00     0.017 A 
HETATM   40  C35 UNL     1      -8.474   0.603  -1.347  1.00  0.00     0.089 A 
HETATM   41  N6  UNL     1      -7.137   0.607  -1.479  1.00  0.00    -0.352 N 
ATOM     42  H6  UNL     1      -6.733   0.852  -2.383  1.00  0.00     0.166 HD
ENDBRANCH  32  36
ENDBRANCH  21  31
ENDBRANCH  19  21
ENDBRANCH   5  17
BRANCH   1  43
HETATM   43  C7  UNL     1       3.604  -0.829   0.166  1.00  0.00     0.305 C 
HETATM   44  C6  UNL     1       4.528   0.289  -0.135  1.00  0.00     0.132 C 
HETATM   45  C5  UNL     1       5.129   1.050   1.031  1.00  0.00     0.063 C 
HETATM   46  N8  UNL     1       5.684  -0.357  -0.806  1.00  0.00    -0.319 N 
HETATM   47  C4  UNL     1       6.625   0.876   0.934  1.00  0.00     0.178 C 
HETATM   48  C39 UNL     1       6.786   0.483  -0.481  1.00  0.00     0.244 C 
HETATM   49  O5  UNL     1       7.683   0.798  -1.291  1.00  0.00    -0.271 OA
HETATM   50  C38 UNL     1       5.089  -1.511  -1.428  1.00  0.00     0.365 C 
HETATM   51  N7  UNL     1       4.327  -2.003  -0.255  1.00  0.00    -0.044 N 
HETATM   52  C36 UNL     1       3.563  -3.173  -0.506  1.00  0.00     0.275 C 
HETATM   53  C37 UNL     1       5.330  -2.371   0.737  1.00  0.00     0.275 C 
BRANCH  47  54
HETATM   54  N1  UNL     1       7.538   1.862   1.299  1.00  0.00    -0.348 N 
HETATM   55  C3  UNL     1       7.324   2.984   2.086  1.00  0.00     0.217 C 
HETATM   56  O1  UNL     1       6.178   3.290   2.581  1.00  0.00    -0.274 OA
ATOM     57  H1  UNL     1       8.486   1.744   0.942  1.00  0.00     0.163 HD
BRANCH  55  58
HETATM   58  C2  UNL     1       8.459   3.931   2.414  1.00  0.00     0.098 C 
HETATM   59  C1  UNL     1       7.869   5.228   2.929  1.00  0.00     0.014 C 
ENDBRANCH  55  58
ENDBRANCH  47  54
ENDBRANCH   1  43
TORSDOF 12
