REMARK  4 active torsions:
REMARK  status: ('A' for Active; 'I' for Inactive)
REMARK    1  A    between atoms: N1_2  and  C3_4 
REMARK    2  A    between atoms: C3_4  and  C4_5 
REMARK    3  A    between atoms: C8_11  and  N3_12 
REMARK    4  A    between atoms: N3_12  and  C9_14 
ROOT
HETATM    1  C4  UNL     1       1.296  -0.820  -0.063  1.00  0.00     0.012 A 
HETATM    2  C5  UNL     1       2.033  -1.975  -0.046  1.00  0.00     0.098 A 
HETATM    3  N2  UNL     1       1.421  -3.183  -0.001  1.00  0.00    -0.375 N 
ATOM      4  H2  UNL     1       1.984  -4.033   0.012  1.00  0.00     0.164 HD
HETATM    5  C6  UNL     1       0.087  -3.273   0.027  1.00  0.00     0.090 A 
HETATM    6  C7  UNL     1      -0.724  -2.146   0.012  1.00  0.00     0.047 A 
HETATM    7  C8  UNL     1      -0.103  -0.915  -0.035  1.00  0.00     0.043 A 
ENDROOT
BRANCH   7   8
HETATM    8  N3  UNL     1      -0.863   0.285  -0.019  1.00  0.00    -0.356 N 
ATOM      9  H3  UNL     1      -0.349   1.149   0.153  1.00  0.00     0.166 HD
BRANCH   8  10
HETATM   10  C9  UNL     1      -2.253   0.405  -0.216  1.00  0.00     0.032 A 
HETATM   11  C10 UNL     1      -2.957  -0.331  -1.117  1.00  0.00     0.029 A 
HETATM   12  C11 UNL     1      -4.333  -0.210  -1.279  1.00  0.00     0.002 A 
HETATM   13  C12 UNL     1      -4.990   0.701  -0.483  1.00  0.00     0.000 A 
HETATM   14  C13 UNL     1      -4.300   1.458   0.437  1.00  0.00     0.002 A 
HETATM   15  C14 UNL     1      -2.939   1.316   0.575  1.00  0.00     0.029 A 
ENDBRANCH   8  10
ENDBRANCH   7   8
BRANCH   1  16
HETATM   16  C3  UNL     1       1.898   0.530  -0.122  1.00  0.00     0.313 C 
BRANCH  16  17
HETATM   17  N1  UNL     1       3.326   0.566  -0.133  1.00  0.00     0.084 N 
HETATM   18  C1  UNL     1       3.658   2.000  -0.315  1.00  0.00     0.309 C 
HETATM   19  C2  UNL     1       3.819   0.223   1.212  1.00  0.00     0.309 C 
ENDBRANCH  16  17
ENDBRANCH   1  16
TORSDOF 4
