REMARK  12 active torsions:
REMARK  status: ('A' for Active; 'I' for Inactive)
REMARK    1  A    between atoms: C2_5  and  N3_6 
REMARK    2  A    between atoms: N3_6  and  C3_8 
REMARK    3  A    between atoms: C3_8  and  O1_9 
REMARK    4  A    between atoms: C3_8  and  C4_11 
REMARK    5  A    between atoms: C4_11  and  S1_12 
REMARK    6  A    between atoms: S1_12  and  C5_13 
REMARK    7  A    between atoms: C7_21  and  O2_22 
REMARK    8  A    between atoms: N7_27  and  N8_28 
REMARK    9  A    between atoms: C10_31  and  N9_32 
REMARK   10  A    between atoms: C11_35  and  O6_36 
REMARK   11  A    between atoms: C12_38  and  N10_39 
REMARK   12  A    between atoms: N10_39  and  N11_41 
ROOT
HETATM    1  C3  UNL     1       0.147   1.178   0.481  1.00  0.00     0.228 C 
ENDROOT
BRANCH   1   2
HETATM    2  N3  UNL     1      -0.712   0.908  -0.625  1.00  0.00    -0.346 N 
ATOM      3  H3  UNL     1      -0.324   0.978  -1.566  1.00  0.00     0.163 HD
BRANCH   2   4
HETATM    4  C2  UNL     1      -2.084   0.545  -0.487  1.00  0.00     0.154 A 
HETATM    5  N2  UNL     1      -2.669   0.439   0.708  1.00  0.00    -0.280 N 
HETATM    6  N1  UNL     1      -3.960   0.103   0.890  1.00  0.00    -0.276 N 
ATOM      7  H2  UNL     1      -2.102   0.624   1.536  1.00  0.00     0.189 HD
HETATM    8  C1  UNL     1      -4.436   0.032   2.260  1.00  0.00     0.179 C 
HETATM    9  C12 UNL     1      -4.780  -0.156  -0.131  1.00  0.00     0.172 A 
HETATM   10  C11 UNL     1      -4.182  -0.050  -1.405  1.00  0.00     0.150 A 
HETATM   11  C10 UNL     1      -2.871   0.291  -1.585  1.00  0.00     0.184 A 
BRANCH   9  12
HETATM   12  N10 UNL     1      -5.999  -0.475  -0.047  1.00  0.00    -0.288 N 
ATOM     13  H10 UNL     1      -6.482  -0.640  -0.930  1.00  0.00     0.188 HD
BRANCH  12  14
HETATM   14  N11 UNL     1      -6.742  -0.624   1.078  1.00  0.00    -0.344 N 
ATOM     15 2H11 UNL     1      -6.242  -0.455   1.951  1.00  0.00     0.176 HD
ATOM     16 1H11 UNL     1      -7.727  -0.882   1.146  1.00  0.00     0.176 HD
ENDBRANCH  12  14
ENDBRANCH   9  12
BRANCH  10  17
HETATM   17  O6  UNL     1      -5.016  -0.316  -2.487  1.00  0.00    -0.355 OA
ATOM     18  H6  UNL     1      -5.927  -0.553  -2.362  1.00  0.00     0.218 HD
ENDBRANCH  10  17
BRANCH  11  19
HETATM   19  N9  UNL     1      -2.324   0.381  -2.898  1.00  0.00    -0.109 N 
HETATM   20  O4  UNL     1      -2.091   1.516  -3.356  1.00  0.00    -0.532 OA
HETATM   21  O5  UNL     1      -2.042  -0.710  -3.680  1.00  0.00    -0.532 OA
ENDBRANCH  11  19
ENDBRANCH   2   4
ENDBRANCH   1   2
BRANCH   1  22
HETATM   22  O1  UNL     1      -0.327   2.216   1.303  1.00  0.00    -0.376 OA
ATOM     23  H1  UNL     1       0.245   2.396   2.040  1.00  0.00     0.212 HD
ENDBRANCH   1  22
BRANCH   1  24
HETATM   24  C4  UNL     1       0.393  -0.017   1.336  1.00  0.00     0.136 C 
BRANCH  24  25
HETATM   25  S1  UNL     1       1.170  -1.374   0.424  1.00  0.00    -0.088 SA
BRANCH  25  26
HETATM   26  C5  UNL     1       2.820  -0.927  -0.095  1.00  0.00     0.170 A 
HETATM   27  N4  UNL     1       3.068  -0.329  -1.269  1.00  0.00    -0.319 N 
HETATM   28  C6  UNL     1       4.309   0.009  -1.664  1.00  0.00     0.142 A 
ATOM     29  H4  UNL     1       2.284  -0.122  -1.888  1.00  0.00     0.169 HD
HETATM   30  N5  UNL     1       4.839   0.599  -2.749  1.00  0.00    -0.282 N 
HETATM   31  C8  UNL     1       5.346  -0.276  -0.822  1.00  0.00     0.131 A 
HETATM   32  N6  UNL     1       6.152   0.709  -2.656  1.00  0.00    -0.278 N 
ATOM     33  H5  UNL     1       4.293   0.923  -3.548  1.00  0.00     0.188 HD
HETATM   34  C7  UNL     1       6.486   0.174  -1.470  1.00  0.00     0.174 A 
ATOM     35  H6  UNL     1       6.784   1.117  -3.345  1.00  0.00     0.189 HD
HETATM   36  C9  UNL     1       5.077  -0.890   0.379  1.00  0.00     0.286 A 
HETATM   37  O3  UNL     1       6.089  -1.126   1.113  1.00  0.00    -0.265 OA
HETATM   38  N7  UNL     1       3.825  -1.219   0.751  1.00  0.00    -0.203 N 
BRANCH  34  39
HETATM   39  O2  UNL     1       7.787   0.080  -0.958  1.00  0.00    -0.344 OA
ATOM     40  H2  UNL     1       8.023  -0.298  -0.119  1.00  0.00     0.219 HD
ENDBRANCH  34  39
BRANCH  38  41
HETATM   41  N8  UNL     1       3.614  -1.846   1.993  1.00  0.00    -0.334 N 
ATOM     42  H82 UNL     1       2.666  -2.095   2.275  1.00  0.00     0.177 HD
ATOM     43  H81 UNL     1       4.376  -2.067   2.634  1.00  0.00     0.177 HD
ENDBRANCH  38  41
ENDBRANCH  25  26
ENDBRANCH  24  25
ENDBRANCH   1  24
TORSDOF 12
