REMARK  5 active torsions:
REMARK  status: ('A' for Active; 'I' for Inactive)
REMARK    1  A    between atoms: N3_6  and  O1_7 
REMARK    2  A    between atoms: O1_7  and  C3_8 
REMARK    3  A    between atoms: C3_8  and  C4_9 
REMARK    4  A    between atoms: N4_19  and  C13_20 
REMARK    5  A    between atoms: C13_20  and  N5_22 
ROOT
HETATM    1  N1  UNL     1       2.018   1.875   2.338  1.00  0.00    -0.171 NA
HETATM    2  C1  UNL     1       1.442   1.269   1.537  1.00  0.00     0.196 C 
HETATM    3  N2  UNL     1       0.745   0.574   0.639  1.00  0.00    -0.123 N 
ATOM      4  H2  UNL     1      -0.227   0.470   0.930  1.00  0.00     0.197 HD
HETATM    5  C2  UNL     1       0.945   0.016  -0.454  1.00  0.00     0.729 A 
HETATM    6  N3  UNL     1      -0.176  -0.599  -1.002  1.00  0.00    -0.060 N 
HETATM    7  C10 UNL     1      -0.031  -1.215  -2.173  1.00  0.00     0.148 A 
HETATM    8  C11 UNL     1       1.158  -1.273  -2.858  1.00  0.00     0.096 A 
HETATM    9  C12 UNL     1       2.232  -0.655  -2.281  1.00  0.00     0.270 A 
HETATM   10  O2  UNL     1       3.384  -0.664  -2.859  1.00  0.00    -0.267 OA
HETATM   11  N4  UNL     1       2.113  -0.030  -1.107  1.00  0.00    -0.082 N 
ENDROOT
BRANCH   6  12
HETATM   12  O1  UNL     1      -1.381  -0.552  -0.330  1.00  0.00    -0.256 OA
BRANCH  12  13
HETATM   13  C3  UNL     1      -2.512  -0.178  -1.091  1.00  0.00     0.241 C 
BRANCH  13  14
HETATM   14  C4  UNL     1      -3.749  -0.160  -0.277  1.00  0.00    -0.032 A 
HETATM   15  C5  UNL     1      -4.919   0.191  -0.918  1.00  0.00     0.009 A 
HETATM   16  C6  UNL     1      -6.134   0.240  -0.247  1.00  0.00     0.001 A 
HETATM   17  C7  UNL     1      -6.156  -0.073   1.092  1.00  0.00     0.000 A 
HETATM   18  C8  UNL     1      -4.987  -0.425   1.738  1.00  0.00     0.001 A 
HETATM   19  C9  UNL     1      -3.786  -0.469   1.056  1.00  0.00     0.009 A 
ENDBRANCH  13  14
ENDBRANCH  12  13
ENDBRANCH   6  12
BRANCH  11  20
HETATM   20  C13 UNL     1       3.321   0.589  -0.596  1.00  0.00     0.204 C 
HETATM   21  S1  UNL     1       3.710   2.108  -1.020  1.00  0.00    -0.039 SA
BRANCH  20  22
HETATM   22  N5  UNL     1       4.182  -0.140   0.250  1.00  0.00    -0.309 N 
HETATM   23  C14 UNL     1       5.162   0.289   0.924  1.00  0.00     0.203 C 
HETATM   24  N6  UNL     1       5.909  -0.616   1.721  1.00  0.00    -0.066 NA
HETATM   25  N7  UNL     1       5.518   1.652   0.893  1.00  0.00    -0.066 NA
ATOM     26  H5  UNL     1       3.990  -1.139   0.328  1.00  0.00     0.170 HD
ENDBRANCH  20  22
ENDBRANCH  11  20
TORSDOF 5
