REMARK  6 active torsions:
REMARK  status: ('A' for Active; 'I' for Inactive)
REMARK    1  A    between atoms: O1_2  and  C2_3 
REMARK    2  A    between atoms: C6_9  and  C7_10 
REMARK       I    between atoms: C7_10  and  N2_12 
REMARK    3  A    between atoms: N2_12  and  C8_14 
REMARK    4  A    between atoms: C8_14  and  C9_15 
REMARK    5  A    between atoms: C8_14  and  C10_18 
REMARK    6  A    between atoms: C9_15  and  O3_16 
ROOT
HETATM    1  C2  UNL     1       0.303   0.933   0.849  1.00  0.00     0.158 A 
HETATM    2  N1  UNL     1      -0.929   1.437   1.174  1.00  0.00    -0.338 N 
ATOM      3  H1  UNL     1      -0.995   2.193   1.855  1.00  0.00     0.168 HD
HETATM    4  C3  UNL     1      -2.033   0.964   0.624  1.00  0.00     0.041 A 
HETATM    5  C4  UNL     1      -1.905  -0.059  -0.294  1.00  0.00    -0.006 A 
HETATM    6  C5  UNL     1      -0.687  -0.586  -0.642  1.00  0.00     0.033 A 
HETATM    7  C6  UNL     1       0.495  -0.078  -0.051  1.00  0.00     0.083 A 
HETATM    8  C13 UNL     1      -3.142  -0.584  -0.907  1.00  0.00     0.048 C 
HETATM    9  C14 UNL     1      -2.918  -2.001  -1.420  1.00  0.00     0.043 C 
HETATM   10  C15 UNL     1      -3.455   0.272  -2.118  1.00  0.00     0.043 C 
HETATM   11  N3  UNL     1      -4.275  -0.607  -0.059  1.00  0.00    -0.399 N 
ATOM     12  H3  UNL     1      -4.950  -1.369  -0.113  1.00  0.00     0.155 HD
HETATM   13  C16 UNL     1      -4.450   0.446   0.861  1.00  0.00     0.041 C 
HETATM   14  C17 UNL     1      -4.619  -0.163   2.245  1.00  0.00     0.039 C 
HETATM   15  C18 UNL     1      -5.752   1.159   0.551  1.00  0.00     0.039 C 
HETATM   16  C19 UNL     1      -3.368   1.466   0.936  1.00  0.00     0.159 C 
HETATM   17 CL1  UNL     1      -3.302   2.147   2.601  1.00  0.00    -0.116 Cl
ENDROOT
BRANCH   7  18
HETATM   18  C7  UNL     1       1.752  -0.667  -0.451  1.00  0.00     0.256 C 
HETATM   19  O2  UNL     1       1.744  -1.623  -1.322  1.00  0.00    -0.267 OA
HETATM   20  N2  UNL     1       3.016  -0.322   0.001  1.00  0.00    -0.350 N 
ATOM     21  H2  UNL     1       3.104   0.424   0.691  1.00  0.00     0.163 HD
BRANCH  20  22
HETATM   22  C8  UNL     1       4.242  -0.996  -0.480  1.00  0.00     0.112 C 
BRANCH  22  23
HETATM   23  C9  UNL     1       4.898  -1.669   0.685  1.00  0.00     0.189 C 
BRANCH  23  24
HETATM   24  O3  UNL     1       6.063  -2.354   0.388  1.00  0.00    -0.399 OA
ATOM     25  H3  UNL     1       6.479  -2.781   1.127  1.00  0.00     0.209 HD
ENDBRANCH  23  24
ENDBRANCH  22  23
BRANCH  22  26
HETATM   26  C10 UNL     1       5.051   0.060  -1.152  1.00  0.00     0.010 A 
HETATM   27  C11 UNL     1       6.395  -0.359  -1.774  1.00  0.00     0.007 A 
HETATM   28  C12 UNL     1       6.352   0.507  -0.590  1.00  0.00     0.007 A 
ENDBRANCH  22  26
ENDBRANCH  20  22
ENDBRANCH   7  18
BRANCH   1  29
HETATM   29  O1  UNL     1       1.430   1.480   1.470  1.00  0.00    -0.340 OA
HETATM   30  C1  UNL     1       1.366   2.524   2.413  1.00  0.00     0.211 C 
ENDBRANCH   1  29
TORSDOF 6
