REMARK  3 active torsions:
REMARK  status: ('A' for Active; 'I' for Inactive)
REMARK    1  A    between atoms: C2_2  and  C4_4 
REMARK    2  A    between atoms: C4_4  and  O1_5 
REMARK    3  A    between atoms: O1_5  and  C5_6 
ROOT
HETATM    1  C4  UNL     1      -0.184  -0.130  -0.128  1.00  0.00     0.104 C 
HETATM    2  C6  UNL     1      -1.497  -0.337   0.650  1.00  0.00     0.042 C 
HETATM    3  C7  UNL     1      -1.569  -1.850   0.756  1.00  0.00     0.006 C 
HETATM    4  C8  UNL     1      -0.431  -2.409  -0.074  1.00  0.00     0.040 C 
HETATM    5  C9  UNL     1      -0.269  -1.256  -1.086  1.00  0.00     0.205 C 
HETATM    6  F1  UNL     1      -1.492  -1.300  -1.765  1.00  0.00    -0.246 F 
ENDROOT
BRANCH   1   7
HETATM    7  C2  UNL     1      -0.153   1.236  -0.632  1.00  0.00     0.016 C 
HETATM    8  C1  UNL     1      -1.159   1.622  -1.652  1.00  0.00     0.012 C 
HETATM    9  C3  UNL     1      -0.366   2.179   0.565  1.00  0.00     0.012 C 
ENDBRANCH   1   7
BRANCH   1  10
HETATM   10  O1  UNL     1       0.826  -0.330   0.823  1.00  0.00    -0.310 OA
BRANCH  10  11
HETATM   11  C5  UNL     1       2.179  -0.187   0.601  1.00  0.00     0.226 C 
HETATM   12  N1  UNL     1       2.588  -0.340  -0.611  1.00  0.00    -0.368 N 
ATOM     13  H12 UNL     1       1.903  -0.557  -1.335  1.00  0.00     0.159 HD
ATOM     14  H11 UNL     1       3.589  -0.234  -0.775  1.00  0.00     0.159 HD
HETATM   15  N2  UNL     1       3.124   0.112   1.601  1.00  0.00    -0.057 NA
ENDBRANCH  10  11
ENDBRANCH   1  10
TORSDOF 3
