REMARK  3 active torsions:
REMARK  status: ('A' for Active; 'I' for Inactive)
REMARK    1  A    between atoms: C2_2  and  C3_3 
REMARK    2  A    between atoms: C2_2  and  N1_5 
REMARK    3  A    between atoms: N1_5  and  C4_7 
ROOT
HETATM    1  C4  UNL     1       0.430  -0.401  -0.316  1.00  0.00     0.081 C 
HETATM    2  C5  UNL     1       0.585   1.031   0.033  1.00  0.00     0.025 C 
HETATM    3  C6  UNL     1       1.983   1.594  -0.137  1.00  0.00     0.002 C 
HETATM    4  C7  UNL     1       3.043   0.677   0.411  1.00  0.00     0.000 C 
HETATM    5  C8  UNL     1       2.908  -0.611  -0.424  1.00  0.00     0.002 C 
HETATM    6  C9  UNL     1       1.660  -1.259   0.077  1.00  0.00     0.025 C 
ENDROOT
BRANCH   1   7
HETATM    7  N1  UNL     1      -0.664  -1.014   0.265  1.00  0.00    -0.391 N 
ATOM      8  H1  UNL     1      -0.443  -1.756   0.929  1.00  0.00     0.159 HD
BRANCH   7   9
HETATM    9  C2  UNL     1      -1.997  -0.775   0.083  1.00  0.00    -0.012 C 
HETATM   10  C1  UNL     1      -2.616  -0.902  -1.280  1.00  0.00     0.064 C 
BRANCH   9  11
HETATM   11  C3  UNL     1      -2.663   0.186   1.007  1.00  0.00     0.137 C 
HETATM   12  S1  UNL     1      -2.807   1.876   0.462  1.00  0.00    -0.092 SA
ENDBRANCH   9  11
ENDBRANCH   7   9
ENDBRANCH   1   7
TORSDOF 3
