REMARK  4 active torsions:
REMARK  status: ('A' for Active; 'I' for Inactive)
REMARK    1  A    between atoms: N1_1  and  C1_4 
REMARK    2  A    between atoms: C2_7  and  N3_8 
REMARK    3  A    between atoms: N3_8  and  C3_10 
REMARK    4  A    between atoms: C3_10  and  C4_11 
ROOT
HETATM    1  C1  UNL     1       3.352  -0.050  -0.885  1.00  0.00     0.699 A 
HETATM    2  N2  UNL     1       2.534   1.010  -0.811  1.00  0.00    -0.152 N 
ATOM      3  H2  UNL     1       2.678   1.914  -1.260  1.00  0.00     0.188 HD
HETATM    4  C2  UNL     1       1.485   0.664  -0.034  1.00  0.00     0.262 A 
HETATM    5  O1  UNL     1       1.687  -0.558   0.334  1.00  0.00    -0.185 OA
HETATM    6  N8  UNL     1       2.783  -1.020  -0.149  1.00  0.00    -0.088 N 
ATOM      7  H8  UNL     1       3.156  -1.958  -0.000  1.00  0.00     0.214 HD
ENDROOT
BRANCH   4   8
HETATM    8  N3  UNL     1       0.374   1.462   0.327  1.00  0.00    -0.331 N 
ATOM      9  H3  UNL     1       0.343   2.429   0.004  1.00  0.00     0.168 HD
BRANCH   8  10
HETATM   10  C3  UNL     1      -0.689   0.980   1.111  1.00  0.00     0.105 C 
BRANCH  10  11
HETATM   11  C4  UNL     1      -1.676   0.065   0.529  1.00  0.00     0.245 C 
HETATM   12  N4  UNL     1      -1.198  -1.194   0.002  1.00  0.00    -0.100 NA
HETATM   13  N5  UNL     1      -2.490  -1.712  -0.357  1.00  0.00    -0.019 NA
HETATM   14  N6  UNL     1      -2.982  -0.657  -1.123  1.00  0.00    -0.019 NA
HETATM   15  N7  UNL     1      -2.398   0.541  -0.633  1.00  0.00    -0.100 NA
ENDBRANCH  10  11
ENDBRANCH   8  10
ENDBRANCH   4   8
BRANCH   1  16
HETATM   16  N1  UNL     1       4.466  -0.198  -1.503  1.00  0.00    -0.233 N 
ATOM     17  H12 UNL     1       4.898   0.538  -2.062  1.00  0.00     0.174 HD
ATOM     18  H11 UNL     1       5.088  -1.004  -1.559  1.00  0.00     0.174 HD
ENDBRANCH   1  16
TORSDOF 4
