REMARK  17 active torsions:
REMARK  status: ('A' for Active; 'I' for Inactive)
REMARK    1  A    between atoms: C1_2  and  O2_4 
REMARK    2  A    between atoms: O2_4  and  C2_5 
REMARK    3  A    between atoms: C2_5  and  C3_7 
REMARK    4  A    between atoms: C4_8  and  O4_9 
REMARK    5  A    between atoms: C6_12  and  O5_13 
REMARK    6  A    between atoms: C9_18  and  C10_19 
REMARK    7  A    between atoms: C10_19  and  O8_21 
REMARK    8  A    between atoms: O8_21  and  C11_22 
REMARK    9  A    between atoms: C12_23  and  O9_24 
REMARK   10  A    between atoms: C12_23  and  C13_26 
REMARK   11  A    between atoms: C13_26  and  O10_27 
REMARK   12  A    between atoms: C13_26  and  C14_29 
REMARK   13  A    between atoms: C14_29  and  O11_30 
REMARK   14  A    between atoms: C14_29  and  C15_32 
REMARK   15  A    between atoms: C15_32  and  O12_33 
REMARK   16  A    between atoms: C16_35  and  C17_36 
REMARK   17  A    between atoms: C22_41  and  O13_42 
ROOT
HETATM    1  C3  UNL     1      -4.126   0.924   0.752  1.00  0.00     0.108 A 
HETATM    2  C4  UNL     1      -4.758   1.332   1.930  1.00  0.00     0.087 A 
HETATM    3  C5  UNL     1      -4.087   1.533   3.115  1.00  0.00     0.075 A 
HETATM    4  C6  UNL     1      -2.730   1.313   3.110  1.00  0.00     0.085 A 
HETATM    5  C7  UNL     1      -2.078   0.903   1.941  1.00  0.00     0.083 A 
HETATM    6  C8  UNL     1      -0.730   0.693   1.964  1.00  0.00     0.206 A 
HETATM    7  O6  UNL     1      -0.048   0.857   3.005  1.00  0.00    -0.286 OA
HETATM    8  C9  UNL     1      -0.108   0.275   0.752  1.00  0.00     0.125 A 
HETATM    9  C16 UNL     1      -0.810   0.097  -0.364  1.00  0.00     0.109 A 
HETATM   10  O14 UNL     1      -2.148   0.321  -0.324  1.00  0.00    -0.306 OA
HETATM   11  C23 UNL     1      -2.775   0.704   0.748  1.00  0.00     0.112 A 
ENDROOT
BRANCH   8  12
HETATM   12  C10 UNL     1       1.301  -0.003   0.949  1.00  0.00     0.304 C 
HETATM   13  O7  UNL     1       1.616  -1.181   1.248  1.00  0.00    -0.259 OA
BRANCH  12  14
HETATM   14  O8  UNL     1       2.264   0.892   0.857  1.00  0.00    -0.284 OA
BRANCH  14  15
HETATM   15  C11 UNL     1       3.537   1.171   0.961  1.00  0.00     0.180 C 
HETATM   16  C12 UNL     1       4.688   0.620   0.297  1.00  0.00     0.097 C 
BRANCH  16  17
HETATM   17  O9  UNL     1       5.789   1.266   0.606  1.00  0.00    -0.360 OA
ATOM     18  H9  UNL     1       6.549   0.902   0.167  1.00  0.00     0.217 HD
ENDBRANCH  16  17
BRANCH  16  19
HETATM   19  C13 UNL     1       4.941  -0.475  -0.632  1.00  0.00     0.207 C 
BRANCH  19  20
HETATM   20  O10 UNL     1       3.888  -1.260  -0.932  1.00  0.00    -0.386 OA
ATOM     21  H10 UNL     1       4.053  -1.973  -1.537  1.00  0.00     0.210 HD
ENDBRANCH  19  20
BRANCH  19  22
HETATM   22  C14 UNL     1       6.126  -1.317  -0.149  1.00  0.00     0.176 C 
BRANCH  22  23
HETATM   23  O11 UNL     1       7.193  -0.464   0.098  1.00  0.00    -0.390 OA
ATOM     24  H11 UNL     1       7.928  -0.986   0.398  1.00  0.00     0.210 HD
ENDBRANCH  22  23
BRANCH  22  25
HETATM   25  C15 UNL     1       5.819  -2.015   1.162  1.00  0.00     0.198 C 
BRANCH  25  26
HETATM   26  O12 UNL     1       5.462  -1.138   2.175  1.00  0.00    -0.398 OA
ATOM     27  H12 UNL     1       5.270  -1.575   2.996  1.00  0.00     0.209 HD
ENDBRANCH  25  26
ENDBRANCH  22  25
ENDBRANCH  19  22
ENDBRANCH  16  19
ENDBRANCH  14  15
ENDBRANCH  12  14
ENDBRANCH   8  12
BRANCH   9  28
HETATM   28  C17 UNL     1      -0.242  -0.336  -1.635  1.00  0.00     0.032 A 
HETATM   29  C18 UNL     1       0.910   0.080  -2.200  1.00  0.00     0.017 A 
HETATM   30  C19 UNL     1       1.430  -0.428  -3.397  1.00  0.00     0.001 A 
HETATM   31  C20 UNL     1       0.699  -1.412  -4.015  1.00  0.00     0.003 A 
HETATM   32  C21 UNL     1      -0.482  -1.868  -3.475  1.00  0.00     0.037 A 
HETATM   33  C22 UNL     1      -0.966  -1.352  -2.300  1.00  0.00     0.078 A 
BRANCH  33  34
HETATM   34  O13 UNL     1      -2.166  -1.833  -1.760  1.00  0.00    -0.360 OA
ATOM     35  H13 UNL     1      -2.653  -2.516  -2.207  1.00  0.00     0.217 HD
ENDBRANCH  33  34
ENDBRANCH   9  28
BRANCH   4  36
HETATM   36  O5  UNL     1      -1.952   1.483   4.240  1.00  0.00    -0.360 OA
ATOM     37  H5  UNL     1      -1.014   1.331   4.237  1.00  0.00     0.217 HD
ENDBRANCH   4  36
BRANCH   1  38
HETATM   38  C2  UNL     1      -4.912   0.772  -0.457  1.00  0.00     0.307 C 
HETATM   39  O3  UNL     1      -4.455   0.417  -1.562  1.00  0.00    -0.259 OA
BRANCH  38  40
HETATM   40  O2  UNL     1      -6.300   1.043  -0.381  1.00  0.00    -0.225 OA
BRANCH  40  41
HETATM   41  C1  UNL     1      -7.101   0.911  -1.516  1.00  0.00     0.380 C 
HETATM   42  N1  UNL     1      -8.490   1.180  -1.444  1.00  0.00    -0.032 NA
HETATM   43  O1  UNL     1      -6.529   0.549  -2.575  1.00  0.00    -0.242 OA
ENDBRANCH  40  41
ENDBRANCH  38  40
ENDBRANCH   1  38
BRANCH   2  44
HETATM   44  O4  UNL     1      -6.136   1.550   1.921  1.00  0.00    -0.359 OA
ATOM     45  H4  UNL     1      -6.566   1.827   2.722  1.00  0.00     0.217 HD
ENDBRANCH   2  44
TORSDOF 17
