REMARK  12 active torsions:
REMARK  status: ('A' for Active; 'I' for Inactive)
REMARK    1  A    between atoms: C2_2  and  N1_3 
REMARK    2  A    between atoms: N1_3  and  C3_4 
REMARK       I    between atoms: N1_3  and  C5_6 
REMARK    3  A    between atoms: C5_6  and  C6_8 
REMARK    4  A    between atoms: N4_18  and  C11_19 
REMARK    5  A    between atoms: C11_19  and  C12_20 
REMARK    6  A    between atoms: C11_19  and  C21_31 
REMARK    7  A    between atoms: C12_20  and  C13_21 
REMARK    8  A    between atoms: C21_31  and  O4_32 
REMARK    9  A    between atoms: C21_31  and  C22_34 
REMARK   10  A    between atoms: C22_34  and  N5_35 
REMARK   11  A    between atoms: N5_35  and  C23_37 
REMARK   12  A    between atoms: C23_37  and  C24_38 
ROOT
HETATM    1  C11 UNL     1      -0.284   0.444   0.214  1.00  0.00     0.121 C 
ENDROOT
BRANCH   1   2
HETATM    2  N4  UNL     1       1.023   0.739  -0.392  1.00  0.00    -0.344 N 
HETATM    3  C6  UNL     1       2.349   0.444   0.139  1.00  0.00     0.183 C 
HETATM    4  C7  UNL     1       3.153   1.585  -0.525  1.00  0.00     0.080 C 
HETATM    5  C8  UNL     1       2.438   1.865  -1.801  1.00  0.00     0.025 A 
HETATM    6  C9  UNL     1       1.180   1.339  -1.665  1.00  0.00     0.128 A 
HETATM    7  C10 UNL     1       2.556   2.428  -3.034  1.00  0.00     0.104 A 
HETATM    8  N2  UNL     1       0.573   1.615  -2.860  1.00  0.00    -0.284 N 
HETATM    9  N3  UNL     1       1.376   2.254  -3.665  1.00  0.00    -0.291 N 
ATOM     10  H2  UNL     1      -0.385   1.354  -3.092  1.00  0.00     0.188 HD
ATOM     11  H3  UNL     1       1.151   2.568  -4.609  1.00  0.00     0.187 HD
HETATM   12 BR1  UNL     1       4.108   3.303  -3.738  1.00  0.00    -0.029 Br
BRANCH   3  13
HETATM   13  C5  UNL     1       2.931  -0.794  -0.383  1.00  0.00     0.243 C 
HETATM   14  N1  UNL     1       3.965  -1.483   0.242  1.00  0.00    -0.351 N 
HETATM   15  O1  UNL     1       2.464  -1.276  -1.474  1.00  0.00    -0.271 OA
BRANCH  14  16
HETATM   16  C2  UNL     1       4.520  -2.713  -0.351  1.00  0.00     0.121 C 
HETATM   17  C1  UNL     1       5.674  -2.361  -1.286  1.00  0.00     0.026 C 
ENDBRANCH  14  16
BRANCH  14  18
HETATM   18  C3  UNL     1       4.552  -1.080   1.490  1.00  0.00     0.121 C 
HETATM   19  C4  UNL     1       5.732  -0.178   1.381  1.00  0.00     0.026 C 
ENDBRANCH  14  18
ENDBRANCH   3  13
ENDBRANCH   1   2
BRANCH   1  20
HETATM   20  C12 UNL     1      -0.515  -1.011   0.033  1.00  0.00     0.066 C 
BRANCH  20  21
HETATM   21  C13 UNL     1      -1.739  -1.625   0.498  1.00  0.00    -0.053 A 
HETATM   22  C14 UNL     1      -2.776  -1.889  -0.411  1.00  0.00     0.017 A 
HETATM   23  C15 UNL     1      -3.945  -2.467   0.006  1.00  0.00    -0.025 A 
HETATM   24  C16 UNL     1      -5.026  -2.738  -0.977  1.00  0.00     0.051 C 
HETATM   25  C17 UNL     1      -4.146  -2.809   1.320  1.00  0.00     0.111 A 
HETATM   26  C18 UNL     1      -3.140  -2.557   2.225  1.00  0.00     0.106 A 
HETATM   27  O3  UNL     1      -5.226  -3.400   1.995  1.00  0.00    -0.322 OA
HETATM   28  C19 UNL     1      -1.968  -1.978   1.813  1.00  0.00     0.047 A 
HETATM   29  O2  UNL     1      -3.620  -3.002   3.459  1.00  0.00    -0.323 OA
HETATM   30  C20 UNL     1      -5.022  -3.169   3.369  1.00  0.00     0.352 C 
ENDBRANCH  20  21
ENDBRANCH   1  20
BRANCH   1  31
HETATM   31  C21 UNL     1      -1.394   1.306  -0.227  1.00  0.00     0.158 C 
BRANCH  31  32
HETATM   32  O4  UNL     1      -2.552   0.865   0.463  1.00  0.00    -0.392 OA
ATOM     33  H4  UNL     1      -3.268   1.421   0.179  1.00  0.00     0.210 HD
ENDBRANCH  31  32
BRANCH  31  34
HETATM   34  C22 UNL     1      -1.187   2.770   0.102  1.00  0.00     0.147 C 
BRANCH  34  35
HETATM   35  N5  UNL     1      -2.258   3.582  -0.333  1.00  0.00    -0.414 N 
ATOM     36  H5  UNL     1      -2.110   4.232  -1.105  1.00  0.00     0.153 HD
BRANCH  35  37
HETATM   37  C23 UNL     1      -3.518   3.513   0.273  1.00  0.00     0.184 C 
BRANCH  37  38
HETATM   38  C24 UNL     1      -4.398   4.606  -0.355  1.00  0.00     0.370 C 
HETATM   39  F1  UNL     1      -5.651   4.570   0.218  1.00  0.00    -0.213 F 
HETATM   40  F2  UNL     1      -4.527   4.418  -1.701  1.00  0.00    -0.213 F 
ENDBRANCH  37  38
ENDBRANCH  35  37
ENDBRANCH  34  35
ENDBRANCH  31  34
ENDBRANCH   1  31
TORSDOF 12
