REMARK  1 active torsions:
REMARK  status: ('A' for Active; 'I' for Inactive)
REMARK    1  A    between atoms: C2_2  and  C4_4 
ROOT
HETATM    1  C4  UNL     1       2.470  -0.588  -0.835  1.00  0.00     0.017 C 
HETATM    2  C5  UNL     1       2.016   0.690  -1.516  1.00  0.00     0.012 C 
HETATM    3  C6  UNL     1       0.759   0.458  -2.298  1.00  0.00     0.036 C 
HETATM    4  C7  UNL     1      -0.194  -0.502  -1.684  1.00  0.00     0.165 C 
HETATM    5  O1  UNL     1      -1.485   0.035  -1.795  1.00  0.00    -0.234 OA
HETATM    6  O2  UNL     1      -2.242  -0.682  -1.032  1.00  0.00    -0.229 OA
HETATM    7  C8  UNL     1      -2.731  -0.086   0.093  1.00  0.00     0.099 C 
HETATM    8  C9  UNL     1      -3.897   0.837  -0.284  1.00  0.00     0.042 C 
HETATM    9  C10 UNL     1      -4.733  -0.453  -0.332  1.00  0.00     0.006 C 
HETATM   10  C11 UNL     1      -3.778  -0.969   0.756  1.00  0.00     0.042 C 
HETATM   11  C12 UNL     1      -1.760   0.562   0.995  1.00  0.00     0.020 C 
HETATM   12  C13 UNL     1      -2.218   1.969   1.321  1.00  0.00     0.013 C 
HETATM   13  C14 UNL     1      -0.333   0.544   0.502  1.00  0.00     0.015 C 
HETATM   14  C15 UNL     1       0.031  -0.706  -0.203  1.00  0.00     0.022 C 
HETATM   15  C16 UNL     1       1.401  -1.234  -0.001  1.00  0.00    -0.004 C 
HETATM   16  C17 UNL     1       1.775  -1.421   1.451  1.00  0.00     0.011 C 
ENDROOT
BRANCH   1  17
HETATM   17  C2  UNL     1       3.706  -0.242  -0.072  1.00  0.00    -0.089 C 
HETATM   18  C1  UNL     1       4.860  -0.796  -0.418  1.00  0.00     0.014 C 
HETATM   19  C3  UNL     1       3.739   0.709   1.055  1.00  0.00     0.043 C 
ENDBRANCH   1  17
TORSDOF 1
