REMARK  3 active torsions:
REMARK  status: ('A' for Active; 'I' for Inactive)
REMARK    1  A    between atoms: C5_5  and  C6_6 
REMARK    2  A    between atoms: C11_11  and  N1_12 
REMARK    3  A    between atoms: N1_12  and  N2_14 
ROOT
HETATM    1  C1  UNL     1       0.008   2.623   2.527  1.00  0.00     0.021 C 
HETATM    2  C2  UNL     1      -0.634   1.959   1.549  1.00  0.00    -0.043 C 
HETATM    3  C3  UNL     1      -2.094   2.251   1.358  1.00  0.00     0.040 C 
HETATM    4  C4  UNL     1      -2.617   1.327   0.286  1.00  0.00     0.010 C 
HETATM    5  C5  UNL     1      -2.140  -0.060   0.623  1.00  0.00    -0.001 C 
HETATM    6  C10 UNL     1      -0.703  -0.170   0.164  1.00  0.00     0.064 C 
HETATM    7  C11 UNL     1       0.027   1.002   0.705  1.00  0.00     0.031 C 
ENDROOT
BRANCH   7   8
HETATM    8  N1  UNL     1       1.281   1.199   0.434  1.00  0.00    -0.306 N 
ATOM      9  H1  UNL     1       1.729   2.023   0.836  1.00  0.00     0.186 HD
BRANCH   8  10
HETATM   10  N2  UNL     1       2.050   0.374  -0.358  1.00  0.00    -0.323 N 
HETATM   11  C12 UNL     1       2.116   0.559  -1.808  1.00  0.00     0.143 C 
HETATM   12  C13 UNL     1       3.580   0.908  -2.078  1.00  0.00     0.021 C 
HETATM   13  C14 UNL     1       4.495  -0.162  -1.615  1.00  0.00     0.004 C 
HETATM   14  C15 UNL     1       3.976  -1.131  -0.636  1.00  0.00     0.026 C 
HETATM   15  C16 UNL     1       2.816  -0.694   0.193  1.00  0.00     0.098 C 
HETATM   16  C17 UNL     1       3.226  -0.397   1.641  1.00  0.00     0.034 C 
ENDBRANCH   8  10
ENDBRANCH   7   8
BRANCH   5  17
HETATM   17  C6  UNL     1      -3.018  -1.120   0.003  1.00  0.00    -0.047 C 
HETATM   18  C7  UNL     1      -2.510  -2.476   0.361  1.00  0.00     0.015 C 
HETATM   19  C8  UNL     1      -3.133  -0.950  -1.497  1.00  0.00     0.015 C 
HETATM   20  C9  UNL     1      -4.409  -0.950   0.575  1.00  0.00     0.015 C 
ENDBRANCH   5  17
TORSDOF 3
