REMARK  2 active torsions:
REMARK  status: ('A' for Active; 'I' for Inactive)
REMARK    1  A    between atoms: C1_2  and  N1_3 
REMARK       I    between atoms: N1_3  and  C2_5 
REMARK    2  A    between atoms: C2_5  and  C3_7 
ROOT
HETATM    1  C3  UNL     1       0.062   0.369  -0.267  1.00  0.00     0.086 C 
HETATM    2  C4  UNL     1      -0.827   0.820   0.900  1.00  0.00    -0.001 C 
HETATM    3  C5  UNL     1      -2.089   1.112   0.149  1.00  0.00     0.006 C 
HETATM    4  C6  UNL     1      -2.198  -0.196  -0.661  1.00  0.00     0.006 C 
HETATM    5  C7  UNL     1      -0.870  -0.800  -0.297  1.00  0.00    -0.001 C 
HETATM    6  C8  UNL     1      -0.927  -0.645   1.232  1.00  0.00     0.011 C 
ENDROOT
BRANCH   1   7
HETATM    7  C2  UNL     1       1.455   0.157   0.089  1.00  0.00     0.228 C 
HETATM    8  N1  UNL     1       2.388  -0.273  -0.875  1.00  0.00    -0.305 N 
ATOM      9  H1  UNL     1       2.094  -0.440  -1.837  1.00  0.00     0.171 HD
HETATM   10  O2  UNL     1       1.835   0.358   1.269  1.00  0.00    -0.273 OA
BRANCH   8  11
HETATM   11  C1  UNL     1       3.734  -0.470  -0.496  1.00  0.00     0.355 C 
HETATM   12  O1  UNL     1       4.138  -0.275   0.677  1.00  0.00    -0.283 OA
ENDBRANCH   8  11
ENDBRANCH   1   7
TORSDOF 2
