REMARK  11 active torsions:
REMARK  status: ('A' for Active; 'I' for Inactive)
REMARK    1  A    between atoms: C2_2  and  C3_3 
REMARK    2  A    between atoms: C3_3  and  C4_4 
REMARK    3  A    between atoms: C4_4  and  C5_5 
REMARK    4  A    between atoms: C5_5  and  C6_6 
REMARK    5  A    between atoms: C11_11  and  C12_12 
REMARK    6  A    between atoms: C12_12  and  O1_13 
REMARK    7  A    between atoms: C12_12  and  C13_15 
REMARK    8  A    between atoms: C13_15  and  O2_16 
REMARK    9  A    between atoms: C13_15  and  C14_18 
REMARK   10  A    between atoms: C17_21  and  N1_22 
REMARK   11  A    between atoms: C19_26  and  N2_27 
ROOT
HETATM    1  C12 UNL     1       1.425  -0.230  -0.323  1.00  0.00     0.161 C 
ENDROOT
BRANCH   1   2
HETATM    2  C11 UNL     1       0.057  -0.651  -0.581  1.00  0.00     0.067 C 
HETATM    3  C10 UNL     1      -0.818  -0.791   0.620  1.00  0.00     0.051 C 
HETATM    4  C4  UNL     1      -2.263  -0.676   0.105  1.00  0.00     0.068 C 
HETATM    5  O7  UNL     1      -2.584  -1.318  -0.995  1.00  0.00    -0.374 OA
HETATM    6  C21 UNL     1      -1.679  -1.854  -1.863  1.00  0.00     0.221 C 
HETATM    7  C20 UNL     1      -0.276  -1.805  -1.395  1.00  0.00     0.011 C 
HETATM    8  N3  UNL     1       0.522  -2.700  -1.711  1.00  0.00    -0.403 N 
ATOM      9  H32 UNL     1       1.489  -2.666  -1.388  1.00  0.00     0.155 HD
ATOM     10  H31 UNL     1       0.288  -3.511  -2.283  1.00  0.00     0.155 HD
BRANCH   4  11
HETATM   11  C3  UNL     1      -3.094  -1.162   1.277  1.00  0.00     0.064 C 
BRANCH  11  12
HETATM   12  C2  UNL     1      -3.061  -2.598   1.520  1.00  0.00    -0.034 C 
HETATM   13  C1  UNL     1      -2.622  -3.706   1.055  1.00  0.00     0.007 C 
ENDBRANCH  11  12
ENDBRANCH   4  11
BRANCH   4  14
HETATM   14  C5  UNL     1      -2.481   0.842  -0.024  1.00  0.00     0.065 C 
BRANCH  14  15
HETATM   15  C6  UNL     1      -3.908   1.156  -0.236  1.00  0.00    -0.022 C 
HETATM   16  C7  UNL     1      -4.475   2.327  -0.255  1.00  0.00    -0.091 C 
HETATM   17  C8  UNL     1      -5.995   2.411  -0.485  1.00  0.00     0.042 C 
HETATM   18  C9  UNL     1      -3.822   3.646  -0.108  1.00  0.00     0.042 C 
ENDBRANCH  14  15
ENDBRANCH   4  14
ENDBRANCH   1   2
BRANCH   1  19
HETATM   19  O1  UNL     1       1.366   0.976   0.313  1.00  0.00    -0.392 OA
ATOM     20  H1  UNL     1       2.260   1.251   0.482  1.00  0.00     0.210 HD
ENDBRANCH   1  19
BRANCH   1  21
HETATM   21  C13 UNL     1       2.509  -1.133   0.147  1.00  0.00     0.183 C 
BRANCH  21  22
HETATM   22  O2  UNL     1       2.315  -1.487   1.511  1.00  0.00    -0.388 OA
ATOM     23  H2  UNL     1       3.008  -2.064   1.811  1.00  0.00     0.210 HD
ENDBRANCH  21  22
BRANCH  21  24
HETATM   24  C14 UNL     1       3.737  -0.253   0.123  1.00  0.00     0.006 A 
HETATM   25  C15 UNL     1       3.760   0.892   0.908  1.00  0.00     0.015 A 
HETATM   26  C16 UNL     1       4.840   1.747   0.915  1.00  0.00     0.037 A 
HETATM   27  C17 UNL     1       5.956   1.488   0.126  1.00  0.00     0.105 A 
HETATM   28  C18 UNL     1       5.951   0.361  -0.643  1.00  0.00     0.072 A 
HETATM   29  C19 UNL     1       4.822  -0.521  -0.637  1.00  0.00     0.114 A 
BRANCH  27  30
HETATM   30  N1  UNL     1       6.995   2.436   0.103  1.00  0.00    -0.116 N 
HETATM   31  O3  UNL     1       7.957   2.332  -0.721  1.00  0.00    -0.532 OA
HETATM   32  O4  UNL     1       7.030   3.530   0.930  1.00  0.00    -0.532 OA
ENDBRANCH  27  30
BRANCH  29  33
HETATM   33  N2  UNL     1       4.934  -1.656  -1.468  1.00  0.00    -0.115 N 
HETATM   34  O5  UNL     1       4.526  -2.782  -1.238  1.00  0.00    -0.532 OA
HETATM   35  O6  UNL     1       5.627  -1.495  -2.669  1.00  0.00    -0.532 OA
ENDBRANCH  29  33
ENDBRANCH  21  24
ENDBRANCH   1  21
TORSDOF 11
