REMARK  3 active torsions:
REMARK  status: ('A' for Active; 'I' for Inactive)
REMARK    1  A    between atoms: C2_2  and  O1_3 
REMARK    2  A    between atoms: C2_2  and  C3_5 
REMARK    3  A    between atoms: C5_9  and  O4_10 
ROOT
HETATM    1  C3  UNL     1      -0.734   0.470   0.122  1.00  0.00     0.186 C 
HETATM    2  O2  UNL     1      -0.342   0.286   1.446  1.00  0.00    -0.348 OA
HETATM    3  C4  UNL     1       0.711  -0.572   1.050  1.00  0.00     0.295 C 
HETATM    4  O3  UNL     1       1.884   0.106   1.063  1.00  0.00    -0.327 OA
HETATM    5  C5  UNL     1       2.725  -0.129  -0.003  1.00  0.00     0.283 C 
HETATM    6  C6  UNL     1       1.932   0.111  -1.272  1.00  0.00     0.229 C 
HETATM    7  O5  UNL     1       0.831  -0.689  -1.362  1.00  0.00    -0.373 OA
HETATM    8  C7  UNL     1       0.040  -0.750  -0.251  1.00  0.00     0.208 C 
ENDROOT
BRANCH   1   9
HETATM    9  C2  UNL     1      -2.209   0.435  -0.040  1.00  0.00     0.145 C 
HETATM   10  C1  UNL     1      -2.860  -0.828   0.419  1.00  0.00     0.042 C 
BRANCH   9  11
HETATM   11  O1  UNL     1      -2.744   1.478   0.752  1.00  0.00    -0.393 OA
ATOM     12  H1  UNL     1      -2.330   2.282   0.460  1.00  0.00     0.210 HD
ENDBRANCH   9  11
ENDBRANCH   1   9
BRANCH   5  13
HETATM   13  O4  UNL     1       3.735   0.844   0.045  1.00  0.00    -0.369 OA
ATOM     14  H4  UNL     1       4.315   0.682  -0.690  1.00  0.00     0.212 HD
ENDBRANCH   5  13
TORSDOF 3
