REMARK  5 active torsions:
REMARK  status: ('A' for Active; 'I' for Inactive)
REMARK    1  A    between atoms: C2_2  and  C3_3 
REMARK    2  A    between atoms: N2_8  and  C6_10 
REMARK    3  A    between atoms: C9_13  and  N3_14 
REMARK    4  A    between atoms: C13_18  and  N4_19 
REMARK    5  A    between atoms: N4_19  and  C14_20 
ROOT
HETATM    1  C3  UNL     1       0.292  -2.608   0.132  1.00  0.00    -0.002 A 
HETATM    2  C4  UNL     1       1.619  -2.864   0.195  1.00  0.00     0.100 A 
HETATM    3  N1  UNL     1       2.522  -1.924   0.483  1.00  0.00    -0.352 N 
ATOM      4  H1  UNL     1       3.506  -2.193   0.511  1.00  0.00     0.166 HD
HETATM    5  C5  UNL     1       2.206  -0.644   0.738  1.00  0.00     0.104 A 
HETATM    6  N2  UNL     1       3.028   0.255   0.985  1.00  0.00    -0.370 N 
ATOM      7  H2  UNL     1       2.506   1.118   1.140  1.00  0.00     0.161 HD
HETATM    8  C12 UNL     1       0.850  -0.367   0.680  1.00  0.00     0.093 A 
HETATM    9  C13 UNL     1      -0.151  -1.307   0.383  1.00  0.00     0.122 A 
ENDROOT
BRANCH   9  10
HETATM   10  N4  UNL     1      -1.434  -1.017   0.346  1.00  0.00    -0.370 NA
BRANCH  10  11
HETATM   11  C14 UNL     1      -2.604  -0.757   0.311  1.00  0.00     0.259 A 
HETATM   12  N5  UNL     1      -3.581  -1.688   0.079  1.00  0.00    -0.326 N 
HETATM   13  C15 UNL     1      -4.872  -1.481   0.032  1.00  0.00     0.103 A 
ATOM     14  H5  UNL     1      -3.268  -2.647  -0.074  1.00  0.00     0.169 HD
HETATM   15  C16 UNL     1      -5.312  -0.177   0.239  1.00  0.00     0.005 A 
HETATM   16  C17 UNL     1      -4.383   0.807   0.478  1.00  0.00     0.022 A 
HETATM   17  C21 UNL     1      -6.793  -0.083   0.172  1.00  0.00     0.274 C 
HETATM   18  N6  UNL     1      -3.081   0.526   0.512  1.00  0.00    -0.319 N 
HETATM   19  C18 UNL     1      -4.676   2.258   0.730  1.00  0.00     0.059 C 
ATOM     20  H6  UNL     1      -2.417   1.279   0.691  1.00  0.00     0.170 HD
HETATM   21  C19 UNL     1      -5.641   2.822  -0.287  1.00  0.00     0.033 C 
HETATM   22  C20 UNL     1      -7.034   2.240  -0.168  1.00  0.00     0.233 C 
HETATM   23  N7  UNL     1      -7.127   0.945  -0.796  1.00  0.00    -0.071 N 
ATOM     24  H72 UNL     1      -8.038   0.789  -1.227  1.00  0.00     0.277 HD
ATOM     25  H71 UNL     1      -6.556   0.882  -1.639  1.00  0.00     0.277 HD
ENDBRANCH  10  11
ENDBRANCH   9  10
BRANCH   1  26
HETATM   26  C2  UNL     1      -0.637  -3.722  -0.255  1.00  0.00     0.039 C 
HETATM   27  C1  UNL     1      -0.957  -3.594  -1.728  1.00  0.00     0.010 C 
ENDBRANCH   1  26
BRANCH   6  28
HETATM   28  C6  UNL     1       4.360   0.543   1.131  1.00  0.00     0.105 C 
HETATM   29  C7  UNL     1       5.396  -0.433   1.556  1.00  0.00     0.029 C 
HETATM   30  C8  UNL     1       6.000  -0.500   0.161  1.00  0.00     0.029 C 
HETATM   31  C9  UNL     1       5.150   0.709  -0.200  1.00  0.00     0.101 C 
BRANCH  31  32
HETATM   32  N3  UNL     1       5.826   1.915  -0.376  1.00  0.00    -0.415 N 
HETATM   33  C10 UNL     1       6.886   2.308   0.435  1.00  0.00     0.143 C 
HETATM   34  C11 UNL     1       5.846   2.460  -1.679  1.00  0.00     0.143 C 
ENDBRANCH  31  32
ENDBRANCH   6  28
TORSDOF 5
