REMARK  6 active torsions:
REMARK  status: ('A' for Active; 'I' for Inactive)
REMARK    1  A    between atoms: C2_2  and  C4_4 
REMARK    2  A    between atoms: C4_4  and  N1_5 
REMARK    3  A    between atoms: C4_4  and  C25_31 
REMARK    4  A    between atoms: N1_5  and  C5_7 
REMARK    5  A    between atoms: C14_16  and  O1_17 
REMARK    6  A    between atoms: C19_23  and  O2_24 
ROOT
HETATM    1  C5  UNL     1       2.227   0.434   1.265  1.00  0.00     0.078 C 
HETATM    2  C6  UNL     1       1.802   1.798   0.734  1.00  0.00     0.030 C 
HETATM    3  C7  UNL     1       0.298   1.803   0.966  1.00  0.00    -0.004 C 
HETATM    4  C8  UNL     1      -0.339   2.391  -0.243  1.00  0.00     0.006 C 
HETATM    5  C9  UNL     1      -1.757   2.058  -0.489  1.00  0.00     0.010 C 
HETATM    6  C10 UNL     1      -2.372   1.072   0.452  1.00  0.00    -0.035 C 
HETATM    7  C11 UNL     1      -2.829   1.862   1.670  1.00  0.00     0.016 C 
HETATM    8  C12 UNL     1      -3.639   0.492  -0.120  1.00  0.00     0.007 C 
HETATM    9  C13 UNL     1      -4.492  -0.164   0.949  1.00  0.00     0.038 C 
HETATM   10  C14 UNL     1      -5.901  -0.260   0.348  1.00  0.00     0.118 C 
HETATM   11  C15 UNL     1      -5.808  -1.039  -0.924  1.00  0.00     0.032 C 
HETATM   12  C16 UNL     1      -4.444  -1.620  -1.105  1.00  0.00     0.014 C 
HETATM   13  C17 UNL     1      -3.459  -0.464  -1.249  1.00  0.00    -0.013 C 
HETATM   14  C18 UNL     1      -3.823   0.180  -2.598  1.00  0.00     0.018 C 
HETATM   15  C19 UNL     1      -2.085  -1.014  -1.404  1.00  0.00     0.127 C 
HETATM   16  C20 UNL     1      -1.437  -1.216  -0.078  1.00  0.00     0.038 C 
HETATM   17  C21 UNL     1      -1.434  -0.051   0.853  1.00  0.00     0.005 C 
HETATM   18  C22 UNL     1      -0.108   0.424   1.321  1.00  0.00    -0.034 C 
HETATM   19  C23 UNL     1       0.040   0.278   2.848  1.00  0.00     0.016 C 
HETATM   20  C24 UNL     1       1.084  -0.385   0.763  1.00  0.00     0.034 C 
ENDROOT
BRANCH   1  21
HETATM   21  N1  UNL     1       3.530   0.086   0.997  1.00  0.00    -0.412 N 
ATOM     22  H1  UNL     1       4.142  -0.042   1.803  1.00  0.00     0.154 HD
BRANCH  21  23
HETATM   23  C4  UNL     1       4.104  -0.110  -0.254  1.00  0.00     0.083 C 
BRANCH  23  24
HETATM   24  C2  UNL     1       4.471  -1.529  -0.515  1.00  0.00     0.000 C 
HETATM   25  C1  UNL     1       3.333  -2.515  -0.493  1.00  0.00     0.011 C 
HETATM   26  C3  UNL     1       5.523  -2.100   0.427  1.00  0.00     0.011 C 
ENDBRANCH  23  24
BRANCH  23  27
HETATM   27  C25 UNL     1       5.211   0.849  -0.602  1.00  0.00     0.000 C 
HETATM   28  C26 UNL     1       6.485   0.701   0.132  1.00  0.00     0.011 C 
HETATM   29  C27 UNL     1       5.556   0.786  -2.097  1.00  0.00     0.011 C 
ENDBRANCH  23  27
ENDBRANCH  21  23
ENDBRANCH   1  21
BRANCH  15  30
HETATM   30  O2  UNL     1      -2.231  -2.301  -1.983  1.00  0.00    -0.395 OA
ATOM     31  H2  UNL     1      -1.354  -2.652  -2.082  1.00  0.00     0.210 HD
ENDBRANCH  15  30
BRANCH  10  32
HETATM   32  O1  UNL     1      -6.821  -0.748   1.253  1.00  0.00    -0.396 OA
ATOM     33  H1  UNL     1      -7.693  -0.807   0.881  1.00  0.00     0.210 HD
ENDBRANCH  10  32
TORSDOF 6
