REMARK  7 active torsions:
REMARK  status: ('A' for Active; 'I' for Inactive)
REMARK    1  A    between atoms: C2_2  and  C4_4 
REMARK    2  A    between atoms: C5_5  and  C6_6 
REMARK    3  A    between atoms: C6_6  and  C7_7 
REMARK    4  A    between atoms: C6_6  and  C10_10 
REMARK    5  A    between atoms: C14_14  and  O1_15 
REMARK    6  A    between atoms: C26_28  and  O2_29 
REMARK    7  A    between atoms: C28_32  and  O3_33 
ROOT
HETATM    1  C10 UNL     1      -1.576  -0.379  -0.644  1.00  0.00     0.023 C 
HETATM    2  C11 UNL     1      -1.188  -0.774   0.730  1.00  0.00     0.023 C 
HETATM    3  C12 UNL     1       0.319  -0.651   0.982  1.00  0.00     0.018 C 
HETATM    4  C13 UNL     1       0.329  -0.997   2.487  1.00  0.00     0.021 C 
HETATM    5  C14 UNL     1       0.864   0.699   0.864  1.00  0.00     0.158 C 
HETATM    6  C15 UNL     1       2.277   0.774   0.404  1.00  0.00    -0.049 C 
HETATM    7  C16 UNL     1       2.712   1.913  -0.176  1.00  0.00    -0.016 C 
HETATM    8  C17 UNL     1       4.112   2.030  -0.644  1.00  0.00     0.008 C 
HETATM    9  C18 UNL     1       4.588   3.438  -0.745  1.00  0.00     0.014 C 
HETATM   10  C19 UNL     1       4.917   1.212   0.360  1.00  0.00    -0.011 C 
HETATM   11  C20 UNL     1       6.378   1.454   0.265  1.00  0.00     0.010 C 
HETATM   12  C21 UNL     1       4.514  -0.218   0.065  1.00  0.00     0.014 C 
HETATM   13  C22 UNL     1       3.114  -0.394   0.616  1.00  0.00     0.028 C 
HETATM   14  C23 UNL     1       2.477  -1.659   0.179  1.00  0.00    -0.008 C 
HETATM   15  C24 UNL     1       3.113  -2.045  -1.170  1.00  0.00     0.018 C 
HETATM   16  C25 UNL     1       3.082  -2.750   1.096  1.00  0.00     0.018 C 
HETATM   17  C26 UNL     1       0.992  -1.711   0.142  1.00  0.00     0.078 C 
HETATM   18  C27 UNL     1       0.375  -1.891  -1.209  1.00  0.00     0.071 C 
HETATM   19  C28 UNL     1      -0.621  -0.879  -1.663  1.00  0.00     0.126 C 
ENDROOT
BRANCH   1  20
HETATM   20  C6  UNL     1      -3.011  -0.443  -0.954  1.00  0.00     0.017 C 
BRANCH  20  21
HETATM   21  C5  UNL     1      -3.725   0.504  -0.011  1.00  0.00    -0.025 C 
HETATM   22  C4  UNL     1      -4.438   1.519  -0.415  1.00  0.00    -0.026 C 
BRANCH  22  23
HETATM   23  C2  UNL     1      -5.100   2.390   0.591  1.00  0.00    -0.001 C 
HETATM   24  C1  UNL     1      -6.592   2.310   0.330  1.00  0.00     0.013 C 
HETATM   25  C3  UNL     1      -4.623   3.830   0.490  1.00  0.00     0.013 C 
ENDBRANCH  22  23
ENDBRANCH  20  21
BRANCH  20  26
HETATM   26  C7  UNL     1      -3.783  -1.677  -0.931  1.00  0.00    -0.015 C 
HETATM   27  C8  UNL     1      -3.320  -2.832  -1.780  1.00  0.00     0.010 C 
HETATM   28  C9  UNL     1      -4.237  -2.170   0.428  1.00  0.00     0.010 C 
ENDBRANCH  20  26
ENDBRANCH   1  20
BRANCH  19  29
HETATM   29  O3  UNL     1       0.026   0.164  -2.387  1.00  0.00    -0.395 OA
ATOM     30  H3  UNL     1       0.638  -0.156  -3.040  1.00  0.00     0.210 HD
ENDBRANCH  19  29
BRANCH   5  31
HETATM   31  O1  UNL     1       0.891   1.395   2.109  1.00  0.00    -0.390 OA
ATOM     32  H1  UNL     1       1.245   2.273   2.032  1.00  0.00     0.210 HD
ENDBRANCH   5  31
BRANCH  17  33
HETATM   33  O2  UNL     1       0.645  -2.904   0.846  1.00  0.00    -0.388 OA
ATOM     34  H2  UNL     1       1.068  -3.571   0.318  1.00  0.00     0.210 HD
ENDBRANCH  17  33
TORSDOF 7
