REMARK  10 active torsions:
REMARK  status: ('A' for Active; 'I' for Inactive)
REMARK    1  A    between atoms: C2_3  and  N2_4 
REMARK    2  A    between atoms: N2_4  and  C3_6 
REMARK    3  A    between atoms: C4_11  and  N5_12 
REMARK    4  A    between atoms: N5_12  and  C5_14 
REMARK    5  A    between atoms: C5_14  and  C6_15 
REMARK    6  A    between atoms: C6_15  and  C7_16 
REMARK    7  A    between atoms: C7_16  and  C8_17 
REMARK    8  A    between atoms: C8_17  and  C9_18 
REMARK    9  A    between atoms: C9_18  and  C10_19 
REMARK   10  A    between atoms: C10_19  and  N6_20 
ROOT
HETATM    1  N1  UNL     1       8.317   1.580  -0.081  1.00  0.00    -0.196 NA
HETATM    2  C1  UNL     1       7.293   1.036  -0.245  1.00  0.00     0.079 C 
HETATM    3  C2  UNL     1       6.037   0.347  -0.445  1.00  0.00     0.262 C 
ENDROOT
BRANCH   3   4
HETATM    4  N2  UNL     1       5.252   0.378   0.771  1.00  0.00    -0.212 N 
ATOM      5  H2  UNL     1       5.684   0.618   1.663  1.00  0.00     0.178 HD
BRANCH   4   6
HETATM    6  C3  UNL     1       3.999   0.097   0.703  1.00  0.00     0.708 A 
HETATM    7  N3  UNL     1       3.099   0.072   1.725  1.00  0.00    -0.117 N 
HETATM    8  N4  UNL     1       1.916  -0.264   1.239  1.00  0.00    -0.117 N 
ATOM      9  H3  UNL     1       3.304   0.278   2.703  1.00  0.00     0.206 HD
HETATM   10  C4  UNL     1       2.034  -0.457  -0.083  1.00  0.00     0.707 A 
ATOM     11  H4  UNL     1       1.056  -0.360   1.780  1.00  0.00     0.206 HD
HETATM   12  N7  UNL     1       3.319  -0.234  -0.412  1.00  0.00    -0.020 N 
ATOM     13  H7  UNL     1       3.713  -0.304  -1.350  1.00  0.00     0.203 HD
BRANCH  10  14
HETATM   14  N5  UNL     1       1.138  -0.792  -0.942  1.00  0.00    -0.224 N 
ATOM     15  H5  UNL     1       1.358  -0.908  -1.931  1.00  0.00     0.177 HD
BRANCH  14  16
HETATM   16  C5  UNL     1      -0.221  -0.999  -0.421  1.00  0.00     0.138 C 
BRANCH  16  17
HETATM   17  C6  UNL     1      -1.140  -0.865  -1.586  1.00  0.00     0.020 C 
BRANCH  17  18
HETATM   18  C7  UNL     1      -2.565  -1.068  -1.179  1.00  0.00     0.002 C 
BRANCH  18  19
HETATM   19  C8  UNL     1      -2.969  -0.049  -0.156  1.00  0.00     0.002 C 
BRANCH  19  20
HETATM   20  C9  UNL     1      -4.423  -0.242   0.259  1.00  0.00     0.027 C 
BRANCH  20  21
HETATM   21  C10 UNL     1      -4.779   0.813   1.293  1.00  0.00     0.229 C 
BRANCH  21  22
HETATM   22  N6  UNL     1      -4.595   2.109   0.702  1.00  0.00    -0.079 N 
ATOM     23  H63 UNL     1      -3.658   2.236   0.320  1.00  0.00     0.274 HD
ATOM     24  H62 UNL     1      -5.117   2.221  -0.167  1.00  0.00     0.274 HD
ATOM     25  H61 UNL     1      -4.834   2.817   1.396  1.00  0.00     0.274 HD
ENDBRANCH  21  22
ENDBRANCH  20  21
ENDBRANCH  19  20
ENDBRANCH  18  19
ENDBRANCH  17  18
ENDBRANCH  16  17
ENDBRANCH  14  16
ENDBRANCH  10  14
ENDBRANCH   4   6
ENDBRANCH   3   4
TORSDOF 10
