REMARK  1 active torsions:
REMARK  status: ('A' for Active; 'I' for Inactive)
REMARK    1  A    between atoms: C5_7  and  C6_8 
ROOT
HETATM    1  C6  UNL     1      -0.359   0.115  -1.021  1.00  0.00     0.041 A 
HETATM    2  N2  UNL     1      -0.982  -0.954  -0.515  1.00  0.00    -0.353 N 
ATOM      3  H2  UNL     1      -0.543  -1.869  -0.408  1.00  0.00     0.166 HD
HETATM    4  C7  UNL     1      -2.260  -0.687  -0.160  1.00  0.00     0.068 A 
HETATM    5  C8  UNL     1      -3.258  -1.461   0.390  1.00  0.00     0.074 A 
HETATM    6  N3  UNL     1      -3.012  -2.827   0.683  1.00  0.00    -0.100 NA
HETATM    7  C9  UNL     1      -4.488  -0.919   0.655  1.00  0.00     0.035 A 
HETATM    8  C10 UNL     1      -4.727   0.409   0.366  1.00  0.00    -0.059 A 
HETATM    9  C11 UNL     1      -6.069   1.030   0.648  1.00  0.00     0.048 C 
HETATM   10  C12 UNL     1      -3.732   1.181  -0.182  1.00  0.00     0.021 A 
HETATM   11  C13 UNL     1      -2.479   0.642  -0.455  1.00  0.00     0.001 A 
HETATM   12  C14 UNL     1      -1.312   1.140  -0.986  1.00  0.00    -0.023 A 
HETATM   13  C15 UNL     1      -1.109   2.531  -1.437  1.00  0.00     0.051 C 
ENDROOT
BRANCH   1  14
HETATM   14  C5  UNL     1       1.000   0.287  -1.494  1.00  0.00     0.056 C 
HETATM   15  C4  UNL     1       2.078  -0.033  -0.775  1.00  0.00     0.029 A 
HETATM   16  C3  UNL     1       1.914  -0.592   0.567  1.00  0.00     0.176 A 
HETATM   17  N4  UNL     1       3.382   0.176  -1.297  1.00  0.00    -0.360 N 
HETATM   18  N1  UNL     1       3.172  -0.724   1.243  1.00  0.00    -0.386 N 
HETATM   19  C2  UNL     1       4.334  -0.525   0.780  1.00  0.00     0.023 A 
ATOM     20  H1  UNL     1       3.125  -1.015   2.220  1.00  0.00     0.159 HD
HETATM   21  C1  UNL     1       5.569  -0.705   1.589  1.00  0.00     0.070 C 
HETATM   22  C16 UNL     1       4.437  -0.041  -0.602  1.00  0.00     0.027 A 
HETATM   23  C17 UNL     1       5.776   0.187  -1.175  1.00  0.00     0.070 C 
ATOM     24  H4  UNL     1       3.482   0.509  -2.256  1.00  0.00     0.165 HD
ENDBRANCH   1  14
TORSDOF 1
