REMARK  9 active torsions:
REMARK  status: ('A' for Active; 'I' for Inactive)
REMARK    1  A    between atoms: C1_4  and  C2_5 
REMARK    2  A    between atoms: C2_5  and  O1_6 
REMARK    3  A    between atoms: O1_6  and  C3_7 
REMARK    4  A    between atoms: C4_10  and  N3_11 
REMARK    5  A    between atoms: C5_16  and  N5_17 
REMARK    6  A    between atoms: C6_20  and  N6_21 
REMARK    7  A    between atoms: N7_23  and  N8_25 
REMARK    8  A    between atoms: N8_25  and  C7_27 
REMARK    9  A    between atoms: C8_33  and  N11_34 
ROOT
HETATM    1  C3  UNL     1      -1.845   0.235   0.518  1.00  0.00     0.190 A 
HETATM    2  N2  UNL     1      -2.536  -0.696   1.214  1.00  0.00    -0.168 N 
ATOM      3  H2  UNL     1      -3.243  -0.393   1.884  1.00  0.00     0.186 HD
HETATM    4  C4  UNL     1      -2.313  -2.013   1.044  1.00  0.00     0.679 A 
HETATM    5  N4  UNL     1      -1.393  -2.459   0.175  1.00  0.00    -0.175 N 
ATOM      6  H4  UNL     1      -1.225  -3.457   0.048  1.00  0.00     0.186 HD
HETATM    7  C5  UNL     1      -0.694  -1.533  -0.528  1.00  0.00     0.147 A 
HETATM    8  C6  UNL     1      -0.892  -0.186  -0.384  1.00  0.00     0.145 A 
ENDROOT
BRANCH   8   9
HETATM    9  N6  UNL     1      -0.145   0.763  -1.135  1.00  0.00    -0.279 N 
HETATM   10  N7  UNL     1       1.072   0.998  -1.023  1.00  0.00    -0.240 N 
ATOM     11  H7  UNL     1       1.457   1.713  -1.640  1.00  0.00     0.208 HD
ATOM     12  H6  UNL     1      -0.656   1.303  -1.833  1.00  0.00     0.189 HD
BRANCH  10  13
HETATM   13  N8  UNL     1       1.958   0.391  -0.150  1.00  0.00    -0.266 N 
ATOM     14  H8  UNL     1       1.584  -0.012   0.709  1.00  0.00     0.190 HD
BRANCH  13  15
HETATM   15  C7  UNL     1       3.224   0.304  -0.356  1.00  0.00     0.189 A 
HETATM   16  N9  UNL     1       3.973   0.740  -1.384  1.00  0.00    -0.221 N 
HETATM   17  O2  UNL     1       5.218   0.427  -1.164  1.00  0.00    -0.153 OA
ATOM     18  H9  UNL     1       3.623   1.236  -2.204  1.00  0.00     0.198 HD
HETATM   19  N10 UNL     1       5.342  -0.197  -0.040  1.00  0.00    -0.222 N 
HETATM   20  C8  UNL     1       4.113  -0.300   0.509  1.00  0.00     0.169 A 
ATOM     21  H10 UNL     1       6.212  -0.549   0.361  1.00  0.00     0.198 HD
BRANCH  20  22
HETATM   22  N11 UNL     1       3.847  -0.867   1.638  1.00  0.00    -0.381 N 
ATOM     23 2H11 UNL     1       2.918  -0.945   2.053  1.00  0.00     0.157 HD
ATOM     24 1H11 UNL     1       4.504  -1.314   2.278  1.00  0.00     0.157 HD
ENDBRANCH  20  22
ENDBRANCH  13  15
ENDBRANCH  10  13
ENDBRANCH   8   9
BRANCH   1  25
HETATM   25  O1  UNL     1      -2.106   1.588   0.725  1.00  0.00    -0.328 OA
BRANCH  25  26
HETATM   26  C2  UNL     1      -3.162   2.267   0.045  1.00  0.00     0.221 C 
BRANCH  26  27
HETATM   27  C1  UNL     1      -3.181   3.671   0.473  1.00  0.00     0.079 C 
HETATM   28  N1  UNL     1      -2.334   4.546   0.076  1.00  0.00    -0.409 N 
ATOM     29  H12 UNL     1      -1.613   4.233  -0.574  1.00  0.00     0.155 HD
ATOM     30  H11 UNL     1      -2.347   5.522   0.373  1.00  0.00     0.155 HD
ENDBRANCH  26  27
ENDBRANCH  25  26
ENDBRANCH   1  25
BRANCH   7  31
HETATM   31  N5  UNL     1       0.193  -1.918  -1.368  1.00  0.00    -0.383 N 
ATOM     32  H52 UNL     1       0.341  -2.922  -1.475  1.00  0.00     0.157 HD
ATOM     33  H51 UNL     1       0.719  -1.222  -1.897  1.00  0.00     0.157 HD
ENDBRANCH   7  31
BRANCH   4  34
HETATM   34  N3  UNL     1      -3.001  -2.891   1.734  1.00  0.00    -0.234 N 
ATOM     35  H32 UNL     1      -3.700  -2.552   2.395  1.00  0.00     0.174 HD
ATOM     36  H31 UNL     1      -2.832  -3.889   1.605  1.00  0.00     0.174 HD
ENDBRANCH   4  34
TORSDOF 9
