REMARK  5 active torsions:
REMARK  status: ('A' for Active; 'I' for Inactive)
REMARK    1  A    between atoms: C2_7  and  O1_8 
REMARK    2  A    between atoms: O1_8  and  C3_9 
REMARK    3  A    between atoms: C3_9  and  C4_10 
REMARK    4  A    between atoms: C5_11  and  C6_12 
REMARK    5  A    between atoms: C9_22  and  N5_23 
ROOT
HETATM    1  N1  UNL     1       3.862   2.607   0.623  1.00  0.00    -0.234 N 
ATOM      2  H11 UNL     1       4.831   2.770   0.349  1.00  0.00     0.174 HD
ATOM      3  H12 UNL     1       3.325   3.323   1.112  1.00  0.00     0.174 HD
HETATM    4  C1  UNL     1       3.288   1.485   0.355  1.00  0.00     0.679 A 
HETATM    5  N2  UNL     1       1.988   1.267   0.722  1.00  0.00    -0.169 N 
ATOM      6  H2  UNL     1       1.482   2.006   1.210  1.00  0.00     0.186 HD
HETATM    7  C2  UNL     1       1.357   0.109   0.459  1.00  0.00     0.186 A 
HETATM    8  C8  UNL     1       2.117  -0.849  -0.211  1.00  0.00     0.141 A 
HETATM    9  N4  UNL     1       1.536  -2.103  -0.532  1.00  0.00    -0.094 NA
HETATM   10  C9  UNL     1       3.416  -0.621  -0.574  1.00  0.00     0.143 A 
HETATM   11  N6  UNL     1       3.993   0.544  -0.288  1.00  0.00    -0.175 N 
ATOM     12  H6  UNL     1       4.962   0.719  -0.555  1.00  0.00     0.186 HD
ENDROOT
BRANCH   7  13
HETATM   13  O1  UNL     1       0.043  -0.156   0.812  1.00  0.00    -0.329 OA
BRANCH  13  14
HETATM   14  C3  UNL     1      -0.995   0.261  -0.029  1.00  0.00     0.225 C 
BRANCH  14  15
HETATM   15  C4  UNL     1      -2.332  -0.099   0.490  1.00  0.00     0.078 A 
HETATM   16  C5  UNL     1      -3.563   0.154  -0.075  1.00  0.00     0.189 A 
HETATM   17  O4  UNL     1      -4.468  -0.347   0.736  1.00  0.00    -0.227 OA
HETATM   18  N3  UNL     1      -3.939  -0.898   1.767  1.00  0.00    -0.224 N 
HETATM   19  C7  UNL     1      -2.597  -0.770   1.664  1.00  0.00     0.276 A 
ATOM     20  H3  UNL     1      -4.442  -1.352   2.529  1.00  0.00     0.198 HD
HETATM   21  O5  UNL     1      -1.718  -1.175   2.468  1.00  0.00    -0.266 OA
BRANCH  16  22
HETATM   22  C6  UNL     1      -3.781   0.850  -1.336  1.00  0.00     0.237 C 
HETATM   23  O2  UNL     1      -2.837   1.288  -2.030  1.00  0.00    -0.642 OA
HETATM   24  O3  UNL     1      -5.072   1.041  -1.798  1.00  0.00    -0.642 OA
ENDBRANCH  16  22
ENDBRANCH  14  15
ENDBRANCH  13  14
ENDBRANCH   7  13
BRANCH  10  25
HETATM   25  N5  UNL     1       4.131  -1.520  -1.203  1.00  0.00    -0.383 N 
ATOM     26  H52 UNL     1       3.689  -2.413  -1.422  1.00  0.00     0.157 HD
ATOM     27  H51 UNL     1       5.100  -1.350  -1.474  1.00  0.00     0.157 HD
ENDBRANCH  10  25
TORSDOF 5
