REMARK  13 active torsions:
REMARK  status: ('A' for Active; 'I' for Inactive)
REMARK    1  A    between atoms: O1_2  and  C2_3 
REMARK    2  A    between atoms: C4_5  and  C5_6 
REMARK    3  A    between atoms: C5_6  and  O2_7 
REMARK    4  A    between atoms: O2_7  and  N1_8 
REMARK    5  A    between atoms: N1_8  and  C6_10 
REMARK    6  A    between atoms: C7_11  and  C8_12 
REMARK    7  A    between atoms: C15_24  and  C16_25 
REMARK    8  A    between atoms: N3_28  and  N4_29 
REMARK    9  A    between atoms: C17_32  and  N5_33 
REMARK   10  A    between atoms: C18_38  and  O8_39 
REMARK   11  A    between atoms: C20_43  and  O10_44 
REMARK   12  A    between atoms: C20_43  and  O11_46 
REMARK   13  A    between atoms: C22_48  and  O12_49 
ROOT
HETATM    1  C6  UNL     1      -1.152   0.495  -1.026  1.00  0.00     0.124 A 
HETATM    2  C7  UNL     1      -1.893  -0.051   0.011  1.00  0.00     0.109 A 
HETATM    3  O7  UNL     1      -2.573   0.942   0.517  1.00  0.00    -0.301 OA
HETATM    4  C15 UNL     1      -2.364   2.077  -0.069  1.00  0.00     0.157 A 
HETATM    5  C18 UNL     1      -1.453   1.831  -1.069  1.00  0.00     0.135 A 
ENDROOT
BRANCH   1   6
HETATM    6  N1  UNL     1      -0.284  -0.220  -1.871  1.00  0.00    -0.256 N 
ATOM      7  H1  UNL     1      -0.571  -0.427  -2.827  1.00  0.00     0.195 HD
BRANCH   6   8
HETATM    8  O2  UNL     1       0.925  -0.636  -1.434  1.00  0.00    -0.249 OA
BRANCH   8   9
HETATM    9  C5  UNL     1       1.565  -0.232  -0.273  1.00  0.00     0.182 C 
BRANCH   9  10
HETATM   10  C4  UNL     1       2.873  -0.321  -0.222  1.00  0.00     0.042 C 
HETATM   11  C3  UNL     1       3.638  -0.825  -1.346  1.00  0.00     0.052 C 
HETATM   12  C2  UNL     1       4.948  -0.925  -1.287  1.00  0.00     0.081 C 
HETATM   13  C22 UNL     1       5.712  -0.551  -0.101  1.00  0.00     0.245 C 
HETATM   14  C20 UNL     1       5.052   0.506   0.715  1.00  0.00     0.262 C 
HETATM   15  C19 UNL     1       3.626   0.066   0.952  1.00  0.00     0.226 C 
HETATM   16  O9  UNL     1       3.103   0.030   2.068  1.00  0.00    -0.286 OA
BRANCH  12  17
HETATM   17  O1  UNL     1       5.582  -1.423  -2.448  1.00  0.00    -0.357 OA
HETATM   18  C1  UNL     1       6.604  -0.688  -3.097  1.00  0.00     0.209 C 
ENDBRANCH  12  17
BRANCH  13  19
HETATM   19  O12 UNL     1       5.744  -1.713   0.725  1.00  0.00    -0.383 OA
ATOM     20  H12 UNL     1       6.241  -1.470   1.497  1.00  0.00     0.210 HD
ENDBRANCH  13  19
BRANCH  14  21
HETATM   21  O10 UNL     1       4.931   1.700  -0.025  1.00  0.00    -0.357 OA
ATOM     22  H10 UNL     1       5.828   1.977  -0.174  1.00  0.00     0.213 HD
ENDBRANCH  14  21
BRANCH  14  23
HETATM   23  O11 UNL     1       5.655   0.758   1.947  1.00  0.00    -0.351 OA
HETATM   24  C21 UNL     1       6.917   1.293   1.720  1.00  0.00     0.206 C 
ENDBRANCH  14  23
ENDBRANCH   9  10
ENDBRANCH   8   9
ENDBRANCH   6   8
ENDBRANCH   1   6
BRANCH   2  25
HETATM   25  C8  UNL     1      -1.865  -1.438   0.409  1.00  0.00     0.063 C 
HETATM   26  C9  UNL     1      -2.859  -2.237   0.653  1.00  0.00     0.117 C 
HETATM   27  C10 UNL     1      -2.565  -3.636   1.059  1.00  0.00     0.302 C 
HETATM   28  C14 UNL     1      -4.259  -1.874   0.540  1.00  0.00     0.302 C 
HETATM   29  O3  UNL     1      -1.380  -3.997   1.168  1.00  0.00    -0.259 OA
HETATM   30  O4  UNL     1      -3.623  -4.471   1.294  1.00  0.00    -0.280 OA
HETATM   31  C11 UNL     1      -4.872  -4.201   0.728  1.00  0.00     0.175 C 
HETATM   32  C12 UNL     1      -5.966  -5.039   1.375  1.00  0.00     0.080 C 
HETATM   33  C13 UNL     1      -4.876  -4.581  -0.757  1.00  0.00     0.080 C 
HETATM   34  O5  UNL     1      -5.223  -2.844   0.816  1.00  0.00    -0.280 OA
HETATM   35  O6  UNL     1      -4.647  -0.740   0.208  1.00  0.00    -0.259 OA
ENDBRANCH   2  25
BRANCH   5  36
HETATM   36  O8  UNL     1      -0.938   2.791  -1.961  1.00  0.00    -0.356 OA
ATOM     37  H8  UNL     1      -1.147   3.717  -1.991  1.00  0.00     0.218 HD
ENDBRANCH   5  36
BRANCH   4  38
HETATM   38  C16 UNL     1      -2.970   3.376   0.256  1.00  0.00     0.174 A 
HETATM   39  N2  UNL     1      -3.859   3.565   1.252  1.00  0.00    -0.247 N 
HETATM   40  N3  UNL     1      -4.221   4.820   1.292  1.00  0.00    -0.025 N 
ATOM     41  H2  UNL     1      -4.198   2.837   1.881  1.00  0.00     0.191 HD
HETATM   42  C17 UNL     1      -3.546   5.464   0.289  1.00  0.00     0.713 A 
HETATM   43  N6  UNL     1      -2.783   4.560  -0.336  1.00  0.00    -0.170 N 
ATOM     44  H6  UNL     1      -2.166   4.743  -1.127  1.00  0.00     0.186 HD
BRANCH  40  45
HETATM   45  N4  UNL     1      -5.096   5.513   2.116  1.00  0.00    -0.309 N 
ATOM     46  H42 UNL     1      -5.599   5.033   2.863  1.00  0.00     0.179 HD
ATOM     47  H41 UNL     1      -5.379   6.493   2.147  1.00  0.00     0.179 HD
ENDBRANCH  40  45
BRANCH  42  48
HETATM   48  N5  UNL     1      -3.623   6.700  -0.014  1.00  0.00    -0.231 N 
ATOM     49  H52 UNL     1      -4.205   7.389   0.462  1.00  0.00     0.174 HD
ATOM     50  H51 UNL     1      -3.120   7.180  -0.761  1.00  0.00     0.174 HD
ENDBRANCH  42  48
ENDBRANCH   4  38
TORSDOF 13
