REMARK  15 active torsions:
REMARK  status: ('A' for Active; 'I' for Inactive)
REMARK    1  A    between atoms: O1_2  and  N1_3 
REMARK    2  A    between atoms: C2_5  and  O2_6 
REMARK    3  A    between atoms: C2_5  and  C6_17 
REMARK    4  A    between atoms: O2_6  and  C3_7 
REMARK    5  A    between atoms: C3_7  and  N3_11 
REMARK       I    between atoms: N3_11  and  C4_13 
REMARK    6  A    between atoms: C4_13  and  O4_15 
REMARK    7  A    between atoms: C6_17  and  O6_19 
REMARK    8  A    between atoms: O6_19  and  C7_20 
REMARK    9  A    between atoms: C7_20  and  C8_21 
REMARK   10  A    between atoms: C9_24  and  S1_25 
REMARK   11  A    between atoms: S1_25  and  S2_26 
REMARK   12  A    between atoms: S2_26  and  C10_27 
REMARK   13  A    between atoms: C11_28  and  C12_29 
REMARK   14  A    between atoms: C13_32  and  C14_33 
REMARK   15  A    between atoms: C14_33  and  O9_35 
ROOT
HETATM    1  C8  UNL     1       0.658  -1.248   0.238  1.00  0.00     0.312 C 
HETATM    2  N4  UNL     1      -0.356  -2.318   0.272  1.00  0.00    -0.341 N 
ATOM      3  H4  UNL     1      -0.151  -3.237   0.664  1.00  0.00     0.163 HD
HETATM    4  C9  UNL     1      -1.502  -2.039  -0.213  1.00  0.00     0.150 C 
HETATM    5  N7  UNL     1      -1.716  -0.735  -0.746  1.00  0.00    -0.347 N 
ATOM      6  H7  UNL     1      -2.453  -0.593  -1.437  1.00  0.00     0.163 HD
HETATM    7  C16 UNL     1      -0.916   0.385  -0.331  1.00  0.00     0.359 C 
HETATM    8  N8  UNL     1       0.011  -0.042   0.694  1.00  0.00    -0.036 N 
ATOM      9  H81 UNL     1       0.675   0.687   0.954  1.00  0.00     0.281 HD
ATOM     10  H82 UNL     1      -0.433  -0.153   1.605  1.00  0.00     0.281 HD
ENDROOT
BRANCH   1  11
HETATM   11  C7  UNL     1       1.761  -1.678   1.140  1.00  0.00     0.233 C 
BRANCH  11  12
HETATM   12  O6  UNL     1       2.773  -0.720   1.178  1.00  0.00    -0.311 OA
BRANCH  12  13
HETATM   13  C6  UNL     1       3.538  -0.304   0.106  1.00  0.00     0.337 C 
HETATM   14  O5  UNL     1       3.360  -0.794  -1.032  1.00  0.00    -0.255 OA
BRANCH  13  15
HETATM   15  C2  UNL     1       4.556   0.707   0.286  1.00  0.00     0.247 C 
HETATM   16  N1  UNL     1       4.765   1.225   1.426  1.00  0.00    -0.240 N 
ATOM     17  H1  UNL     1       5.501   1.930   1.472  1.00  0.00     0.196 HD
BRANCH  16  18
HETATM   18  O1  UNL     1       4.127   0.953   2.587  1.00  0.00    -0.283 OA
HETATM   19  C1  UNL     1       4.894   0.343   3.624  1.00  0.00     0.237 C 
ENDBRANCH  16  18
BRANCH  15  20
HETATM   20  O2  UNL     1       5.312   1.111  -0.803  1.00  0.00    -0.255 OA
BRANCH  20  21
HETATM   21  C3  UNL     1       6.049   2.309  -0.759  1.00  0.00     0.228 C 
HETATM   22  N2  UNL     1       5.466   3.298  -0.201  1.00  0.00    -0.365 N 
ATOM     23  H22 UNL     1       4.526   3.217   0.187  1.00  0.00     0.159 HD
ATOM     24  H21 UNL     1       6.000   4.166  -0.169  1.00  0.00     0.159 HD
BRANCH  21  25
HETATM   25  N3  UNL     1       7.364   2.422  -1.302  1.00  0.00    -0.268 N 
HETATM   26  C4  UNL     1       7.977   1.308  -1.911  1.00  0.00     0.367 C 
HETATM   27  O3  UNL     1       7.351   0.225  -1.967  1.00  0.00    -0.238 OA
ATOM     28  H3  UNL     1       7.862   3.311  -1.249  1.00  0.00     0.174 HD
BRANCH  26  29
HETATM   29  O4  UNL     1       9.254   1.355  -2.458  1.00  0.00    -0.309 OA
HETATM   30  C5  UNL     1       9.866   0.239  -3.068  1.00  0.00     0.215 C 
ENDBRANCH  26  29
ENDBRANCH  21  25
ENDBRANCH  20  21
ENDBRANCH  15  20
ENDBRANCH  13  15
ENDBRANCH  12  13
ENDBRANCH  11  12
ENDBRANCH   1  11
BRANCH   4  31
HETATM   31  S1  UNL     1      -2.774  -3.294  -0.200  1.00  0.00    -0.016 SA
BRANCH  31  32
HETATM   32  S2  UNL     1      -4.581  -2.593  -1.062  1.00  0.00    -0.041 SA
BRANCH  32  33
HETATM   33  C10 UNL     1      -5.650  -1.854   0.103  1.00  0.00     0.078 C 
HETATM   34  C11 UNL     1      -6.830  -1.335  -0.065  1.00  0.00     0.062 C 
HETATM   35  C13 UNL     1      -7.455  -0.778   1.124  1.00  0.00     0.228 C 
HETATM   36  N6  UNL     1      -7.008  -1.446   2.325  1.00  0.00    -0.153 NA
HETATM   37  S3  UNL     1      -5.292  -1.692   1.839  1.00  0.00    -0.016 SA
BRANCH  34  38
HETATM   38  C12 UNL     1      -7.491  -1.297  -1.388  1.00  0.00     0.265 C 
HETATM   39  N5  UNL     1      -6.856  -1.829  -2.530  1.00  0.00    -0.057 NA
HETATM   40  O7  UNL     1      -8.633  -0.797  -1.567  1.00  0.00    -0.271 OA
ENDBRANCH  34  38
BRANCH  35  41
HETATM   41  C14 UNL     1      -7.160   0.668   1.319  1.00  0.00     0.283 C 
HETATM   42  O8  UNL     1      -6.631   1.141   2.343  1.00  0.00    -0.263 OA
BRANCH  41  43
HETATM   43  O9  UNL     1      -7.503   1.523   0.282  1.00  0.00    -0.325 OA
HETATM   44  C15 UNL     1      -7.297   2.903   0.301  1.00  0.00     0.213 C 
ENDBRANCH  41  43
ENDBRANCH  35  41
ENDBRANCH  32  33
ENDBRANCH  31  32
ENDBRANCH   4  31
TORSDOF 15
