REMARK  6 active torsions:
REMARK  status: ('A' for Active; 'I' for Inactive)
REMARK    1  A    between atoms: O1_2  and  C2_3 
REMARK    2  A    between atoms: C2_3  and  C3_5 
REMARK    3  A    between atoms: C3_5  and  C5_7 
REMARK    4  A    between atoms: C14_19  and  O6_20 
REMARK    5  A    between atoms: O6_20  and  C15_21 
REMARK    6  A    between atoms: C18_25  and  C19_26 
ROOT
HETATM    1  C5  UNL     1       2.368   0.444  -0.847  1.00  0.00     0.099 C 
HETATM    2  C6  UNL     1       1.436  -0.468  -0.072  1.00  0.00     0.021 C 
HETATM    3  C7  UNL     1       0.080   0.146   0.110  1.00  0.00     0.002 C 
HETATM    4  C8  UNL     1      -0.728   0.260  -1.138  1.00  0.00     0.065 C 
HETATM    5  C9  UNL     1      -0.578  -0.862  -2.113  1.00  0.00     0.044 C 
HETATM    6  C10 UNL     1       0.183  -0.477  -3.357  1.00  0.00     0.128 C 
HETATM    7  C11 UNL     1      -0.189  -1.497  -4.429  1.00  0.00     0.040 C 
HETATM    8  O3  UNL     1       1.545  -0.329  -3.198  1.00  0.00    -0.316 OA
HETATM    9  C12 UNL     1       2.409   0.182  -2.277  1.00  0.00     0.264 C 
HETATM   10  O4  UNL     1       3.521   0.514  -2.765  1.00  0.00    -0.265 OA
HETATM   11  C13 UNL     1      -2.179   0.421  -0.843  1.00  0.00     0.160 C 
HETATM   12  O5  UNL     1      -2.939   0.247  -1.783  1.00  0.00    -0.295 OA
HETATM   13  C14 UNL     1      -2.741   0.765   0.472  1.00  0.00     0.202 C 
HETATM   14  C17 UNL     1      -1.745   0.724   1.570  1.00  0.00     0.045 C 
HETATM   15  C18 UNL     1      -0.661  -0.300   1.312  1.00  0.00    -0.004 C 
ENDROOT
BRANCH   1  16
HETATM   16  C3  UNL     1       3.797   0.283  -0.305  1.00  0.00     0.095 C 
HETATM   17  C4  UNL     1       4.300  -1.113  -0.524  1.00  0.00     0.021 C 
BRANCH  16  18
HETATM   18  C2  UNL     1       3.852   0.643   1.133  1.00  0.00     0.263 C 
HETATM   19  O2  UNL     1       4.286  -0.208   1.946  1.00  0.00    -0.265 OA
BRANCH  18  20
HETATM   20  O1  UNL     1       3.451   1.871   1.633  1.00  0.00    -0.326 OA
HETATM   21  C1  UNL     1       3.543   2.119   3.029  1.00  0.00     0.213 C 
ENDBRANCH  18  20
ENDBRANCH  16  18
ENDBRANCH   1  16
BRANCH  15  22
HETATM   22  C19 UNL     1      -1.228  -1.660   1.326  1.00  0.00    -0.018 C 
HETATM   23  C20 UNL     1      -1.932  -1.841   2.680  1.00  0.00     0.010 C 
HETATM   24  C21 UNL     1      -0.249  -2.779   1.267  1.00  0.00     0.010 C 
ENDBRANCH  15  22
BRANCH  13  25
HETATM   25  O6  UNL     1      -3.436   1.969   0.329  1.00  0.00    -0.309 OA
BRANCH  25  26
HETATM   26  C15 UNL     1      -4.773   2.158   0.440  1.00  0.00     0.255 C 
HETATM   27  C16 UNL     1      -5.367   3.501   0.261  1.00  0.00     0.126 C 
HETATM   28  O7  UNL     1      -5.500   1.198   0.693  1.00  0.00    -0.266 OA
ENDBRANCH  25  26
ENDBRANCH  13  25
TORSDOF 6
