REMARK  14 active torsions:
REMARK  status: ('A' for Active; 'I' for Inactive)
REMARK    1  A    between atoms: C2_2  and  C3_3 
REMARK       I    between atoms: C3_3  and  N1_5 
REMARK    2  A    between atoms: N2_8  and  C6_9 
REMARK    3  A    between atoms: C8_11  and  O2_12 
REMARK    4  A    between atoms: O2_12  and  C9_13 
REMARK    5  A    between atoms: C11_15  and  N3_16 
REMARK    6  A    between atoms: N3_16  and  C12_18 
REMARK    7  A    between atoms: C14_22  and  C15_23 
REMARK    8  A    between atoms: C16_26  and  N5_27 
REMARK    9  A    between atoms: N5_27  and  C17_29 
REMARK   10  A    between atoms: C22_36  and  O5_37 
REMARK   11  A    between atoms: O5_37  and  C23_38 
REMARK   12  A    between atoms: C23_38  and  C24_39 
REMARK   13  A    between atoms: C24_39  and  C25_40 
REMARK   14  A    between atoms: C25_40  and  O6_41 
ROOT
HETATM    1  C6  UNL     1       2.152  -0.346   0.548  1.00  0.00     0.035 A 
HETATM    2  C7  UNL     1       1.409   0.141   1.609  1.00  0.00     0.068 A 
HETATM    3  C8  UNL     1       0.264  -0.473   2.074  1.00  0.00     0.101 A 
HETATM    4  C11 UNL     1      -0.185  -1.652   1.452  1.00  0.00     0.116 A 
HETATM    5  C22 UNL     1       0.529  -2.160   0.397  1.00  0.00     0.101 A 
HETATM    6  C26 UNL     1       1.676  -1.512  -0.041  1.00  0.00     0.068 A 
ENDROOT
BRANCH   4   7
HETATM    7  N3  UNL     1      -1.356  -2.260   1.945  1.00  0.00    -0.186 N 
ATOM      8  H3  UNL     1      -1.235  -3.003   2.633  1.00  0.00     0.184 HD
BRANCH   7   9
HETATM    9  C12 UNL     1      -2.545  -1.973   1.617  1.00  0.00     0.684 A 
HETATM   10  N4  UNL     1      -3.559  -2.649   2.180  1.00  0.00    -0.200 N 
HETATM   11  C13 UNL     1      -4.847  -2.410   1.891  1.00  0.00     0.128 A 
ATOM     12  H4  UNL     1      -3.340  -3.378   2.859  1.00  0.00     0.183 HD
HETATM   13  C14 UNL     1      -5.135  -1.427   0.975  1.00  0.00     0.100 A 
HETATM   14  C16 UNL     1      -4.124  -0.706   0.370  1.00  0.00     0.135 A 
HETATM   15  N6  UNL     1      -2.866  -1.019   0.725  1.00  0.00    -0.176 N 
ATOM     16  H6  UNL     1      -2.105  -0.499   0.289  1.00  0.00     0.186 HD
BRANCH  13  17
HETATM   17  C15 UNL     1      -6.526  -1.157   0.650  1.00  0.00     0.214 C 
HETATM   18  O3  UNL     1      -7.458  -1.795   1.191  1.00  0.00    -0.644 OA
HETATM   19  O4  UNL     1      -6.810  -0.173  -0.277  1.00  0.00    -0.644 OA
ENDBRANCH  13  17
BRANCH  14  20
HETATM   20  N5  UNL     1      -4.473   0.186  -0.466  1.00  0.00    -0.370 N 
ATOM     21  H5  UNL     1      -5.478   0.285  -0.613  1.00  0.00     0.161 HD
BRANCH  20  22
HETATM   22  C17 UNL     1      -3.648   1.066  -1.226  1.00  0.00     0.083 C 
HETATM   23  C18 UNL     1      -4.468   1.848  -2.249  1.00  0.00     0.025 C 
HETATM   24  C19 UNL     1      -3.524   2.969  -2.618  1.00  0.00     0.002 C 
HETATM   25  C20 UNL     1      -3.056   3.414  -1.234  1.00  0.00     0.002 C 
HETATM   26  C21 UNL     1      -3.027   2.165  -0.401  1.00  0.00     0.025 C 
ENDBRANCH  20  22
ENDBRANCH  14  20
ENDBRANCH   7   9
ENDBRANCH   4   7
BRANCH   3  27
HETATM   27  O2  UNL     1      -0.507  -0.034   3.121  1.00  0.00    -0.349 OA
BRANCH  27  28
HETATM   28  C9  UNL     1      -0.222   1.125   3.844  1.00  0.00     0.171 C 
HETATM   29  C10 UNL     1      -0.263   2.388   3.039  1.00  0.00     0.034 C 
ENDBRANCH  27  28
ENDBRANCH   3  27
BRANCH   5  30
HETATM   30  O5  UNL     1       0.114  -3.320  -0.239  1.00  0.00    -0.349 OA
BRANCH  30  31
HETATM   31  C23 UNL     1       0.833  -3.871  -1.340  1.00  0.00     0.178 C 
BRANCH  31  32
HETATM   32  C24 UNL     1       0.157  -5.115  -1.822  1.00  0.00     0.053 C 
BRANCH  32  33
HETATM   33  C25 UNL     1       0.063  -6.189  -0.791  1.00  0.00     0.166 C 
BRANCH  33  34
HETATM   34  O6  UNL     1      -0.592  -7.295  -1.371  1.00  0.00    -0.401 OA
ATOM     35  H6  UNL     1      -0.652  -7.979  -0.714  1.00  0.00     0.209 HD
ENDBRANCH  33  34
ENDBRANCH  32  33
ENDBRANCH  31  32
ENDBRANCH  30  31
ENDBRANCH   5  30
BRANCH   1  36
HETATM   36  N2  UNL     1       3.342   0.288   0.084  1.00  0.00    -0.378 N 
HETATM   37  C5  UNL     1       3.902   0.060  -1.248  1.00  0.00     0.143 C 
HETATM   38  C4  UNL     1       3.865   1.425  -1.954  1.00  0.00     0.146 C 
HETATM   39  N1  UNL     1       4.771   2.288  -1.181  1.00  0.00    -0.346 N 
HETATM   40  C3  UNL     1       5.914   2.823  -1.787  1.00  0.00     0.242 C 
HETATM   41  C28 UNL     1       4.393   2.519   0.179  1.00  0.00     0.146 C 
HETATM   42  O1  UNL     1       6.153   2.547  -3.018  1.00  0.00    -0.268 OA
HETATM   43  C27 UNL     1       4.111   1.201   0.906  1.00  0.00     0.143 C 
BRANCH  40  44
HETATM   44  C2  UNL     1       6.826   3.677  -1.049  1.00  0.00     0.064 C 
HETATM   45  C1  UNL     1       7.891   4.159  -1.657  1.00  0.00     0.017 C 
ENDBRANCH  40  44
ENDBRANCH   1  36
TORSDOF 14
