REMARK  16 active torsions:
REMARK  status: ('A' for Active; 'I' for Inactive)
REMARK    1  A    between atoms: O1_2  and  C2_3 
REMARK    2  A    between atoms: C2_3  and  C3_4 
REMARK    3  A    between atoms: C4_5  and  C5_6 
REMARK    4  A    between atoms: C10_11  and  C11_12 
REMARK    5  A    between atoms: C11_12  and  C12_13 
REMARK    6  A    between atoms: C13_14  and  C14_15 
REMARK    7  A    between atoms: C13_14  and  C25_34 
REMARK    8  A    between atoms: C15_16  and  C16_17 
REMARK    9  A    between atoms: C18_20  and  O3_21 
REMARK   10  A    between atoms: O3_21  and  C19_22 
REMARK   11  A    between atoms: C20_25  and  O4_26 
REMARK   12  A    between atoms: C22_28  and  O5_29 
REMARK   13  A    between atoms: C23_31  and  O6_32 
REMARK   14  A    between atoms: C25_34  and  O7_35 
REMARK   15  A    between atoms: C25_34  and  N2_37 
REMARK   16  A    between atoms: N2_37  and  C26_39 
ROOT
HETATM    1  C12 UNL     1       0.834   1.117  -0.699  1.00  0.00    -0.007 C 
HETATM    2  C13 UNL     1      -0.242   1.915  -0.700  1.00  0.00     0.011 C 
ENDROOT
BRANCH   2   3
HETATM    3  C14 UNL     1      -1.495   1.290  -0.261  1.00  0.00     0.014 C 
HETATM    4  C15 UNL     1      -2.695   1.652  -0.113  1.00  0.00     0.008 C 
BRANCH   4   5
HETATM    5  C16 UNL     1      -3.693   0.624   0.388  1.00  0.00     0.177 C 
HETATM    6  O2  UNL     1      -3.144   0.107   1.543  1.00  0.00    -0.368 OA
HETATM    7  C17 UNL     1      -3.245  -1.250   1.526  1.00  0.00     0.194 C 
HETATM    8  C18 UNL     1      -4.637  -1.723   1.890  1.00  0.00     0.195 C 
HETATM    9  C22 UNL     1      -3.502  -1.702   0.120  1.00  0.00     0.143 C 
HETATM   10  C20 UNL     1      -4.612  -2.573   0.640  1.00  0.00     0.192 C 
HETATM   11  C23 UNL     1      -3.897  -0.464  -0.604  1.00  0.00     0.193 C 
BRANCH   8  12
HETATM   12  O3  UNL     1      -5.621  -0.714   1.891  1.00  0.00    -0.319 OA
BRANCH  12  13
HETATM   13  C19 UNL     1      -6.915  -1.092   2.218  1.00  0.00     0.223 C 
HETATM   14  N1  UNL     1      -7.261  -1.706   3.450  1.00  0.00    -0.063 NA
HETATM   15  S1  UNL     1      -8.087  -0.800   1.103  1.00  0.00    -0.037 SA
ENDBRANCH  12  13
ENDBRANCH   8  12
BRANCH  10  16
HETATM   16  O4  UNL     1      -5.766  -2.592  -0.108  1.00  0.00    -0.385 OA
HETATM   17  C21 UNL     1      -6.129  -3.930  -0.316  1.00  0.00     0.202 C 
ENDBRANCH  10  16
BRANCH   9  18
HETATM   18  O5  UNL     1      -2.503  -2.473  -0.457  1.00  0.00    -0.382 OA
ATOM     19  H5  UNL     1      -2.666  -2.759  -1.348  1.00  0.00     0.211 HD
ENDBRANCH   9  18
BRANCH  11  20
HETATM   20  O6  UNL     1      -3.095  -0.203  -1.713  1.00  0.00    -0.385 OA
HETATM   21  C24 UNL     1      -3.852  -0.046  -2.873  1.00  0.00     0.202 C 
ENDBRANCH  11  20
ENDBRANCH   4   5
ENDBRANCH   2   3
BRANCH   2  22
HETATM   22  C25 UNL     1      -0.140   3.272  -1.085  1.00  0.00     0.146 C 
BRANCH  22  23
HETATM   23  O7  UNL     1       1.051   3.685  -1.425  1.00  0.00    -0.346 OA
ATOM     24  H7  UNL     1       1.120   4.597  -1.684  1.00  0.00     0.219 HD
ENDBRANCH  22  23
BRANCH  22  25
HETATM   25  N2  UNL     1      -1.131   4.254  -1.159  1.00  0.00    -0.366 N 
ATOM     26  H2  UNL     1      -2.101   4.051  -0.919  1.00  0.00     0.162 HD
BRANCH  25  27
HETATM   27  C26 UNL     1      -0.707   5.616  -1.606  1.00  0.00     0.083 A 
HETATM   28  C27 UNL     1      -1.709   6.374  -2.452  1.00  0.00     0.027 A 
HETATM   29  C28 UNL     1      -1.460   6.721  -1.012  1.00  0.00     0.027 A 
ENDBRANCH  25  27
ENDBRANCH  22  25
ENDBRANCH   2  22
BRANCH   1  30
HETATM   30  C11 UNL     1       2.226   1.321  -1.050  1.00  0.00     0.058 C 
BRANCH  30  31
HETATM   31  C10 UNL     1       3.057   1.118   0.170  1.00  0.00     0.014 C 
HETATM   32  C2  UNL     1       4.005   0.256   0.320  1.00  0.00     0.064 C 
BRANCH  32  33
HETATM   33  O1  UNL     1       4.636   0.281   1.599  1.00  0.00    -0.356 OA
HETATM   34  C1  UNL     1       5.238   1.486   2.022  1.00  0.00     0.210 C 
ENDBRANCH  32  33
BRANCH  32  35
HETATM   35  C3  UNL     1       4.427  -0.666  -0.684  1.00  0.00     0.033 C 
HETATM   36  C4  UNL     1       5.345  -1.574  -0.662  1.00  0.00    -0.019 C 
BRANCH  36  37
HETATM   37  C5  UNL     1       6.225  -1.911   0.435  1.00  0.00     0.008 C 
HETATM   38  C6  UNL     1       6.224  -3.445   0.640  1.00  0.00     0.008 C 
HETATM   39  C7  UNL     1       7.608  -3.798   1.112  1.00  0.00     0.001 C 
HETATM   40  C8  UNL     1       8.370  -2.509   1.157  1.00  0.00     0.001 C 
HETATM   41  C9  UNL     1       7.710  -1.709   0.052  1.00  0.00     0.008 C 
ENDBRANCH  36  37
ENDBRANCH  32  35
ENDBRANCH  30  31
ENDBRANCH   1  30
TORSDOF 16
