REMARK  21 active torsions:
REMARK  status: ('A' for Active; 'I' for Inactive)
REMARK    1  A    between atoms: N1_1  and  C1_5 
REMARK    2  A    between atoms: C1_5  and  C2_6 
REMARK    3  A    between atoms: C2_6  and  O1_7 
REMARK    4  A    between atoms: O1_7  and  C3_8 
REMARK    5  A    between atoms: C4_9  and  O2_10 
REMARK    6  A    between atoms: O2_10  and  C5_11 
REMARK    7  A    between atoms: C6_12  and  N2_13 
REMARK    8  A    between atoms: C8_18  and  N3_19 
REMARK    9  A    between atoms: C9_23  and  O3_24 
REMARK   10  A    between atoms: C11_29  and  C12_30 
REMARK   11  A    between atoms: C12_30  and  O5_31 
REMARK   12  A    between atoms: C13_33  and  O6_34 
REMARK   13  A    between atoms: O6_34  and  C14_35 
REMARK   14  A    between atoms: C15_37  and  O8_38 
REMARK   15  A    between atoms: O8_38  and  C16_39 
REMARK   16  A    between atoms: C17_41  and  C18_42 
REMARK   17  A    between atoms: C18_42  and  N4_43 
REMARK   18  A    between atoms: C18_42  and  N5_47 
REMARK   19  A    between atoms: C19_51  and  O10_52 
REMARK   20  A    between atoms: C20_54  and  O11_55 
REMARK   21  A    between atoms: C21_57  and  N6_58 
ROOT
HETATM    1  C3  UNL     1       0.045   1.600  -0.825  1.00  0.00     0.208 C 
HETATM    2  C4  UNL     1       1.586   1.736  -0.678  1.00  0.00     0.292 C 
HETATM    3  O4  UNL     1       1.725   2.603   0.384  1.00  0.00    -0.348 OA
HETATM    4  C11 UNL     1       1.325   2.104   1.587  1.00  0.00     0.180 C 
HETATM    5  C13 UNL     1       0.260   1.067   1.597  1.00  0.00     0.194 C 
HETATM    6  C15 UNL     1      -0.344   0.698   0.269  1.00  0.00     0.190 C 
ENDROOT
BRANCH   6   7
HETATM    7  O8  UNL     1      -1.664   0.380   0.440  1.00  0.00    -0.348 OA
BRANCH   7   8
HETATM    8  C16 UNL     1      -2.087  -0.886   0.298  1.00  0.00     0.294 C 
HETATM    9  O9  UNL     1      -2.676  -1.273   1.510  1.00  0.00    -0.347 OA
HETATM   10  C17 UNL     1      -3.589  -2.309   1.380  1.00  0.00     0.213 C 
HETATM   11  C19 UNL     1      -4.875  -1.851   0.728  1.00  0.00     0.182 C 
HETATM   12  C20 UNL     1      -4.505  -0.653  -0.138  1.00  0.00     0.184 C 
HETATM   13  C21 UNL     1      -3.159  -1.008  -0.743  1.00  0.00     0.269 C 
BRANCH  10  14
HETATM   14  C18 UNL     1      -3.935  -2.844   2.750  1.00  0.00     0.409 C 
BRANCH  14  15
HETATM   15  N4  UNL     1      -2.789  -3.354   3.462  1.00  0.00    -0.048 N 
ATOM     16  H43 UNL     1      -2.301  -4.058   2.909  1.00  0.00     0.276 HD
ATOM     17  H42 UNL     1      -2.054  -2.649   3.521  1.00  0.00     0.276 HD
ATOM     18  H41 UNL     1      -3.023  -3.715   4.387  1.00  0.00     0.276 HD
ENDBRANCH  14  15
BRANCH  14  19
HETATM   19  N5  UNL     1      -4.840  -3.966   2.545  1.00  0.00    -0.048 N 
ATOM     20  H53 UNL     1      -5.660  -3.725   1.988  1.00  0.00     0.276 HD
ATOM     21  H52 UNL     1      -4.464  -4.677   1.918  1.00  0.00     0.276 HD
ATOM     22  H51 UNL     1      -5.074  -4.327   3.470  1.00  0.00     0.276 HD
ENDBRANCH  14  19
ENDBRANCH  10  14
BRANCH  11  23
HETATM   23  O10 UNL     1      -5.885  -1.583   1.610  1.00  0.00    -0.390 OA
ATOM     24  H10 UNL     1      -6.693  -1.295   1.201  1.00  0.00     0.210 HD
ENDBRANCH  11  23
BRANCH  12  25
HETATM   25  O11 UNL     1      -4.370   0.511   0.578  1.00  0.00    -0.391 OA
ATOM     26  H11 UNL     1      -4.139   1.258   0.038  1.00  0.00     0.210 HD
ENDBRANCH  12  25
BRANCH  13  27
HETATM   27  N6  UNL     1      -2.841  -0.164  -1.865  1.00  0.00    -0.068 N 
ATOM     28  H63 UNL     1      -2.684   0.804  -1.586  1.00  0.00     0.275 HD
ATOM     29  H62 UNL     1      -1.914  -0.359  -2.243  1.00  0.00     0.275 HD
ATOM     30  H61 UNL     1      -3.570  -0.247  -2.573  1.00  0.00     0.275 HD
ENDBRANCH  13  27
ENDBRANCH   7   8
ENDBRANCH   6   7
BRANCH   1  31
HETATM   31  O1  UNL     1      -0.393   2.898  -0.775  1.00  0.00    -0.377 OA
BRANCH  31  32
HETATM   32  C2  UNL     1      -0.913   3.349  -1.951  1.00  0.00     0.195 C 
BRANCH  32  33
HETATM   33  C1  UNL     1      -1.338   4.805  -1.701  1.00  0.00     0.255 C 
BRANCH  33  34
HETATM   34  N1  UNL     1      -0.184   5.596  -1.307  1.00  0.00    -0.077 N 
ATOM     35  H13 UNL     1       0.299   5.195  -0.503  1.00  0.00     0.274 HD
ATOM     36  H12 UNL     1       0.575   5.530  -1.985  1.00  0.00     0.274 HD
ATOM     37  H11 UNL     1      -0.466   6.562  -1.141  1.00  0.00     0.274 HD
ENDBRANCH  33  34
ENDBRANCH  32  33
ENDBRANCH  31  32
ENDBRANCH   1  31
BRANCH   5  38
HETATM   38  O6  UNL     1       0.841  -0.094   2.161  1.00  0.00    -0.318 OA
BRANCH  38  39
HETATM   39  C14 UNL     1       0.432  -0.726   3.283  1.00  0.00     0.398 C 
HETATM   40  O7  UNL     1      -0.551  -0.289   3.926  1.00  0.00    -0.276 OA
ENDBRANCH  38  39
ENDBRANCH   5  38
BRANCH   2  41
HETATM   41  O2  UNL     1       2.148   0.525  -0.351  1.00  0.00    -0.350 OA
BRANCH  41  42
HETATM   42  C5  UNL     1       3.098   0.105  -1.281  1.00  0.00     0.172 C 
HETATM   43  C6  UNL     1       2.722  -1.213  -1.878  1.00  0.00     0.215 C 
HETATM   44  C7  UNL     1       3.546  -2.363  -1.356  1.00  0.00     0.070 C 
HETATM   45  C8  UNL     1       5.022  -2.137  -1.416  1.00  0.00     0.215 C 
HETATM   46  C9  UNL     1       5.401  -0.671  -1.507  1.00  0.00     0.165 C 
HETATM   47  C10 UNL     1       4.442   0.102  -0.620  1.00  0.00     0.119 C 
HETATM   48 BR1  UNL     1       4.433  -0.658   1.152  1.00  0.00    -0.086 Br
BRANCH  43  49
HETATM   49  N2  UNL     1       2.790  -1.190  -3.336  1.00  0.00    -0.072 N 
ATOM     50  H23 UNL     1       2.225  -0.434  -3.722  1.00  0.00     0.274 HD
ATOM     51  H22 UNL     1       3.708  -0.885  -3.659  1.00  0.00     0.274 HD
ATOM     52  H21 UNL     1       2.533  -2.089  -3.743  1.00  0.00     0.274 HD
ENDBRANCH  43  49
BRANCH  45  53
HETATM   53  N3  UNL     1       5.666  -2.874  -2.461  1.00  0.00    -0.072 N 
ATOM     54  H33 UNL     1       5.455  -3.869  -2.386  1.00  0.00     0.274 HD
ATOM     55  H32 UNL     1       5.232  -2.677  -3.363  1.00  0.00     0.274 HD
ATOM     56  H31 UNL     1       6.673  -2.720  -2.502  1.00  0.00     0.274 HD
ENDBRANCH  45  53
BRANCH  46  57
HETATM   57  O3  UNL     1       6.679  -0.528  -0.977  1.00  0.00    -0.392 OA
ATOM     58  H3  UNL     1       6.916   0.390  -1.034  1.00  0.00     0.210 HD
ENDBRANCH  46  57
ENDBRANCH  41  42
ENDBRANCH   2  41
BRANCH   4  59
HETATM   59  C12 UNL     1       0.864   3.269   2.434  1.00  0.00     0.198 C 
BRANCH  59  60
HETATM   60  O5  UNL     1       0.457   2.875   3.691  1.00  0.00    -0.398 OA
ATOM     61  H5  UNL     1       0.167   3.607   4.223  1.00  0.00     0.209 HD
ENDBRANCH  59  60
ENDBRANCH   4  59
TORSDOF 21
