REMARK  3 active torsions:
REMARK  status: ('A' for Active; 'I' for Inactive)
REMARK    1  A    between atoms: O1_2  and  C2_3 
REMARK    2  A    between atoms: C2_3  and  C3_5 
REMARK       I    between atoms: N1_8  and  C5_10 
REMARK       I    between atoms: C5_10  and  N3_16 
REMARK       I    between atoms: N2_11  and  C6_13 
REMARK    3  A    between atoms: N3_16  and  C8_18 
ROOT
HETATM    1  C3  UNL     1       2.904   0.973   0.600  1.00  0.00     0.200 C 
HETATM    2  S1  UNL     1       1.157   0.809   1.089  1.00  0.00    -0.072 SA
HETATM    3  C4  UNL     1       0.581   0.619  -0.623  1.00  0.00     0.160 C 
HETATM    4  N1  UNL     1      -0.522   0.086  -1.007  1.00  0.00    -0.170 N 
ATOM      5  H1  UNL     1      -0.733   0.038  -2.004  1.00  0.00     0.186 HD
HETATM    6  C5  UNL     1      -1.451  -0.436  -0.076  1.00  0.00     0.683 C 
HETATM    7  N2  UNL     1      -1.695  -1.694  -0.073  1.00  0.00    -0.160 N 
ATOM      8  H2  UNL     1      -2.369  -2.053   0.604  1.00  0.00     0.187 HD
HETATM    9  C6  UNL     1      -1.083  -2.609  -0.954  1.00  0.00     0.231 C 
HETATM   10  C7  UNL     1      -1.190  -4.065  -0.657  1.00  0.00     0.118 C 
HETATM   11  O3  UNL     1      -0.445  -2.284  -1.988  1.00  0.00    -0.273 OA
HETATM   12  N3  UNL     1      -2.098   0.431   0.834  1.00  0.00    -0.218 N 
ATOM     13  H3  UNL     1      -1.733   0.527   1.781  1.00  0.00     0.178 HD
HETATM   14  N4  UNL     1       1.632   1.189  -1.349  1.00  0.00    -0.342 N 
ATOM     15  H4  UNL     1       1.489   1.455  -2.323  1.00  0.00     0.167 HD
HETATM   16  C12 UNL     1       2.734   1.373  -0.817  1.00  0.00     0.009 C 
HETATM   17  C13 UNL     1       3.933   1.989  -1.535  1.00  0.00     0.065 C 
ENDROOT
BRANCH  12  18
HETATM   18  C8  UNL     1      -3.256   1.175   0.448  1.00  0.00     0.036 C 
HETATM   19  C9  UNL     1      -3.755   2.024   1.600  1.00  0.00     0.038 C 
HETATM   20  C10 UNL     1      -4.368   0.194   0.119  1.00  0.00     0.038 C 
HETATM   21  C11 UNL     1      -3.019   2.021  -0.782  1.00  0.00     0.038 C 
ENDBRANCH  12  18
BRANCH   1  22
HETATM   22  C2  UNL     1       3.554  -0.333   0.740  1.00  0.00     0.278 C 
HETATM   23  O2  UNL     1       2.887  -1.315   1.142  1.00  0.00    -0.264 OA
BRANCH  22  24
HETATM   24  O1  UNL     1       4.891  -0.572   0.451  1.00  0.00    -0.325 OA
HETATM   25  C1  UNL     1       5.470  -1.844   0.600  1.00  0.00     0.213 C 
ENDBRANCH  22  24
ENDBRANCH   1  22
TORSDOF 3
