REMARK  6 active torsions:
REMARK  status: ('A' for Active; 'I' for Inactive)
REMARK    1  A    between atoms: C3_4  and  O2_5 
REMARK    2  A    between atoms: O2_5  and  C4_6 
REMARK    3  A    between atoms: C8_12  and  O3_13 
REMARK    4  A    between atoms: C9_15  and  C10_16 
REMARK    5  A    between atoms: N1_17  and  O4_19 
REMARK    6  A    between atoms: O4_19  and  C11_20 
ROOT
HETATM    1  C4  UNL     1       2.196  -1.452   0.382  1.00  0.00     0.114 A 
HETATM    2  C5  UNL     1       3.094  -2.361  -0.146  1.00  0.00     0.070 A 
HETATM    3 CL1  UNL     1       4.793  -2.047   0.123  1.00  0.00    -0.081 Cl
HETATM    4  C6  UNL     1       2.674  -3.474  -0.857  1.00  0.00     0.053 A 
HETATM    5  C7  UNL     1       1.319  -3.663  -1.034  1.00  0.00     0.069 A 
HETATM    6 CL2  UNL     1       0.705  -5.055  -1.927  1.00  0.00    -0.081 Cl
HETATM    7  C8  UNL     1       0.407  -2.770  -0.517  1.00  0.00     0.102 A 
HETATM    8  C9  UNL     1       0.847  -1.659   0.195  1.00  0.00     0.052 A 
ENDROOT
BRANCH   1   9
HETATM    9  O2  UNL     1       2.619  -0.358   1.081  1.00  0.00    -0.290 OA
BRANCH   9  10
HETATM   10  C3  UNL     1       2.916   0.874   0.593  1.00  0.00     0.168 A 
HETATM   11  C2  UNL     1       2.412   1.438  -0.552  1.00  0.00     0.133 A 
HETATM   12  C1  UNL     1       2.987   2.701  -0.661  1.00  0.00     0.263 A 
HETATM   13  O1  UNL     1       2.768   3.521  -1.586  1.00  0.00    -0.267 OA
HETATM   14  N3  UNL     1       3.806   2.864   0.401  1.00  0.00    -0.264 N 
HETATM   15  N2  UNL     1       3.752   1.767   1.138  1.00  0.00    -0.277 N 
ATOM     16  H3  UNL     1       4.369   3.691   0.600  1.00  0.00     0.190 HD
ATOM     17  H2  UNL     1       4.275   1.621   2.002  1.00  0.00     0.189 HD
ENDBRANCH   9  10
ENDBRANCH   1   9
BRANCH   8  18
HETATM   18  C10 UNL     1      -0.164  -0.724   0.734  1.00  0.00     0.131 C 
HETATM   19  N1  UNL     1      -1.409  -0.916   0.561  1.00  0.00    -0.277 N 
ATOM     20  H1  UNL     1      -1.741  -1.728   0.041  1.00  0.00     0.193 HD
BRANCH  19  21
HETATM   21  O4  UNL     1      -2.299  -0.012   1.086  1.00  0.00    -0.275 OA
BRANCH  21  22
HETATM   22  C11 UNL     1      -3.205   0.599   0.198  1.00  0.00     0.152 C 
HETATM   23  C12 UNL     1      -3.267   2.122   0.371  1.00  0.00     0.034 C 
HETATM   24  C13 UNL     1      -4.758   1.996   0.071  1.00  0.00     0.005 C 
HETATM   25  C14 UNL     1      -4.655   0.574   0.637  1.00  0.00     0.034 C 
ENDBRANCH  21  22
ENDBRANCH  19  21
ENDBRANCH   8  18
BRANCH   7  26
HETATM   26  O3  UNL     1      -0.962  -2.939  -0.680  1.00  0.00    -0.358 OA
ATOM     27  H3  UNL     1      -1.591  -2.323  -0.323  1.00  0.00     0.217 HD
ENDBRANCH   7  26
TORSDOF 6
