REMARK  5 active torsions:
REMARK  status: ('A' for Active; 'I' for Inactive)
REMARK    1  A    between atoms: C3_5  and  S1_6 
REMARK    2  A    between atoms: S1_6  and  C4_7 
REMARK    3  A    between atoms: C6_13  and  C7_14 
REMARK    4  A    between atoms: C7_14  and  N3_15 
REMARK    5  A    between atoms: C7_14  and  C9_22 
REMARK       I    between atoms: N3_15  and  C8_17 
ROOT
HETATM    1  C4  UNL     1       5.346   0.986  -1.354  1.00  0.00     0.386 C 
HETATM    2  F1  UNL     1       5.025   2.125  -0.676  1.00  0.00    -0.177 F 
HETATM    3  F2  UNL     1       4.945   0.841  -2.607  1.00  0.00    -0.177 F 
HETATM    4  C5  UNL     1       6.860   1.085  -1.421  1.00  0.00     0.150 C 
HETATM    5  N2  UNL     1       8.033   1.165  -1.509  1.00  0.00    -0.190 NA
ENDROOT
BRANCH   1   6
HETATM    6  S1  UNL     1       4.943  -0.468  -0.334  1.00  0.00    -0.012 SA
BRANCH   6   7
HETATM    7  C3  UNL     1       3.287  -0.259   0.327  1.00  0.00     0.119 A 
HETATM    8  N1  UNL     1       2.934   0.201   1.516  1.00  0.00    -0.348 N 
HETATM    9  C2  UNL     1       1.694   0.339   1.828  1.00  0.00     0.021 A 
ATOM     10  H1  UNL     1       3.654   0.449   2.194  1.00  0.00     0.167 HD
HETATM   11  C1  UNL     1       1.223   0.914   3.161  1.00  0.00     0.069 C 
HETATM   12  C6  UNL     1       0.731   0.003   0.912  1.00  0.00     0.030 A 
HETATM   13  S2  UNL     1       1.735  -0.509  -0.405  1.00  0.00    -0.066 SA
BRANCH  12  14
HETATM   14  C7  UNL     1      -0.698  -0.180   0.955  1.00  0.00     0.130 C 
BRANCH  14  15
HETATM   15  N3  UNL     1      -0.885  -1.557   0.363  1.00  0.00    -0.355 N 
HETATM   16  C8  UNL     1      -0.566  -2.742   1.008  1.00  0.00     0.182 C 
HETATM   17  N4  UNL     1      -1.500  -3.414   1.624  1.00  0.00    -0.374 N 
HETATM   18  N5  UNL     1       0.737  -3.340   1.082  1.00  0.00    -0.064 NA
ATOM     19  H42 UNL     1      -2.426  -2.989   1.571  1.00  0.00     0.158 HD
ATOM     20  H41 UNL     1      -1.265  -4.286   2.099  1.00  0.00     0.158 HD
ATOM     21  H3  UNL     1      -1.274  -1.619  -0.578  1.00  0.00     0.162 HD
ENDBRANCH  14  15
BRANCH  14  22
HETATM   22  C9  UNL     1      -1.547   0.651   0.086  1.00  0.00     0.013 C 
HETATM   23  C10 UNL     1      -2.992   0.182   0.297  1.00  0.00     0.007 C 
HETATM   24  C11 UNL     1      -3.646  -0.040  -1.071  1.00  0.00     0.000 C 
HETATM   25  C12 UNL     1      -3.681   1.266  -1.831  1.00  0.00     0.000 C 
HETATM   26  C13 UNL     1      -2.308   1.918  -1.815  1.00  0.00     0.000 C 
HETATM   27  C14 UNL     1      -1.287   0.830  -1.367  1.00  0.00     0.007 C 
ENDBRANCH  14  22
ENDBRANCH  12  14
ENDBRANCH   6   7
ENDBRANCH   1   6
TORSDOF 5
