REMARK  8 active torsions:
REMARK  status: ('A' for Active; 'I' for Inactive)
REMARK    1  A    between atoms: C6_6  and  C7_7 
REMARK    2  A    between atoms: C7_7  and  N2_11 
REMARK    3  A    between atoms: N2_11  and  C8_13 
REMARK    4  A    between atoms: C8_13  and  C9_14 
REMARK    5  A    between atoms: C9_14  and  N3_15 
REMARK    6  A    between atoms: C9_14  and  C10_19 
REMARK    7  A    between atoms: C10_19  and  N4_20 
REMARK    8  A    between atoms: C10_19  and  C11_24 
ROOT
HETATM    1  N2  UNL     1       0.602   0.047   1.131  1.00  0.00    -0.374 N 
ATOM      2  H2  UNL     1       0.480   0.123   2.141  1.00  0.00     0.161 HD
ENDROOT
BRANCH   1   3
HETATM    3  C7  UNL     1      -0.417  -0.681   0.359  1.00  0.00     0.105 C 
HETATM    4  N1  UNL     1       0.002  -1.595  -0.286  1.00  0.00    -0.385 N 
ATOM      5  H12 UNL     1      -0.705  -2.100  -0.821  1.00  0.00     0.157 HD
ATOM      6  H11 UNL     1       0.960  -1.940  -0.349  1.00  0.00     0.157 HD
BRANCH   3   7
HETATM    7  C6  UNL     1      -1.790  -0.187   0.449  1.00  0.00     0.017 A 
HETATM    8  C5  UNL     1      -2.074   0.807   1.401  1.00  0.00     0.016 A 
HETATM    9  C4  UNL     1      -3.319   1.321   1.644  1.00  0.00     0.002 A 
HETATM   10  C3  UNL     1      -4.361   0.836   0.912  1.00  0.00     0.011 A 
HETATM   11  C2  UNL     1      -4.137  -0.153  -0.050  1.00  0.00    -0.035 A 
HETATM   12  C1  UNL     1      -5.194  -0.559  -0.701  1.00  0.00     0.024 C 
HETATM   13  C12 UNL     1      -2.850  -0.672  -0.286  1.00  0.00    -0.022 A 
HETATM   14  C13 UNL     1      -2.700  -1.564  -1.240  1.00  0.00     0.025 C 
ENDBRANCH   3   7
ENDBRANCH   1   3
BRANCH   1  15
HETATM   15  C8  UNL     1       1.755   0.654   0.539  1.00  0.00     0.156 C 
BRANCH  15  16
HETATM   16  C9  UNL     1       2.790  -0.297   0.089  1.00  0.00     0.238 C 
BRANCH  16  17
HETATM   17  N3  UNL     1       3.344  -1.106   1.147  1.00  0.00    -0.071 N 
ATOM     18  H33 UNL     1       3.702  -0.516   1.898  1.00  0.00     0.274 HD
ATOM     19  H32 UNL     1       2.603  -1.595   1.649  1.00  0.00     0.274 HD
ATOM     20  H31 UNL     1       4.059  -1.763   0.836  1.00  0.00     0.274 HD
ENDBRANCH  16  17
BRANCH  16  21
HETATM   21  C10 UNL     1       3.890   0.321  -0.752  1.00  0.00     0.276 C 
BRANCH  21  22
HETATM   22  N4  UNL     1       4.628   1.353  -0.119  1.00  0.00    -0.067 N 
ATOM     23  H43 UNL     1       3.996   2.079   0.220  1.00  0.00     0.275 HD
ATOM     24  H42 UNL     1       5.009   1.019   0.766  1.00  0.00     0.275 HD
ATOM     25  H41 UNL     1       5.368   1.769  -0.685  1.00  0.00     0.275 HD
ENDBRANCH  21  22
BRANCH  21  26
HETATM   26  C11 UNL     1       3.347   0.823  -2.039  1.00  0.00     0.266 C 
HETATM   27  O1  UNL     1       2.711   0.078  -2.744  1.00  0.00    -0.305 OA
ENDBRANCH  21  26
ENDBRANCH  16  21
ENDBRANCH  15  16
ENDBRANCH   1  15
TORSDOF 8
