REMARK  10 active torsions:
REMARK  status: ('A' for Active; 'I' for Inactive)
REMARK    1  A    between atoms: C3_3  and  C4_4 
REMARK    2  A    between atoms: C4_4  and  N1_5 
REMARK    3  A    between atoms: C4_4  and  C8_15 
REMARK       I    between atoms: N1_5  and  C5_7 
REMARK    4  A    between atoms: C5_7  and  C6_9 
REMARK    5  A    between atoms: C6_9  and  N2_11 
REMARK    6  A    between atoms: C8_15  and  O2_16 
REMARK    7  A    between atoms: C8_15  and  N3_18 
REMARK    8  A    between atoms: N3_18  and  C9_20 
REMARK    9  A    between atoms: C9_20  and  O3_21 
REMARK   10  A    between atoms: C9_20  and  N4_23 
ROOT
HETATM    1  C1  UNL     1      -0.889   3.700  -0.787  1.00  0.00     0.012 C 
HETATM    2  C2  UNL     1      -0.862   2.517  -1.038  1.00  0.00    -0.115 C 
HETATM    3  C3  UNL     1      -0.847   1.107  -1.362  1.00  0.00     0.126 C 
ENDROOT
BRANCH   3   4
HETATM    4  C4  UNL     1       0.068   0.302  -0.435  1.00  0.00     0.170 C 
BRANCH   4   5
HETATM    5  N1  UNL     1      -0.069  -1.087  -0.949  1.00  0.00    -0.346 N 
HETATM    6  C5  UNL     1      -0.666  -2.092  -0.171  1.00  0.00     0.248 C 
HETATM    7  O1  UNL     1      -1.083  -1.790   0.975  1.00  0.00    -0.271 OA
ATOM      8  H1  UNL     1       0.276  -1.313  -1.882  1.00  0.00     0.163 HD
BRANCH   6   9
HETATM    9  C6  UNL     1      -0.834  -3.486  -0.621  1.00  0.00     0.270 C 
HETATM   10  C7  UNL     1      -1.700  -3.490  -1.856  1.00  0.00     0.050 C 
BRANCH   9  11
HETATM   11  N2  UNL     1      -1.485  -4.308   0.383  1.00  0.00    -0.067 N 
ATOM     12  H23 UNL     1      -0.991  -4.264   1.274  1.00  0.00     0.275 HD
ATOM     13  H22 UNL     1      -2.375  -3.903   0.672  1.00  0.00     0.275 HD
ATOM     14  H21 UNL     1      -1.601  -5.272   0.072  1.00  0.00     0.275 HD
ENDBRANCH   9  11
ENDBRANCH   6   9
ENDBRANCH   4   5
BRANCH   4  15
HETATM   15  C8  UNL     1       1.464   0.699  -0.650  1.00  0.00     0.142 C 
BRANCH  15  16
HETATM   16  O2  UNL     1       1.969   0.135  -1.729  1.00  0.00    -0.348 OA
ATOM     17  H2  UNL     1       2.873   0.392  -1.868  1.00  0.00     0.219 HD
ENDBRANCH  15  16
BRANCH  15  18
HETATM   18  N3  UNL     1       2.316   1.524   0.048  1.00  0.00    -0.305 N 
ATOM     19  H3  UNL     1       3.222   1.615  -0.412  1.00  0.00     0.171 HD
BRANCH  18  20
HETATM   20  C9  UNL     1       2.252   2.266   1.226  1.00  0.00     0.218 C 
BRANCH  20  21
HETATM   21  O3  UNL     1       3.305   2.939   1.612  1.00  0.00    -0.333 OA
ATOM     22  H3  UNL     1       3.261   3.445   2.415  1.00  0.00     0.220 HD
ENDBRANCH  20  21
BRANCH  20  23
HETATM   23  N4  UNL     1       1.172   2.398   2.091  1.00  0.00    -0.361 N 
HETATM   24  C10 UNL     1       1.254   3.216   3.315  1.00  0.00     0.150 C 
ATOM     25  H4  UNL     1       0.300   1.916   1.873  1.00  0.00     0.162 HD
ENDBRANCH  20  23
ENDBRANCH  18  20
ENDBRANCH  15  18
ENDBRANCH   4  15
ENDBRANCH   3   4
TORSDOF 10
