REMARK  4 active torsions:
REMARK  status: ('A' for Active; 'I' for Inactive)
REMARK    1  A    between atoms: C2_2  and  N1_4 
REMARK    2  A    between atoms: N1_4  and  N2_6 
REMARK    3  A    between atoms: N2_6  and  N3_8 
REMARK    4  A    between atoms: N3_8  and  C4_10 
ROOT
HETATM    1  N3  UNL     1       0.083  -0.784   0.487  1.00  0.00    -0.257 N 
ATOM      2  H3  UNL     1      -0.449  -0.981   1.335  1.00  0.00     0.191 HD
ENDROOT
BRANCH   1   3
HETATM    3  N2  UNL     1      -0.401  -1.141  -0.728  1.00  0.00    -0.244 N 
ATOM      4  H2  UNL     1       0.112  -1.824  -1.286  1.00  0.00     0.208 HD
BRANCH   3   5
HETATM    5  N1  UNL     1      -1.520  -0.628  -1.209  1.00  0.00    -0.318 N 
ATOM      6  H1  UNL     1      -1.710  -0.680  -2.210  1.00  0.00     0.182 HD
BRANCH   5   7
HETATM    7  C2  UNL     1      -2.461  -0.005  -0.346  1.00  0.00     0.092 C 
HETATM    8  C1  UNL     1      -2.993  -0.939   0.720  1.00  0.00     0.033 C 
HETATM    9  C3  UNL     1      -2.029   1.287   0.262  1.00  0.00     0.033 C 
ENDBRANCH   5   7
ENDBRANCH   3   5
ENDBRANCH   1   3
BRANCH   1  10
HETATM   10  C4  UNL     1       1.347  -0.129   0.560  1.00  0.00     0.191 C 
HETATM   11  N4  UNL     1       1.655   0.894   1.292  1.00  0.00    -0.360 N 
HETATM   12  C5  UNL     1       3.024   1.282   1.106  1.00  0.00     0.142 C 
ATOM     13  H4  UNL     1       1.006   1.365   1.922  1.00  0.00     0.162 HD
HETATM   14  C6  UNL     1       3.641   0.040   0.486  1.00  0.00     0.142 C 
HETATM   15  N5  UNL     1       2.502  -0.532  -0.202  1.00  0.00    -0.360 N 
ATOM     16  H5  UNL     1       2.515  -1.101  -1.049  1.00  0.00     0.162 HD
ENDBRANCH   1  10
TORSDOF 4
