REMARK  7 active torsions:
REMARK  status: ('A' for Active; 'I' for Inactive)
REMARK    1  A    between atoms: C2_2  and  C3_3 
REMARK    2  A    between atoms: C3_3  and  C4_4 
REMARK    3  A    between atoms: C4_4  and  N1_5 
REMARK    4  A    between atoms: N5_24  and  C14_25 
REMARK    5  A    between atoms: C14_25  and  C15_26 
REMARK    6  A    between atoms: C16_27  and  C17_28 
REMARK    7  A    between atoms: C17_28  and  O1_30 
ROOT
HETATM    1  C17 UNL     1      -5.007  -2.734  -0.661  1.00  0.00     0.207 C 
HETATM    2  C18 UNL     1      -4.300  -4.066  -0.553  1.00  0.00     0.077 C 
HETATM    3  C19 UNL     1      -5.257  -2.497  -2.083  1.00  0.00     0.111 C 
HETATM    4  N6  UNL     1      -5.459  -2.330  -3.214  1.00  0.00    -0.193 NA
ENDROOT
BRANCH   1   5
HETATM    5  C16 UNL     1      -4.086  -1.739  -0.090  1.00  0.00    -0.051 C 
HETATM    6  C15 UNL     1      -3.325  -0.935   0.392  1.00  0.00    -0.081 C 
BRANCH   6   7
HETATM    7  C14 UNL     1      -2.378   0.032   0.997  1.00  0.00     0.236 C 
BRANCH   7   8
HETATM    8  N5  UNL     1      -1.117   0.005   0.297  1.00  0.00    -0.310 N 
HETATM    9  N1  UNL     1      -0.403   1.141   0.380  1.00  0.00    -0.288 N 
HETATM   10  C5  UNL     1       0.915   1.102   0.856  1.00  0.00     0.089 C 
HETATM   11  C6  UNL     1       1.828   2.209   0.514  1.00  0.00     0.074 C 
HETATM   12  C7  UNL     1       3.040   1.780  -0.311  1.00  0.00     0.237 C 
HETATM   13  N2  UNL     1       3.828   0.804   0.419  1.00  0.00    -0.073 N 
HETATM   14  C8  UNL     1       4.926   0.369  -0.424  1.00  0.00     0.259 C 
ATOM     15  H22 UNL     1       4.145   1.155   1.323  1.00  0.00     0.277 HD
ATOM     16  H21 UNL     1       3.265   0.025   0.760  1.00  0.00     0.277 HD
HETATM   17  C9  UNL     1       5.153  -1.103  -0.157  1.00  0.00     0.259 C 
HETATM   18  N3  UNL     1       3.991  -1.693   0.456  1.00  0.00    -0.072 N 
HETATM   19  C10 UNL     1       3.577  -2.914  -0.189  1.00  0.00     0.259 C 
ATOM     20  H32 UNL     1       4.140  -1.840   1.454  1.00  0.00     0.277 HD
ATOM     21  H31 UNL     1       3.222  -1.024   0.500  1.00  0.00     0.277 HD
HETATM   22  C11 UNL     1       2.438  -2.566  -1.124  1.00  0.00     0.259 C 
HETATM   23  N4  UNL     1       1.154  -2.801  -0.496  1.00  0.00    -0.072 N 
HETATM   24  C12 UNL     1       0.195  -1.769  -0.810  1.00  0.00     0.253 C 
ATOM     25  H42 UNL     1       0.792  -3.725  -0.732  1.00  0.00     0.277 HD
ATOM     26  H41 UNL     1       1.253  -2.918   0.512  1.00  0.00     0.277 HD
HETATM   27  C13 UNL     1      -0.401  -1.225   0.472  1.00  0.00     0.171 C 
BRANCH   9  28
HETATM   28  C4  UNL     1      -0.969   2.335  -0.053  1.00  0.00     0.088 C 
BRANCH  28  29
HETATM   29  C3  UNL     1      -1.238   3.386   0.970  1.00  0.00     0.046 C 
BRANCH  29  30
HETATM   30  C2  UNL     1      -1.854   4.641   0.338  1.00  0.00     0.001 C 
HETATM   31  C1  UNL     1      -3.145   4.355  -0.340  1.00  0.00     0.005 C 
ENDBRANCH  29  30
ENDBRANCH  28  29
ENDBRANCH   9  28
ENDBRANCH   7   8
ENDBRANCH   6   7
ENDBRANCH   1   5
BRANCH   1  32
HETATM   32  O1  UNL     1      -6.209  -2.773   0.046  1.00  0.00    -0.366 OA
ATOM     33  H1  UNL     1      -6.804  -3.416  -0.323  1.00  0.00     0.212 HD
ENDBRANCH   1  32
TORSDOF 7
