REMARK  4 active torsions:
REMARK  status: ('A' for Active; 'I' for Inactive)
REMARK       I    between atoms: C1_4  and  N3_6 
REMARK    1  A    between atoms: N3_6  and  N4_7 
REMARK    2  A    between atoms: N3_6  and  N5_11 
REMARK    3  A    between atoms: N4_7  and  O1_9 
REMARK    4  A    between atoms: C2_13  and  C3_14 
ROOT
HETATM    1  N5  UNL     1       2.316   0.963   0.607  1.00  0.00    -0.286 N 
ATOM      2  H5  UNL     1       1.909   1.818   0.986  1.00  0.00     0.188 HD
HETATM    3  C2  UNL     1       1.554   0.041   0.117  1.00  0.00     0.120 C 
ENDROOT
BRANCH   3   4
HETATM    4  C3  UNL     1       0.104   0.220   0.105  1.00  0.00    -0.017 A 
HETATM    5  C4  UNL     1      -0.435   1.400   0.629  1.00  0.00     0.015 A 
HETATM    6  C5  UNL     1      -1.814   1.573   0.618  1.00  0.00     0.033 A 
HETATM    7  C6  UNL     1      -2.646   0.601   0.100  1.00  0.00     0.068 A 
HETATM    8  C7  UNL     1      -2.099  -0.555  -0.412  1.00  0.00     0.097 A 
HETATM    9  N6  UNL     1      -4.061   0.732   0.067  1.00  0.00    -0.323 N 
HETATM   10  C8  UNL     1      -0.719  -0.767  -0.420  1.00  0.00     0.052 A 
HETATM   11  O2  UNL     1      -2.915  -1.541  -0.935  1.00  0.00    -0.340 OA
HETATM   12  C9  UNL     1      -4.276  -1.662  -0.534  1.00  0.00     0.278 C 
HETATM   13  C10 UNL     1      -4.871  -0.301  -0.479  1.00  0.00     0.246 C 
HETATM   14  O3  UNL     1      -6.054  -0.068  -0.900  1.00  0.00    -0.271 OA
ATOM     15  H6  UNL     1      -4.499   1.575   0.438  1.00  0.00     0.169 HD
ENDBRANCH   3   4
BRANCH   1  16
HETATM   16  N3  UNL     1       3.697   0.780   0.613  1.00  0.00    -0.146 N 
HETATM   17  C1  UNL     1       4.270  -0.026  -0.404  1.00  0.00     0.225 C 
HETATM   18  N1  UNL     1       4.567   0.496  -1.527  1.00  0.00    -0.371 N 
HETATM   19  N2  UNL     1       4.500  -1.397  -0.146  1.00  0.00    -0.060 NA
ATOM     20  H12 UNL     1       4.979  -0.084  -2.258  1.00  0.00     0.158 HD
ATOM     21  H11 UNL     1       4.401   1.485  -1.713  1.00  0.00     0.158 HD
BRANCH  16  22
HETATM   22  N4  UNL     1       4.458   1.396   1.618  1.00  0.00    -0.186 N 
ATOM     23  H4  UNL     1       5.148   0.846   2.129  1.00  0.00     0.218 HD
BRANCH  22  24
HETATM   24  O1  UNL     1       4.307   2.619   1.904  1.00  0.00    -0.273 OA
ATOM     25  H1  UNL     1       4.822   3.036   2.584  1.00  0.00     0.246 HD
ENDBRANCH  22  24
ENDBRANCH  16  22
ENDBRANCH   1  16
TORSDOF 4
