REMARK  7 active torsions:
REMARK  status: ('A' for Active; 'I' for Inactive)
REMARK    1  A    between atoms: C7_7  and  C8_8 
REMARK    2  A    between atoms: N2_11  and  C9_12 
REMARK    3  A    between atoms: C9_12  and  O2_13 
REMARK    4  A    between atoms: C9_12  and  C10_15 
REMARK    5  A    between atoms: C10_15  and  C11_16 
REMARK    6  A    between atoms: C10_15  and  C12_19 
REMARK    7  A    between atoms: N4_21  and  N5_23 
ROOT
HETATM    1  C1  UNL     1      -4.433  -1.773  -0.129  1.00  0.00     0.038 C 
HETATM    2  C2  UNL     1      -3.182  -1.271   0.492  1.00  0.00     0.025 C 
HETATM    3  C3  UNL     1      -2.972  -1.796   1.883  1.00  0.00     0.038 C 
HETATM    4  C4  UNL     1      -3.292   0.290   0.499  1.00  0.00     0.042 C 
HETATM    5  C5  UNL     1      -1.837   0.577   0.634  1.00  0.00     0.058 C 
HETATM    6  C6  UNL     1      -1.294   1.823   0.041  1.00  0.00     0.047 C 
HETATM    7  C7  UNL     1       0.247   1.413  -0.067  1.00  0.00     0.178 C 
HETATM    8  N2  UNL     1       0.047   0.117  -0.701  1.00  0.00    -0.330 N 
HETATM    9  C13 UNL     1      -1.179  -0.464  -0.235  1.00  0.00     0.083 C 
HETATM   10  N6  UNL     1      -1.979  -1.505  -0.287  1.00  0.00    -0.371 N 
ATOM     11  H6  UNL     1      -1.782  -2.362  -0.804  1.00  0.00     0.161 HD
ENDROOT
BRANCH   8  12
HETATM   12  C9  UNL     1       0.878  -0.486  -1.695  1.00  0.00     0.243 C 
BRANCH  12  13
HETATM   13  O2  UNL     1       0.906   0.334  -2.850  1.00  0.00    -0.375 OA
ATOM     14  H2  UNL     1       1.458  -0.067  -3.511  1.00  0.00     0.212 HD
ENDBRANCH  12  13
BRANCH  12  15
HETATM   15  C10 UNL     1       2.253  -0.914  -1.372  1.00  0.00     0.201 C 
BRANCH  15  16
HETATM   16  C11 UNL     1       2.364  -1.941  -0.322  1.00  0.00     0.188 C 
HETATM   17  O3  UNL     1       3.067  -1.833   0.706  1.00  0.00    -0.647 OA
HETATM   18  O4  UNL     1       1.650  -3.140  -0.441  1.00  0.00    -0.647 OA
ENDBRANCH  15  16
BRANCH  15  19
HETATM   19  C12 UNL     1       3.246   0.178  -1.227  1.00  0.00     0.126 C 
HETATM   20  N3  UNL     1       3.399   1.148  -2.247  1.00  0.00    -0.085 NA
HETATM   21  N4  UNL     1       3.991   0.251  -0.190  1.00  0.00    -0.297 N 
ATOM     22  H4  UNL     1       3.893  -0.455   0.540  1.00  0.00     0.187 HD
BRANCH  21  23
HETATM   23  N5  UNL     1       4.931   1.263  -0.027  1.00  0.00    -0.344 N 
ATOM     24  H52 UNL     1       5.016   1.960  -0.766  1.00  0.00     0.176 HD
ATOM     25  H51 UNL     1       5.525   1.321   0.800  1.00  0.00     0.176 HD
ENDBRANCH  21  23
ENDBRANCH  15  19
ENDBRANCH  12  15
ENDBRANCH   8  12
BRANCH   7  26
HETATM   26  C8  UNL     1       0.767   1.409   1.285  1.00  0.00     0.254 C 
HETATM   27  N1  UNL     1       1.127   2.647   1.879  1.00  0.00    -0.060 NA
HETATM   28  O1  UNL     1       0.924   0.390   1.978  1.00  0.00    -0.275 OA
ENDBRANCH   7  26
TORSDOF 7
