REMARK  6 active torsions:
REMARK  status: ('A' for Active; 'I' for Inactive)
REMARK    1  A    between atoms: C3_3  and  O1_4 
REMARK    2  A    between atoms: C4_6  and  N1_7 
REMARK    3  A    between atoms: N2_9  and  N3_11 
REMARK       I    between atoms: C5_13  and  N4_14 
REMARK       I    between atoms: C5_13  and  N5_18 
REMARK    4  A    between atoms: N4_14  and  O2_16 
REMARK    5  A    between atoms: N5_18  and  N6_20 
REMARK    6  A    between atoms: N8_25  and  O5_26 
ROOT
HETATM    1  N1  UNL     1      -0.154   0.887   0.879  1.00  0.00    -0.267 N 
ATOM      2  H1  UNL     1       0.032   1.889   0.929  1.00  0.00     0.190 HD
HETATM    3  N2  UNL     1       0.833   0.077   0.979  1.00  0.00    -0.227 N 
ATOM      4  H2  UNL     1       0.670  -0.929   0.931  1.00  0.00     0.209 HD
ENDROOT
BRANCH   3   5
HETATM    5  N3  UNL     1       2.130   0.562   1.153  1.00  0.00    -0.114 N 
HETATM    6  C5  UNL     1       3.139  -0.203   1.003  1.00  0.00     0.737 C 
HETATM    7  N4  UNL     1       2.953  -1.554   0.657  1.00  0.00    -0.096 N 
HETATM    8  N5  UNL     1       4.442   0.305   1.183  1.00  0.00    -0.069 N 
ATOM      9  H4  UNL     1       3.301  -2.274   1.291  1.00  0.00     0.213 HD
ATOM     10  H5  UNL     1       4.991   0.007   1.989  1.00  0.00     0.212 HD
ATOM     11  H3  UNL     1       2.273   1.540   1.403  1.00  0.00     0.207 HD
BRANCH   7  12
HETATM   12  O2  UNL     1       2.338  -1.934  -0.470  1.00  0.00    -0.276 OA
ATOM     13  H2  UNL     1       2.212  -2.846  -0.704  1.00  0.00     0.245 HD
ENDBRANCH   7  12
BRANCH   8  14
HETATM   14  N6  UNL     1       4.991   1.209   0.275  1.00  0.00    -0.024 N 
HETATM   15  O3  UNL     1       5.570   2.213   0.693  1.00  0.00    -0.516 OA
HETATM   16  O4  UNL     1       4.879   0.969  -1.068  1.00  0.00    -0.516 OA
ENDBRANCH   8  14
ENDBRANCH   3   5
BRANCH   1  17
HETATM   17  C4  UNL     1      -1.477   0.461   0.704  1.00  0.00     0.173 A 
HETATM   18  C3  UNL     1      -2.229   0.700  -0.430  1.00  0.00     0.139 A 
HETATM   19  C2  UNL     1      -3.460   0.120  -0.200  1.00  0.00     0.092 A 
HETATM   20  C1  UNL     1      -4.606   0.125  -1.155  1.00  0.00     0.076 C 
HETATM   21  N8  UNL     1      -3.443  -0.437   1.013  1.00  0.00    -0.164 N 
HETATM   22  N7  UNL     1      -2.252  -0.232   1.555  1.00  0.00    -0.255 N 
ATOM     23  H7  UNL     1      -1.966  -0.552   2.480  1.00  0.00     0.191 HD
BRANCH  18  24
HETATM   24  O1  UNL     1      -1.867   1.381  -1.594  1.00  0.00    -0.355 OA
ATOM     25  H1  UNL     1      -1.020   1.780  -1.752  1.00  0.00     0.218 HD
ENDBRANCH  18  24
BRANCH  21  26
HETATM   26  O5  UNL     1      -4.521  -1.114   1.578  1.00  0.00    -0.268 OA
ATOM     27  H5  UNL     1      -4.509  -1.510   2.441  1.00  0.00     0.247 HD
ENDBRANCH  21  26
ENDBRANCH   1  17
TORSDOF 6
