REMARK  7 active torsions:
REMARK  status: ('A' for Active; 'I' for Inactive)
REMARK    1  A    between atoms: N1_1  and  C1_4 
REMARK    2  A    between atoms: C5_13  and  C6_14 
REMARK    3  A    between atoms: C6_14  and  C7_16 
REMARK    4  A    between atoms: C7_16  and  O3_17 
REMARK    5  A    between atoms: O3_17  and  C8_18 
REMARK    6  A    between atoms: C8_18  and  O5_20 
REMARK    7  A    between atoms: O5_20  and  N4_21 
ROOT
HETATM    1  C1  UNL     1      -2.919   0.061   1.700  1.00  0.00     0.679 A 
HETATM    2  N2  UNL     1      -3.831  -0.841   1.300  1.00  0.00    -0.154 N 
ATOM      3  H2  UNL     1      -4.693  -0.990   1.824  1.00  0.00     0.187 HD
HETATM    4  C2  UNL     1      -3.565  -1.537   0.187  1.00  0.00     0.288 A 
HETATM    5  O1  UNL     1      -4.421  -2.389  -0.198  1.00  0.00    -0.265 OA
HETATM    6  C3  UNL     1      -2.396  -1.350  -0.542  1.00  0.00     0.130 A 
HETATM    7  N3  UNL     1      -1.906  -1.905  -1.661  1.00  0.00    -0.359 N 
ATOM      8  H3  UNL     1      -2.386  -2.631  -2.193  1.00  0.00     0.165 HD
HETATM    9  C4  UNL     1      -0.720  -1.398  -1.996  1.00  0.00     0.106 A 
HETATM   10  C5  UNL     1      -0.423  -0.440  -1.011  1.00  0.00     0.061 A 
HETATM   11  C9  UNL     1      -1.477  -0.415  -0.103  1.00  0.00     0.097 A 
HETATM   12  N5  UNL     1      -1.752   0.283   1.019  1.00  0.00    -0.189 N 
ATOM     13  H5  UNL     1      -1.088   0.978   1.361  1.00  0.00     0.184 HD
ENDROOT
BRANCH  10  14
HETATM   14  C6  UNL     1       0.791   0.356  -0.982  1.00  0.00     0.208 C 
HETATM   15  O2  UNL     1       1.602   0.204  -1.966  1.00  0.00    -0.285 OA
BRANCH  14  16
HETATM   16  C7  UNL     1       1.205   1.307   0.026  1.00  0.00     0.203 C 
BRANCH  16  17
HETATM   17  O3  UNL     1       2.468   1.892  -0.192  1.00  0.00    -0.262 OA
BRANCH  17  18
HETATM   18  C8  UNL     1       3.664   1.208  -0.219  1.00  0.00     0.432 C 
HETATM   19  O4  UNL     1       3.629  -0.026  -0.029  1.00  0.00    -0.227 OA
BRANCH  18  20
HETATM   20  O5  UNL     1       4.887   1.844  -0.447  1.00  0.00    -0.182 OA
BRANCH  20  21
HETATM   21  N4  UNL     1       6.059   1.114  -0.464  1.00  0.00    -0.300 N 
ATOM     22  H42 UNL     1       6.014   0.107  -0.308  1.00  0.00     0.184 HD
ATOM     23  H41 UNL     1       6.952   1.578  -0.630  1.00  0.00     0.184 HD
ENDBRANCH  20  21
ENDBRANCH  18  20
ENDBRANCH  17  18
ENDBRANCH  16  17
ENDBRANCH  14  16
ENDBRANCH  10  14
BRANCH   1  24
HETATM   24  N1  UNL     1      -3.097   0.774   2.763  1.00  0.00    -0.234 N 
ATOM     25  H12 UNL     1      -3.966   0.609   3.270  1.00  0.00     0.174 HD
ATOM     26  H11 UNL     1      -2.405   1.459   3.067  1.00  0.00     0.174 HD
ENDBRANCH   1  24
TORSDOF 7
