REMARK  5 active torsions:
REMARK  status: ('A' for Active; 'I' for Inactive)
REMARK    1  A    between atoms: C2_2  and  N1_3 
REMARK    2  A    between atoms: C2_2  and  C3_7 
REMARK    3  A    between atoms: C3_7  and  N2_8 
REMARK    4  A    between atoms: C3_7  and  N3_12 
REMARK       I    between atoms: N3_12  and  C4_14 
REMARK    5  A    between atoms: C4_14  and  C5_16 
ROOT
HETATM    1  N3  UNL     1      -0.776  -0.434  -0.451  1.00  0.00    -0.326 N 
ATOM      2  H3  UNL     1      -0.858  -0.122  -1.419  1.00  0.00     0.165 HD
HETATM    3  C4  UNL     1       0.479  -0.394   0.218  1.00  0.00     0.272 C 
HETATM    4  O1  UNL     1       0.544  -0.785   1.404  1.00  0.00    -0.266 OA
ENDROOT
BRANCH   3   5
HETATM    5  C5  UNL     1       1.702   0.107  -0.484  1.00  0.00     0.137 A 
HETATM    6  N4  UNL     1       1.555   0.511  -1.760  1.00  0.00    -0.319 N 
HETATM    7  S1  UNL     1       3.084   0.998  -2.227  1.00  0.00    -0.006 SA
ATOM      8  H4  UNL     1       0.701   0.518  -2.317  1.00  0.00     0.174 HD
HETATM    9  C6  UNL     1       3.921   0.681  -0.775  1.00  0.00     0.121 A 
HETATM   10  C7  UNL     1       5.250   0.814  -0.334  1.00  0.00     0.281 A 
HETATM   11  C8  UNL     1       2.936   0.191   0.041  1.00  0.00     0.106 A 
HETATM   12  O2  UNL     1       6.063   1.273  -1.170  1.00  0.00    -0.265 OA
HETATM   13  N5  UNL     1       5.616   0.463   0.921  1.00  0.00    -0.251 N 
HETATM   14  N6  UNL     1       4.626  -0.001   1.661  1.00  0.00    -0.239 N 
ATOM     15  H5  UNL     1       6.572   0.549   1.265  1.00  0.00     0.192 HD
HETATM   16  N7  UNL     1       3.381  -0.142   1.297  1.00  0.00    -0.282 N 
ATOM     17  H6  UNL     1       4.858  -0.278   2.615  1.00  0.00     0.208 HD
ATOM     18  H7  UNL     1       2.712  -0.514   1.971  1.00  0.00     0.188 HD
ENDBRANCH   3   5
BRANCH   1  19
HETATM   19  C3  UNL     1      -1.924  -0.921   0.258  1.00  0.00     0.314 C 
BRANCH  19  20
HETATM   20  C2  UNL     1      -3.034   0.099   0.351  1.00  0.00     0.229 C 
HETATM   21  C1  UNL     1      -3.537   0.506  -1.017  1.00  0.00     0.043 C 
BRANCH  20  22
HETATM   22  N1  UNL     1      -2.680   1.234   1.150  1.00  0.00    -0.072 N 
ATOM     23  H13 UNL     1      -2.006   1.830   0.669  1.00  0.00     0.274 HD
ATOM     24  H12 UNL     1      -3.455   1.893   1.221  1.00  0.00     0.274 HD
ATOM     25  H11 UNL     1      -2.341   0.960   2.072  1.00  0.00     0.274 HD
ENDBRANCH  20  22
ENDBRANCH  19  20
BRANCH  19  26
HETATM   26  N2  UNL     1      -2.362  -2.133  -0.414  1.00  0.00    -0.056 N 
ATOM     27  H23 UNL     1      -3.192  -2.526   0.031  1.00  0.00     0.276 HD
ATOM     28  H22 UNL     1      -2.756  -1.927  -1.332  1.00  0.00     0.276 HD
ATOM     29  H21 UNL     1      -1.612  -2.822  -0.477  1.00  0.00     0.276 HD
ENDBRANCH  19  26
ENDBRANCH   1  19
TORSDOF 5
