REMARK  3 active torsions:
REMARK  status: ('A' for Active; 'I' for Inactive)
REMARK    1  A    between atoms: C2_2  and  N1_3 
REMARK    2  A    between atoms: C3_6  and  C4_7 
REMARK    3  A    between atoms: C5_12  and  N5_13 
ROOT
HETATM    1  N1  UNL     1       2.113  -0.106   0.791  1.00  0.00    -0.242 N 
HETATM    2  N2  UNL     1       1.043   0.203   0.092  1.00  0.00    -0.289 N 
ATOM      3  H2  UNL     1       1.057   1.058  -0.464  1.00  0.00     0.187 HD
HETATM    4  C3  UNL     1      -0.046  -0.537   0.075  1.00  0.00     0.126 A 
HETATM    5  C7  UNL     1      -0.119  -1.727   0.822  1.00  0.00     0.134 A 
HETATM    6  N7  UNL     1      -1.115  -2.419   0.815  1.00  0.00    -0.383 N 
ATOM      7  H71 UNL     1      -1.168  -3.282   1.357  1.00  0.00     0.157 HD
ATOM      8  H72 UNL     1      -1.949  -2.187   0.276  1.00  0.00     0.157 HD
HETATM    9  N8  UNL     1       1.005  -2.040   1.548  1.00  0.00    -0.292 N 
ATOM     10  H8  UNL     1       1.027  -2.887   2.116  1.00  0.00     0.172 HD
HETATM   11  C8  UNL     1       2.062  -1.237   1.509  1.00  0.00     0.342 A 
HETATM   12  O2  UNL     1       3.092  -1.554   2.194  1.00  0.00    -0.245 OA
ENDROOT
BRANCH   4  13
HETATM   13  C4  UNL     1      -1.239  -0.169  -0.719  1.00  0.00     0.149 A 
HETATM   14  N3  UNL     1      -2.349  -0.918  -0.740  1.00  0.00    -0.279 N 
HETATM   15  N4  UNL     1      -3.408  -0.561  -1.465  1.00  0.00    -0.132 N 
ATOM     16  H3  UNL     1      -2.384  -1.777  -0.191  1.00  0.00     0.188 HD
HETATM   17  C5  UNL     1      -3.440   0.556  -2.213  1.00  0.00     0.693 A 
ATOM     18  H4  UNL     1      -4.232  -1.162  -1.452  1.00  0.00     0.205 HD
HETATM   19  N6  UNL     1      -2.341   1.332  -2.214  1.00  0.00    -0.153 N 
HETATM   20  C6  UNL     1      -1.247   0.982  -1.478  1.00  0.00     0.290 A 
ATOM     21  H6  UNL     1      -2.326   2.188  -2.769  1.00  0.00     0.187 HD
HETATM   22  O1  UNL     1      -0.226   1.703  -1.479  1.00  0.00    -0.265 OA
BRANCH  17  23
HETATM   23  N5  UNL     1      -4.491   0.878  -2.910  1.00  0.00    -0.233 N 
ATOM     24  H52 UNL     1      -5.324   0.290  -2.909  1.00  0.00     0.174 HD
ATOM     25  H51 UNL     1      -4.515   1.725  -3.477  1.00  0.00     0.174 HD
ENDBRANCH  17  23
ENDBRANCH   4  13
BRANCH   1  26
HETATM   26  C2  UNL     1       3.263   0.760   0.754  1.00  0.00     0.149 C 
HETATM   27  C1  UNL     1       3.196   1.826   1.850  1.00  0.00     0.028 C 
ENDBRANCH   1  26
TORSDOF 3
