REMARK  1 active torsions:
REMARK  status: ('A' for Active; 'I' for Inactive)
REMARK       I    between atoms: C1_4  and  N3_6 
REMARK    1  A    between atoms: C2_7  and  N4_8 
ROOT
HETATM    1  N1  UNL     1      -2.323   0.383   0.288  1.00  0.00    -0.373 N 
ATOM      2  H11 UNL     1      -2.089   1.258   0.756  1.00  0.00     0.158 HD
ATOM      3  H12 UNL     1      -3.305   0.151   0.140  1.00  0.00     0.158 HD
HETATM    4  C1  UNL     1      -1.380  -0.385  -0.095  1.00  0.00     0.213 C 
HETATM    5  N2  UNL     1      -1.704  -1.595  -0.742  1.00  0.00    -0.062 NA
HETATM    6  N3  UNL     1      -0.022  -0.064   0.109  1.00  0.00    -0.065 N 
HETATM    7  C2  UNL     1       0.644   1.060  -0.242  1.00  0.00     0.703 A 
HETATM    8  N5  UNL     1       1.936   1.001   0.122  1.00  0.00    -0.128 N 
ATOM      9  H5  UNL     1       2.646   1.718  -0.028  1.00  0.00     0.205 HD
HETATM   10  N6  UNL     1       2.103  -0.163   0.709  1.00  0.00    -0.236 N 
ATOM     11  H6  UNL     1       2.981  -0.507   1.099  1.00  0.00     0.192 HD
HETATM   12  C3  UNL     1       0.937  -0.827   0.715  1.00  0.00     0.362 A 
HETATM   13  O1  UNL     1       0.719  -1.977   1.195  1.00  0.00    -0.244 OA
ENDROOT
BRANCH   7  14
HETATM   14  N4  UNL     1       0.098   2.074  -0.858  1.00  0.00    -0.233 N 
ATOM     15  H42 UNL     1      -0.883   2.119  -1.134  1.00  0.00     0.174 HD
ATOM     16  H41 UNL     1       0.600   2.921  -1.123  1.00  0.00     0.174 HD
ENDBRANCH   7  14
TORSDOF 1
