REMARK  7 active torsions:
REMARK  status: ('A' for Active; 'I' for Inactive)
REMARK    1  A    between atoms: O1_2  and  C2_3 
REMARK    2  A    between atoms: C2_3  and  C3_4 
REMARK    3  A    between atoms: C6_8  and  C8_11 
REMARK    4  A    between atoms: C8_11  and  C9_12 
REMARK    5  A    between atoms: C9_12  and  N2_13 
REMARK    6  A    between atoms: C17_23  and  C18_24 
REMARK       I    between atoms: C18_24  and  N3_26 
REMARK    7  A    between atoms: N3_26  and  N4_28 
ROOT
HETATM    1  C3  UNL     1       4.993  -0.520  -0.058  1.00  0.00     0.152 C 
HETATM    2  C4  UNL     1       5.106  -1.727  -0.970  1.00  0.00     0.060 C 
HETATM    3  C5  UNL     1       3.796  -2.505  -0.786  1.00  0.00     0.175 C 
HETATM    4  O2  UNL     1       2.792  -1.646  -1.224  1.00  0.00    -0.343 OA
HETATM    5  C6  UNL     1       2.697  -0.511  -0.382  1.00  0.00     0.259 C 
HETATM    6  C7  UNL     1       2.433  -0.988   0.945  1.00  0.00     0.128 C 
HETATM    7  N1  UNL     1       2.243  -1.381   2.012  1.00  0.00    -0.191 NA
HETATM    8  O4  UNL     1       3.907   0.218  -0.453  1.00  0.00    -0.336 OA
ENDROOT
BRANCH   5   9
HETATM    9  C8  UNL     1       1.655   0.401  -0.952  1.00  0.00     0.116 C 
BRANCH   9  10
HETATM   10  C9  UNL     1       0.294  -0.131  -1.087  1.00  0.00     0.279 C 
BRANCH  10  11
HETATM   11  N2  UNL     1      -0.436  -0.559   0.028  1.00  0.00     0.091 N 
HETATM   12  C10 UNL     1      -0.858   0.467   0.953  1.00  0.00     0.289 C 
HETATM   13  C11 UNL     1      -2.089   0.970   0.322  1.00  0.00     0.101 C 
HETATM   14  S1  UNL     1      -3.245   1.875   1.352  1.00  0.00    -0.147 SA
HETATM   15  C17 UNL     1      -2.812  -0.317  -0.028  1.00  0.00     0.116 C 
HETATM   16  C12 UNL     1      -4.774   1.886   0.335  1.00  0.00     0.020 C 
HETATM   17  C13 UNL     1      -4.849   3.309  -0.240  1.00  0.00     0.031 C 
HETATM   18  C14 UNL     1      -5.998   1.709   1.176  1.00  0.00     0.031 C 
HETATM   19  C15 UNL     1      -4.669   0.980  -0.814  1.00  0.00     0.009 C 
HETATM   20  C16 UNL     1      -3.825   0.000  -1.019  1.00  0.00     0.007 C 
HETATM   21 BR1  UNL     1      -3.936  -1.016  -2.634  1.00  0.00    -0.055 Br
HETATM   22  C19 UNL     1      -1.679  -1.167  -0.471  1.00  0.00     0.298 C 
BRANCH  15  23
HETATM   23  C18 UNL     1      -3.442  -0.959   1.142  1.00  0.00     0.252 C 
HETATM   24  O3  UNL     1      -3.379  -0.540   2.310  1.00  0.00    -0.270 OA
HETATM   25  N3  UNL     1      -4.175  -2.152   0.890  1.00  0.00    -0.276 N 
ATOM     26  H3  UNL     1      -4.237  -2.510  -0.063  1.00  0.00     0.189 HD
BRANCH  25  27
HETATM   27  N4  UNL     1      -4.816  -2.846   1.932  1.00  0.00    -0.343 N 
ATOM     28  H42 UNL     1      -4.744  -2.474   2.879  1.00  0.00     0.176 HD
ATOM     29  H41 UNL     1      -5.342  -3.701   1.751  1.00  0.00     0.176 HD
ENDBRANCH  25  27
ENDBRANCH  15  23
ENDBRANCH  10  11
ENDBRANCH   9  10
ENDBRANCH   5   9
BRANCH   1  30
HETATM   30  C2  UNL     1       6.222   0.358  -0.148  1.00  0.00     0.199 C 
BRANCH  30  31
HETATM   31  O1  UNL     1       6.449   0.821  -1.422  1.00  0.00    -0.393 OA
HETATM   32  C1  UNL     1       7.586   1.610  -1.414  1.00  0.00     0.201 C 
ENDBRANCH  30  31
ENDBRANCH   1  30
TORSDOF 7
