REMARK  7 active torsions:
REMARK  status: ('A' for Active; 'I' for Inactive)
REMARK    1  A    between atoms: C4_4  and  O1_5 
REMARK    2  A    between atoms: O1_5  and  C5_6 
REMARK    3  A    between atoms: C5_6  and  C6_7 
REMARK       I    between atoms: C6_7  and  N1_9 
REMARK    4  A    between atoms: C8_11  and  O3_12 
REMARK    5  A    between atoms: O3_12  and  C9_13 
REMARK    6  A    between atoms: C12_16  and  C13_17 
REMARK       I    between atoms: C13_17  and  N2_19 
REMARK    7  A    between atoms: N2_19  and  C14_21 
ROOT
HETATM    1  O3  UNL     1       1.583   0.988   0.347  1.00  0.00    -0.343 OA
ENDROOT
BRANCH   1   2
HETATM    2  C8  UNL     1       0.315   0.420   0.348  1.00  0.00     0.163 C 
HETATM    3  C7  UNL     1      -0.333   0.642  -1.003  1.00  0.00     0.180 C 
HETATM    4  N1  UNL     1      -1.742   0.556  -0.669  1.00  0.00    -0.276 N 
HETATM    5  C6  UNL     1      -2.782   0.288  -1.565  1.00  0.00     0.258 C 
HETATM    6  N5  UNL     1      -1.937   0.781   0.704  1.00  0.00    -0.228 NA
HETATM    7  O2  UNL     1      -2.512   0.091  -2.779  1.00  0.00    -0.270 OA
HETATM    8  C20 UNL     1      -0.663   1.201   1.235  1.00  0.00     0.147 C 
HETATM    9  C21 UNL     1      -2.305  -0.436   1.410  1.00  0.00     0.136 C 
BRANCH   5  10
HETATM   10  C5  UNL     1      -4.207   0.227  -1.123  1.00  0.00     0.280 C 
BRANCH  10  11
HETATM   11  O1  UNL     1      -5.077  -0.073  -2.186  1.00  0.00    -0.342 OA
BRANCH  11  12
HETATM   12  C4  UNL     1      -6.441  -0.151  -1.882  1.00  0.00     0.070 A 
HETATM   13  C3  UNL     1      -6.918   0.062  -0.590  1.00  0.00     0.046 A 
HETATM   14  C2  UNL     1      -8.250  -0.006  -0.255  1.00  0.00    -0.021 A 
HETATM   15  C1  UNL     1      -8.704   0.230   1.143  1.00  0.00     0.051 C 
HETATM   16  C24 UNL     1      -9.177  -0.298  -1.232  1.00  0.00     0.122 A 
HETATM   17  C23 UNL     1      -8.733  -0.513  -2.524  1.00  0.00     0.045 A 
HETATM   18  F1  UNL     1     -10.498  -0.376  -0.952  1.00  0.00    -0.206 F 
HETATM   19  C22 UNL     1      -7.382  -0.441  -2.847  1.00  0.00     0.040 A 
ENDBRANCH  11  12
ENDBRANCH  10  11
ENDBRANCH   5  10
ENDBRANCH   1   2
BRANCH   1  20
HETATM   20  C9  UNL     1       2.778   0.408   0.653  1.00  0.00     0.069 A 
HETATM   21  C10 UNL     1       3.924   1.173   0.593  1.00  0.00     0.038 A 
HETATM   22  C11 UNL     1       5.171   0.634   0.895  1.00  0.00     0.020 A 
HETATM   23  C12 UNL     1       5.297  -0.684   1.264  1.00  0.00     0.032 A 
HETATM   24  C18 UNL     1       4.161  -1.460   1.328  1.00  0.00     0.020 A 
HETATM   25  C19 UNL     1       2.917  -0.910   1.023  1.00  0.00     0.038 A 
BRANCH  23  26
HETATM   26  C13 UNL     1       6.611  -1.267   1.591  1.00  0.00     0.257 C 
HETATM   27  O4  UNL     1       6.732  -2.469   1.919  1.00  0.00    -0.267 OA
HETATM   28  N2  UNL     1       7.791  -0.484   1.546  1.00  0.00    -0.308 N 
ATOM     29  H2  UNL     1       8.156  -0.119   2.426  1.00  0.00     0.170 HD
BRANCH  28  30
HETATM   30  C14 UNL     1       8.433  -0.203   0.463  1.00  0.00     0.123 A 
HETATM   31  C15 UNL     1       9.570   0.554   0.440  1.00  0.00     0.136 A 
HETATM   32  N3  UNL     1      10.244   0.854  -0.670  1.00  0.00    -0.371 N 
HETATM   33  C16 UNL     1       9.768   0.375  -1.856  1.00  0.00     0.104 A 
ATOM     34  H3  UNL     1      11.089   1.424  -0.634  1.00  0.00     0.164 HD
HETATM   35  C17 UNL     1       8.626  -0.390  -1.864  1.00  0.00     0.106 A 
HETATM   36  N4  UNL     1       7.983  -0.664  -0.720  1.00  0.00    -0.350 N 
ATOM     37  H4  UNL     1       7.137  -1.233  -0.746  1.00  0.00     0.166 HD
ENDBRANCH  28  30
ENDBRANCH  23  26
ENDBRANCH   1  20
TORSDOF 7
