REMARK  8 active torsions:
REMARK  status: ('A' for Active; 'I' for Inactive)
REMARK    1  A    between atoms: C2_3  and  S1_4 
REMARK    2  A    between atoms: S1_4  and  C3_6 
REMARK    3  A    between atoms: C3_6  and  C4_7 
REMARK    4  A    between atoms: C4_7  and  C5_9 
REMARK    5  A    between atoms: C7_11  and  N2_12 
REMARK       I    between atoms: N2_12  and  C8_14 
REMARK    6  A    between atoms: C8_14  and  C9_16 
REMARK    7  A    between atoms: C9_16  and  C10_17 
REMARK    8  A    between atoms: N4_26  and  C16_27 
ROOT
HETATM    1  N1  UNL     1       7.238   4.391   0.381  1.00  0.00    -0.196 NA
HETATM    2  C1  UNL     1       6.791   3.413  -0.076  1.00  0.00     0.071 C 
HETATM    3  C2  UNL     1       6.221   2.192  -0.668  1.00  0.00     0.232 C 
ENDROOT
BRANCH   3   4
HETATM    4  S1  UNL     1       5.003   2.606  -1.804  1.00  0.00     0.035 S 
HETATM    5  O1  UNL     1       5.382   3.516  -3.077  1.00  0.00    -0.257 OA
BRANCH   4   6
HETATM    6  C3  UNL     1       3.357   2.477  -1.321  1.00  0.00     0.195 C 
BRANCH   6   7
HETATM    7  C4  UNL     1       2.919   1.131  -0.916  1.00  0.00     0.189 C 
HETATM    8  O2  UNL     1       3.716   0.179  -0.932  1.00  0.00    -0.290 OA
BRANCH   7   9
HETATM    9  C5  UNL     1       1.553   0.916  -0.495  1.00  0.00     0.107 A 
HETATM   10  C6  UNL     1       0.521   1.861  -0.413  1.00  0.00     0.085 A 
HETATM   11  C7  UNL     1      -0.620   1.208   0.037  1.00  0.00     0.125 A 
HETATM   12  N3  UNL     1      -0.260  -0.075   0.211  1.00  0.00    -0.278 N 
HETATM   13  N4  UNL     1       1.005  -0.250  -0.098  1.00  0.00    -0.251 N 
ATOM     14  H3  UNL     1      -0.884  -0.813   0.538  1.00  0.00     0.189 HD
BRANCH  11  15
HETATM   15  N2  UNL     1      -1.725   1.806   0.213  1.00  0.00    -0.312 N 
HETATM   16  C8  UNL     1      -2.924   1.228   0.663  1.00  0.00     0.227 C 
HETATM   17  O3  UNL     1      -3.316   1.472   1.826  1.00  0.00    -0.273 OA
ATOM     18  H2  UNL     1      -1.745   2.805   0.008  1.00  0.00     0.170 HD
BRANCH  16  19
HETATM   19  C9  UNL     1      -3.705   0.356  -0.213  1.00  0.00     0.141 C 
BRANCH  19  20
HETATM   20  C10 UNL     1      -4.933  -0.168   0.396  1.00  0.00    -0.048 A 
HETATM   21  C11 UNL     1      -4.896  -1.360   1.083  1.00  0.00     0.007 A 
HETATM   22  C12 UNL     1      -6.042  -1.887   1.672  1.00  0.00     0.002 A 
HETATM   23  C13 UNL     1      -7.240  -1.193   1.562  1.00  0.00     0.024 A 
HETATM   24  C14 UNL     1      -7.290   0.008   0.873  1.00  0.00     0.034 A 
HETATM   25 CL1  UNL     1      -8.797   0.889   0.729  1.00  0.00    -0.084 Cl
HETATM   26  C15 UNL     1      -6.126   0.517   0.290  1.00  0.00     0.031 A 
ENDBRANCH  19  20
ENDBRANCH  16  19
ENDBRANCH  11  15
BRANCH  13  27
HETATM   27  C16 UNL     1       1.689  -1.510  -0.017  1.00  0.00     0.057 A 
HETATM   28  C17 UNL     1       2.367  -1.871   1.120  1.00  0.00     0.031 A 
HETATM   29  C18 UNL     1       3.025  -3.068   1.217  1.00  0.00     0.002 A 
HETATM   30  C19 UNL     1       3.028  -3.968   0.152  1.00  0.00     0.000 A 
HETATM   31  C20 UNL     1       2.340  -3.580  -0.978  1.00  0.00     0.002 A 
HETATM   32  C21 UNL     1       1.676  -2.375  -1.079  1.00  0.00     0.031 A 
ENDBRANCH  13  27
ENDBRANCH   7   9
ENDBRANCH   6   7
ENDBRANCH   4   6
ENDBRANCH   3   4
TORSDOF 8
