REMARK  4 active torsions:
REMARK  status: ('A' for Active; 'I' for Inactive)
REMARK    1  A    between atoms: O1_2  and  C2_3 
REMARK    2  A    between atoms: C2_3  and  N1_4 
REMARK    3  A    between atoms: C2_3  and  N2_8 
REMARK    4  A    between atoms: N2_8  and  C3_11 
ROOT
HETATM    1  N2  UNL     1      -0.393   0.614   0.315  1.00  0.00    -0.014 N 
ATOM      2  H21 UNL     1      -0.220   0.278   1.263  1.00  0.00     0.283 HD
ATOM      3  H22 UNL     1      -0.608   1.591   0.513  1.00  0.00     0.283 HD
ENDROOT
BRANCH   1   4
HETATM    4  C2  UNL     1      -1.540  -0.050  -0.254  1.00  0.00     0.521 C 
BRANCH   4   5
HETATM    5  O1  UNL     1      -2.646   0.202   0.504  1.00  0.00    -0.344 OA
HETATM    6  C1  UNL     1      -3.282  -0.873   1.062  1.00  0.00     0.206 C 
ENDBRANCH   4   5
BRANCH   4   7
HETATM    7  N1  UNL     1      -1.796   0.349  -1.622  1.00  0.00    -0.027 N 
ATOM      8  H13 UNL     1      -2.634  -0.091  -2.003  1.00  0.00     0.279 HD
ATOM      9  H12 UNL     1      -2.099   1.321  -1.691  1.00  0.00     0.279 HD
ATOM     10  H11 UNL     1      -0.969   0.161  -2.189  1.00  0.00     0.279 HD
ENDBRANCH   4   7
ENDBRANCH   1   4
BRANCH   1  11
HETATM   11  C3  UNL     1       0.784   0.515  -0.468  1.00  0.00     0.247 C 
HETATM   12  C4  UNL     1       2.036   0.657   0.391  1.00  0.00     0.151 C 
HETATM   13  C5  UNL     1       2.482   2.106   0.322  1.00  0.00     0.042 C 
HETATM   14  O2  UNL     1       2.668  -0.165  -0.569  1.00  0.00    -0.377 OA
HETATM   15  C6  UNL     1       1.411  -0.793  -0.744  1.00  0.00     0.151 C 
HETATM   16  C7  UNL     1       1.287  -1.898   0.244  1.00  0.00     0.042 C 
ENDBRANCH   1  11
TORSDOF 4
