REMARK  2 active torsions:
REMARK  status: ('A' for Active; 'I' for Inactive)
REMARK       I    between atoms: C1_2  and  N3_6 
REMARK    1  A    between atoms: C2_8  and  C3_9 
REMARK    2  A    between atoms: C3_9  and  N4_10 
ROOT
HETATM    1  N4  UNL     1      -0.214  -0.527   0.023  1.00  0.00    -0.379 N 
HETATM    2  C4  UNL     1      -0.588   0.661   0.711  1.00  0.00     0.142 C 
HETATM    3  C5  UNL     1      -1.560   0.346   1.847  1.00  0.00     0.142 C 
HETATM    4  N5  UNL     1      -2.889   0.789   1.405  1.00  0.00    -0.363 N 
ATOM      5  H5  UNL     1      -3.499   1.130   2.148  1.00  0.00     0.162 HD
HETATM    6  C6  UNL     1      -3.418   0.814   0.190  1.00  0.00     0.191 C 
HETATM    7  N6  UNL     1      -4.783   1.300   0.157  1.00  0.00    -0.063 NA
HETATM    8  N7  UNL     1      -2.965   0.440  -1.121  1.00  0.00    -0.297 N 
ATOM      9  H7  UNL     1      -3.293   1.026  -1.889  1.00  0.00     0.171 HD
HETATM   10  C7  UNL     1      -2.087  -0.682  -1.499  1.00  0.00     0.262 C 
HETATM   11  O1  UNL     1      -2.244  -0.991  -2.663  1.00  0.00    -0.267 OA
HETATM   12  C8  UNL     1      -1.083  -1.383  -0.619  1.00  0.00     0.161 C 
ENDROOT
BRANCH   1  13
HETATM   13  C3  UNL     1       0.965  -1.121   0.545  1.00  0.00     0.167 C 
BRANCH  13  14
HETATM   14  C2  UNL     1       2.151  -0.306   0.101  1.00  0.00     0.083 C 
HETATM   15  N3  UNL     1       3.262  -0.369   0.681  1.00  0.00    -0.343 N 
HETATM   16  C1  UNL     1       4.297   0.355   0.273  1.00  0.00     0.185 C 
ATOM     17  H3  UNL     1       3.372  -0.990   1.483  1.00  0.00     0.167 HD
HETATM   18  N1  UNL     1       5.039  -0.977  -0.234  1.00  0.00    -0.064 NA
HETATM   19  N2  UNL     1       5.360   1.087  -0.147  1.00  0.00    -0.374 N 
ATOM     20  H22 UNL     1       6.155   1.643  -0.461  1.00  0.00     0.158 HD
ATOM     21  H21 UNL     1       4.889   1.933   0.175  1.00  0.00     0.158 HD
ENDBRANCH  13  14
ENDBRANCH   1  13
TORSDOF 2
