REMARK  8 active torsions:
REMARK  status: ('A' for Active; 'I' for Inactive)
REMARK    1  A    between atoms: N1_1  and  N2_4 
REMARK       I    between atoms: N2_4  and  C1_6 
REMARK    2  A    between atoms: C1_6  and  C2_8 
REMARK    3  A    between atoms: C3_13  and  N5_14 
REMARK       I    between atoms: N5_14  and  C4_16 
REMARK    4  A    between atoms: N7_18  and  C5_20 
REMARK    5  A    between atoms: C5_20  and  N8_21 
REMARK    6  A    between atoms: C7_26  and  N9_27 
REMARK    7  A    between atoms: C8_31  and  N10_32 
REMARK       I    between atoms: N10_32  and  C9_34 
REMARK    8  A    between atoms: C10_37  and  O3_38 
ROOT
HETATM    1  N5  UNL     1       1.290  -0.219   1.574  1.00  0.00    -0.162 N 
ATOM      2  H5  UNL     1       1.082  -0.613   2.492  1.00  0.00     0.187 HD
HETATM    3  C4  UNL     1       0.248   0.390   0.780  1.00  0.00     0.204 C 
HETATM    4  N6  UNL     1       0.126   1.803   0.837  1.00  0.00    -0.063 NA
HETATM    5  N7  UNL     1      -0.527  -0.288   0.070  1.00  0.00    -0.329 N 
ATOM      6  H7  UNL     1      -0.397  -1.300   0.071  1.00  0.00     0.164 HD
ENDROOT
BRANCH   5   7
HETATM    7  C5  UNL     1      -1.578   0.235  -0.741  1.00  0.00     0.227 C 
HETATM    8  C6  UNL     1      -2.425   1.301  -0.114  1.00  0.00     0.099 C 
HETATM    9  C7  UNL     1      -3.763   1.158  -0.850  1.00  0.00     0.212 C 
HETATM   10  C8  UNL     1      -3.947  -0.342  -0.805  1.00  0.00     0.149 C 
HETATM   11  C10 UNL     1      -2.569  -0.870  -1.046  1.00  0.00     0.199 C 
BRANCH   7  12
HETATM   12  N8  UNL     1      -0.969   0.761  -1.946  1.00  0.00    -0.050 N 
ATOM     13  H83 UNL     1      -0.234   1.442  -1.757  1.00  0.00     0.277 HD
ATOM     14  H82 UNL     1      -0.392   0.076  -2.433  1.00  0.00     0.277 HD
ATOM     15  H81 UNL     1      -1.720   1.135  -2.526  1.00  0.00     0.277 HD
ENDBRANCH   7  12
BRANCH   9  16
HETATM   16  N9  UNL     1      -4.814   1.891  -0.214  1.00  0.00    -0.073 N 
ATOM     17  H93 UNL     1      -4.904   1.629   0.768  1.00  0.00     0.274 HD
ATOM     18  H92 UNL     1      -4.561   2.872  -0.098  1.00  0.00     0.274 HD
ATOM     19  H91 UNL     1      -5.704   1.796  -0.703  1.00  0.00     0.274 HD
ENDBRANCH   9  16
BRANCH  10  20
HETATM   20  N10 UNL     1      -4.453  -0.691   0.511  1.00  0.00    -0.336 N 
HETATM   21  C9  UNL     1      -5.682  -1.371   0.692  1.00  0.00     0.329 C 
HETATM   22  N11 UNL     1      -6.100  -1.674   2.023  1.00  0.00    -0.040 NA
HETATM   23  O2  UNL     1      -6.343  -1.674  -0.314  1.00  0.00    -0.251 OA
ATOM     24  H10 UNL     1      -3.904  -0.438   1.333  1.00  0.00     0.164 HD
ENDBRANCH  10  20
BRANCH  11  25
HETATM   25  O3  UNL     1      -2.439  -1.353  -2.343  1.00  0.00    -0.389 OA
ATOM     26  H3  UNL     1      -3.060  -2.046  -2.534  1.00  0.00     0.210 HD
ENDBRANCH  11  25
ENDBRANCH   5   7
BRANCH   1  27
HETATM   27  C3  UNL     1       2.489  -0.255   1.100  1.00  0.00     0.702 A 
HETATM   28  N4  UNL     1       2.775   0.257  -0.103  1.00  0.00    -0.131 N 
HETATM   29  N3  UNL     1       3.988   0.230  -0.588  1.00  0.00    -0.277 N 
ATOM     30  H4  UNL     1       2.028   0.679  -0.655  1.00  0.00     0.205 HD
HETATM   31  C2  UNL     1       5.042  -0.322   0.095  1.00  0.00     0.187 A 
ATOM     32  H3  UNL     1       4.158   0.634  -1.509  1.00  0.00     0.188 HD
HETATM   33  C11 UNL     1       4.759  -0.848   1.323  1.00  0.00     0.293 A 
HETATM   34  N12 UNL     1       3.487  -0.802   1.795  1.00  0.00    -0.152 N 
HETATM   35  O4  UNL     1       5.630  -1.381   2.047  1.00  0.00    -0.265 OA
ATOM     36  H12 UNL     1       3.288  -1.200   2.713  1.00  0.00     0.187 HD
BRANCH  31  37
HETATM   37  C1  UNL     1       6.350  -0.314  -0.504  1.00  0.00     0.293 C 
HETATM   38  N2  UNL     1       7.529  -0.818   0.050  1.00  0.00    -0.271 N 
ATOM     39  H2  UNL     1       7.509  -1.246   0.976  1.00  0.00     0.189 HD
HETATM   40  O1  UNL     1       6.449   0.208  -1.666  1.00  0.00    -0.264 OA
BRANCH  38  41
HETATM   41  N1  UNL     1       8.770  -0.740  -0.671  1.00  0.00    -0.342 N 
ATOM     42  H12 UNL     1       8.772  -0.309  -1.596  1.00  0.00     0.176 HD
ATOM     43  H11 UNL     1       9.631  -1.108  -0.266  1.00  0.00     0.176 HD
ENDBRANCH  38  41
ENDBRANCH  31  37
ENDBRANCH   1  27
TORSDOF 8
