REMARK  2 active torsions:
REMARK  status: ('A' for Active; 'I' for Inactive)
REMARK       I    between atoms: N1_2  and  C2_4 
REMARK       I    between atoms: C2_4  and  N2_6 
REMARK    1  A    between atoms: N2_6  and  C3_8 
REMARK    2  A    between atoms: N5_15  and  N6_16 
ROOT
HETATM    1  C3  UNL     1       0.894   0.131  -0.042  1.00  0.00     0.726 A 
HETATM    2  N3  UNL     1       1.039  -1.168   0.276  1.00  0.00    -0.126 N 
ATOM      3  H3  UNL     1       0.337  -1.892   0.122  1.00  0.00     0.206 HD
HETATM    4  N4  UNL     1       2.246  -1.367   0.827  1.00  0.00    -0.235 N 
ATOM      5  H4  UNL     1       2.635  -2.247   1.166  1.00  0.00     0.192 HD
HETATM    6  C4  UNL     1       2.830  -0.160   0.836  1.00  0.00     0.375 A 
HETATM    7  O2  UNL     1       3.992   0.062   1.285  1.00  0.00    -0.243 OA
HETATM    8  N5  UNL     1       2.037   0.773   0.316  1.00  0.00    -0.035 N 
ENDROOT
BRANCH   1   9
HETATM    9  N2  UNL     1      -0.090   0.752  -0.583  1.00  0.00    -0.138 N 
HETATM   10  C2  UNL     1      -1.299   0.167  -0.980  1.00  0.00     0.334 C 
HETATM   11  N1  UNL     1      -2.386   0.028  -0.073  1.00  0.00    -0.347 N 
HETATM   12  O1  UNL     1      -1.432  -0.245  -2.160  1.00  0.00    -0.247 OA
HETATM   13  C1  UNL     1      -3.629  -0.570  -0.472  1.00  0.00     0.151 C 
ATOM     14  H1  UNL     1      -2.280   0.362   0.885  1.00  0.00     0.163 HD
ATOM     15  H2  UNL     1       0.017   1.755  -0.737  1.00  0.00     0.189 HD
ENDBRANCH   1   9
BRANCH   8  16
HETATM   16  N6  UNL     1       2.307   2.140   0.160  1.00  0.00    -0.320 N 
ATOM     17  H62 UNL     1       1.699   2.855  -0.239  1.00  0.00     0.178 HD
ATOM     18  H61 UNL     1       3.165   2.622   0.429  1.00  0.00     0.178 HD
ENDBRANCH   8  16
TORSDOF 2
