REMARK  3 active torsions:
REMARK  status: ('A' for Active; 'I' for Inactive)
REMARK    1  A    between atoms: N1_1  and  N2_4 
REMARK    2  A    between atoms: N2_4  and  N3_6 
REMARK    3  A    between atoms: N6_13  and  C2_14 
ROOT
HETATM    1  N3  UNL     1      -0.847  -0.100   0.084  1.00  0.00    -0.122 N 
HETATM    2  N4  UNL     1      -0.576   1.260  -0.012  1.00  0.00    -0.223 N 
ATOM      3  H4  UNL     1      -1.362   1.910  -0.016  1.00  0.00     0.194 HD
HETATM    4  C1  UNL     1       0.743   1.795  -0.105  1.00  0.00     0.355 A 
HETATM    5  O1  UNL     1       0.878   3.060  -0.187  1.00  0.00    -0.244 OA
HETATM    6  N5  UNL     1       1.841   0.920  -0.103  1.00  0.00    -0.237 N 
ATOM      7  H5  UNL     1       2.790   1.287  -0.171  1.00  0.00     0.192 HD
HETATM    8  N6  UNL     1       1.621  -0.472  -0.006  1.00  0.00    -0.173 N 
HETATM    9  C3  UNL     1       0.298  -0.973   0.086  1.00  0.00     0.386 A 
HETATM   10  O3  UNL     1       0.144  -2.214   0.171  1.00  0.00    -0.241 OA
ENDROOT
BRANCH   1  11
HETATM   11  N2  UNL     1      -2.067  -0.691   0.177  1.00  0.00    -0.223 N 
ATOM     12  H2  UNL     1      -2.137  -1.684   0.398  1.00  0.00     0.210 HD
BRANCH  11  13
HETATM   13  N1  UNL     1      -3.175   0.028  -0.021  1.00  0.00    -0.329 N 
ATOM     14  H12 UNL     1      -3.088   1.020  -0.241  1.00  0.00     0.178 HD
ATOM     15  H11 UNL     1      -4.091  -0.416   0.049  1.00  0.00     0.178 HD
ENDBRANCH  11  13
ENDBRANCH   1  11
BRANCH   8  16
HETATM   16  C2  UNL     1       2.760  -1.305  -0.008  1.00  0.00     0.380 C 
HETATM   17  O2  UNL     1       2.511  -2.568   0.080  1.00  0.00    -0.281 OA
ENDBRANCH   8  16
TORSDOF 3
