REMARK  3 active torsions:
REMARK  status: ('A' for Active; 'I' for Inactive)
REMARK       I    between atoms: C1_4  and  N2_5 
REMARK       I    between atoms: C1_4  and  N6_14 
REMARK    1  A    between atoms: N2_5  and  N3_7 
REMARK    2  A    between atoms: N4_9  and  N5_11 
REMARK       I    between atoms: N6_14  and  C2_16 
REMARK    3  A    between atoms: C2_16  and  C3_18 
ROOT
HETATM    1  N1  UNL     1       1.675   1.468   1.268  1.00  0.00    -0.233 N 
ATOM      2  H11 UNL     1       1.673   2.484   1.179  1.00  0.00     0.174 HD
ATOM      3  H12 UNL     1       2.433   1.013   1.776  1.00  0.00     0.174 HD
HETATM    4  C1  UNL     1       0.746   0.719   0.760  1.00  0.00     0.694 C 
HETATM    5  N2  UNL     1       0.749  -0.687   0.883  1.00  0.00    -0.117 N 
ATOM      6  H2  UNL     1       0.171  -1.139   1.592  1.00  0.00     0.207 HD
HETATM    7  N6  UNL     1      -0.302   1.348   0.058  1.00  0.00    -0.151 N 
ATOM      8  H6  UNL     1      -0.311   2.364  -0.037  1.00  0.00     0.188 HD
HETATM    9  C2  UNL     1      -1.345   0.577  -0.518  1.00  0.00     0.324 C 
HETATM   10  O1  UNL     1      -1.350  -0.697  -0.411  1.00  0.00    -0.262 OA
ENDROOT
BRANCH   5  11
HETATM   11  N3  UNL     1       1.537  -1.452   0.041  1.00  0.00    -0.214 N 
HETATM   12  N4  UNL     1       2.581  -2.064   0.360  1.00  0.00    -0.234 N 
ATOM     13  H4  UNL     1       3.093  -2.604  -0.338  1.00  0.00     0.209 HD
ATOM     14  H3  UNL     1       1.239  -1.524  -0.932  1.00  0.00     0.210 HD
BRANCH  12  15
HETATM   15  N5  UNL     1       3.038  -2.003   1.670  1.00  0.00    -0.330 N 
ATOM     16  H52 UNL     1       2.515  -1.459   2.355  1.00  0.00     0.178 HD
ATOM     17  H51 UNL     1       3.889  -2.502   1.930  1.00  0.00     0.178 HD
ENDBRANCH  12  15
ENDBRANCH   5  11
BRANCH   9  18
HETATM   18  C3  UNL     1      -2.422   1.227  -1.239  1.00  0.00     0.323 C 
HETATM   19  N7  UNL     1      -3.456   0.453  -1.810  1.00  0.00    -0.053 NA
HETATM   20  O2  UNL     1      -2.440   2.474  -1.358  1.00  0.00    -0.266 OA
ENDBRANCH   9  18
TORSDOF 3
