REMARK  3 active torsions:
REMARK  status: ('A' for Active; 'I' for Inactive)
REMARK       I    between atoms: N1_2  and  C2_4 
REMARK       I    between atoms: C2_4  and  N4_9 
REMARK    1  A    between atoms: N4_9  and  N5_11 
REMARK    2  A    between atoms: N5_11  and  C4_13 
REMARK    3  A    between atoms: N9_20  and  O1_21 
ROOT
HETATM    1  C1  UNL     1      -1.764  -1.744  -0.342  1.00  0.00     0.165 C 
HETATM    2  N1  UNL     1      -2.286  -0.469  -0.737  1.00  0.00    -0.229 N 
ATOM      3  H1  UNL     1      -2.932  -0.445  -1.526  1.00  0.00     0.177 HD
HETATM    4  C2  UNL     1      -1.969   0.758  -0.110  1.00  0.00     0.701 C 
HETATM    5  N2  UNL     1      -2.874   1.440   0.475  1.00  0.00    -0.125 N 
ATOM      6  H2  UNL     1      -3.827   1.076   0.477  1.00  0.00     0.197 HD
HETATM    7  C3  UNL     1      -2.632   2.659   1.114  1.00  0.00     0.196 C 
HETATM    8  N3  UNL     1      -2.445   3.682   1.659  1.00  0.00    -0.171 NA
HETATM    9  N4  UNL     1      -0.643   1.244  -0.124  1.00  0.00    -0.117 N 
ATOM     10  H4  UNL     1      -0.360   1.880  -0.870  1.00  0.00     0.206 HD
ENDROOT
BRANCH   9  11
HETATM   11  N5  UNL     1       0.294   0.885   0.847  1.00  0.00    -0.113 N 
ATOM     12  H5  UNL     1       0.148   1.103   1.833  1.00  0.00     0.206 HD
BRANCH  11  13
HETATM   13  C4  UNL     1       1.358   0.263   0.442  1.00  0.00     0.756 A 
HETATM   14  N6  UNL     1       2.364  -0.154   1.263  1.00  0.00    -0.111 N 
HETATM   15  N7  UNL     1       3.256  -0.737   0.491  1.00  0.00    -0.211 N 
ATOM     16  H6  UNL     1       2.415  -0.037   2.275  1.00  0.00     0.207 HD
HETATM   17  N8  UNL     1       2.890  -0.721  -0.765  1.00  0.00    -0.186 N 
ATOM     18  H7  UNL     1       4.125  -1.150   0.830  1.00  0.00     0.210 HD
HETATM   19  N9  UNL     1       1.717  -0.104  -0.799  1.00  0.00     0.035 N 
ATOM     20  H8  UNL     1       3.403  -1.106  -1.558  1.00  0.00     0.213 HD
BRANCH  19  21
HETATM   21  O1  UNL     1       1.035   0.110  -1.845  1.00  0.00    -0.253 OA
ATOM     22  H1  UNL     1       1.289  -0.150  -2.723  1.00  0.00     0.247 HD
ENDBRANCH  19  21
ENDBRANCH  11  13
ENDBRANCH   9  11
TORSDOF 3
