REMARK  2 active torsions:
REMARK  status: ('A' for Active; 'I' for Inactive)
REMARK    1  A    between atoms: N1_1  and  N2_4 
REMARK       I    between atoms: N2_4  and  C1_6 
REMARK       I    between atoms: C1_6  and  N3_8 
REMARK    2  A    between atoms: N3_8  and  C2_10 
ROOT
HETATM    1  C2  UNL     1       0.468  -0.489   0.693  1.00  0.00     0.694 A 
HETATM    2  N4  UNL     1       0.882   0.531  -0.062  1.00  0.00    -0.141 N 
ATOM      3  H4  UNL     1       0.213   1.263  -0.302  1.00  0.00     0.189 HD
HETATM    4  C3  UNL     1       2.148   0.637  -0.522  1.00  0.00     0.342 A 
HETATM    5  O2  UNL     1       2.462   1.635  -1.232  1.00  0.00    -0.246 OA
HETATM    6  N5  UNL     1       3.037  -0.330  -0.207  1.00  0.00    -0.260 N 
ATOM      7  H5  UNL     1       3.998  -0.273  -0.543  1.00  0.00     0.175 HD
HETATM    8  C4  UNL     1       2.641  -1.378   0.560  1.00  0.00     0.342 A 
HETATM    9  O3  UNL     1       3.496  -2.276   0.844  1.00  0.00    -0.246 OA
HETATM   10  N6  UNL     1       1.368  -1.441   0.995  1.00  0.00    -0.141 N 
ATOM     11  H6  UNL     1       1.079  -2.233   1.569  1.00  0.00     0.189 HD
ENDROOT
BRANCH   1  12
HETATM   12  N3  UNL     1      -0.752  -0.599   1.141  1.00  0.00    -0.140 N 
HETATM   13  C1  UNL     1      -1.738   0.388   0.844  1.00  0.00     0.352 C 
HETATM   14  N2  UNL     1      -2.760   0.163  -0.115  1.00  0.00    -0.258 N 
HETATM   15  O1  UNL     1      -1.670   1.471   1.466  1.00  0.00    -0.245 OA
ATOM     16  H2  UNL     1      -2.815  -0.721  -0.621  1.00  0.00     0.191 HD
ATOM     17  H3  UNL     1      -1.005  -1.404   1.713  1.00  0.00     0.189 HD
BRANCH  14  18
HETATM   18  N1  UNL     1      -3.677   1.167  -0.347  1.00  0.00    -0.341 N 
ATOM     19  H12 UNL     1      -3.608   2.045   0.167  1.00  0.00     0.177 HD
ATOM     20  H11 UNL     1      -4.411   1.005  -1.036  1.00  0.00     0.177 HD
ENDBRANCH  14  18
ENDBRANCH   1  12
TORSDOF 2
