REMARK  0 active torsions:
REMARK  status: ('A' for Active; 'I' for Inactive)
REMARK       I    between atoms: C1_2  and  N2_4 
ROOT
HETATM    1  N1  UNL     1      -3.507  -0.974  -0.098  1.00  0.00    -0.040 NA
HETATM    2  C1  UNL     1      -2.631   0.137  -0.032  1.00  0.00     0.334 C 
HETATM    3  O1  UNL     1      -2.828   1.180  -0.725  1.00  0.00    -0.251 OA
HETATM    4  N2  UNL     1      -1.512   0.123   0.804  1.00  0.00    -0.292 N 
ATOM      5  H2  UNL     1      -1.705   0.254   1.797  1.00  0.00     0.172 HD
HETATM    6  C2  UNL     1      -0.294  -0.029   0.502  1.00  0.00     0.182 C 
HETATM    7  N3  UNL     1       0.622  -0.004   1.516  1.00  0.00    -0.290 N 
ATOM      8  H3  UNL     1       0.267  -0.209   2.450  1.00  0.00     0.172 HD
HETATM    9  C3  UNL     1       1.932   0.259   1.425  1.00  0.00     0.329 C 
HETATM   10  O2  UNL     1       2.541   0.161   2.535  1.00  0.00    -0.246 OA
HETATM   11  N4  UNL     1       2.681   0.600   0.368  1.00  0.00    -0.260 N 
ATOM     12  H4  UNL     1       3.620   0.951   0.558  1.00  0.00     0.175 HD
HETATM   13  C4  UNL     1       2.301   0.520  -0.939  1.00  0.00     0.331 C 
HETATM   14  O3  UNL     1       3.182   0.846  -1.767  1.00  0.00    -0.246 OA
HETATM   15  N5  UNL     1       1.126   0.145  -1.467  1.00  0.00    -0.272 N 
ATOM     16  H5  UNL     1       1.084   0.126  -2.486  1.00  0.00     0.174 HD
HETATM   17  C5  UNL     1      -0.002  -0.209  -0.831  1.00  0.00     0.293 C 
HETATM   18  O4  UNL     1      -0.887  -0.770  -1.540  1.00  0.00    -0.264 OA
ENDROOT
TORSDOF 0
