REMARK  2 active torsions:
REMARK  status: ('A' for Active; 'I' for Inactive)
REMARK       I    between atoms: C1_2  and  N1_3 
REMARK    1  A    between atoms: C1_2  and  C5_11 
REMARK    2  A    between atoms: N1_3  and  C2_5 
ROOT
HETATM    1  C5  UNL     1      -0.133   0.245   0.526  1.00  0.00     0.212 C 
HETATM    2  C6  UNL     1      -0.621  -0.331  -0.755  1.00  0.00     0.090 C 
HETATM    3  N3  UNL     1      -1.601  -1.327  -0.792  1.00  0.00    -0.395 N 
ATOM      4  H3  UNL     1      -1.333  -2.276  -0.530  1.00  0.00     0.159 HD
HETATM    5  C7  UNL     1      -2.945  -1.094  -1.172  1.00  0.00     0.162 C 
HETATM    6  C8  UNL     1      -3.930  -0.709  -0.102  1.00  0.00     0.075 C 
HETATM    7  N4  UNL     1      -4.332   0.629   0.048  1.00  0.00    -0.396 N 
ATOM      8  H4  UNL     1      -5.140   0.994  -0.456  1.00  0.00     0.159 HD
HETATM    9  C9  UNL     1      -3.546   1.498   0.963  1.00  0.00     0.162 C 
HETATM   10  C10 UNL     1      -2.203   1.038   0.723  1.00  0.00     0.076 C 
HETATM   11  N5  UNL     1      -0.928   1.381   1.079  1.00  0.00    -0.384 N 
ATOM     12  H5  UNL     1      -0.604   2.202   1.591  1.00  0.00     0.159 HD
ENDROOT
BRANCH   1  13
HETATM   13  C1  UNL     1       1.282   0.678   0.494  1.00  0.00     0.247 C 
HETATM   14  O1  UNL     1       1.601   1.846   0.859  1.00  0.00    -0.271 OA
HETATM   15  N1  UNL     1       2.301  -0.192   0.060  1.00  0.00    -0.331 N 
ATOM     16  H1  UNL     1       2.069  -1.139  -0.238  1.00  0.00     0.164 HD
BRANCH  15  17
HETATM   17  C2  UNL     1       3.664   0.253   0.037  1.00  0.00     0.288 C 
HETATM   18  C3  UNL     1       4.651  -0.671   0.744  1.00  0.00     0.082 C 
HETATM   19  C4  UNL     1       5.575  -0.231  -0.382  1.00  0.00     0.238 C 
HETATM   20  N2  UNL     1       4.389  -0.008  -1.192  1.00  0.00    -0.054 N 
ATOM     21  H22 UNL     1       4.065  -0.715  -1.852  1.00  0.00     0.279 HD
ATOM     22  H21 UNL     1       4.394   0.672  -1.952  1.00  0.00     0.279 HD
ENDBRANCH  15  17
ENDBRANCH   1  13
TORSDOF 2
