REMARK  15 active torsions:
REMARK  status: ('A' for Active; 'I' for Inactive)
REMARK    1  A    between atoms: C3_3  and  C4_7 
REMARK    2  A    between atoms: C4_7  and  O1_8 
REMARK    3  A    between atoms: O1_8  and  N2_9 
REMARK    4  A    between atoms: C5_11  and  S1_12 
REMARK    5  A    between atoms: C5_11  and  C25_53 
REMARK    6  A    between atoms: S1_12  and  S2_13 
REMARK    7  A    between atoms: S2_13  and  C6_14 
REMARK    8  A    between atoms: C8_19  and  N4_20 
REMARK    9  A    between atoms: C12_28  and  C13_29 
REMARK   10  A    between atoms: C14_30  and  C15_31 
REMARK   11  A    between atoms: C17_37  and  C18_38 
REMARK   12  A    between atoms: C18_38  and  O6_40 
REMARK   13  A    between atoms: C24_50  and  O7_51 
REMARK   14  A    between atoms: C25_53  and  O8_54 
REMARK   15  A    between atoms: C25_53  and  N10_56 
ROOT
HETATM    1  C1  UNL     1      14.184  -0.616   0.920  1.00  0.00     0.019 C 
HETATM    2  C2  UNL     1      12.999  -0.383   0.866  1.00  0.00    -0.062 C 
HETATM    3  C3  UNL     1      11.594  -0.117   0.798  1.00  0.00     0.082 C 
HETATM    4  N1  UNL     1      11.172   1.020   1.224  1.00  0.00    -0.394 N 
ATOM      5  H11 UNL     1      10.171   1.210   1.176  1.00  0.00     0.156 HD
ATOM      6  H12 UNL     1      11.795   1.733   1.604  1.00  0.00     0.156 HD
ENDROOT
BRANCH   3   7
HETATM    7  C4  UNL     1      10.690  -1.152   0.246  1.00  0.00     0.267 C 
BRANCH   7   8
HETATM    8  O1  UNL     1       9.357  -0.685   0.280  1.00  0.00    -0.273 OA
BRANCH   8   9
HETATM    9  N2  UNL     1       8.290  -1.396  -0.153  1.00  0.00    -0.259 N 
HETATM   10  C5  UNL     1       7.102  -1.305   0.336  1.00  0.00     0.135 C 
ATOM     11  H2  UNL     1       8.437  -2.051  -0.921  1.00  0.00     0.195 HD
BRANCH  10  12
HETATM   12  S1  UNL     1       5.823  -2.306  -0.346  1.00  0.00    -0.037 SA
BRANCH  12  13
HETATM   13  S2  UNL     1       3.986  -1.872   0.604  1.00  0.00    -0.082 SA
BRANCH  13  14
HETATM   14  C6  UNL     1       3.133  -0.584  -0.335  1.00  0.00     0.117 C 
HETATM   15  C7  UNL     1       2.763  -1.191  -1.669  1.00  0.00     0.253 C 
HETATM   16  N3  UNL     1       1.378  -0.945  -1.895  1.00  0.00    -0.050 N 
HETATM   17  C8  UNL     1       0.756  -0.658  -0.626  1.00  0.00     0.326 C 
ATOM     18  H32 UNL     1       1.217  -0.212  -2.586  1.00  0.00     0.279 HD
ATOM     19  H31 UNL     1       0.920  -1.708  -2.393  1.00  0.00     0.279 HD
HETATM   20  C24 UNL     1       1.816  -0.301   0.351  1.00  0.00     0.185 C 
BRANCH  17  21
HETATM   21  N4  UNL     1      -0.304   0.328  -0.741  1.00  0.00    -0.249 N 
HETATM   22  C9  UNL     1      -0.249   1.639  -0.913  1.00  0.00     0.333 A 
HETATM   23  O2  UNL     1       0.823   2.311  -1.013  1.00  0.00    -0.246 OA
HETATM   24  N5  UNL     1      -1.497   2.186  -0.970  1.00  0.00    -0.286 N 
HETATM   25  C10 UNL     1      -1.806   3.592  -1.151  1.00  0.00     0.163 C 
HETATM   26  C11 UNL     1      -2.379   1.175  -0.829  1.00  0.00     0.157 A 
HETATM   27  N6  UNL     1      -3.719   1.094  -0.804  1.00  0.00    -0.336 N 
HETATM   28  C23 UNL     1      -1.636   0.025  -0.687  1.00  0.00     0.159 A 
HETATM   29  C12 UNL     1      -4.361  -0.063  -0.647  1.00  0.00     0.085 A 
ATOM     30  H6  UNL     1      -4.265   1.949  -0.909  1.00  0.00     0.168 HD
HETATM   31  C21 UNL     1      -3.646  -1.234  -0.501  1.00  0.00     0.036 A 
HETATM   32  C22 UNL     1      -4.302  -2.556  -0.328  1.00  0.00     0.070 C 
HETATM   33  N9  UNL     1      -2.294  -1.136  -0.528  1.00  0.00    -0.341 N 
ATOM     34  H9  UNL     1      -1.746  -1.990  -0.422  1.00  0.00     0.167 HD
BRANCH  29  35
HETATM   35  C13 UNL     1      -5.829  -0.102  -0.636  1.00  0.00     0.093 C 
HETATM   36  C14 UNL     1      -6.705   0.402  -1.487  1.00  0.00     0.145 C 
HETATM   37  N7  UNL     1      -8.033   0.111  -1.054  1.00  0.00    -0.286 N 
HETATM   38  C16 UNL     1      -9.399  -0.153  -0.857  1.00  0.00     0.236 C 
HETATM   39  C20 UNL     1      -7.888  -0.076   0.411  1.00  0.00     0.208 C 
HETATM   40  O5  UNL     1     -10.447   0.144  -1.467  1.00  0.00    -0.272 OA
HETATM   41  C17 UNL     1      -9.118  -0.952   0.400  1.00  0.00     0.149 C 
HETATM   42  N8  UNL     1      -6.611  -0.748   0.400  1.00  0.00    -0.363 N 
ATOM     43  H8  UNL     1      -6.318  -1.520   0.999  1.00  0.00     0.162 HD
BRANCH  36  44
HETATM   44  C15 UNL     1      -6.451   1.149  -2.702  1.00  0.00     0.229 C 
HETATM   45  O3  UNL     1      -5.307   1.407  -3.110  1.00  0.00    -0.643 OA
HETATM   46  O4  UNL     1      -7.511   1.630  -3.497  1.00  0.00    -0.643 OA
ENDBRANCH  36  44
BRANCH  41  47
HETATM   47  C18 UNL     1     -10.116  -0.711   1.484  1.00  0.00     0.131 C 
HETATM   48  C19 UNL     1     -10.160   0.730   1.910  1.00  0.00     0.040 C 
BRANCH  47  49
HETATM   49  O6  UNL     1     -11.385  -1.039   0.981  1.00  0.00    -0.395 OA
ATOM     50  H6  UNL     1     -12.020  -0.886   1.671  1.00  0.00     0.210 HD
ENDBRANCH  47  49
ENDBRANCH  41  47
ENDBRANCH  29  35
ENDBRANCH  17  21
BRANCH  20  51
HETATM   51  O7  UNL     1       1.695  -1.036   1.543  1.00  0.00    -0.390 OA
ATOM     52  H7  UNL     1       0.867  -0.858   1.974  1.00  0.00     0.210 HD
ENDBRANCH  20  51
ENDBRANCH  13  14
ENDBRANCH  12  13
ENDBRANCH  10  12
BRANCH  10  53
HETATM   53  C25 UNL     1       6.862  -0.370   1.443  1.00  0.00     0.378 C 
BRANCH  53  54
HETATM   54  O8  UNL     1       6.200  -1.026   2.508  1.00  0.00    -0.365 OA
ATOM     55  H8  UNL     1       6.045  -0.421   3.224  1.00  0.00     0.212 HD
ENDBRANCH  53  54
BRANCH  53  56
HETATM   56  N10 UNL     1       6.129   0.807   1.121  1.00  0.00    -0.047 N 
HETATM   57  C26 UNL     1       6.815   1.650   0.154  1.00  0.00     0.270 C 
ATOM     58 2H10 UNL     1       5.188   0.576   0.802  1.00  0.00     0.280 HD
ATOM     59 1H10 UNL     1       5.894   1.333   1.963  1.00  0.00     0.280 HD
ENDBRANCH  53  56
ENDBRANCH  10  53
ENDBRANCH   8   9
ENDBRANCH   7   8
ENDBRANCH   3   7
TORSDOF 15
