REMARK  6 active torsions:
REMARK  status: ('A' for Active; 'I' for Inactive)
REMARK    1  A    between atoms: C3_3  and  C4_4 
REMARK    2  A    between atoms: C4_4  and  O1_5 
REMARK    3  A    between atoms: O1_5  and  C5_6 
REMARK    4  A    between atoms: C5_6  and  C6_7 
REMARK    5  A    between atoms: C12_14  and  O2_15 
REMARK    6  A    between atoms: C13_17  and  O3_18 
ROOT
HETATM    1  C1  UNL     1       5.645   1.387   1.026  1.00  0.00     0.012 C 
HETATM    2  C2  UNL     1       4.884   0.611   0.491  1.00  0.00    -0.115 C 
HETATM    3  C3  UNL     1       3.976  -0.335  -0.156  1.00  0.00     0.119 C 
ENDROOT
BRANCH   3   4
HETATM    4  C4  UNL     1       2.937   0.497  -0.917  1.00  0.00     0.179 C 
BRANCH   4   5
HETATM    5  O1  UNL     1       2.022  -0.220  -1.569  1.00  0.00    -0.389 OA
BRANCH   5   6
HETATM    6  C5  UNL     1       1.130  -1.045  -1.032  1.00  0.00     0.181 C 
BRANCH   6   7
HETATM    7  C6  UNL     1       0.026  -0.534  -0.163  1.00  0.00     0.030 C 
HETATM    8  C7  UNL     1       0.514   0.156   1.053  1.00  0.00     0.022 C 
HETATM    9  C8  UNL     1      -0.840   0.350  -1.021  1.00  0.00     0.250 C 
HETATM   10  N1  UNL     1      -2.011   0.871  -0.415  1.00  0.00    -0.071 N 
HETATM   11  C9  UNL     1      -1.797   2.157   0.272  1.00  0.00     0.272 C 
HETATM   12  C10 UNL     1      -2.934   1.188  -1.524  1.00  0.00     0.272 C 
HETATM   13  C11 UNL     1      -2.662  -0.004   0.515  1.00  0.00     0.270 C 
HETATM   14  C12 UNL     1      -2.273  -1.432   0.396  1.00  0.00     0.173 C 
HETATM   15  C13 UNL     1      -0.824  -1.715   0.261  1.00  0.00     0.160 C 
BRANCH  14  16
HETATM   16  O2  UNL     1      -2.746  -2.105   1.526  1.00  0.00    -0.391 OA
ATOM     17  H2  UNL     1      -2.497  -3.019   1.450  1.00  0.00     0.210 HD
ENDBRANCH  14  16
BRANCH  15  18
HETATM   18  O3  UNL     1      -0.671  -2.797  -0.618  1.00  0.00    -0.392 OA
ATOM     19  H3  UNL     1      -1.204  -3.537  -0.352  1.00  0.00     0.210 HD
ENDBRANCH  15  18
ENDBRANCH   6   7
ENDBRANCH   5   6
ENDBRANCH   4   5
ENDBRANCH   3   4
TORSDOF 6
