REMARK  12 active torsions:
REMARK  status: ('A' for Active; 'I' for Inactive)
REMARK    1  A    between atoms: C2_2  and  C3_3 
REMARK    2  A    between atoms: C3_3  and  C4_4 
REMARK    3  A    between atoms: C5_5  and  C6_6 
REMARK    4  A    between atoms: C9_13  and  C10_14 
REMARK    5  A    between atoms: C10_14  and  C11_15 
REMARK    6  A    between atoms: C11_15  and  C12_16 
REMARK    7  A    between atoms: C15_22  and  C16_23 
REMARK    8  A    between atoms: C20_30  and  C21_31 
REMARK    9  A    between atoms: C21_31  and  C22_32 
REMARK   10  A    between atoms: C25_35  and  C26_36 
REMARK   11  A    between atoms: C31_45  and  C32_46 
REMARK   12  A    between atoms: C32_46  and  C33_47 
ROOT
HETATM    1  C6  UNL     1       3.709  -0.933  -0.660  1.00  0.00     0.116 C 
HETATM    2  C7  UNL     1       4.206   0.036   0.347  1.00  0.00     0.133 C 
HETATM    3  C8  UNL     1       3.309   0.179   1.525  1.00  0.00     0.235 C 
HETATM    4  O1  UNL     1       3.628  -0.449   2.566  1.00  0.00    -0.272 OA
HETATM    5  N1  UNL     1       2.159   1.004   1.414  1.00  0.00    -0.273 N 
ATOM      6  H1  UNL     1       1.634   1.232   2.258  1.00  0.00     0.185 HD
HETATM    7  N2  UNL     1       1.724   1.511   0.201  1.00  0.00    -0.124 NA
HETATM    8  C9  UNL     1       1.272   2.890   0.257  1.00  0.00     0.191 C 
HETATM    9  C14 UNL     1       0.394   3.124   1.430  1.00  0.00     0.239 C 
HETATM   10  O2  UNL     1       0.934   3.572   2.491  1.00  0.00    -0.272 OA
HETATM   11  N3  UNL     1      -1.006   2.875   1.427  1.00  0.00    -0.346 N 
ATOM     12  H3  UNL     1      -1.615   3.589   1.827  1.00  0.00     0.163 HD
HETATM   13  C15 UNL     1      -1.628   1.678   0.896  1.00  0.00     0.180 C 
HETATM   14  C19 UNL     1      -2.018   1.884  -0.520  1.00  0.00     0.241 C 
HETATM   15  O3  UNL     1      -2.164   3.089  -0.936  1.00  0.00    -0.271 OA
HETATM   16  N4  UNL     1      -2.243   0.849  -1.451  1.00  0.00    -0.346 N 
ATOM     17  H4  UNL     1      -2.660   1.107  -2.345  1.00  0.00     0.163 HD
HETATM   18  C20 UNL     1      -1.931  -0.553  -1.243  1.00  0.00     0.181 C 
HETATM   19  C29 UNL     1      -0.753  -0.933  -2.072  1.00  0.00     0.243 C 
HETATM   20  O6  UNL     1      -0.619  -0.263  -3.153  1.00  0.00    -0.271 OA
HETATM   21  N5  UNL     1       0.196  -1.918  -1.801  1.00  0.00    -0.341 N 
HETATM   22  C30 UNL     1       0.744  -2.626  -2.973  1.00  0.00     0.153 C 
HETATM   23  C31 UNL     1       0.683  -2.305  -0.487  1.00  0.00     0.178 C 
HETATM   24  C35 UNL     1       2.056  -2.866  -0.571  1.00  0.00     0.241 C 
HETATM   25  O7  UNL     1       2.097  -4.062  -1.038  1.00  0.00    -0.271 OA
HETATM   26  N6  UNL     1       3.258  -2.202  -0.189  1.00  0.00    -0.351 N 
ATOM     27  H6  UNL     1       3.854  -2.681   0.487  1.00  0.00     0.163 HD
ENDROOT
BRANCH  18  28
HETATM   28  C21 UNL     1      -3.054  -1.437  -1.807  1.00  0.00     0.073 C 
BRANCH  28  29
HETATM   29  C22 UNL     1      -4.355  -1.202  -1.198  1.00  0.00    -0.056 A 
HETATM   30  C23 UNL     1      -5.255  -0.264  -1.687  1.00  0.00     0.008 A 
HETATM   31  C24 UNL     1      -6.490  -0.053  -1.101  1.00  0.00     0.019 A 
HETATM   32  C25 UNL     1      -6.876  -0.793   0.023  1.00  0.00     0.040 A 
HETATM   33  C27 UNL     1      -5.981  -1.732   0.517  1.00  0.00     0.019 A 
HETATM   34  C28 UNL     1      -4.775  -1.914  -0.083  1.00  0.00     0.008 A 
BRANCH  32  35
HETATM   35  C26 UNL     1      -8.167  -0.589   0.656  1.00  0.00     0.209 C 
HETATM   36  O4  UNL     1      -8.952   0.267   0.192  1.00  0.00    -0.644 OA
HETATM   37  O5  UNL     1      -8.498  -1.348   1.759  1.00  0.00    -0.644 OA
ENDBRANCH  32  35
ENDBRANCH  28  29
ENDBRANCH  18  28
BRANCH  13  38
HETATM   38  C16 UNL     1      -2.819   1.340   1.783  1.00  0.00     0.009 C 
HETATM   39  C17 UNL     1      -3.815   2.474   1.790  1.00  0.00     0.012 C 
HETATM   40  C18 UNL     1      -2.272   1.059   3.163  1.00  0.00     0.012 C 
ENDBRANCH  13  38
BRANCH  23  41
HETATM   41  C32 UNL     1      -0.241  -3.320   0.160  1.00  0.00     0.035 C 
BRANCH  41  42
HETATM   42  C33 UNL     1       0.251  -3.735   1.528  1.00  0.00    -0.002 C 
HETATM   43  C34 UNL     1      -0.731  -4.741   2.091  1.00  0.00     0.005 C 
ENDBRANCH  41  42
ENDBRANCH  23  41
BRANCH   8  44
HETATM   44  C10 UNL     1       2.469   3.805   0.202  1.00  0.00     0.033 C 
BRANCH  44  45
HETATM   45  C11 UNL     1       2.019   5.234   0.244  1.00  0.00     0.002 C 
BRANCH  45  46
HETATM   46  C12 UNL     1       1.113   5.567  -0.927  1.00  0.00    -0.004 C 
HETATM   47  C13 UNL     1       0.733   7.040  -0.780  1.00  0.00     0.005 C 
ENDBRANCH  45  46
ENDBRANCH  44  45
ENDBRANCH   8  44
BRANCH   1  48
HETATM   48  C5  UNL     1       4.721  -1.085  -1.734  1.00  0.00    -0.005 C 
HETATM   49  C4  UNL     1       5.920  -1.601  -1.609  1.00  0.00    -0.025 C 
BRANCH  49  50
HETATM   50  C3  UNL     1       6.600  -2.158  -0.443  1.00  0.00     0.053 C 
BRANCH  50  51
HETATM   51  C2  UNL     1       6.939  -3.600  -0.773  1.00  0.00    -0.033 C 
HETATM   52  C1  UNL     1       8.199  -3.980  -0.765  1.00  0.00     0.007 C 
ENDBRANCH  50  51
ENDBRANCH  49  50
ENDBRANCH   1  48
TORSDOF 12
