REMARK  6 active torsions:
REMARK  status: ('A' for Active; 'I' for Inactive)
REMARK    1  A    between atoms: O1_2  and  C2_3 
REMARK       I    between atoms: C2_3  and  N1_5 
REMARK    2  A    between atoms: N1_5  and  C3_7 
REMARK    3  A    between atoms: C3_7  and  C4_8 
REMARK    4  A    between atoms: C3_7  and  C9_18 
REMARK    5  A    between atoms: C4_8  and  N4_13 
REMARK    6  A    between atoms: N4_13  and  C6_15 
ROOT
HETATM    1  C4  UNL     1      -0.774   0.444   0.797  1.00  0.00     0.110 C 
HETATM    2  N2  UNL     1      -1.431   1.365   1.404  1.00  0.00    -0.281 N 
ATOM      3  H2  UNL     1      -1.158   2.329   1.211  1.00  0.00     0.179 HD
HETATM    4  C5  UNL     1      -2.478   1.177   2.299  1.00  0.00     0.183 C 
HETATM    5  N3  UNL     1      -3.340   1.034   3.060  1.00  0.00    -0.172 NA
ENDROOT
BRANCH   1   6
HETATM    6  C3  UNL     1       0.316   0.647  -0.133  1.00  0.00     0.158 C 
BRANCH   6   7
HETATM    7  N1  UNL     1       1.536   0.069   0.436  1.00  0.00    -0.325 N 
HETATM    8  C2  UNL     1       2.323  -0.833  -0.286  1.00  0.00     0.360 C 
HETATM    9  O2  UNL     1       2.085  -1.222  -1.439  1.00  0.00    -0.239 OA
ATOM     10  H1  UNL     1       1.818   0.331   1.381  1.00  0.00     0.165 HD
BRANCH   8  11
HETATM   11  O1  UNL     1       3.470  -1.346   0.319  1.00  0.00    -0.309 OA
HETATM   12  C1  UNL     1       4.300  -2.263  -0.370  1.00  0.00     0.215 C 
ENDBRANCH   8  11
ENDBRANCH   6   7
BRANCH   6  13
HETATM   13  C9  UNL     1       0.645   2.065  -0.475  1.00  0.00     0.008 C 
HETATM   14  C10 UNL     1       1.073   2.908   0.675  1.00  0.00     0.012 C 
HETATM   15  C11 UNL     1      -0.454   2.766  -1.242  1.00  0.00     0.012 C 
ENDBRANCH   6  13
ENDBRANCH   1   6
BRANCH   1  16
HETATM   16  N4  UNL     1      -1.161  -0.890   1.080  1.00  0.00    -0.374 N 
ATOM     17  H4  UNL     1      -0.802  -1.294   1.945  1.00  0.00     0.161 HD
BRANCH  16  18
HETATM   18  C6  UNL     1      -1.995  -1.725   0.289  1.00  0.00     0.074 C 
HETATM   19  C7  UNL     1      -3.370  -1.160   0.001  1.00  0.00     0.031 C 
HETATM   20  C8  UNL     1      -1.374  -2.241  -0.987  1.00  0.00     0.031 C 
ENDBRANCH  16  18
ENDBRANCH   1  16
TORSDOF 6
