REMARK  5 active torsions:
REMARK  status: ('A' for Active; 'I' for Inactive)
REMARK    1  A    between atoms: N1_2  and  C2_5 
REMARK    2  A    between atoms: C2_5  and  C3_6 
REMARK    3  A    between atoms: N2_10  and  C7_11 
REMARK    4  A    between atoms: C7_11  and  C8_12 
REMARK    5  A    between atoms: C8_12  and  N3_13 
ROOT
HETATM    1  C3  UNL     1       2.186  -0.587  -0.639  1.00  0.00     0.039 C 
HETATM    2  C4  UNL     1       3.074  -1.777  -0.490  1.00  0.00     0.010 C 
HETATM    3  C5  UNL     1       2.248  -2.859   0.214  1.00  0.00     0.031 C 
HETATM    4  C6  UNL     1       0.775  -2.686  -0.036  1.00  0.00     0.272 C 
HETATM    5  N2  UNL     1       0.243  -1.448   0.550  1.00  0.00     0.090 N 
HETATM    6  C13 UNL     1       1.313  -0.524   0.614  1.00  0.00     0.278 C 
ENDROOT
BRANCH   5   7
HETATM    7  C7  UNL     1      -0.921  -1.025  -0.197  1.00  0.00     0.302 C 
BRANCH   7   8
HETATM    8  C8  UNL     1      -1.496   0.198   0.363  1.00  0.00     0.302 C 
BRANCH   8   9
HETATM    9  N3  UNL     1      -2.685   0.703  -0.319  1.00  0.00     0.091 N 
HETATM   10  C9  UNL     1      -3.006   1.897   0.459  1.00  0.00     0.282 C 
HETATM   11  C10 UNL     1      -3.979   2.793  -0.273  1.00  0.00     0.104 C 
HETATM   12  S1  UNL     1      -5.517   1.823  -0.370  1.00  0.00    -0.166 SA
HETATM   13  C11 UNL     1      -5.038   0.146  -0.766  1.00  0.00     0.104 C 
HETATM   14  C12 UNL     1      -3.734  -0.284  -0.207  1.00  0.00     0.282 C 
ENDBRANCH   8   9
ENDBRANCH   7   8
ENDBRANCH   5   7
BRANCH   1  15
HETATM   15  C2  UNL     1       2.922   0.719  -0.774  1.00  0.00     0.238 C 
BRANCH  15  16
HETATM   16  N1  UNL     1       3.752   1.025   0.344  1.00  0.00    -0.079 N 
HETATM   17  C1  UNL     1       4.389   2.322   0.057  1.00  0.00     0.267 C 
ATOM     18  H12 UNL     1       4.422   0.287   0.562  1.00  0.00     0.276 HD
ATOM     19  H11 UNL     1       3.252   1.010   1.233  1.00  0.00     0.276 HD
ENDBRANCH  15  16
ENDBRANCH   1  15
TORSDOF 5
