REMARK  4 active torsions:
REMARK  status: ('A' for Active; 'I' for Inactive)
REMARK    1  A    between atoms: C1_2  and  C2_4 
REMARK    2  A    between atoms: C4_6  and  C5_7 
REMARK    3  A    between atoms: C12_14  and  C13_15 
REMARK    4  A    between atoms: C16_20  and  N2_21 
ROOT
HETATM    1  C2  UNL     1      -2.579   0.319   1.290  1.00  0.00     0.099 A 
HETATM    2  C3  UNL     1      -3.944   0.029   1.179  1.00  0.00     0.040 A 
HETATM    3  C4  UNL     1      -4.448  -0.622   0.071  1.00  0.00    -0.050 A 
HETATM    4  C9  UNL     1      -3.549  -0.972  -0.915  1.00  0.00     0.039 A 
HETATM    5  C10 UNL     1      -2.190  -0.675  -0.788  1.00  0.00     0.059 A 
HETATM    6  C11 UNL     1      -1.086  -0.895  -1.585  1.00  0.00     0.063 A 
HETATM    7  C12 UNL     1       0.021  -0.393  -0.973  1.00  0.00     0.062 A 
HETATM    8  N4  UNL     1      -0.430   0.129   0.201  1.00  0.00    -0.293 N 
ATOM      9  H4  UNL     1       0.157   0.585   0.899  1.00  0.00     0.187 HD
HETATM   10  N5  UNL     1      -1.737  -0.039   0.307  1.00  0.00    -0.255 N 
ENDROOT
BRANCH   7  11
HETATM   11  C13 UNL     1       1.410  -0.375  -1.400  1.00  0.00     0.010 A 
HETATM   12  C14 UNL     1       1.780  -0.927  -2.605  1.00  0.00     0.101 A 
HETATM   13  N1  UNL     1       3.079  -0.907  -3.000  1.00  0.00    -0.372 N 
HETATM   14  C15 UNL     1       4.052  -0.368  -2.268  1.00  0.00     0.116 A 
ATOM     15  H1  UNL     1       3.321  -1.324  -3.899  1.00  0.00     0.164 HD
HETATM   16  C16 UNL     1       3.743   0.210  -1.034  1.00  0.00     0.046 A 
HETATM   17  C21 UNL     1       2.415   0.184  -0.641  1.00  0.00     0.046 A 
BRANCH  16  18
HETATM   18  N2  UNL     1       4.754   0.795  -0.251  1.00  0.00    -0.377 N 
HETATM   19  C17 UNL     1       6.059   1.101  -0.784  1.00  0.00     0.150 C 
HETATM   20  C18 UNL     1       7.044   0.234  -0.030  1.00  0.00     0.252 C 
HETATM   21  N3  UNL     1       6.915   0.618   1.371  1.00  0.00    -0.072 N 
HETATM   22  C19 UNL     1       5.621   0.330   1.903  1.00  0.00     0.252 C 
ATOM     23  H32 UNL     1       7.647   0.190   1.937  1.00  0.00     0.277 HD
ATOM     24  H31 UNL     1       7.156   1.600   1.505  1.00  0.00     0.277 HD
HETATM   25  C20 UNL     1       4.533   1.104   1.131  1.00  0.00     0.150 C 
ENDBRANCH  16  18
ENDBRANCH   7  11
BRANCH   1  26
HETATM   26  C1  UNL     1      -2.067   1.019   2.491  1.00  0.00     0.405 C 
HETATM   27  F1  UNL     1      -2.606   2.284   2.617  1.00  0.00    -0.207 F 
HETATM   28  F2  UNL     1      -2.301   0.241   3.603  1.00  0.00    -0.207 F 
ENDBRANCH   1  26
BRANCH   3  29
HETATM   29  C5  UNL     1      -5.898  -0.928  -0.044  1.00  0.00     0.019 C 
HETATM   30  C6  UNL     1      -6.726   0.336   0.219  1.00  0.00     0.009 C 
HETATM   31  C7  UNL     1      -7.719  -0.581   0.940  1.00  0.00     0.001 C 
HETATM   32  C8  UNL     1      -6.525  -1.508   1.206  1.00  0.00     0.009 C 
ENDBRANCH   3  29
TORSDOF 4
