REMARK  13 active torsions:
REMARK  status: ('A' for Active; 'I' for Inactive)
REMARK    1  A    between atoms: C2_2  and  O1_3 
REMARK    2  A    between atoms: C2_2  and  C3_5 
REMARK    3  A    between atoms: C2_2  and  C4_8 
REMARK    4  A    between atoms: C3_5  and  O2_6 
REMARK    5  A    between atoms: C4_8  and  O4_10 
REMARK    6  A    between atoms: O4_10  and  C5_11 
REMARK    7  A    between atoms: C9_15  and  O5_16 
REMARK    8  A    between atoms: O5_16  and  C10_17 
REMARK    9  A    between atoms: C10_17  and  C11_18 
REMARK   10  A    between atoms: C27_36  and  O7_37 
REMARK   11  A    between atoms: C29_40  and  C30_41 
REMARK   12  A    between atoms: C30_41  and  O8_42 
REMARK   13  A    between atoms: O8_42  and  C31_43 
ROOT
HETATM    1  C5  UNL     1       0.829   1.157  -0.527  1.00  0.00     0.143 C 
HETATM    2  C6  UNL     1       2.135   1.247   0.231  1.00  0.00     0.039 C 
HETATM    3  C7  UNL     1       2.527  -0.184   0.524  1.00  0.00    -0.001 C 
HETATM    4  C8  UNL     1       3.955  -0.319   1.024  1.00  0.00     0.037 C 
HETATM    5  C9  UNL     1       4.275  -1.803   0.793  1.00  0.00     0.121 C 
HETATM    6  C12 UNL     1       3.433  -2.557   1.786  1.00  0.00     0.033 C 
HETATM    7  C13 UNL     1       1.973  -2.353   1.547  1.00  0.00     0.012 C 
HETATM    8  C14 UNL     1       1.559  -0.915   1.397  1.00  0.00    -0.035 C 
HETATM    9  C15 UNL     1       1.728  -0.346   2.814  1.00  0.00     0.016 C 
HETATM   10  C16 UNL     1       0.165  -0.760   0.955  1.00  0.00     0.014 C 
HETATM   11  C17 UNL     1      -0.398  -1.840   0.088  1.00  0.00     0.030 C 
HETATM   12  C18 UNL     1       0.033  -2.005  -1.290  1.00  0.00     0.035 C 
HETATM   13  C19 UNL     1      -0.741  -3.149  -1.870  1.00  0.00    -0.022 C 
HETATM   14  C20 UNL     1      -2.057  -3.127  -1.696  1.00  0.00    -0.065 C 
HETATM   15  C21 UNL     1      -2.905  -4.235  -2.248  1.00  0.00     0.113 C 
HETATM   16  C22 UNL     1      -4.342  -3.985  -2.170  1.00  0.00     0.130 C 
HETATM   17  O6  UNL     1      -5.080  -4.410  -3.018  1.00  0.00    -0.298 OA
HETATM   18  C23 UNL     1      -4.935  -3.201  -1.048  1.00  0.00     0.080 C 
HETATM   19  C24 UNL     1      -3.850  -2.598  -0.183  1.00  0.00     0.024 C 
HETATM   20  C25 UNL     1      -2.682  -2.026  -0.964  1.00  0.00     0.011 C 
HETATM   21  C26 UNL     1      -3.300  -0.996  -1.929  1.00  0.00     0.023 C 
HETATM   22  C27 UNL     1      -1.829  -1.265  -0.023  1.00  0.00     0.074 C 
HETATM   23  C28 UNL     1      -1.506   0.158  -0.364  1.00  0.00     0.054 C 
HETATM   24  C29 UNL     1      -0.224   0.536   0.359  1.00  0.00     0.016 C 
ENDROOT
BRANCH   1  25
HETATM   25  O4  UNL     1       0.371   2.390  -1.025  1.00  0.00    -0.313 OA
BRANCH  25  26
HETATM   26  C4  UNL     1       0.331   2.720  -2.355  1.00  0.00     0.295 C 
HETATM   27  O3  UNL     1       0.745   1.819  -3.123  1.00  0.00    -0.262 OA
BRANCH  26  28
HETATM   28  C2  UNL     1      -0.132   3.980  -2.941  1.00  0.00     0.162 C 
HETATM   29  C1  UNL     1       0.730   5.121  -2.438  1.00  0.00     0.059 C 
BRANCH  28  30
HETATM   30  O1  UNL     1       0.017   3.964  -4.344  1.00  0.00    -0.378 OA
ATOM     31  H1  UNL     1      -0.523   3.249  -4.659  1.00  0.00     0.211 HD
ENDBRANCH  28  30
BRANCH  28  32
HETATM   32  C3  UNL     1      -1.610   4.231  -2.706  1.00  0.00     0.212 C 
BRANCH  32  33
HETATM   33  O2  UNL     1      -1.923   4.277  -1.366  1.00  0.00    -0.397 OA
ATOM     34  H2  UNL     1      -2.848   4.434  -1.219  1.00  0.00     0.209 HD
ENDBRANCH  32  33
ENDBRANCH  28  32
ENDBRANCH  26  28
ENDBRANCH  25  26
ENDBRANCH   1  25
BRANCH  24  35
HETATM   35  C30 UNL     1      -0.560   1.639   1.337  1.00  0.00     0.188 C 
BRANCH  35  36
HETATM   36  O8  UNL     1      -1.512   1.360   2.295  1.00  0.00    -0.349 OA
BRANCH  36  37
HETATM   37  C31 UNL     1      -1.843   2.360   3.194  1.00  0.00     0.084 A 
HETATM   38  C32 UNL     1      -2.788   2.084   4.150  1.00  0.00     0.039 A 
HETATM   39  C33 UNL     1      -3.152   3.056   5.073  1.00  0.00     0.020 A 
HETATM   40  C34 UNL     1      -2.562   4.305   5.029  1.00  0.00     0.088 A 
HETATM   41  N1  UNL     1      -1.640   4.521   4.068  1.00  0.00    -0.373 N 
HETATM   42  C35 UNL     1      -1.277   3.602   3.174  1.00  0.00     0.124 A 
ATOM     43  H1  UNL     1      -1.196   5.438   4.023  1.00  0.00     0.164 HD
ENDBRANCH  36  37
ENDBRANCH  35  36
ENDBRANCH  24  35
BRANCH  22  44
HETATM   44  O7  UNL     1      -2.364  -1.363   1.257  1.00  0.00    -0.388 OA
ATOM     45  H7  UNL     1      -3.243  -1.010   1.189  1.00  0.00     0.210 HD
ENDBRANCH  22  44
BRANCH   5  46
HETATM   46  O5  UNL     1       5.594  -2.073   0.824  1.00  0.00    -0.385 OA
BRANCH  46  47
HETATM   47  C10 UNL     1       6.223  -2.544  -0.279  1.00  0.00     0.183 C 
BRANCH  47  48
HETATM   48  C11 UNL     1       6.133  -1.531  -1.393  1.00  0.00     0.140 C 
HETATM   49 CL1  UNL     1       6.955  -2.113  -2.863  1.00  0.00    -0.128 Cl
ENDBRANCH  47  48
ENDBRANCH  46  47
ENDBRANCH   5  46
TORSDOF 13
