REMARK  4 active torsions:
REMARK  status: ('A' for Active; 'I' for Inactive)
REMARK    1  A    between atoms: C2_2  and  C5_5 
REMARK       I    between atoms: C5_5  and  N1_7 
REMARK    2  A    between atoms: N2_12  and  C10_13 
REMARK    3  A    between atoms: C12_17  and  C13_18 
REMARK    4  A    between atoms: C13_18  and  O2_19 
ROOT
HETATM    1  C5  UNL     1      -3.534   0.627  -0.765  1.00  0.00     0.227 C 
HETATM    2  O1  UNL     1      -3.474   1.138  -1.938  1.00  0.00    -0.273 OA
HETATM    3  N1  UNL     1      -2.454  -0.171  -0.357  1.00  0.00    -0.351 N 
HETATM    4  C6  UNL     1      -2.403  -0.797   0.944  1.00  0.00     0.126 C 
HETATM    5  C7  UNL     1      -1.145  -1.679   0.932  1.00  0.00     0.026 C 
HETATM    6  C8  UNL     1       0.031  -0.750   0.795  1.00  0.00     0.012 C 
HETATM    7  C9  UNL     1       1.347  -1.503   0.894  1.00  0.00     0.129 C 
HETATM    8  N2  UNL     1       2.085  -0.952  -0.281  1.00  0.00    -0.364 N 
HETATM    9  C16 UNL     1       1.076  -1.013  -1.279  1.00  0.00     0.131 C 
HETATM   10  C17 UNL     1      -0.013  -0.161  -0.607  1.00  0.00     0.027 C 
HETATM   11  C18 UNL     1      -1.343  -0.379  -1.267  1.00  0.00     0.132 C 
ENDROOT
BRANCH   8  12
HETATM   12  C10 UNL     1       3.411  -0.549  -0.179  1.00  0.00     0.142 A 
HETATM   13  N3  UNL     1       4.088  -0.657   1.000  1.00  0.00    -0.349 N 
HETATM   14  C11 UNL     1       5.368  -0.286   1.157  1.00  0.00     0.099 A 
ATOM     15  H3  UNL     1       3.595  -1.041   1.806  1.00  0.00     0.167 HD
HETATM   16  C12 UNL     1       6.081   0.240   0.095  1.00  0.00    -0.016 A 
HETATM   17  C14 UNL     1       5.441   0.369  -1.119  1.00  0.00     0.057 A 
HETATM   18  C15 UNL     1       4.119  -0.031  -1.219  1.00  0.00     0.160 A 
HETATM   19  F1  UNL     1       3.527   0.111  -2.422  1.00  0.00    -0.202 F 
BRANCH  16  20
HETATM   20  C13 UNL     1       7.486   0.650   0.255  1.00  0.00     0.204 C 
BRANCH  20  21
HETATM   21  O2  UNL     1       7.963   1.142  -0.957  1.00  0.00    -0.396 OA
ATOM     22  H2  UNL     1       8.870   1.407  -0.854  1.00  0.00     0.209 HD
ENDBRANCH  20  21
ENDBRANCH  16  20
ENDBRANCH   8  12
BRANCH   1  23
HETATM   23  C2  UNL     1      -4.739   0.934   0.034  1.00  0.00     0.030 C 
HETATM   24  C1  UNL     1      -5.543  -0.318   0.343  1.00  0.00     0.025 C 
HETATM   25  C3  UNL     1      -5.652   1.827  -0.771  1.00  0.00     0.025 C 
HETATM   26  C4  UNL     1      -4.292   1.618   1.316  1.00  0.00     0.025 C 
ENDBRANCH   1  23
TORSDOF 4
