REMARK  4 active torsions:
REMARK  status: ('A' for Active; 'I' for Inactive)
REMARK    1  A    between atoms: C2_2  and  C3_3 
REMARK    2  A    between atoms: C2_2  and  N2_9 
REMARK    3  A    between atoms: C3_3  and  C4_4 
REMARK    4  A    between atoms: C4_4  and  N1_5 
ROOT
HETATM    1  N2  UNL     1      -0.600   0.091  -0.004  1.00  0.00    -0.364 N 
HETATM    2  C5  UNL     1      -1.410  -1.010  -0.514  1.00  0.00     0.143 C 
HETATM    3  C6  UNL     1      -2.837  -0.586  -0.539  1.00  0.00     0.134 C 
HETATM    4  N3  UNL     1      -3.364  -0.057   0.666  1.00  0.00    -0.413 N 
ATOM      5  H3  UNL     1      -4.366  -0.068   0.858  1.00  0.00     0.153 HD
HETATM    6  C7  UNL     1      -2.434   0.492   1.599  1.00  0.00     0.190 C 
HETATM    7  C8  UNL     1      -1.277   1.021   0.820  1.00  0.00     0.090 C 
HETATM    8  N4  UNL     1      -0.907   2.250   0.881  1.00  0.00    -0.388 N 
ATOM      9  H41 UNL     1      -1.395   2.920   1.475  1.00  0.00     0.157 HD
ATOM     10  H42 UNL     1      -0.116   2.612   0.348  1.00  0.00     0.157 HD
ENDROOT
BRANCH   1  11
HETATM   11  C2  UNL     1       0.786   0.256  -0.295  1.00  0.00     0.083 C 
HETATM   12  C1  UNL     1       1.030   0.417  -1.773  1.00  0.00     0.032 C 
BRANCH  11  13
HETATM   13  C3  UNL     1       1.518  -0.942   0.274  1.00  0.00     0.052 C 
BRANCH  13  14
HETATM   14  C4  UNL     1       3.016  -0.818   0.080  1.00  0.00     0.231 C 
BRANCH  14  15
HETATM   15  N1  UNL     1       3.560   0.321   0.705  1.00  0.00    -0.079 N 
ATOM     16  H13 UNL     1       3.082   1.168   0.398  1.00  0.00     0.274 HD
ATOM     17  H12 UNL     1       3.318   0.343   1.696  1.00  0.00     0.274 HD
ATOM     18  H11 UNL     1       4.568   0.404   0.574  1.00  0.00     0.274 HD
ENDBRANCH  14  15
ENDBRANCH  13  14
ENDBRANCH  11  13
ENDBRANCH   1  11
TORSDOF 4
