REMARK  4 active torsions:
REMARK  status: ('A' for Active; 'I' for Inactive)
REMARK    1  A    between atoms: N1_1  and  C1_4 
REMARK    2  A    between atoms: C2_10  and  N5_11 
REMARK    3  A    between atoms: N5_11  and  C3_13 
REMARK    4  A    between atoms: C3_13  and  C4_14 
ROOT
HETATM    1  C1  UNL     1       2.463  -0.748   0.771  1.00  0.00     0.157 A 
HETATM    2  N2  UNL     1       3.334   0.273   0.708  1.00  0.00    -0.267 N 
ATOM      3  H2  UNL     1       4.210   0.370   1.221  1.00  0.00     0.186 HD
HETATM    4  N3  UNL     1       2.817   1.125  -0.159  1.00  0.00    -0.019 NA
HETATM    5  N4  UNL     1       1.666   0.686  -0.638  1.00  0.00    -0.266 N 
ATOM      6  H4  UNL     1       1.079   1.168  -1.319  1.00  0.00     0.186 HD
HETATM    7  C2  UNL     1       1.401  -0.509  -0.071  1.00  0.00     0.160 A 
ENDROOT
BRANCH   7   8
HETATM    8  N5  UNL     1       0.386  -1.290  -0.249  1.00  0.00    -0.366 N 
ATOM      9  H5  UNL     1       0.346  -2.167   0.270  1.00  0.00     0.161 HD
BRANCH   8  10
HETATM   10  C3  UNL     1      -0.693  -0.968  -1.154  1.00  0.00     0.186 C 
BRANCH  10  11
HETATM   11  C4  UNL     1      -1.721  -0.124  -0.508  1.00  0.00     0.070 A 
HETATM   12  C5  UNL     1      -2.832  -0.539   0.174  1.00  0.00     0.036 A 
HETATM   13  C6  UNL     1      -3.484   0.599   0.591  1.00  0.00     0.027 A 
HETATM   14  C7  UNL     1      -2.743   1.669   0.146  1.00  0.00     0.142 A 
HETATM   15  O1  UNL     1      -1.719   1.178  -0.494  1.00  0.00    -0.325 OA
ENDBRANCH  10  11
ENDBRANCH   8  10
ENDBRANCH   7   8
BRANCH   1  16
HETATM   16  N1  UNL     1       2.616  -1.785   1.515  1.00  0.00    -0.382 N 
ATOM     17  H12 UNL     1       3.403  -1.962   2.139  1.00  0.00     0.157 HD
ATOM     18  H11 UNL     1       1.955  -2.560   1.563  1.00  0.00     0.157 HD
ENDBRANCH   1  16
TORSDOF 4
