REMARK  4 active torsions:
REMARK  status: ('A' for Active; 'I' for Inactive)
REMARK    1  A    between atoms: C2_2  and  N1_3 
REMARK       I    between atoms: N1_3  and  C3_5 
REMARK       I    between atoms: C3_5  and  N3_11 
REMARK       I    between atoms: N2_6  and  C4_8 
REMARK    2  A    between atoms: N3_11  and  O2_13 
REMARK    3  A    between atoms: O2_13  and  C6_14 
REMARK    4  A    between atoms: C9_17  and  N4_18 
REMARK       I    between atoms: N4_18  and  C10_20 
ROOT
HETATM    1  C6  UNL     1       0.492   0.135   0.210  1.00  0.00     0.153 C 
HETATM    2  C7  UNL     1       1.164  -1.063  -0.364  1.00  0.00     0.036 C 
HETATM    3  C8  UNL     1       2.656  -0.820  -0.452  1.00  0.00     0.028 C 
HETATM    4  C9  UNL     1       3.199  -0.140   0.793  1.00  0.00     0.084 C 
HETATM    5  C11 UNL     1       2.521   1.173   1.059  1.00  0.00     0.028 C 
HETATM    6  C12 UNL     1       1.418   1.347   0.026  1.00  0.00     0.036 C 
ENDROOT
BRANCH   1   7
HETATM    7  O2  UNL     1      -0.743   0.437  -0.333  1.00  0.00    -0.261 OA
BRANCH   7   8
HETATM    8  N3  UNL     1      -1.639   0.503   0.693  1.00  0.00    -0.096 N 
HETATM    9  C3  UNL     1      -2.971   0.064   0.614  1.00  0.00     0.700 C 
HETATM   10  N1  UNL     1      -3.998   1.048   0.750  1.00  0.00    -0.225 N 
HETATM   11  N2  UNL     1      -3.281  -1.186   0.427  1.00  0.00    -0.159 N 
ATOM     12  H1  UNL     1      -4.393   1.274   1.663  1.00  0.00     0.177 HD
HETATM   13  C4  UNL     1      -4.648  -1.603   0.356  1.00  0.00     0.232 C 
ATOM     14  H2  UNL     1      -2.539  -1.879   0.330  1.00  0.00     0.187 HD
HETATM   15  C5  UNL     1      -5.042  -2.688  -0.575  1.00  0.00     0.118 C 
HETATM   16  O1  UNL     1      -5.486  -1.029   1.096  1.00  0.00    -0.273 OA
ATOM     17  H3  UNL     1      -1.320   0.898   1.578  1.00  0.00     0.213 HD
BRANCH  10  18
HETATM   18  C2  UNL     1      -4.458   1.712  -0.446  1.00  0.00     0.134 C 
HETATM   19  C1  UNL     1      -3.314   2.590  -0.945  1.00  0.00     0.027 C 
ENDBRANCH  10  18
ENDBRANCH   7   8
ENDBRANCH   1   7
BRANCH   4  20
HETATM   20  N4  UNL     1       4.604   0.117   0.556  1.00  0.00    -0.360 N 
HETATM   21  C10 UNL     1       5.470  -0.989   0.292  1.00  0.00     0.182 C 
HETATM   22  N5  UNL     1       5.331  -2.121   0.880  1.00  0.00    -0.374 N 
HETATM   23  N6  UNL     1       6.503  -0.741  -0.673  1.00  0.00    -0.064 NA
ATOM     24  H52 UNL     1       4.597  -2.297   1.566  1.00  0.00     0.158 HD
ATOM     25  H51 UNL     1       5.949  -2.910   0.692  1.00  0.00     0.158 HD
ATOM     26  H4  UNL     1       4.969   1.069   0.577  1.00  0.00     0.162 HD
ENDBRANCH   4  20
TORSDOF 4
