REMARK  10 active torsions:
REMARK  status: ('A' for Active; 'I' for Inactive)
REMARK    1  A    between atoms: O1_2  and  C2_3 
REMARK    2  A    between atoms: C2_3  and  C3_5 
REMARK    3  A    between atoms: C3_5  and  N1_6 
REMARK    4  A    between atoms: N1_6  and  N2_8 
REMARK    5  A    between atoms: N2_8  and  C4_10 
REMARK    6  A    between atoms: C5_13  and  C6_14 
REMARK    7  A    between atoms: C6_14  and  S1_15 
REMARK    8  A    between atoms: S1_15  and  C7_16 
REMARK    9  A    between atoms: C8_19  and  N5_20 
REMARK   10  A    between atoms: C14_37  and  N11_38 
ROOT
HETATM    1  C4  UNL     1      -1.778  -0.743   0.370  1.00  0.00     0.150 A 
HETATM    2  N3  UNL     1      -0.574  -0.108   0.230  1.00  0.00    -0.342 N 
ATOM      3  H3  UNL     1      -0.372   0.694   0.827  1.00  0.00     0.167 HD
HETATM    4  C5  UNL     1       0.353  -0.496  -0.660  1.00  0.00     0.022 A 
HETATM    5  C11 UNL     1       0.052  -1.584  -1.453  1.00  0.00     0.058 A 
HETATM    6  C12 UNL     1      -1.171  -2.253  -1.330  1.00  0.00     0.084 A 
HETATM    7  C13 UNL     1      -2.104  -1.831  -0.407  1.00  0.00     0.122 A 
HETATM    8  N10 UNL     1      -3.161  -2.646  -0.512  1.00  0.00    -0.186 N 
ATOM      9  H10 UNL     1      -4.010  -2.575   0.049  1.00  0.00     0.184 HD
HETATM   10  C14 UNL     1      -2.941  -3.586  -1.478  1.00  0.00     0.678 A 
HETATM   11  N12 UNL     1      -1.717  -3.312  -1.953  1.00  0.00    -0.185 N 
HETATM   12  C15 UNL     1      -1.070  -4.072  -3.009  1.00  0.00     0.175 C 
ENDROOT
BRANCH   4  13
HETATM   13  C6  UNL     1       1.644   0.244  -0.759  1.00  0.00     0.139 C 
BRANCH  13  14
HETATM   14  S1  UNL     1       2.844  -0.510   0.377  1.00  0.00    -0.087 SA
BRANCH  14  15
HETATM   15  C7  UNL     1       4.369   0.405   0.225  1.00  0.00     0.174 A 
HETATM   16  N4  UNL     1       5.269   0.021  -0.683  1.00  0.00    -0.168 N 
HETATM   17  C8  UNL     1       6.409   0.708  -0.793  1.00  0.00     0.714 A 
ATOM     18  H4  UNL     1       5.089  -0.784  -1.283  1.00  0.00     0.186 HD
HETATM   19  N6  UNL     1       6.683   1.774  -0.022  1.00  0.00     0.091 N 
HETATM   20  N7  UNL     1       7.725   2.598   0.051  1.00  0.00    -0.260 N 
HETATM   21  C10 UNL     1       5.760   2.137   0.881  1.00  0.00     0.721 A 
HETATM   22  C9  UNL     1       7.494   3.519   1.012  1.00  0.00     0.216 A 
ATOM     23  H7  UNL     1       8.564   2.543  -0.526  1.00  0.00     0.189 HD
HETATM   24  N8  UNL     1       6.284   3.224   1.513  1.00  0.00    -0.184 N 
ATOM     25  H8  UNL     1       5.822   3.741   2.261  1.00  0.00     0.185 HD
HETATM   26  N9  UNL     1       4.598   1.463   1.017  1.00  0.00    -0.167 N 
ATOM     27  H9  UNL     1       3.907   1.753   1.709  1.00  0.00     0.186 HD
BRANCH  17  28
HETATM   28  N5  UNL     1       7.274   0.320  -1.682  1.00  0.00    -0.232 N 
ATOM     29  H52 UNL     1       7.066  -0.489  -2.267  1.00  0.00     0.174 HD
ATOM     30  H51 UNL     1       8.145   0.845  -1.766  1.00  0.00     0.174 HD
ENDBRANCH  17  28
ENDBRANCH  14  15
ENDBRANCH  13  14
ENDBRANCH   4  13
BRANCH   1  31
HETATM   31  N2  UNL     1      -2.556  -0.282   1.237  1.00  0.00    -0.287 N 
ATOM     32  H2  UNL     1      -2.174   0.525   1.730  1.00  0.00     0.188 HD
BRANCH  31  33
HETATM   33  N1  UNL     1      -3.797  -0.627   1.659  1.00  0.00    -0.326 N 
ATOM     34  H1  UNL     1      -3.909  -1.470   2.223  1.00  0.00     0.180 HD
BRANCH  33  35
HETATM   35  C3  UNL     1      -4.969   0.160   1.337  1.00  0.00     0.250 C 
BRANCH  35  36
HETATM   36  C2  UNL     1      -4.813   1.534   1.878  1.00  0.00     0.277 C 
HETATM   37  O2  UNL     1      -3.775   1.839   2.500  1.00  0.00    -0.263 OA
BRANCH  36  38
HETATM   38  O1  UNL     1      -5.790   2.502   1.714  1.00  0.00    -0.325 OA
HETATM   39  C1  UNL     1      -5.668   3.818   2.218  1.00  0.00     0.213 C 
ENDBRANCH  36  38
ENDBRANCH  35  36
ENDBRANCH  33  35
ENDBRANCH  31  33
ENDBRANCH   1  31
BRANCH  10  40
HETATM   40  N11 UNL     1      -3.762  -4.523  -1.831  1.00  0.00    -0.234 N 
ATOM     41 2H11 UNL     1      -4.693  -4.731  -1.470  1.00  0.00     0.174 HD
ATOM     42 1H11 UNL     1      -3.598  -5.225  -2.552  1.00  0.00     0.174 HD
ENDBRANCH  10  40
TORSDOF 10
