REMARK  10 active torsions:
REMARK  status: ('A' for Active; 'I' for Inactive)
REMARK    1  A    between atoms: C2_3  and  C3_4 
REMARK       I    between atoms: C3_4  and  N2_6 
REMARK    2  A    between atoms: N2_6  and  N3_8 
REMARK       I    between atoms: N3_8  and  C4_10 
REMARK    3  A    between atoms: C4_10  and  C5_12 
REMARK    4  A    between atoms: C6_13  and  O3_14 
REMARK    5  A    between atoms: N5_20  and  C9_21 
REMARK    6  A    between atoms: C9_21  and  C10_22 
REMARK    7  A    between atoms: C10_22  and  C11_23 
REMARK    8  A    between atoms: C11_23  and  N6_24 
REMARK    9  A    between atoms: C13_30  and  O6_31 
REMARK   10  A    between atoms: N7_33  and  N8_34 
ROOT
HETATM    1  N3  UNL     1      -1.225  -0.557  -0.184  1.00  0.00    -0.263 N 
ATOM      2  H3  UNL     1      -1.323  -1.555  -0.373  1.00  0.00     0.190 HD
HETATM    3  C4  UNL     1       0.029   0.043  -0.185  1.00  0.00     0.280 C 
HETATM    4  O2  UNL     1       0.062   1.299   0.064  1.00  0.00    -0.266 OA
ENDROOT
BRANCH   3   5
HETATM    5  C5  UNL     1       1.279  -0.622  -0.442  1.00  0.00     0.152 A 
HETATM    6  C6  UNL     1       1.443  -1.943  -0.721  1.00  0.00     0.167 A 
HETATM    7  N4  UNL     1       2.696  -2.428  -0.952  1.00  0.00    -0.283 N 
HETATM    8  C7  UNL     1       2.802  -3.840  -1.238  1.00  0.00     0.163 C 
HETATM    9  C8  UNL     1       3.785  -1.665  -0.920  1.00  0.00     0.333 A 
HETATM   10  O4  UNL     1       4.934  -2.141  -1.140  1.00  0.00    -0.246 OA
HETATM   11  N5  UNL     1       3.677  -0.345  -0.647  1.00  0.00    -0.265 N 
HETATM   12  C12 UNL     1       2.465   0.143  -0.419  1.00  0.00     0.271 A 
HETATM   13  O5  UNL     1       2.358   1.372  -0.165  1.00  0.00    -0.267 OA
BRANCH   6  14
HETATM   14  O3  UNL     1       0.359  -2.789  -0.770  1.00  0.00    -0.345 OA
ATOM     15  H3  UNL     1       0.474  -3.712  -0.965  1.00  0.00     0.219 HD
ENDBRANCH   6  14
BRANCH  11  16
HETATM   16  C9  UNL     1       4.902   0.444  -0.631  1.00  0.00     0.139 C 
BRANCH  16  17
HETATM   17  C10 UNL     1       5.520   0.447   0.756  1.00  0.00     0.048 C 
BRANCH  17  18
HETATM   18  C11 UNL     1       6.795   1.271   0.712  1.00  0.00     0.231 C 
BRANCH  18  19
HETATM   19  N6  UNL     1       6.441   2.607   0.316  1.00  0.00    -0.079 N 
ATOM     20  H63 UNL     1       5.921   2.635  -0.561  1.00  0.00     0.274 HD
ATOM     21  H62 UNL     1       5.723   3.020   0.912  1.00  0.00     0.274 HD
ATOM     22  H61 UNL     1       7.297   3.160   0.286  1.00  0.00     0.274 HD
ENDBRANCH  18  19
ENDBRANCH  17  18
ENDBRANCH  16  17
ENDBRANCH  11  16
ENDBRANCH   3   5
BRANCH   1  23
HETATM   23  N2  UNL     1      -2.393   0.262   0.091  1.00  0.00    -0.262 N 
HETATM   24  C3  UNL     1      -3.654  -0.286  -0.157  1.00  0.00     0.291 C 
HETATM   25  O1  UNL     1      -3.672  -1.500  -0.619  1.00  0.00    -0.264 OA
ATOM     26  H2  UNL     1      -2.295   1.210   0.455  1.00  0.00     0.190 HD
BRANCH  24  27
HETATM   27  C2  UNL     1      -4.935   0.365   0.050  1.00  0.00     0.159 A 
HETATM   28  N1  UNL     1      -5.182   1.591   0.509  1.00  0.00    -0.319 N 
HETATM   29  C1  UNL     1      -4.278   2.614   0.936  1.00  0.00     0.159 C 
HETATM   30  C14 UNL     1      -6.545   1.760   0.529  1.00  0.00     0.202 A 
HETATM   31  N7  UNL     1      -7.106   0.630   0.079  1.00  0.00    -0.211 N 
HETATM   32  S1  UNL     1      -7.321   3.120   1.019  1.00  0.00    -0.038 SA
HETATM   33  C13 UNL     1      -6.175  -0.257  -0.228  1.00  0.00     0.197 A 
BRANCH  31  34
HETATM   34  N8  UNL     1      -8.481   0.402  -0.053  1.00  0.00    -0.334 N 
ATOM     35  H82 UNL     1      -8.908  -0.459  -0.396  1.00  0.00     0.177 HD
ATOM     36  H81 UNL     1      -9.199   1.086   0.184  1.00  0.00     0.177 HD
ENDBRANCH  31  34
BRANCH  33  37
HETATM   37  O6  UNL     1      -6.312  -1.551  -0.726  1.00  0.00    -0.343 OA
ATOM     38  H6  UNL     1      -7.145  -1.969  -0.913  1.00  0.00     0.219 HD
ENDBRANCH  33  37
ENDBRANCH  24  27
ENDBRANCH   1  23
TORSDOF 10
