REMARK  5 active torsions:
REMARK  status: ('A' for Active; 'I' for Inactive)
REMARK       I    between atoms: C1_2  and  N1_3 
REMARK    1  A    between atoms: C1_2  and  C22_30 
REMARK    2  A    between atoms: N1_3  and  C2_5 
REMARK    3  A    between atoms: C4_7  and  C5_8 
REMARK    4  A    between atoms: C9_12  and  N2_13 
REMARK    5  A    between atoms: C12_18  and  C13_19 
ROOT
HETATM    1  C2  UNL     1       1.505  -0.372  -0.179  1.00  0.00     0.036 A 
HETATM    2  C3  UNL     1       1.521   1.027  -0.315  1.00  0.00     0.042 A 
HETATM    3  C4  UNL     1       0.394   1.801  -0.354  1.00  0.00    -0.023 A 
HETATM    4  C11 UNL     1      -0.814   1.144  -0.252  1.00  0.00     0.026 A 
HETATM    5  C12 UNL     1      -0.891  -0.221  -0.117  1.00  0.00    -0.006 A 
HETATM    6  C21 UNL     1       0.278  -0.988  -0.080  1.00  0.00     0.043 A 
ENDROOT
BRANCH   1   7
HETATM    7  N1  UNL     1       2.714  -1.104  -0.161  1.00  0.00    -0.322 N 
HETATM    8  C1  UNL     1       2.913  -2.453   0.174  1.00  0.00     0.272 C 
HETATM    9  O1  UNL     1       2.017  -3.229   0.519  1.00  0.00    -0.266 OA
ATOM     10  H1  UNL     1       3.551  -0.585  -0.426  1.00  0.00     0.169 HD
BRANCH   8  11
HETATM   11  C22 UNL     1       4.296  -2.992   0.109  1.00  0.00     0.100 A 
HETATM   12  C23 UNL     1       4.684  -4.280   0.403  1.00  0.00     0.036 A 
HETATM   13  C24 UNL     1       6.040  -4.393   0.226  1.00  0.00     0.019 A 
HETATM   14  C25 UNL     1       6.478  -3.150  -0.182  1.00  0.00     0.088 A 
HETATM   15  N4  UNL     1       5.407  -2.336  -0.240  1.00  0.00    -0.361 N 
ATOM     16  H4  UNL     1       5.439  -1.354  -0.513  1.00  0.00     0.165 HD
ENDBRANCH   8  11
ENDBRANCH   1   7
BRANCH   3  17
HETATM   17  C5  UNL     1       0.534   3.242  -0.498  1.00  0.00    -0.024 A 
HETATM   18  C6  UNL     1       1.586   3.774  -1.214  1.00  0.00     0.012 A 
HETATM   19  C7  UNL     1       1.727   5.139  -1.357  1.00  0.00     0.003 A 
HETATM   20  C8  UNL     1       0.817   5.990  -0.786  1.00  0.00     0.036 A 
HETATM   21  C9  UNL     1      -0.245   5.505  -0.065  1.00  0.00     0.103 A 
HETATM   22  C10 UNL     1      -0.365   4.125   0.065  1.00  0.00     0.048 A 
BRANCH  21  23
HETATM   23  N2  UNL     1      -1.209   6.368   0.542  1.00  0.00    -0.116 N 
HETATM   24  O2  UNL     1      -1.082   7.596   0.412  1.00  0.00    -0.532 OA
HETATM   25  O3  UNL     1      -2.273   5.895   1.265  1.00  0.00    -0.532 OA
ENDBRANCH  21  23
ENDBRANCH   3  17
BRANCH   5  26
HETATM   26  C13 UNL     1      -2.200  -0.869  -0.013  1.00  0.00     0.043 A 
HETATM   27  C14 UNL     1      -2.418  -2.233   0.127  1.00  0.00     0.044 A 
HETATM   28  C15 UNL     1      -3.776  -2.477   0.193  1.00  0.00    -0.007 A 
HETATM   29  C16 UNL     1      -4.547  -3.614   0.327  1.00  0.00     0.014 A 
HETATM   30  C20 UNL     1      -4.380  -1.241   0.091  1.00  0.00     0.043 A 
HETATM   31  C17 UNL     1      -5.925  -3.567   0.366  1.00  0.00     0.001 A 
HETATM   32  C18 UNL     1      -6.536  -2.335   0.265  1.00  0.00     0.002 A 
HETATM   33  C19 UNL     1      -5.758  -1.204   0.130  1.00  0.00     0.030 A 
HETATM   34  N3  UNL     1      -3.415  -0.309  -0.030  1.00  0.00    -0.355 N 
ATOM     35  H3  UNL     1      -3.588   0.692  -0.122  1.00  0.00     0.166 HD
ENDBRANCH   5  26
TORSDOF 5
