REMARK  1 active torsions:
REMARK  status: ('A' for Active; 'I' for Inactive)
REMARK    1  A    between atoms: C4_5  and  C5_6 
ROOT
HETATM    1  C1  UNL     1      -4.676  -2.150  -1.044  1.00  0.00     0.154 C 
HETATM    2  N1  UNL     1      -3.677  -1.135  -0.808  1.00  0.00    -0.368 N 
HETATM    3  C2  UNL     1      -2.487  -1.550  -0.436  1.00  0.00     0.119 C 
HETATM    4  C3  UNL     1      -1.302  -0.691  -0.136  1.00  0.00     0.056 C 
HETATM    5  C4  UNL     1      -0.170  -1.194  -0.420  1.00  0.00     0.050 C 
HETATM    6  N2  UNL     1      -1.465   0.574   0.489  1.00  0.00    -0.321 N 
HETATM    7  C13 UNL     1      -0.613   1.046   1.391  1.00  0.00     0.097 A 
HETATM    8  C14 UNL     1      -1.068   2.294   1.792  1.00  0.00     0.020 A 
HETATM    9  C15 UNL     1      -2.231   2.568   1.106  1.00  0.00     0.031 A 
HETATM   10  C16 UNL     1      -2.467   1.481   0.294  1.00  0.00     0.040 A 
HETATM   11  C17 UNL     1      -3.638   1.357  -0.563  1.00  0.00     0.047 C 
HETATM   12  C18 UNL     1      -4.134   0.202  -1.022  1.00  0.00     0.092 C 
ENDROOT
BRANCH   5  13
HETATM   13  C5  UNL     1       1.168  -0.644  -0.283  1.00  0.00     0.008 A 
HETATM   14  C6  UNL     1       2.269  -1.240   0.287  1.00  0.00     0.031 A 
HETATM   15  C7  UNL     1       3.426  -0.557   0.242  1.00  0.00    -0.018 A 
HETATM   16  C8  UNL     1       4.670  -0.968   0.760  1.00  0.00     0.013 A 
HETATM   17  C12 UNL     1       3.419   0.663  -0.361  1.00  0.00     0.015 A 
HETATM   18  C9  UNL     1       5.768  -0.187   0.654  1.00  0.00     0.001 A 
HETATM   19  C10 UNL     1       5.769   1.041   0.048  1.00  0.00     0.001 A 
HETATM   20  C11 UNL     1       4.560   1.467  -0.468  1.00  0.00     0.019 A 
HETATM   21  S1  UNL     1       1.797   0.834  -0.854  1.00  0.00    -0.090 SA
ENDBRANCH   5  13
TORSDOF 1
