REMARK  6 active torsions:
REMARK  status: ('A' for Active; 'I' for Inactive)
REMARK    1  A    between atoms: C2_2  and  O1_3 
REMARK    2  A    between atoms: O1_3  and  C3_4 
REMARK    3  A    between atoms: C3_4  and  C4_6 
REMARK    4  A    between atoms: C4_6  and  C5_8 
REMARK    5  A    between atoms: C8_11  and  N1_12 
REMARK       I    between atoms: N1_12  and  C9_14 
REMARK    6  A    between atoms: C9_14  and  C10_16 
REMARK       I    between atoms: N2_18  and  C12_19 
REMARK       I    between atoms: C12_19  and  N3_21 
ROOT
HETATM    1  C10 UNL     1      -2.188  -0.526  -1.124  1.00  0.00     0.143 C 
HETATM    2  C11 UNL     1      -3.404  -0.333  -0.231  1.00  0.00     0.157 C 
HETATM    3  N2  UNL     1      -3.621   1.097  -0.119  1.00  0.00    -0.332 N 
HETATM    4  C12 UNL     1      -4.597   1.630   0.780  1.00  0.00     0.320 C 
HETATM    5  O5  UNL     1      -4.692   2.922   0.755  1.00  0.00    -0.247 OA
HETATM    6  N3  UNL     1      -5.442   0.986   1.661  1.00  0.00    -0.330 N 
HETATM    7  C13 UNL     1      -6.369   1.805   2.465  1.00  0.00     0.153 C 
HETATM    8  C14 UNL     1      -6.370   1.392   3.916  1.00  0.00     0.187 C 
HETATM    9  O6  UNL     1      -6.463   0.004   4.050  1.00  0.00    -0.388 OA
HETATM   10  C15 UNL     1      -6.711  -0.623   2.855  1.00  0.00     0.187 C 
HETATM   11  C16 UNL     1      -5.514  -0.422   1.893  1.00  0.00     0.153 C 
HETATM   12  C17 UNL     1      -2.853   2.054  -0.903  1.00  0.00     0.128 C 
HETATM   13  C18 UNL     1      -2.556   1.643  -2.314  1.00  0.00     0.028 C 
HETATM   14  C19 UNL     1      -2.507   0.166  -2.386  1.00  0.00     0.034 C 
HETATM   15  C20 UNL     1      -1.693  -0.479  -3.424  1.00  0.00     0.131 C 
HETATM   16  N4  UNL     1      -1.462  -1.810  -2.899  1.00  0.00    -0.355 N 
HETATM   17  C21 UNL     1      -0.676  -2.818  -3.582  1.00  0.00     0.152 C 
HETATM   18  C22 UNL     1      -2.129  -1.950  -1.631  1.00  0.00     0.239 C 
HETATM   19  O7  UNL     1      -2.538  -2.997  -1.117  1.00  0.00    -0.272 OA
ENDROOT
BRANCH   1  20
HETATM   20  C9  UNL     1      -0.952  -0.299  -0.431  1.00  0.00     0.238 C 
HETATM   21  N1  UNL     1       0.363  -0.289  -0.897  1.00  0.00    -0.355 N 
ATOM     22  H1  UNL     1       0.508  -0.468  -1.891  1.00  0.00     0.162 HD
HETATM   23  O4  UNL     1      -1.051  -0.064   0.836  1.00  0.00    -0.272 OA
BRANCH  21  24
HETATM   24  C8  UNL     1       1.544  -0.045  -0.084  1.00  0.00     0.084 C 
HETATM   25  C7  UNL     1       2.506  -1.196  -0.170  1.00  0.00     0.026 C 
HETATM   26  C6  UNL     1       3.788  -0.849   0.519  1.00  0.00     0.015 C 
HETATM   27  C5  UNL     1       4.320   0.514   0.221  1.00  0.00     0.066 C 
HETATM   28  C24 UNL     1       3.596   1.032  -1.010  1.00  0.00     0.015 C 
HETATM   29  C23 UNL     1       2.149   1.249  -0.587  1.00  0.00     0.026 C 
BRANCH  27  30
HETATM   30  C4  UNL     1       5.782   0.416  -0.016  1.00  0.00     0.228 C 
HETATM   31  O3  UNL     1       6.221   0.794  -1.136  1.00  0.00    -0.286 OA
BRANCH  30  32
HETATM   32  C3  UNL     1       6.694  -0.088   0.976  1.00  0.00     0.329 C 
HETATM   33  O2  UNL     1       6.263  -0.467   2.101  1.00  0.00    -0.256 OA
BRANCH  32  34
HETATM   34  O1  UNL     1       8.040  -0.168   0.728  1.00  0.00    -0.316 OA
BRANCH  34  35
HETATM   35  C2  UNL     1       8.968  -0.664   1.694  1.00  0.00     0.175 C 
HETATM   36  C1  UNL     1      10.378  -0.638   1.145  1.00  0.00     0.034 C 
ENDBRANCH  34  35
ENDBRANCH  32  34
ENDBRANCH  30  32
ENDBRANCH  27  30
ENDBRANCH  21  24
ENDBRANCH   1  20
TORSDOF 6
