REMARK  1 active torsions:
REMARK  status: ('A' for Active; 'I' for Inactive)
REMARK    1  A    between atoms: N1_6  and  C4_8 
ROOT
HETATM    1  S1  UNL     1      -1.104   5.022   1.010  1.00  0.00    -0.072 SA
HETATM    2  C1  UNL     1      -1.587   3.475   0.953  1.00  0.00     0.079 C 
HETATM    3  S2  UNL     1      -3.308   3.102   1.196  1.00  0.00    -0.111 SA
HETATM    4  C2  UNL     1      -3.445   1.296   1.322  1.00  0.00     0.138 C 
HETATM    5  C3  UNL     1      -2.432   0.707   0.420  1.00  0.00     0.030 C 
HETATM    6  N1  UNL     1      -2.717  -0.208  -0.474  1.00  0.00    -0.358 N 
ATOM      7  H1  UNL     1      -2.005  -0.604  -1.088  1.00  0.00     0.166 HD
HETATM    8  C10 UNL     1      -1.016   1.100   0.455  1.00  0.00     0.001 A 
HETATM    9  C11 UNL     1      -0.043   0.131   0.227  1.00  0.00     0.026 A 
HETATM   10  C12 UNL     1       1.301   0.431   0.244  1.00  0.00    -0.021 A 
HETATM   11  C13 UNL     1       2.297  -0.527   0.018  1.00  0.00     0.045 A 
HETATM   12  C14 UNL     1       3.637  -0.216   0.038  1.00  0.00     0.072 A 
HETATM   13  C15 UNL     1       4.587  -1.190  -0.190  1.00  0.00     0.036 A 
HETATM   14  C16 UNL     1       4.256  -2.502  -0.446  1.00  0.00     0.103 A 
HETATM   15  N2  UNL     1       5.277  -3.368  -0.654  1.00  0.00    -0.374 N 
ATOM     16  H2  UNL     1       5.055  -4.345  -0.845  1.00  0.00     0.164 HD
HETATM   17  C17 UNL     1       6.553  -3.002  -0.621  1.00  0.00     0.090 A 
HETATM   18  C18 UNL     1       6.897  -1.705  -0.369  1.00  0.00     0.049 A 
HETATM   19  C19 UNL     1       5.914  -0.774  -0.149  1.00  0.00     0.064 A 
HETATM   20  N3  UNL     1       6.201   0.521   0.105  1.00  0.00    -0.285 N 
ATOM     21  H3  UNL     1       7.174   0.825   0.136  1.00  0.00     0.188 HD
HETATM   22  N4  UNL     1       5.240   1.395   0.313  1.00  0.00    -0.236 N 
ATOM     23  H4  UNL     1       5.495   2.365   0.501  1.00  0.00     0.209 HD
HETATM   24  N5  UNL     1       3.967   1.074   0.289  1.00  0.00    -0.252 N 
HETATM   25  C20 UNL     1       3.020   2.026   0.512  1.00  0.00     0.130 A 
HETATM   26  C21 UNL     1       1.677   1.728   0.495  1.00  0.00    -0.007 A 
HETATM   27  C22 UNL     1       0.729   2.724   0.727  1.00  0.00     0.028 A 
HETATM   28  C23 UNL     1      -0.628   2.415   0.708  1.00  0.00     0.005 A 
ENDROOT
BRANCH   6  29
HETATM   29  C4  UNL     1      -4.078  -0.616  -0.537  1.00  0.00     0.032 A 
HETATM   30  C5  UNL     1      -4.984  -0.053  -1.410  1.00  0.00     0.029 A 
HETATM   31  C6  UNL     1      -6.308  -0.426  -1.497  1.00  0.00     0.002 A 
HETATM   32  C7  UNL     1      -6.775  -1.420  -0.668  1.00  0.00     0.000 A 
HETATM   33  C8  UNL     1      -5.904  -2.007   0.218  1.00  0.00     0.002 A 
HETATM   34  C9  UNL     1      -4.574  -1.620   0.292  1.00  0.00     0.029 A 
ENDBRANCH   6  29
TORSDOF 1
