REMARK  13 active torsions:
REMARK  status: ('A' for Active; 'I' for Inactive)
REMARK    1  A    between atoms: C8_8  and  C9_9 
REMARK    2  A    between atoms: C9_9  and  C10_10 
REMARK    3  A    between atoms: C10_10  and  C11_11 
REMARK    4  A    between atoms: C25_31  and  C26_32 
REMARK    5  A    between atoms: C26_32  and  C27_33 
REMARK    6  A    between atoms: C26_32  and  C28_35 
REMARK    7  A    between atoms: C28_35  and  C29_36 
REMARK    8  A    between atoms: C29_36  and  C30_37 
REMARK    9  A    between atoms: C30_37  and  N3_38 
REMARK       I    between atoms: N3_38  and  C31_40 
REMARK   10  A    between atoms: C31_40  and  C32_42 
REMARK   11  A    between atoms: C32_42  and  O3_43 
REMARK   12  A    between atoms: C32_42  and  C33_45 
REMARK   13  A    between atoms: C33_45  and  C34_46 
ROOT
HETATM    1  C1  UNL     1       0.831  -0.953   2.758  1.00  0.00     0.016 C 
HETATM    2  C2  UNL     1       0.730  -1.108   1.256  1.00  0.00    -0.036 C 
HETATM    3  C3  UNL     1       0.443  -2.601   1.044  1.00  0.00     0.010 C 
HETATM    4  C4  UNL     1      -0.882  -2.904   0.463  1.00  0.00     0.007 C 
HETATM    5  C5  UNL     1      -1.931  -2.044   1.110  1.00  0.00     0.004 C 
HETATM    6  C6  UNL     1      -1.694  -0.634   0.648  1.00  0.00    -0.004 C 
HETATM    7  C7  UNL     1      -2.397  -0.519  -0.712  1.00  0.00     0.011 C 
HETATM    8  C8  UNL     1      -3.865  -0.767  -0.631  1.00  0.00    -0.005 C 
HETATM    9  C16 UNL     1      -4.121  -2.176  -0.179  1.00  0.00    -0.026 C 
HETATM   10  C17 UNL     1      -5.597  -2.340   0.229  1.00  0.00     0.016 C 
HETATM   11  C18 UNL     1      -3.968  -3.107  -1.353  1.00  0.00     0.030 C 
HETATM   12  C19 UNL     1      -4.239  -4.545  -1.001  1.00  0.00     0.123 C 
HETATM   13  N2  UNL     1      -3.573  -4.954   0.210  1.00  0.00    -0.361 N 
ATOM     14  H2  UNL     1      -3.299  -5.929   0.334  1.00  0.00     0.162 HD
HETATM   15  C20 UNL     1      -3.300  -4.019   1.219  1.00  0.00     0.223 C 
HETATM   16  O1  UNL     1      -3.016  -4.428   2.382  1.00  0.00    -0.273 OA
HETATM   17  C21 UNL     1      -3.322  -2.529   1.009  1.00  0.00     0.091 C 
HETATM   18  C22 UNL     1      -0.268  -0.235   0.586  1.00  0.00    -0.002 C 
HETATM   19  C23 UNL     1       0.264  -0.016  -0.789  1.00  0.00     0.006 C 
HETATM   20  C24 UNL     1       1.486  -0.944  -0.901  1.00  0.00     0.006 C 
HETATM   21  C25 UNL     1       2.009  -0.824   0.522  1.00  0.00    -0.001 C 
ENDROOT
BRANCH  21  22
HETATM   22  C26 UNL     1       2.708   0.427   0.654  1.00  0.00     0.000 C 
BRANCH  22  23
HETATM   23  C27 UNL     1       3.170   0.896   2.008  1.00  0.00     0.091 C 
HETATM   24  S1  UNL     1       4.009   2.507   1.730  1.00  0.00    -0.097 SA
ENDBRANCH  22  23
BRANCH  22  25
HETATM   25  C28 UNL     1       3.988   0.407  -0.167  1.00  0.00     0.007 C 
BRANCH  25  26
HETATM   26  C29 UNL     1       4.943  -0.690   0.241  1.00  0.00     0.020 C 
BRANCH  26  27
HETATM   27  C30 UNL     1       6.203  -0.645  -0.626  1.00  0.00     0.122 C 
BRANCH  27  28
HETATM   28  N3  UNL     1       6.900   0.586  -0.520  1.00  0.00    -0.359 N 
HETATM   29  C31 UNL     1       8.091   0.802  -1.256  1.00  0.00     0.246 C 
HETATM   30  O2  UNL     1       8.504  -0.124  -1.998  1.00  0.00    -0.271 OA
ATOM     31  H3  UNL     1       6.541   1.320   0.090  1.00  0.00     0.162 HD
BRANCH  29  32
HETATM   32  C32 UNL     1       8.864   2.066  -1.187  1.00  0.00     0.219 C 
BRANCH  32  33
HETATM   33  O3  UNL     1       8.297   2.991  -0.333  1.00  0.00    -0.386 OA
ATOM     34  H3  UNL     1       8.792   3.801  -0.289  1.00  0.00     0.210 HD
ENDBRANCH  32  33
BRANCH  32  35
HETATM   35  C33 UNL     1      10.298   1.860  -0.833  1.00  0.00     0.154 C 
BRANCH  35  36
HETATM   36  C34 UNL     1      10.985   3.175  -0.787  1.00  0.00     0.175 C 
HETATM   37  O4  UNL     1      10.347   4.227  -1.027  1.00  0.00    -0.648 OA
HETATM   38  O5  UNL     1      12.333   3.294  -0.483  1.00  0.00    -0.648 OA
ENDBRANCH  35  36
ENDBRANCH  32  35
ENDBRANCH  29  32
ENDBRANCH  27  28
ENDBRANCH  26  27
ENDBRANCH  25  26
ENDBRANCH  22  25
ENDBRANCH  21  22
BRANCH   8  39
HETATM   39  C9  UNL     1      -4.658   0.262   0.112  1.00  0.00     0.006 C 
BRANCH  39  40
HETATM   40  C10 UNL     1      -4.541   1.636  -0.503  1.00  0.00     0.005 C 
BRANCH  40  41
HETATM   41  C11 UNL     1      -5.308   2.686   0.213  1.00  0.00    -0.011 C 
HETATM   42  C12 UNL     1      -6.797   2.446   0.288  1.00  0.00     0.032 C 
HETATM   43  C13 UNL     1      -7.467   2.541  -1.063  1.00  0.00     0.232 C 
HETATM   44  N1  UNL     1      -7.383   3.943  -1.453  1.00  0.00    -0.075 N 
HETATM   45  C14 UNL     1      -5.979   4.249  -1.649  1.00  0.00     0.232 C 
ATOM     46  H12 UNL     1      -7.958   4.167  -2.265  1.00  0.00     0.277 HD
ATOM     47  H11 UNL     1      -7.840   4.570  -0.791  1.00  0.00     0.277 HD
HETATM   48  C15 UNL     1      -5.142   4.062  -0.415  1.00  0.00     0.032 C 
ENDBRANCH  40  41
ENDBRANCH  39  40
ENDBRANCH   8  39
TORSDOF 13
