REMARK  6 active torsions:
REMARK  status: ('A' for Active; 'I' for Inactive)
REMARK    1  A    between atoms: C2_2  and  C3_3 
REMARK    2  A    between atoms: C3_3  and  O1_4 
REMARK    3  A    between atoms: O1_4  and  C4_5 
REMARK    4  A    between atoms: C4_5  and  C5_7 
REMARK    5  A    between atoms: C12_15  and  O3_16 
REMARK    6  A    between atoms: C14_20  and  O4_21 
ROOT
HETATM    1  C5  UNL     1       2.128   1.744   0.061  1.00  0.00     0.088 C 
HETATM    2  C6  UNL     1       0.984   1.267  -0.428  1.00  0.00    -0.035 C 
HETATM    3  C7  UNL     1       0.909  -0.180  -0.715  1.00  0.00     0.038 C 
HETATM    4  C8  UNL     1      -0.535  -0.492  -1.134  1.00  0.00     0.014 C 
HETATM    5  C9  UNL     1      -1.389   0.264  -0.158  1.00  0.00     0.030 C 
HETATM    6  C10 UNL     1      -2.650  -0.332   0.222  1.00  0.00    -0.003 A 
HETATM    7  C11 UNL     1      -2.665  -1.616   0.706  1.00  0.00     0.158 A 
HETATM    8  F1  UNL     1      -1.555  -2.387   0.869  1.00  0.00    -0.203 F 
HETATM    9  C12 UNL     1      -3.873  -2.171   1.065  1.00  0.00     0.129 A 
HETATM   10  C13 UNL     1      -5.065  -1.484   0.957  1.00  0.00     0.103 A 
HETATM   11 CL1  UNL     1      -6.561  -2.264   1.435  1.00  0.00    -0.078 Cl
HETATM   12  C14 UNL     1      -5.041  -0.201   0.473  1.00  0.00     0.097 A 
HETATM   13  C15 UNL     1      -3.814   0.382   0.102  1.00  0.00    -0.013 A 
HETATM   14  C16 UNL     1      -3.922   1.777  -0.393  1.00  0.00     0.042 C 
HETATM   15  C17 UNL     1      -2.586   2.470  -0.272  1.00  0.00     0.013 C 
HETATM   16  C18 UNL     1      -1.467   1.642  -0.780  1.00  0.00     0.038 C 
HETATM   17  C19 UNL     1      -0.107   2.250  -0.638  1.00  0.00     0.141 C 
HETATM   18 CL2  UNL     1      -0.134   3.407   0.731  1.00  0.00    -0.096 Cl
HETATM   19 CL3  UNL     1       0.271   3.152  -2.122  1.00  0.00    -0.096 Cl
ENDROOT
BRANCH   1  20
HETATM   20  C4  UNL     1       3.296   0.915   0.324  1.00  0.00     0.283 C 
HETATM   21  O2  UNL     1       4.309   1.512   0.789  1.00  0.00    -0.260 OA
BRANCH  20  22
HETATM   22  O1  UNL     1       3.405  -0.425   0.121  1.00  0.00    -0.318 OA
BRANCH  22  23
HETATM   23  C3  UNL     1       4.520  -1.227   0.368  1.00  0.00     0.178 C 
BRANCH  23  24
HETATM   24  C2  UNL     1       5.748  -0.866  -0.412  1.00  0.00     0.022 C 
HETATM   25  C1  UNL     1       6.876  -1.835  -0.034  1.00  0.00     0.007 C 
ENDBRANCH  23  24
ENDBRANCH  22  23
ENDBRANCH  20  22
ENDBRANCH   1  20
BRANCH   9  26
HETATM   26  O3  UNL     1      -3.912  -3.468   1.555  1.00  0.00    -0.356 OA
ATOM     27  H3  UNL     1      -4.745  -3.851   1.803  1.00  0.00     0.218 HD
ENDBRANCH   9  26
BRANCH  12  28
HETATM   28  O4  UNL     1      -6.222   0.518   0.352  1.00  0.00    -0.358 OA
ATOM     29  H4  UNL     1      -6.205   1.407   0.017  1.00  0.00     0.217 HD
ENDBRANCH  12  28
TORSDOF 6
