REMARK  5 active torsions:
REMARK  status: ('A' for Active; 'I' for Inactive)
REMARK    1  A    between atoms: C1_2  and  C2_3 
REMARK       I    between atoms: C1_2  and  N1_12 
REMARK    2  A    between atoms: C2_3  and  O2_4 
REMARK    3  A    between atoms: O2_4  and  C3_5 
REMARK    4  A    between atoms: C3_5  and  C4_7 
REMARK    5  A    between atoms: N1_12  and  C8_14 
ROOT
HETATM    1  O1  UNL     1       0.841   0.257   0.088  1.00  0.00    -0.271 OA
HETATM    2  C1  UNL     1       0.480  -0.473   1.046  1.00  0.00     0.242 C 
HETATM    3  N1  UNL     1      -0.889  -0.786   1.277  1.00  0.00    -0.350 N 
ATOM      4  H1  UNL     1      -1.111  -1.383   2.074  1.00  0.00     0.163 HD
ENDROOT
BRANCH   3   5
HETATM    5  C8  UNL     1      -1.973  -0.324   0.474  1.00  0.00     0.034 C 
HETATM    6  C9  UNL     1      -1.857  -0.792  -0.974  1.00  0.00     0.035 C 
HETATM    7  C10 UNL     1      -3.096  -0.414  -1.745  1.00  0.00    -0.012 C 
HETATM    8  C11 UNL     1      -4.294  -1.032  -1.103  1.00  0.00     0.009 C 
HETATM    9  C15 UNL     1      -3.194   1.085  -1.794  1.00  0.00     0.009 C 
HETATM   10  C12 UNL     1      -4.480  -0.432   0.273  1.00  0.00    -0.012 C 
HETATM   11  C13 UNL     1      -4.561   1.087   0.221  1.00  0.00     0.009 C 
HETATM   12  C17 UNL     1      -3.280  -0.789   1.085  1.00  0.00     0.035 C 
HETATM   13  C14 UNL     1      -3.279   1.581  -0.367  1.00  0.00    -0.012 C 
HETATM   14  C16 UNL     1      -2.056   1.189   0.406  1.00  0.00     0.035 C 
ENDBRANCH   3   5
BRANCH   2  15
HETATM   15  C2  UNL     1       1.545  -1.002   1.936  1.00  0.00     0.281 C 
BRANCH  15  16
HETATM   16  O2  UNL     1       2.839  -0.650   1.585  1.00  0.00    -0.310 OA
BRANCH  16  17
HETATM   17  C3  UNL     1       3.484  -0.965   0.422  1.00  0.00     0.288 C 
HETATM   18  O3  UNL     1       2.901  -1.639  -0.449  1.00  0.00    -0.262 OA
BRANCH  17  19
HETATM   19  C4  UNL     1       4.866  -0.507   0.205  1.00  0.00     0.221 C 
HETATM   20  C5  UNL     1       4.856   1.002   0.075  1.00  0.00     0.044 C 
HETATM   21  C6  UNL     1       6.190   1.247  -0.620  1.00  0.00     0.029 C 
HETATM   22  C7  UNL     1       6.545  -0.134  -1.118  1.00  0.00     0.169 C 
HETATM   23  O4  UNL     1       5.388  -0.902  -1.016  1.00  0.00    -0.376 OA
ENDBRANCH  17  19
ENDBRANCH  16  17
ENDBRANCH  15  16
ENDBRANCH   2  15
TORSDOF 5
