REMARK  8 active torsions:
REMARK  status: ('A' for Active; 'I' for Inactive)
REMARK    1  A    between atoms: C3_3  and  O1_4 
REMARK    2  A    between atoms: C6_8  and  N1_9 
REMARK       I    between atoms: N1_9  and  C7_11 
REMARK    3  A    between atoms: C7_11  and  C8_13 
REMARK       I    between atoms: N2_17  and  C12_18 
REMARK       I    between atoms: C12_18  and  N3_20 
REMARK    4  A    between atoms: C16_24  and  C17_25 
REMARK       I    between atoms: C17_25  and  N4_27 
REMARK    5  A    between atoms: N4_27  and  C18_29 
REMARK    6  A    between atoms: C18_29  and  C19_30 
REMARK    7  A    between atoms: C18_29  and  C26_37 
REMARK    8  A    between atoms: C19_30  and  C20_31 
ROOT
HETATM    1  C8  UNL     1      -4.008   1.322   0.134  1.00  0.00     0.181 C 
HETATM    2  C9  UNL     1      -4.658   2.068   1.289  1.00  0.00     0.037 C 
HETATM    3  C10 UNL     1      -4.450   3.497   0.890  1.00  0.00     0.022 C 
HETATM    4  C11 UNL     1      -3.092   3.459   0.184  1.00  0.00     0.129 C 
HETATM    5  N2  UNL     1      -2.893   2.101  -0.236  1.00  0.00    -0.321 N 
HETATM    6  C12 UNL     1      -1.761   1.665  -0.977  1.00  0.00     0.322 C 
HETATM    7  O3  UNL     1      -1.711   0.477  -1.458  1.00  0.00    -0.247 OA
HETATM    8  N3  UNL     1      -0.601   2.444  -1.261  1.00  0.00    -0.321 N 
HETATM    9  C13 UNL     1      -0.261   3.804  -0.927  1.00  0.00     0.129 C 
HETATM   10  C14 UNL     1       0.900   4.231  -1.810  1.00  0.00     0.022 C 
HETATM   11  C15 UNL     1       1.006   3.110  -2.828  1.00  0.00     0.037 C 
HETATM   12  C16 UNL     1       0.581   1.931  -1.998  1.00  0.00     0.181 C 
ENDROOT
BRANCH  12  13
HETATM   13  C17 UNL     1       1.675   1.634  -1.041  1.00  0.00     0.241 C 
HETATM   14  O4  UNL     1       1.530   1.861   0.188  1.00  0.00    -0.271 OA
HETATM   15  N4  UNL     1       2.907   1.093  -1.469  1.00  0.00    -0.345 N 
ATOM     16  H4  UNL     1       3.060   0.896  -2.458  1.00  0.00     0.163 HD
BRANCH  15  17
HETATM   17  C18 UNL     1       3.996   0.806  -0.468  1.00  0.00     0.186 C 
BRANCH  17  18
HETATM   18  C19 UNL     1       4.193  -0.658  -0.587  1.00  0.00     0.041 C 
BRANCH  18  19
HETATM   19  C20 UNL     1       5.169  -1.365   0.263  1.00  0.00    -0.012 C 
HETATM   20  C21 UNL     1       6.571  -0.939   0.076  1.00  0.00     0.005 C 
HETATM   21  C22 UNL     1       7.534  -2.143   0.114  1.00  0.00     0.000 C 
HETATM   22  C23 UNL     1       7.109  -2.985   1.298  1.00  0.00     0.000 C 
HETATM   23  C24 UNL     1       5.839  -3.696   0.882  1.00  0.00     0.000 C 
HETATM   24  C25 UNL     1       4.979  -2.863  -0.007  1.00  0.00     0.005 C 
ENDBRANCH  18  19
ENDBRANCH  17  18
BRANCH  17  25
HETATM   25  C26 UNL     1       5.176   1.581  -0.881  1.00  0.00     0.196 C 
HETATM   26  O5  UNL     1       5.376   1.712  -2.116  1.00  0.00    -0.646 OA
HETATM   27  O6  UNL     1       6.063   2.169  -0.009  1.00  0.00    -0.646 OA
ENDBRANCH  17  25
ENDBRANCH  15  17
ENDBRANCH  12  13
BRANCH   1  28
HETATM   28  C7  UNL     1      -3.752  -0.076   0.553  1.00  0.00     0.241 C 
HETATM   29  N1  UNL     1      -4.790  -1.034   0.554  1.00  0.00    -0.351 N 
ATOM     30  H1  UNL     1      -5.716  -0.725   0.257  1.00  0.00     0.163 HD
HETATM   31  O2  UNL     1      -2.619  -0.416   0.908  1.00  0.00    -0.271 OA
BRANCH  29  32
HETATM   32  C6  UNL     1      -4.642  -2.413   0.942  1.00  0.00     0.115 C 
HETATM   33  C2  UNL     1      -5.599  -2.644   2.089  1.00  0.00    -0.038 C 
HETATM   34  C1  UNL     1      -5.294  -2.691   3.370  1.00  0.00     0.019 C 
HETATM   35  C3  UNL     1      -6.963  -2.814   1.525  1.00  0.00     0.148 C 
HETATM   36  C4  UNL     1      -6.735  -3.245   0.076  1.00  0.00     0.039 C 
HETATM   37  C5  UNL     1      -5.231  -3.367  -0.073  1.00  0.00     0.033 C 
BRANCH  35  38
HETATM   38  O1  UNL     1      -7.683  -1.622   1.576  1.00  0.00    -0.391 OA
ATOM     39  H1  UNL     1      -8.555  -1.731   1.215  1.00  0.00     0.210 HD
ENDBRANCH  35  38
ENDBRANCH  29  32
ENDBRANCH   1  28
TORSDOF 8
