REMARK  8 active torsions:
REMARK  status: ('A' for Active; 'I' for Inactive)
REMARK    1  A    between atoms: N1_2  and  C2_3 
REMARK       I    between atoms: N1_2  and  C9_16 
REMARK    2  A    between atoms: C2_3  and  C3_4 
REMARK    3  A    between atoms: C3_4  and  N2_5 
REMARK    4  A    between atoms: N2_5  and  C4_7 
REMARK    5  A    between atoms: C9_16  and  C10_18 
REMARK    6  A    between atoms: C10_18  and  C11_19 
REMARK    7  A    between atoms: C11_19  and  C12_20 
REMARK    8  A    between atoms: C13_21  and  C14_22 
ROOT
HETATM    1  C3  UNL     1       1.704   0.918   0.487  1.00  0.00     0.141 C 
ENDROOT
BRANCH   1   2
HETATM    2  C2  UNL     1       0.942   1.572  -0.643  1.00  0.00     0.145 C 
BRANCH   2   3
HETATM    3  N1  UNL     1      -0.459   1.494  -0.325  1.00  0.00    -0.355 N 
HETATM    4  C1  UNL     1      -1.072   2.586   0.434  1.00  0.00     0.152 C 
HETATM    5  C9  UNL     1      -1.294   0.415  -0.705  1.00  0.00     0.220 C 
HETATM    6  O1  UNL     1      -0.794  -0.544  -1.363  1.00  0.00    -0.273 OA
BRANCH   5   7
HETATM    7  C10 UNL     1      -2.736   0.361  -0.363  1.00  0.00     0.115 C 
BRANCH   7   8
HETATM    8  C11 UNL     1      -3.374  -0.904  -0.897  1.00  0.00     0.103 C 
BRANCH   8   9
HETATM    9  C12 UNL     1      -4.795  -0.938  -0.550  1.00  0.00    -0.104 C 
HETATM   10  C13 UNL     1      -5.964  -0.956  -0.247  1.00  0.00    -0.075 C 
BRANCH  10  11
HETATM   11  C14 UNL     1      -7.390  -0.966   0.114  1.00  0.00     0.315 C 
HETATM   12  F1  UNL     1      -7.553  -0.814   1.478  1.00  0.00    -0.242 F 
ENDBRANCH  10  11
ENDBRANCH   8   9
ENDBRANCH   7   8
ENDBRANCH   5   7
ENDBRANCH   2   3
ENDBRANCH   1   2
BRANCH   1  13
HETATM   13  N2  UNL     1       3.111   0.924   0.301  1.00  0.00    -0.375 N 
ATOM     14  H2  UNL     1       3.523   1.840   0.122  1.00  0.00     0.161 HD
BRANCH  13  15
HETATM   15  C4  UNL     1       3.931  -0.043   0.325  1.00  0.00     0.103 A 
HETATM   16  C5  UNL     1       5.260   0.261   0.110  1.00  0.00     0.067 A 
HETATM   17  C6  UNL     1       6.234  -0.710   0.114  1.00  0.00     0.017 A 
HETATM   18 BR1  UNL     1       8.072  -0.333  -0.178  1.00  0.00    -0.051 Br
HETATM   19  C7  UNL     1       5.840  -2.022   0.343  1.00  0.00     0.056 A 
HETATM   20  C8  UNL     1       4.518  -2.286   0.553  1.00  0.00     0.082 A 
HETATM   21 BR2  UNL     1       4.001  -4.108   0.867  1.00  0.00    -0.031 Br
HETATM   22  N3  UNL     1       3.596  -1.322   0.543  1.00  0.00    -0.337 N 
ATOM     23  H3  UNL     1       2.618  -1.563   0.704  1.00  0.00     0.168 HD
ENDBRANCH  13  15
ENDBRANCH   1  13
TORSDOF 8
