REMARK  7 active torsions:
REMARK  status: ('A' for Active; 'I' for Inactive)
REMARK    1  A    between atoms: C2_2  and  O2_4 
REMARK    2  A    between atoms: O2_4  and  C3_5 
REMARK    3  A    between atoms: C4_7  and  C5_8 
REMARK    4  A    between atoms: C5_8  and  C6_9 
REMARK    5  A    between atoms: C11_17  and  O7_18 
REMARK    6  A    between atoms: O7_18  and  C12_19 
REMARK    7  A    between atoms: C12_19  and  C13_20 
ROOT
HETATM    1  C3  UNL     1       3.869   0.040  -1.314  1.00  0.00     0.299 C 
HETATM    2  O3  UNL     1       4.000  -1.224  -0.763  1.00  0.00    -0.352 OA
HETATM    3  C4  UNL     1       4.166  -1.221   0.603  1.00  0.00     0.135 C 
HETATM    4  C7  UNL     1       3.380  -0.256   1.373  1.00  0.00     0.040 C 
HETATM    5  C8  UNL     1       2.684   0.828   0.658  1.00  0.00     0.033 C 
HETATM    6  C9  UNL     1       1.191   0.879   0.923  1.00  0.00     0.072 C 
HETATM    7  C10 UNL     1       0.788   0.703   2.321  1.00  0.00     0.183 C 
HETATM    8  O6  UNL     1      -0.162  -0.347   2.344  1.00  0.00    -0.338 OA
HETATM    9  C11 UNL     1      -1.077  -0.032   1.313  1.00  0.00     0.415 C 
HETATM   10  O8  UNL     1      -0.550  -0.413   0.058  1.00  0.00    -0.308 OA
HETATM   11  C20 UNL     1       0.810  -0.375   0.119  1.00  0.00     0.272 C 
HETATM   12  O9  UNL     1       1.474  -0.187  -1.061  1.00  0.00    -0.350 OA
HETATM   13  C21 UNL     1       2.576   0.603  -0.853  1.00  0.00     0.185 C 
ENDROOT
BRANCH   9  14
HETATM   14  O7  UNL     1      -2.309  -0.594   1.540  1.00  0.00    -0.335 OA
BRANCH  14  15
HETATM   15  C12 UNL     1      -3.259   0.411   1.628  1.00  0.00     0.201 C 
BRANCH  15  16
HETATM   16  C13 UNL     1      -4.623  -0.123   1.874  1.00  0.00     0.002 C 
HETATM   17  C14 UNL     1      -5.587   0.118   1.001  1.00  0.00    -0.082 C 
HETATM   18  C15 UNL     1      -6.965  -0.399   1.212  1.00  0.00     0.034 C 
HETATM   19  C19 UNL     1      -5.320   0.916  -0.221  1.00  0.00     0.034 C 
HETATM   20  C16 UNL     1      -7.370  -1.199  -0.014  1.00  0.00     0.004 C 
HETATM   21  C17 UNL     1      -7.104  -0.420  -1.266  1.00  0.00     0.001 C 
HETATM   22  C18 UNL     1      -6.610   0.979  -1.007  1.00  0.00     0.004 C 
ENDBRANCH  15  16
ENDBRANCH  14  15
ENDBRANCH   9  14
BRANCH   1  23
HETATM   23  O2  UNL     1       4.016  -0.008  -2.696  1.00  0.00    -0.287 OA
BRANCH  23  24
HETATM   24  C2  UNL     1       5.040   0.662  -3.332  1.00  0.00     0.257 C 
HETATM   25  C1  UNL     1       5.147   0.573  -4.818  1.00  0.00     0.126 C 
HETATM   26  O1  UNL     1       5.842   1.321  -2.624  1.00  0.00    -0.266 OA
ENDBRANCH  23  24
ENDBRANCH   1  23
BRANCH   3  27
HETATM   27  C5  UNL     1       5.661  -1.051   0.869  1.00  0.00     0.145 C 
BRANCH  27  28
HETATM   28  C6  UNL     1       6.454  -2.126   0.287  1.00  0.00     0.175 C 
HETATM   29  O4  UNL     1       5.903  -3.052  -0.345  1.00  0.00    -0.648 OA
HETATM   30  O5  UNL     1       7.826  -2.134   0.429  1.00  0.00    -0.648 OA
ENDBRANCH  27  28
ENDBRANCH   3  27
TORSDOF 7
