REMARK  9 active torsions:
REMARK  status: ('A' for Active; 'I' for Inactive)
REMARK    1  A    between atoms: N1_2  and  C2_5 
REMARK    2  A    between atoms: C7_10  and  C8_11 
REMARK    3  A    between atoms: C8_11  and  C9_13 
REMARK    4  A    between atoms: C9_13  and  N2_14 
REMARK    5  A    between atoms: C9_13  and  C15_28 
REMARK       I    between atoms: N2_14  and  C10_16 
REMARK    6  A    between atoms: C10_16  and  C11_18 
REMARK    7  A    between atoms: C11_18  and  C12_19 
REMARK    8  A    between atoms: C12_19  and  C13_20 
REMARK    9  A    between atoms: C13_20  and  N3_21 
REMARK       I    between atoms: N3_21  and  C14_23 
ROOT
HETATM    1  C9  UNL     1      -0.559  -0.635  -0.436  1.00  0.00     0.067 C 
ENDROOT
BRANCH   1   2
HETATM    2  C8  UNL     1      -1.262   0.627  -0.514  1.00  0.00     0.199 C 
HETATM    3  O1  UNL     1      -1.278   1.157  -1.665  1.00  0.00    -0.286 OA
BRANCH   2   4
HETATM    4  C7  UNL     1      -1.979   1.453   0.475  1.00  0.00     0.002 C 
HETATM    5  C2  UNL     1      -3.223   1.115   1.112  1.00  0.00     0.218 C 
HETATM    6  C3  UNL     1      -4.387   2.041   0.758  1.00  0.00     0.037 C 
HETATM    7  C4  UNL     1      -4.354   2.572  -0.631  1.00  0.00     0.003 C 
HETATM    8  C5  UNL     1      -3.050   3.266  -0.953  1.00  0.00     0.004 C 
HETATM    9  C6  UNL     1      -1.963   2.928   0.002  1.00  0.00     0.040 C 
BRANCH   5  10
HETATM   10  N1  UNL     1      -3.696  -0.250   1.068  1.00  0.00    -0.071 N 
HETATM   11  C1  UNL     1      -4.766  -0.314   2.096  1.00  0.00     0.267 C 
ATOM     12  H12 UNL     1      -2.962  -0.947   1.190  1.00  0.00     0.277 HD
ATOM     13  H11 UNL     1      -3.993  -0.556   0.141  1.00  0.00     0.277 HD
ENDBRANCH   5  10
ENDBRANCH   2   4
ENDBRANCH   1   2
BRANCH   1  14
HETATM   14  N2  UNL     1       0.700  -0.582   0.307  1.00  0.00    -0.327 N 
HETATM   15  C10 UNL     1       1.768   0.278   0.115  1.00  0.00     0.222 C 
HETATM   16  O2  UNL     1       1.698   1.214  -0.730  1.00  0.00    -0.273 OA
ATOM     17  H2  UNL     1       0.804  -1.263   1.059  1.00  0.00     0.168 HD
BRANCH  15  18
HETATM   18  C11 UNL     1       3.022   0.170   0.878  1.00  0.00     0.105 C 
BRANCH  18  19
HETATM   19  C12 UNL     1       3.568   1.490   1.260  1.00  0.00     0.029 C 
BRANCH  19  20
HETATM   20  C13 UNL     1       5.068   1.422   1.613  1.00  0.00     0.122 C 
BRANCH  20  21
HETATM   21  N3  UNL     1       5.802   1.224   0.358  1.00  0.00    -0.365 N 
HETATM   22  C14 UNL     1       7.202   1.335   0.231  1.00  0.00     0.181 C 
HETATM   23  N4  UNL     1       8.061   0.763   0.950  1.00  0.00    -0.374 N 
HETATM   24  N5  UNL     1       7.706   2.211  -0.818  1.00  0.00    -0.064 NA
ATOM     25  H42 UNL     1       7.708   0.150   1.685  1.00  0.00     0.158 HD
ATOM     26  H41 UNL     1       9.074   0.843   0.858  1.00  0.00     0.158 HD
ATOM     27  H3  UNL     1       5.265   0.991  -0.477  1.00  0.00     0.162 HD
ENDBRANCH  20  21
ENDBRANCH  19  20
ENDBRANCH  18  19
ENDBRANCH  15  18
ENDBRANCH   1  14
BRANCH   1  28
HETATM   28  C15 UNL     1      -1.080  -1.999  -0.539  1.00  0.00     0.040 C 
HETATM   29  C16 UNL     1      -1.773  -2.230  -1.883  1.00  0.00     0.011 C 
HETATM   30  C17 UNL     1      -2.129  -3.675  -2.002  1.00  0.00     0.001 C 
HETATM   31  C18 UNL     1      -0.980  -4.635  -1.847  1.00  0.00     0.000 C 
HETATM   32  C19 UNL     1      -0.141  -4.287  -0.634  1.00  0.00     0.001 C 
HETATM   33  C20 UNL     1       0.224  -2.853  -0.720  1.00  0.00     0.011 C 
ENDBRANCH   1  28
TORSDOF 9
