REMARK  10 active torsions:
REMARK  status: ('A' for Active; 'I' for Inactive)
REMARK       I    between atoms: N1_1  and  C1_4 
REMARK       I    between atoms: C1_4  and  N2_5 
REMARK       I    between atoms: C1_4  and  N7_28 
REMARK    1  A    between atoms: N2_5  and  C2_7 
REMARK    2  A    between atoms: N5_16  and  C6_17 
REMARK    3  A    between atoms: C6_17  and  C7_18 
REMARK    4  A    between atoms: C7_18  and  C8_19 
REMARK    5  A    between atoms: C8_19  and  C9_20 
REMARK    6  A    between atoms: C9_20  and  C10_21 
REMARK    7  A    between atoms: C10_21  and  N6_22 
REMARK    8  A    between atoms: N7_28  and  N8_30 
REMARK    9  A    between atoms: N8_30  and  N9_31 
REMARK   10  A    between atoms: N8_30  and  O3_34 
ROOT
HETATM    1  C2  UNL     1       2.148  -0.127   0.199  1.00  0.00     0.247 A 
HETATM    2  N3  UNL     1       2.505  -1.107   1.050  1.00  0.00    -0.286 N 
ATOM      3  H3  UNL     1       3.481  -1.174   1.340  1.00  0.00     0.172 HD
HETATM    4  C3  UNL     1       1.625  -2.001   1.532  1.00  0.00     0.279 A 
HETATM    5  O1  UNL     1       1.905  -2.917   2.314  1.00  0.00    -0.265 OA
HETATM    6  C4  UNL     1       0.303  -1.848   1.091  1.00  0.00     0.154 A 
HETATM    7  N4  UNL     1      -0.810  -2.516   1.341  1.00  0.00    -0.344 N 
ATOM      8  H4  UNL     1      -0.900  -3.328   1.952  1.00  0.00     0.167 HD
HETATM    9  C5  UNL     1      -1.815  -1.927   0.637  1.00  0.00     0.186 A 
HETATM   10  N5  UNL     1      -1.360  -0.893  -0.058  1.00  0.00    -0.318 N 
HETATM   11  C11 UNL     1      -0.019  -0.832   0.221  1.00  0.00     0.187 A 
HETATM   12  O2  UNL     1       0.907  -0.002  -0.201  1.00  0.00    -0.259 OA
ENDROOT
BRANCH   1  13
HETATM   13  N2  UNL     1       3.079   0.695  -0.215  1.00  0.00    -0.153 N 
HETATM   14  C1  UNL     1       4.423   0.577   0.204  1.00  0.00     0.692 C 
HETATM   15  N1  UNL     1       4.806   1.086   1.314  1.00  0.00    -0.233 N 
HETATM   16  N7  UNL     1       5.342  -0.110  -0.616  1.00  0.00    -0.110 N 
ATOM     17  H12 UNL     1       4.141   1.583   1.907  1.00  0.00     0.174 HD
ATOM     18  H11 UNL     1       5.776   1.001   1.617  1.00  0.00     0.174 HD
ATOM     19  H7  UNL     1       5.188  -1.100  -0.807  1.00  0.00     0.203 HD
ATOM     20  H2  UNL     1       2.826   1.444  -0.860  1.00  0.00     0.188 HD
BRANCH  16  21
HETATM   21  N8  UNL     1       6.456   0.520  -1.175  1.00  0.00     0.004 NA
BRANCH  21  22
HETATM   22  N9  UNL     1       6.433   1.891  -0.957  1.00  0.00    -0.322 NA
ATOM     23  H92 UNL     1       5.578   2.289  -1.345  1.00  0.00     0.175 HD
ATOM     24  H91 UNL     1       7.247   2.351  -1.365  1.00  0.00     0.175 HD
ENDBRANCH  21  22
BRANCH  21  25
HETATM   25  O3  UNL     1       7.604  -0.014  -0.654  1.00  0.00    -0.276 OA
ATOM     26  H3  UNL     1       8.362   0.415  -1.034  1.00  0.00     0.241 HD
ENDBRANCH  21  25
ENDBRANCH  16  21
ENDBRANCH   1  13
BRANCH  10  27
HETATM   27  C6  UNL     1      -2.042   0.041  -0.968  1.00  0.00     0.159 C 
BRANCH  27  28
HETATM   28  C7  UNL     1      -2.545   1.261  -0.323  1.00  0.00    -0.011 C 
BRANCH  28  29
HETATM   29  C8  UNL     1      -3.567   1.253   0.715  1.00  0.00    -0.027 C 
BRANCH  29  30
HETATM   30  C9  UNL     1      -4.957   0.862   0.459  1.00  0.00     0.054 C 
BRANCH  30  31
HETATM   31  C10 UNL     1      -5.290  -0.496  -0.045  1.00  0.00     0.233 C 
BRANCH  31  32
HETATM   32  N6  UNL     1      -6.776  -0.595  -0.154  1.00  0.00    -0.079 N 
ATOM     33  H63 UNL     1      -7.252  -0.371   0.720  1.00  0.00     0.274 HD
ATOM     34  H62 UNL     1      -7.180   0.148  -0.724  1.00  0.00     0.274 HD
ATOM     35  H61 UNL     1      -7.005  -1.527  -0.500  1.00  0.00     0.274 HD
ENDBRANCH  31  32
ENDBRANCH  30  31
ENDBRANCH  29  30
ENDBRANCH  28  29
ENDBRANCH  27  28
ENDBRANCH  10  27
TORSDOF 10
