REMARK  4 active torsions:
REMARK  status: ('A' for Active; 'I' for Inactive)
REMARK       I    between atoms: N1_2  and  C2_4 
REMARK    1  A    between atoms: C2_4  and  C3_6 
REMARK    2  A    between atoms: C3_6  and  N2_8 
REMARK       I    between atoms: N2_8  and  C5_10 
REMARK       I    between atoms: C5_10  and  N4_14 
REMARK    3  A    between atoms: C8_17  and  N5_18 
REMARK    4  A    between atoms: C8_17  and  C9_22 
ROOT
HETATM    1  N2  UNL     1       0.627  -0.652  -1.212  1.00  0.00    -0.214 N 
ATOM      2  H2  UNL     1       0.008  -0.434  -1.993  1.00  0.00     0.178 HD
HETATM    3  C5  UNL     1       0.042  -0.811   0.069  1.00  0.00     0.670 C 
HETATM    4  N3  UNL     1       0.446  -1.775   0.812  1.00  0.00    -0.235 N 
ATOM      5  H31 UNL     1       0.025  -1.889   1.734  1.00  0.00     0.174 HD
ATOM      6  H32 UNL     1       1.173  -2.405   0.475  1.00  0.00     0.174 HD
HETATM    7  N4  UNL     1      -0.956   0.054   0.532  1.00  0.00    -0.215 N 
HETATM    8  C6  UNL     1      -1.325   1.340  -0.065  1.00  0.00     0.144 C 
HETATM    9  C7  UNL     1      -2.578   1.783   0.608  1.00  0.00     0.070 C 
HETATM   10  C8  UNL     1      -3.085   0.511   1.254  1.00  0.00     0.218 C 
HETATM   11  C10 UNL     1      -1.814  -0.149   1.682  1.00  0.00     0.189 C 
ENDROOT
BRANCH   1  12
HETATM   12  C3  UNL     1       2.026  -0.776  -1.484  1.00  0.00     0.187 C 
HETATM   13  C4  UNL     1       2.438  -2.223  -1.197  1.00  0.00     0.043 C 
BRANCH  12  14
HETATM   14  C2  UNL     1       2.870   0.163  -0.753  1.00  0.00     0.240 C 
HETATM   15  N1  UNL     1       4.272   0.158  -0.920  1.00  0.00    -0.364 N 
HETATM   16  C1  UNL     1       5.148   1.074  -0.215  1.00  0.00     0.149 C 
ATOM     17  H1  UNL     1       4.686  -0.517  -1.563  1.00  0.00     0.161 HD
HETATM   18  O1  UNL     1       2.363   0.989   0.033  1.00  0.00    -0.271 OA
ENDBRANCH  12  14
ENDBRANCH   1  12
BRANCH  10  19
HETATM   19  N5  UNL     1      -3.936   0.877   2.356  1.00  0.00    -0.060 N 
ATOM     20  H53 UNL     1      -3.475   1.499   3.020  1.00  0.00     0.275 HD
ATOM     21  H52 UNL     1      -4.690   1.506   2.079  1.00  0.00     0.275 HD
ATOM     22  H51 UNL     1      -4.278   0.020   2.791  1.00  0.00     0.275 HD
ENDBRANCH  10  19
BRANCH  10  23
HETATM   23  C9  UNL     1      -3.822  -0.253   0.221  1.00  0.00     0.269 C 
HETATM   24  N6  UNL     1      -3.252  -0.740  -0.962  1.00  0.00    -0.060 NA
HETATM   25  O2  UNL     1      -5.044  -0.479   0.422  1.00  0.00    -0.274 OA
ENDBRANCH  10  23
TORSDOF 4
