REMARK  2 active torsions:
REMARK  status: ('A' for Active; 'I' for Inactive)
REMARK       I    between atoms: C1_2  and  N1_3 
REMARK       I    between atoms: C1_2  and  N2_10 
REMARK    1  A    between atoms: N1_3  and  C2_5 
REMARK    2  A    between atoms: N2_10  and  C6_12 
ROOT
HETATM    1  O1  UNL     1       1.339   1.086   0.020  1.00  0.00    -0.247 OA
HETATM    2  C1  UNL     1       1.194  -0.153   0.063  1.00  0.00     0.321 C 
HETATM    3  N1  UNL     1       2.307  -1.001   0.144  1.00  0.00    -0.303 N 
ATOM      4  H1  UNL     1       2.186  -2.013   0.180  1.00  0.00     0.171 HD
HETATM    5  N2  UNL     1      -0.108  -0.695   0.030  1.00  0.00    -0.338 N 
ATOM      6  H2  UNL     1      -0.207  -1.710   0.066  1.00  0.00     0.164 HD
ENDROOT
BRANCH   3   7
HETATM    7  C2  UNL     1       3.614  -0.425   0.176  1.00  0.00     0.077 A 
HETATM    8  C3  UNL     1       4.828  -1.057   0.252  1.00  0.00     0.038 A 
HETATM    9  C4  UNL     1       5.925  -0.270   0.267  1.00  0.00     0.010 A 
HETATM   10  C5  UNL     1       5.739   1.074   0.206  1.00  0.00     0.052 A 
HETATM   11  S1  UNL     1       4.045   1.227   0.129  1.00  0.00    -0.084 SA
ENDBRANCH   3   7
BRANCH   5  12
HETATM   12  C6  UNL     1      -1.310   0.104  -0.052  1.00  0.00     0.086 C 
HETATM   13  C7  UNL     1      -2.191  -0.162   1.135  1.00  0.00     0.025 C 
HETATM   14  C8  UNL     1      -3.497   0.552   1.047  1.00  0.00     0.002 C 
HETATM   15  C9  UNL     1      -4.140   0.511  -0.301  1.00  0.00     0.000 C 
HETATM   16  C10 UNL     1      -3.200   0.754  -1.439  1.00  0.00     0.002 C 
HETATM   17  C11 UNL     1      -2.067  -0.272  -1.306  1.00  0.00     0.025 C 
ENDBRANCH   5  12
TORSDOF 2
