REMARK  4 active torsions:
REMARK  status: ('A' for Active; 'I' for Inactive)
REMARK    1  A    between atoms: C1_2  and  N1_3 
REMARK    2  A    between atoms: C1_2  and  N2_10 
REMARK    3  A    between atoms: N1_3  and  C2_5 
REMARK    4  A    between atoms: N2_10  and  C6_12 
ROOT
HETATM    1  S1  UNL     1      -0.065  -2.088  -1.388  1.00  0.00    -0.041 SA
HETATM    2  C1  UNL     1       0.921  -1.036  -0.544  1.00  0.00     0.172 C 
ENDROOT
BRANCH   2   3
HETATM    3  N1  UNL     1       2.254  -1.324  -0.535  1.00  0.00    -0.328 N 
ATOM      4  H1  UNL     1       2.531  -2.166  -1.039  1.00  0.00     0.169 HD
BRANCH   3   5
HETATM    5  C2  UNL     1       3.297  -0.606   0.082  1.00  0.00     0.075 A 
HETATM    6  C3  UNL     1       4.658  -0.925   0.074  1.00  0.00     0.038 A 
HETATM    7  C4  UNL     1       5.477  -0.092   0.734  1.00  0.00     0.010 A 
HETATM    8  C5  UNL     1       4.947   0.987   1.356  1.00  0.00     0.052 A 
HETATM    9  S2  UNL     1       3.295   0.826   1.011  1.00  0.00    -0.084 SA
ENDBRANCH   3   5
ENDBRANCH   2   3
BRANCH   2  10
HETATM   10  N2  UNL     1       0.282   0.042   0.061  1.00  0.00    -0.362 N 
ATOM     11  H2  UNL     1       0.890   0.689   0.562  1.00  0.00     0.162 HD
BRANCH  10  12
HETATM   12  C6  UNL     1      -1.113   0.367   0.076  1.00  0.00     0.083 C 
HETATM   13  C7  UNL     1      -1.958  -0.622   0.793  1.00  0.00     0.025 C 
HETATM   14  C8  UNL     1      -3.388  -0.122   0.903  1.00  0.00     0.002 C 
HETATM   15  C9  UNL     1      -3.925   0.459  -0.359  1.00  0.00     0.000 C 
HETATM   16  C10 UNL     1      -2.971   1.391  -1.075  1.00  0.00     0.002 C 
HETATM   17  C11 UNL     1      -1.690   0.574  -1.319  1.00  0.00     0.025 C 
ENDBRANCH  10  12
ENDBRANCH   2  10
TORSDOF 4
