REMARK  1 active torsions:
REMARK  status: ('A' for Active; 'I' for Inactive)
REMARK    1  A    between atoms: C2_3  and  C3_4 
ROOT
HETATM    1  C1  UNL     1      -3.531  -1.105  -0.968  1.00  0.00     0.175 C 
HETATM    2  N1  UNL     1      -3.030  -0.162   0.045  1.00  0.00    -0.186 N 
HETATM    3  C2  UNL     1      -1.723  -0.040   0.348  1.00  0.00     0.069 A 
HETATM    4  C12 UNL     1      -1.664   0.933   1.330  1.00  0.00     0.136 A 
HETATM    5  N2  UNL     1      -2.927   1.327   1.549  1.00  0.00    -0.200 N 
ATOM      6  H2  UNL     1      -3.199   2.041   2.225  1.00  0.00     0.183 HD
HETATM    7  C13 UNL     1      -3.786   0.661   0.764  1.00  0.00     0.678 A 
HETATM    8  N3  UNL     1      -5.068   0.767   0.692  1.00  0.00    -0.234 N 
ATOM      9  H31 UNL     1      -5.648   1.399   1.244  1.00  0.00     0.174 HD
ATOM     10  H32 UNL     1      -5.721   0.260   0.095  1.00  0.00     0.174 HD
ENDROOT
BRANCH   3  11
HETATM   11  C3  UNL     1      -0.553  -0.798  -0.234  1.00  0.00    -0.051 C 
HETATM   12  C4  UNL     1       0.017   0.000  -1.335  1.00  0.00     0.036 C 
HETATM   13  C5  UNL     1       0.728   1.263  -1.043  1.00  0.00     0.004 C 
HETATM   14  C6  UNL     1       2.202   1.080  -1.390  1.00  0.00     0.000 C 
HETATM   15  C7  UNL     1       3.095   1.180  -0.199  1.00  0.00     0.000 C 
HETATM   16  C8  UNL     1       3.674  -0.124   0.235  1.00  0.00     0.000 C 
HETATM   17  C9  UNL     1       2.702  -1.254   0.293  1.00  0.00     0.000 C 
HETATM   18  C10 UNL     1       1.547  -0.880   1.217  1.00  0.00     0.004 C 
HETATM   19  C11 UNL     1       0.254  -1.451   0.773  1.00  0.00     0.036 C 
ENDBRANCH   3  11
TORSDOF 1
