REMARK  8 active torsions:
REMARK  status: ('A' for Active; 'I' for Inactive)
REMARK    1  A    between atoms: C9_9  and  C10_10 
REMARK       I    between atoms: C10_10  and  N1_12 
REMARK    2  A    between atoms: N1_12  and  C11_14 
REMARK    3  A    between atoms: C11_14  and  C12_15 
REMARK    4  A    between atoms: C12_15  and  C13_16 
REMARK    5  A    between atoms: C13_16  and  C14_17 
REMARK    6  A    between atoms: C14_17  and  C15_18 
REMARK    7  A    between atoms: C15_18  and  C16_19 
REMARK       I    between atoms: C16_19  and  N2_21 
REMARK    8  A    between atoms: N2_21  and  C17_23 
ROOT
HETATM    1  C10 UNL     1      -2.742   0.123   1.944  1.00  0.00     0.226 C 
HETATM    2  O1  UNL     1      -3.263   0.019   3.063  1.00  0.00    -0.273 OA
HETATM    3  N1  UNL     1      -1.453   0.609   1.674  1.00  0.00    -0.360 N 
ATOM      4  H1  UNL     1      -1.120   0.660   0.711  1.00  0.00     0.162 HD
ENDROOT
BRANCH   3   5
HETATM    5  C11 UNL     1      -0.586   1.042   2.768  1.00  0.00     0.122 C 
BRANCH   5   6
HETATM    6  C12 UNL     1      -0.304  -0.111   3.657  1.00  0.00     0.020 C 
BRANCH   6   7
HETATM    7  C13 UNL     1       0.311  -1.275   3.006  1.00  0.00     0.002 C 
BRANCH   7   8
HETATM    8  C14 UNL     1       1.678  -1.170   2.497  1.00  0.00     0.009 C 
BRANCH   8   9
HETATM    9  C15 UNL     1       1.957  -0.148   1.469  1.00  0.00     0.103 C 
BRANCH   9  10
HETATM   10  C16 UNL     1       3.405  -0.312   1.002  1.00  0.00     0.217 C 
HETATM   11  O2  UNL     1       4.079  -1.221   1.530  1.00  0.00    -0.274 OA
HETATM   12  N2  UNL     1       3.939   0.532   0.020  1.00  0.00    -0.356 N 
ATOM     13  H2  UNL     1       3.331   1.254  -0.366  1.00  0.00     0.162 HD
BRANCH  12  14
HETATM   14  C17 UNL     1       5.281   0.453  -0.481  1.00  0.00     0.084 C 
HETATM   15  C18 UNL     1       5.177   0.069  -1.951  1.00  0.00     0.025 C 
HETATM   16  C19 UNL     1       6.572  -0.061  -2.526  1.00  0.00     0.002 C 
HETATM   17  C20 UNL     1       7.189   1.307  -2.473  1.00  0.00     0.000 C 
HETATM   18  C21 UNL     1       7.308   1.805  -1.045  1.00  0.00     0.002 C 
HETATM   19  C22 UNL     1       6.014   1.749  -0.300  1.00  0.00     0.025 C 
ENDBRANCH  12  14
ENDBRANCH   9  10
ENDBRANCH   8   9
ENDBRANCH   7   8
ENDBRANCH   6   7
ENDBRANCH   5   6
ENDBRANCH   3   5
BRANCH   1  20
HETATM   20  C9  UNL     1      -3.565  -0.311   0.751  1.00  0.00     0.042 C 
HETATM   21  C8  UNL     1      -2.798  -1.415   0.081  1.00  0.00     0.024 C 
HETATM   22  C6  UNL     1      -3.581  -1.832  -1.144  1.00  0.00    -0.012 C 
HETATM   23  C5  UNL     1      -4.930  -2.325  -0.674  1.00  0.00     0.009 C 
HETATM   24  C7  UNL     1      -3.796  -0.663  -2.086  1.00  0.00     0.014 C 
HETATM   25  C4  UNL     1      -5.694  -1.192  -0.038  1.00  0.00    -0.012 C 
HETATM   26  C3  UNL     1      -5.851  -0.014  -0.956  1.00  0.00     0.014 C 
HETATM   27  C23 UNL     1      -4.944  -0.754   1.186  1.00  0.00     0.024 C 
HETATM   28  C2  UNL     1      -4.487   0.474  -1.374  1.00  0.00    -0.042 C 
HETATM   29  C1  UNL     1      -4.594   1.636  -2.335  1.00  0.00     0.015 C 
HETATM   30  C24 UNL     1      -3.644   0.864  -0.177  1.00  0.00     0.028 C 
ENDBRANCH   1  20
TORSDOF 8
