REMARK  6 active torsions:
REMARK  status: ('A' for Active; 'I' for Inactive)
REMARK    1  A    between atoms: C2_2  and  C3_3 
REMARK    2  A    between atoms: C2_2  and  C8_8 
REMARK    3  A    between atoms: C3_3  and  C4_4 
REMARK    4  A    between atoms: C4_4  and  C5_5 
REMARK    5  A    between atoms: C10_10  and  O1_11 
REMARK    6  A    between atoms: C18_20  and  C19_21 
ROOT
HETATM    1  C8  UNL     1       0.421  -0.764   0.947  1.00  0.00     0.021 C 
HETATM    2  C9  UNL     1       1.057  -2.075   0.470  1.00  0.00     0.042 C 
HETATM    3  C10 UNL     1       0.256  -2.483  -0.759  1.00  0.00     0.127 C 
HETATM    4  C11 UNL     1      -1.115  -2.014  -0.309  1.00  0.00    -0.013 C 
HETATM    5  C12 UNL     1      -1.503  -2.842   0.884  1.00  0.00     0.018 C 
HETATM    6  C13 UNL     1      -2.137  -2.025  -1.377  1.00  0.00     0.013 C 
HETATM    7  C14 UNL     1      -2.763  -0.669  -1.532  1.00  0.00     0.010 C 
HETATM    8  C15 UNL     1      -3.120  -0.015  -0.230  1.00  0.00    -0.039 C 
HETATM    9  C16 UNL     1      -4.353  -0.611   0.413  1.00  0.00     0.015 C 
HETATM   10  C17 UNL     1      -3.456   1.441  -0.551  1.00  0.00     0.021 C 
HETATM   11  C18 UNL     1      -3.076   2.113   0.756  1.00  0.00     0.048 C 
HETATM   12  C20 UNL     1      -1.694   1.518   0.996  1.00  0.00     0.017 C 
HETATM   13  C21 UNL     1      -1.949   0.049   0.729  1.00  0.00    -0.000 C 
HETATM   14  C22 UNL     1      -0.776  -0.580   0.084  1.00  0.00     0.009 C 
ENDROOT
BRANCH   1  15
HETATM   15  C2  UNL     1       1.408   0.363   0.807  1.00  0.00    -0.085 C 
HETATM   16  C1  UNL     1       1.726   1.086   1.862  1.00  0.00     0.014 C 
BRANCH  15  17
HETATM   17  C3  UNL     1       2.002   0.639  -0.505  1.00  0.00     0.034 C 
BRANCH  17  18
HETATM   18  C4  UNL     1       3.144   1.575  -0.555  1.00  0.00     0.008 C 
BRANCH  18  19
HETATM   19  C5  UNL     1       4.392   1.165   0.137  1.00  0.00    -0.023 C 
HETATM   20  C6  UNL     1       5.480   2.240   0.005  1.00  0.00     0.009 C 
HETATM   21  C7  UNL     1       5.025  -0.072  -0.498  1.00  0.00     0.009 C 
ENDBRANCH  18  19
ENDBRANCH  17  18
ENDBRANCH  15  17
ENDBRANCH   1  15
BRANCH   3  22
HETATM   22  O1  UNL     1       0.205  -3.868  -0.891  1.00  0.00    -0.395 OA
ATOM     23  H1  UNL     1      -0.295  -4.123  -1.658  1.00  0.00     0.210 HD
ENDBRANCH   3  22
BRANCH  11  24
HETATM   24  C19 UNL     1      -3.056   3.576   0.667  1.00  0.00     0.235 C 
HETATM   25  O2  UNL     1      -2.258   4.198   1.343  1.00  0.00    -0.306 OA
ENDBRANCH  11  24
TORSDOF 6
