REMARK  3 active torsions:
REMARK  status: ('A' for Active; 'I' for Inactive)
REMARK    1  A    between atoms: C3_3  and  N1_4 
REMARK       I    between atoms: N1_4  and  C4_6 
REMARK       I    between atoms: C4_6  and  N2_8 
REMARK    2  A    between atoms: C6_10  and  N3_11 
REMARK    3  A    between atoms: C12_18  and  O3_19 
ROOT
HETATM    1  N1  UNL     1       2.828   0.670   0.177  1.00  0.00    -0.332 N 
ATOM      2  H1  UNL     1       2.553   1.434  -0.440  1.00  0.00     0.164 HD
HETATM    3  C4  UNL     1       1.814  -0.119   0.746  1.00  0.00     0.320 C 
HETATM    4  O1  UNL     1       2.109  -1.063   1.505  1.00  0.00    -0.247 OA
HETATM    5  N2  UNL     1       0.455   0.144   0.468  1.00  0.00    -0.305 N 
HETATM    6  C5  UNL     1      -0.705  -0.600   0.993  1.00  0.00     0.166 C 
HETATM    7  C6  UNL     1      -1.869   0.179   0.505  1.00  0.00     0.245 C 
HETATM    8  C11 UNL     1      -1.367   0.689  -0.834  1.00  0.00     0.091 C 
HETATM    9  C12 UNL     1      -0.015   1.220  -0.405  1.00  0.00     0.226 C 
ENDROOT
BRANCH   9  10
HETATM   10  O3  UNL     1      -0.235   2.376   0.342  1.00  0.00    -0.377 OA
ATOM     11  H3  UNL     1      -0.540   3.075  -0.225  1.00  0.00     0.212 HD
ENDBRANCH   9  10
BRANCH   1  12
HETATM   12  C3  UNL     1       4.243   0.460   0.417  1.00  0.00     0.168 A 
HETATM   13  C2  UNL     1       5.203   0.628  -0.718  1.00  0.00     0.085 A 
HETATM   14  C1  UNL     1       6.372  -0.334  -0.856  1.00  0.00     0.018 C 
HETATM   15  C13 UNL     1       5.191   1.597   0.413  1.00  0.00     0.269 A 
HETATM   16  F1  UNL     1       6.217   1.510   1.352  1.00  0.00    -0.204 F 
HETATM   17  F2  UNL     1       4.799   2.874   0.146  1.00  0.00    -0.204 F 
ENDBRANCH   1  12
BRANCH   7  18
HETATM   18  N3  UNL     1      -3.107  -0.477   0.462  1.00  0.00     0.099 N 
HETATM   19  C7  UNL     1      -4.137   0.377  -0.025  1.00  0.00     0.299 C 
HETATM   20  C8  UNL     1      -5.500  -0.317  -0.025  1.00  0.00     0.198 C 
HETATM   21  O2  UNL     1      -5.392  -1.587  -0.623  1.00  0.00    -0.388 OA
HETATM   22  C9  UNL     1      -4.545  -2.346   0.163  1.00  0.00     0.198 C 
HETATM   23  C10 UNL     1      -3.123  -1.803  -0.049  1.00  0.00     0.299 C 
ENDBRANCH   7  18
TORSDOF 3
