REMARK  5 active torsions:
REMARK  status: ('A' for Active; 'I' for Inactive)
REMARK    1  A    between atoms: N1_2  and  C3_4 
REMARK    2  A    between atoms: C3_4  and  C4_8 
REMARK    3  A    between atoms: C6_11  and  O2_12 
REMARK    4  A    between atoms: C7_14  and  C8_15 
REMARK    5  A    between atoms: C8_15  and  O3_16 
ROOT
HETATM    1  C4  UNL     1      -0.760  -0.547  -0.780  1.00  0.00     0.214 C 
HETATM    2  O1  UNL     1       0.402  -0.204  -1.459  1.00  0.00    -0.366 OA
HETATM    3  C5  UNL     1       1.453  -0.867  -0.871  1.00  0.00     0.184 C 
HETATM    4  C6  UNL     1       2.755  -0.096  -0.954  1.00  0.00     0.180 C 
HETATM    5  C7  UNL     1       2.788   0.639   0.354  1.00  0.00     0.177 C 
HETATM    6  O4  UNL     1       1.477   0.618   0.826  1.00  0.00    -0.371 OA
HETATM    7  C9  UNL     1       1.124  -0.713   0.615  1.00  0.00     0.179 C 
HETATM    8  C10 UNL     1      -0.363  -0.921   0.612  1.00  0.00     0.095 C 
HETATM    9  C11 UNL     1      -0.616  -2.398   0.876  1.00  0.00     0.038 C 
HETATM   10 CL1  UNL     1      -1.149   0.006   1.866  1.00  0.00    -0.114 Cl
ENDROOT
BRANCH   1  11
HETATM   11  C3  UNL     1      -1.751   0.521  -0.880  1.00  0.00     0.103 C 
HETATM   12  N2  UNL     1      -1.420   1.568  -1.549  1.00  0.00    -0.387 N 
ATOM     13  H22 UNL     1      -2.112   2.314  -1.619  1.00  0.00     0.157 HD
ATOM     14  H21 UNL     1      -0.488   1.581  -1.964  1.00  0.00     0.157 HD
BRANCH  11  15
HETATM   15  N1  UNL     1      -3.036   0.503  -0.308  1.00  0.00    -0.378 N 
HETATM   16  C1  UNL     1      -3.797  -0.712  -0.295  1.00  0.00     0.150 C 
HETATM   17  C2  UNL     1      -3.618   1.677   0.270  1.00  0.00     0.150 C 
ENDBRANCH  11  15
ENDBRANCH   1  11
BRANCH   4  18
HETATM   18  O2  UNL     1       3.800  -1.019  -0.962  1.00  0.00    -0.390 OA
ATOM     19  H2  UNL     1       4.616  -0.536  -1.014  1.00  0.00     0.210 HD
ENDBRANCH   4  18
BRANCH   5  20
HETATM   20  C8  UNL     1       3.284   2.056   0.139  1.00  0.00     0.198 C 
BRANCH  20  21
HETATM   21  O3  UNL     1       4.594   1.963  -0.330  1.00  0.00    -0.398 OA
ATOM     22  H3  UNL     1       4.905   2.851  -0.465  1.00  0.00     0.209 HD
ENDBRANCH  20  21
ENDBRANCH   5  20
TORSDOF 5
