REMARK  15 active torsions:
REMARK  status: ('A' for Active; 'I' for Inactive)
REMARK    1  A    between atoms: C5_10  and  N4_11 
REMARK    2  A    between atoms: C6_14  and  C7_15 
REMARK    3  A    between atoms: C8_18  and  N6_19 
REMARK    4  A    between atoms: N7_22  and  C9_23 
REMARK    5  A    between atoms: C9_23  and  C10_24 
REMARK    6  A    between atoms: C10_24  and  C11_25 
REMARK    7  A    between atoms: C11_25  and  C13_27 
REMARK    8  A    between atoms: C11_25  and  C17_41 
REMARK    9  A    between atoms: C13_27  and  O1_28 
REMARK   10  A    between atoms: N8_30  and  C14_32 
REMARK   11  A    between atoms: C14_32  and  C15_33 
REMARK   12  A    between atoms: C14_32  and  C16_36 
REMARK   13  A    between atoms: C15_33  and  O2_34 
REMARK   14  A    between atoms: C16_36  and  O3_37 
REMARK   15  A    between atoms: C16_36  and  O4_39 
ROOT
HETATM    1  C1  UNL     1      -5.111   0.845   2.564  1.00  0.00     0.069 C 
HETATM    2  C2  UNL     1      -5.779   0.296   1.333  1.00  0.00     0.025 A 
HETATM    3  N1  UNL     1      -7.113   0.393   1.207  1.00  0.00    -0.337 N 
ATOM      4  H1  UNL     1      -7.639   0.830   1.964  1.00  0.00     0.168 HD
HETATM    5  C3  UNL     1      -7.787  -0.051   0.145  1.00  0.00     0.190 A 
HETATM    6  C4  UNL     1      -9.236   0.079   0.055  1.00  0.00     0.137 C 
HETATM    7  N2  UNL     1     -10.369   0.168  -0.027  1.00  0.00    -0.188 NA
HETATM    8  N3  UNL     1      -7.081  -0.618  -0.827  1.00  0.00    -0.319 N 
ATOM      9  H3  UNL     1      -7.586  -0.962  -1.644  1.00  0.00     0.169 HD
HETATM   10  C5  UNL     1      -5.712  -0.772  -0.804  1.00  0.00     0.117 A 
HETATM   11  C6  UNL     1      -5.026  -0.303   0.307  1.00  0.00     0.076 A 
ENDROOT
BRANCH  10  12
HETATM   12  N4  UNL     1      -5.158  -1.349  -1.762  1.00  0.00    -0.385 N 
ATOM     13  H42 UNL     1      -5.662  -1.694  -2.579  1.00  0.00     0.157 HD
ATOM     14  H41 UNL     1      -4.145  -1.463  -1.745  1.00  0.00     0.157 HD
ENDBRANCH  10  12
BRANCH  11  15
HETATM   15  C7  UNL     1      -3.602  -0.439   0.478  1.00  0.00     0.152 A 
HETATM   16  N5  UNL     1      -2.979  -0.313   1.678  1.00  0.00    -0.173 N 
HETATM   17  C8  UNL     1      -1.665  -0.543   1.556  1.00  0.00     0.694 A 
ATOM     18  H5  UNL     1      -3.447  -0.076   2.552  1.00  0.00     0.186 HD
HETATM   19  N7  UNL     1      -1.454  -0.818   0.259  1.00  0.00    -0.122 N 
HETATM   20  N9  UNL     1      -2.631  -0.749  -0.364  1.00  0.00    -0.268 N 
ATOM     21  H9  UNL     1      -2.765  -0.914  -1.362  1.00  0.00     0.189 HD
BRANCH  17  22
HETATM   22  N6  UNL     1      -0.794  -0.502   2.525  1.00  0.00    -0.233 N 
ATOM     23  H62 UNL     1      -0.954  -0.293   3.510  1.00  0.00     0.174 HD
ATOM     24  H61 UNL     1       0.207  -0.677   2.432  1.00  0.00     0.174 HD
ENDBRANCH  17  22
BRANCH  19  25
HETATM   25  C9  UNL     1      -0.127  -1.132  -0.298  1.00  0.00     0.169 C 
BRANCH  25  26
HETATM   26  C10 UNL     1       0.521   0.138  -0.657  1.00  0.00     0.049 C 
BRANCH  26  27
HETATM   27  C11 UNL     1       1.886   0.159  -1.242  1.00  0.00     0.120 C 
HETATM   28  C12 UNL     1       2.253   1.593  -1.454  1.00  0.00     0.034 C 
BRANCH  27  29
HETATM   29  C13 UNL     1       2.858  -0.624  -0.472  1.00  0.00     0.129 C 
HETATM   30  N8  UNL     1       4.175  -0.280  -0.430  1.00  0.00    -0.362 N 
ATOM     31  H8  UNL     1       4.810  -0.862  -0.976  1.00  0.00     0.162 HD
BRANCH  29  32
HETATM   32  O1  UNL     1       2.548  -2.008  -0.436  1.00  0.00    -0.349 OA
ATOM     33  H1  UNL     1       3.178  -2.515   0.063  1.00  0.00     0.219 HD
ENDBRANCH  29  32
BRANCH  30  34
HETATM   34  C14 UNL     1       4.752   0.767   0.266  1.00  0.00     0.161 C 
BRANCH  34  35
HETATM   35  C15 UNL     1       4.581   0.546   1.791  1.00  0.00     0.194 C 
BRANCH  35  36
HETATM   36  O2  UNL     1       5.190  -0.645   2.127  1.00  0.00    -0.399 OA
ATOM     37  H2  UNL     1       5.085  -0.780   3.061  1.00  0.00     0.209 HD
ENDBRANCH  35  36
ENDBRANCH  34  35
BRANCH  34  38
HETATM   38  C16 UNL     1       6.250   0.931   0.047  1.00  0.00     0.278 C 
BRANCH  38  39
HETATM   39  O3  UNL     1       6.694   1.993   0.819  1.00  0.00    -0.369 OA
ATOM     40  H3  UNL     1       7.629   2.095   0.682  1.00  0.00     0.212 HD
ENDBRANCH  38  39
BRANCH  38  41
HETATM   41  O4  UNL     1       6.970  -0.220   0.274  1.00  0.00    -0.369 OA
ATOM     42  H4  UNL     1       7.905  -0.118   0.137  1.00  0.00     0.212 HD
ENDBRANCH  38  41
ENDBRANCH  34  38
ENDBRANCH  30  34
ENDBRANCH  27  29
BRANCH  27  43
HETATM   43  C17 UNL     1       1.834  -0.384  -2.708  1.00  0.00     0.402 C 
HETATM   44  F1  UNL     1       3.140  -0.314  -3.180  1.00  0.00    -0.170 F 
HETATM   45  F2  UNL     1       1.453  -1.668  -2.786  1.00  0.00    -0.170 F 
HETATM   46  F3  UNL     1       1.062   0.418  -3.491  1.00  0.00    -0.170 F 
ENDBRANCH  27  43
ENDBRANCH  26  27
ENDBRANCH  25  26
ENDBRANCH  19  25
ENDBRANCH  11  15
TORSDOF 15
