REMARK  12 active torsions:
REMARK  status: ('A' for Active; 'I' for Inactive)
REMARK    1  A    between atoms: C2_2  and  O1_3 
REMARK    2  A    between atoms: C2_2  and  C3_5 
REMARK    3  A    between atoms: C4_8  and  C5_9 
REMARK    4  A    between atoms: C5_9  and  C6_12 
REMARK    5  A    between atoms: C6_12  and  C7_13 
REMARK    6  A    between atoms: C7_13  and  C8_14 
REMARK    7  A    between atoms: C8_14  and  N2_15 
REMARK    8  A    between atoms: N2_15  and  N3_17 
REMARK    9  A    between atoms: C10_22  and  N5_23 
REMARK   10  A    between atoms: C12_30  and  C13_31 
REMARK   11  A    between atoms: C13_31  and  S1_32 
REMARK   12  A    between atoms: S1_32  and  N8_33 
REMARK       I    between atoms: N8_33  and  C14_35 
REMARK       I    between atoms: C14_35  and  N9_36 
REMARK       I    between atoms: C14_35  and  N10_40 
ROOT
HETATM    1  N3  UNL     1       1.081   1.248   0.759  1.00  0.00    -0.285 N 
ATOM      2  H3  UNL     1       0.429   2.031   0.710  1.00  0.00     0.188 HD
HETATM    3  C9  UNL     1       1.993   1.376  -0.063  1.00  0.00     0.145 A 
HETATM    4  N4  UNL     1       2.014   2.475  -0.908  1.00  0.00    -0.175 N 
ATOM      5  H4  UNL     1       1.316   3.208  -0.783  1.00  0.00     0.186 HD
HETATM    6  C10 UNL     1       2.928   2.604  -1.888  1.00  0.00     0.678 A 
HETATM    7  N6  UNL     1       3.878   1.705  -2.137  1.00  0.00    -0.178 N 
ATOM      8  H6  UNL     1       4.561   1.815  -2.887  1.00  0.00     0.185 HD
HETATM    9  C11 UNL     1       3.862   0.609  -1.294  1.00  0.00     0.142 A 
HETATM   10  N7  UNL     1       4.538  -0.530  -1.838  1.00  0.00    -0.081 NA
HETATM   11  C12 UNL     1       2.980   0.455  -0.298  1.00  0.00     0.040 A 
ENDROOT
BRANCH   1  12
HETATM   12  N2  UNL     1       0.701   0.350   1.716  1.00  0.00    -0.314 N 
ATOM     13  H2  UNL     1       1.282   0.154   2.531  1.00  0.00     0.185 HD
BRANCH  12  14
HETATM   14  C8  UNL     1      -0.512  -0.277   1.520  1.00  0.00     0.080 C 
BRANCH  14  15
HETATM   15  C7  UNL     1      -1.235   0.124   0.313  1.00  0.00     0.052 C 
BRANCH  15  16
HETATM   16  C6  UNL     1      -2.213  -0.896  -0.189  1.00  0.00     0.093 C 
BRANCH  16  17
HETATM   17  C5  UNL     1      -3.440  -1.172   0.562  1.00  0.00     0.301 C 
HETATM   18  F1  UNL     1      -3.155  -1.446   1.928  1.00  0.00    -0.198 F 
HETATM   19  F2  UNL     1      -4.043  -2.333   0.055  1.00  0.00    -0.198 F 
BRANCH  17  20
HETATM   20  C4  UNL     1      -4.445  -0.112   0.599  1.00  0.00     0.160 A 
HETATM   21  N1  UNL     1      -5.746  -0.432   0.232  1.00  0.00    -0.328 N 
HETATM   22  C3  UNL     1      -6.747   0.439   0.217  1.00  0.00     0.115 A 
ATOM     23  H1  UNL     1      -5.944  -1.394  -0.042  1.00  0.00     0.168 HD
HETATM   24  N12 UNL     1      -6.490   1.679   0.579  1.00  0.00    -0.296 N 
HETATM   25  C15 UNL     1      -5.251   2.079   0.960  1.00  0.00     0.327 A 
ATOM     26  H12 UNL     1      -7.248   2.361   0.573  1.00  0.00     0.172 HD
HETATM   27  N11 UNL     1      -4.258   1.144   0.953  1.00  0.00    -0.293 N 
HETATM   28  O2  UNL     1      -4.957   3.236   1.310  1.00  0.00    -0.247 OA
ATOM     29  H11 UNL     1      -3.321   1.432   1.237  1.00  0.00     0.172 HD
BRANCH  22  30
HETATM   30  C2  UNL     1      -8.100  -0.011  -0.219  1.00  0.00     0.181 C 
HETATM   31  C1  UNL     1      -8.016  -1.558  -0.373  1.00  0.00     0.047 C 
BRANCH  30  32
HETATM   32  O1  UNL     1      -9.122   0.325   0.656  1.00  0.00    -0.388 OA
ATOM     33  H1  UNL     1      -9.173   1.269   0.750  1.00  0.00     0.210 HD
ENDBRANCH  30  32
ENDBRANCH  22  30
ENDBRANCH  17  20
ENDBRANCH  16  17
ENDBRANCH  15  16
ENDBRANCH  14  15
ENDBRANCH  12  14
ENDBRANCH   1  12
BRANCH  11  34
HETATM   34  C13 UNL     1       3.235  -0.705   0.715  1.00  0.00     0.143 C 
BRANCH  34  35
HETATM   35  S1  UNL     1       4.755  -1.325   0.541  1.00  0.00    -0.052 SA
BRANCH  35  36
HETATM   36  N8  UNL     1       6.143  -1.912   0.340  1.00  0.00    -0.315 N 
HETATM   37  C14 UNL     1       7.374  -1.275  -0.071  1.00  0.00     0.485 C 
HETATM   38  N9  UNL     1       7.902  -0.273   0.766  1.00  0.00    -0.032 N 
HETATM   39  N10 UNL     1       8.388  -2.357  -0.195  1.00  0.00    -0.032 N 
ATOM     40  H93 UNL     1       7.191   0.441   0.926  1.00  0.00     0.279 HD
ATOM     41  H92 UNL     1       8.015  -0.647   1.708  1.00  0.00     0.279 HD
ATOM     42  H91 UNL     1       8.771   0.176   0.476  1.00  0.00     0.279 HD
ATOM     43 3H10 UNL     1       8.486  -2.918   0.651  1.00  0.00     0.279 HD
ATOM     44 2H10 UNL     1       8.098  -3.113  -0.815  1.00  0.00     0.279 HD
ATOM     45 1H10 UNL     1       9.257  -1.908  -0.485  1.00  0.00     0.279 HD
ATOM     46  H8  UNL     1       6.217  -2.912   0.524  1.00  0.00     0.171 HD
ENDBRANCH  35  36
ENDBRANCH  34  35
ENDBRANCH  11  34
BRANCH   6  47
HETATM   47  N5  UNL     1       2.964   3.699  -2.640  1.00  0.00    -0.234 N 
ATOM     48  H52 UNL     1       2.236   4.388  -2.449  1.00  0.00     0.174 HD
ATOM     49  H51 UNL     1       3.656   3.797  -3.382  1.00  0.00     0.174 HD
ENDBRANCH   6  47
TORSDOF 12
