REMARK  15 active torsions:
REMARK  status: ('A' for Active; 'I' for Inactive)
REMARK    1  A    between atoms: O1_2  and  C2_3 
REMARK    2  A    between atoms: C3_4  and  O2_5 
REMARK    3  A    between atoms: C4_7  and  C5_8 
REMARK    4  A    between atoms: C5_8  and  N1_9 
REMARK    5  A    between atoms: N1_9  and  C7_11 
REMARK    6  A    between atoms: C7_11  and  C8_12 
REMARK    7  A    between atoms: C8_12  and  C9_13 
REMARK    8  A    between atoms: C11_18  and  C12_19 
REMARK    9  A    between atoms: C12_19  and  O5_20 
REMARK   10  A    between atoms: C12_19  and  C13_22 
REMARK   11  A    between atoms: C14_23  and  C15_24 
REMARK   12  A    between atoms: C15_24  and  O6_26 
REMARK   13  A    between atoms: C16_30  and  N4_31 
REMARK   14  A    between atoms: C17_36  and  N6_37 
REMARK   15  A    between atoms: N6_37  and  N7_39 
ROOT
HETATM    1  C12 UNL     1      -2.631  -0.906   0.351  1.00  0.00     0.199 C 
ENDROOT
BRANCH   1   2
HETATM    2  C11 UNL     1      -1.153  -1.039   0.612  1.00  0.00     0.087 A 
HETATM    3  C2  UNL     1      -0.445  -0.042   1.202  1.00  0.00     0.119 A 
HETATM    4  C3  UNL     1       0.925  -0.249   1.410  1.00  0.00     0.131 A 
HETATM    5  C4  UNL     1       1.546  -1.438   1.026  1.00  0.00     0.110 A 
HETATM    6  O3  UNL     1       0.825  -2.366   0.460  1.00  0.00    -0.275 OA
HETATM    7  C10 UNL     1      -0.484  -2.205   0.248  1.00  0.00     0.300 A 
HETATM    8  O4  UNL     1      -1.094  -3.184  -0.294  1.00  0.00    -0.259 OA
BRANCH   3   9
HETATM    9  O1  UNL     1      -0.952   1.191   1.620  1.00  0.00    -0.352 OA
HETATM   10  C1  UNL     1      -1.349   1.513   2.921  1.00  0.00     0.210 C 
ENDBRANCH   3   9
BRANCH   4  11
HETATM   11  O2  UNL     1       1.636   0.760   2.003  1.00  0.00    -0.356 OA
ATOM     12  H2  UNL     1       2.565   0.620   2.144  1.00  0.00     0.218 HD
ENDBRANCH   4  11
BRANCH   5  13
HETATM   13  C5  UNL     1       2.964  -1.576   1.308  1.00  0.00     0.184 C 
BRANCH  13  14
HETATM   14  N1  UNL     1       3.874  -1.462   0.221  1.00  0.00    -0.411 N 
HETATM   15  C6  UNL     1       3.783  -2.182  -0.945  1.00  0.00     0.143 C 
BRANCH  14  16
HETATM   16  C7  UNL     1       5.149  -1.090   0.763  1.00  0.00     0.119 C 
BRANCH  16  17
HETATM   17  C8  UNL     1       6.162  -0.435  -0.055  1.00  0.00     0.051 C 
BRANCH  17  18
HETATM   18  C9  UNL     1       5.689   0.917  -0.604  1.00  0.00     0.224 C 
HETATM   19  F1  UNL     1       6.723   1.513  -1.318  1.00  0.00    -0.255 F 
ENDBRANCH  17  18
ENDBRANCH  16  17
ENDBRANCH  14  16
ENDBRANCH  13  14
ENDBRANCH   5  13
ENDBRANCH   1   2
BRANCH   1  20
HETATM   20  O5  UNL     1      -3.084  -0.644   1.664  1.00  0.00    -0.386 OA
ATOM     21  H5  UNL     1      -4.016  -0.560   1.499  1.00  0.00     0.210 HD
ENDBRANCH   1  20
BRANCH   1  22
HETATM   22  C13 UNL     1      -2.913   0.130  -0.627  1.00  0.00     0.052 A 
HETATM   23  C14 UNL     1      -4.038   0.922  -0.481  1.00  0.00     0.109 A 
HETATM   24  N3  UNL     1      -4.233   1.925  -1.396  1.00  0.00    -0.187 N 
HETATM   25  C16 UNL     1      -3.399   2.175  -2.425  1.00  0.00     0.678 A 
ATOM     26  H3  UNL     1      -5.057   2.516  -1.292  1.00  0.00     0.184 HD
HETATM   27  N5  UNL     1      -2.327   1.382  -2.529  1.00  0.00    -0.175 N 
HETATM   28  C17 UNL     1      -2.012   0.374  -1.704  1.00  0.00     0.146 A 
ATOM     29  H5  UNL     1      -1.692   1.561  -3.307  1.00  0.00     0.186 HD
BRANCH  23  30
HETATM   30  C15 UNL     1      -5.130   0.689   0.484  1.00  0.00     0.178 C 
HETATM   31  N2  UNL     1      -5.433   1.811   1.348  1.00  0.00    -0.073 NA
BRANCH  30  32
HETATM   32  O6  UNL     1      -5.392  -0.548   0.940  1.00  0.00    -0.347 OA
ATOM     33  H6  UNL     1      -6.095  -0.698   1.561  1.00  0.00     0.219 HD
ENDBRANCH  30  32
ENDBRANCH  23  30
BRANCH  25  34
HETATM   34  N4  UNL     1      -3.617   3.135  -3.273  1.00  0.00    -0.234 N 
ATOM     35  H42 UNL     1      -4.435   3.740  -3.194  1.00  0.00     0.174 HD
ATOM     36  H41 UNL     1      -2.986   3.324  -4.052  1.00  0.00     0.174 HD
ENDBRANCH  25  34
BRANCH  28  37
HETATM   37  N6  UNL     1      -0.929  -0.282  -1.865  1.00  0.00    -0.291 N 
ATOM     38  H6  UNL     1      -0.678  -1.002  -1.188  1.00  0.00     0.188 HD
BRANCH  37  39
HETATM   39  N7  UNL     1      -0.081  -0.037  -2.945  1.00  0.00    -0.344 N 
ATOM     40  H72 UNL     1      -0.347   0.687  -3.613  1.00  0.00     0.176 HD
ATOM     41  H71 UNL     1       0.784  -0.561  -3.074  1.00  0.00     0.176 HD
ENDBRANCH  37  39
ENDBRANCH  28  37
ENDBRANCH   1  22
TORSDOF 15
