REMARK  3 active torsions:
REMARK  status: ('A' for Active; 'I' for Inactive)
REMARK    1  A    between atoms: N1_1  and  C1_5 
REMARK    2  A    between atoms: N2_9  and  C5_10 
REMARK    3  A    between atoms: C5_10  and  C6_11 
ROOT
HETATM    1  C1  UNL     1      -0.726  -0.049   1.067  1.00  0.00     0.389 C 
HETATM    2  C2  UNL     1      -2.209  -0.262   0.719  1.00  0.00     0.047 C 
HETATM    3  C3  UNL     1      -2.489   0.988  -0.050  1.00  0.00     0.036 C 
HETATM    4  C4  UNL     1      -1.216   1.082  -0.900  1.00  0.00     0.240 C 
HETATM    5  N2  UNL     1      -0.288   0.102  -0.329  1.00  0.00    -0.038 N 
HETATM    6  C9  UNL     1      -0.639  -1.175  -0.863  1.00  0.00     0.240 C 
HETATM    7  C10 UNL     1      -2.052  -1.386  -0.305  1.00  0.00     0.036 C 
ENDROOT
BRANCH   1   8
HETATM    8  N1  UNL     1      -0.511   1.122   1.843  1.00  0.00    -0.049 N 
ATOM      9  H13 UNL     1      -0.901   1.944   1.382  1.00  0.00     0.276 HD
ATOM     10  H12 UNL     1      -1.088   1.116   2.684  1.00  0.00     0.276 HD
ATOM     11  H11 UNL     1       0.472   1.263   2.074  1.00  0.00     0.276 HD
ENDBRANCH   1   8
BRANCH   5  12
HETATM   12  C5  UNL     1       1.024   0.535  -0.488  1.00  0.00     0.244 C 
BRANCH  12  13
HETATM   13  C6  UNL     1       2.098  -0.493  -0.442  1.00  0.00     0.012 A 
HETATM   14  C7  UNL     1       3.510   0.097  -0.629  1.00  0.00     0.007 A 
HETATM   15  C8  UNL     1       3.087  -0.596   0.627  1.00  0.00     0.007 A 
ENDBRANCH  12  13
ENDBRANCH   5  12
TORSDOF 3
