REMARK  8 active torsions:
REMARK  status: ('A' for Active; 'I' for Inactive)
REMARK    1  A    between atoms: C2_2  and  C3_3 
REMARK    2  A    between atoms: C3_3  and  C4_4 
REMARK    3  A    between atoms: C4_4  and  N1_5 
REMARK    4  A    between atoms: N1_5  and  C5_7 
REMARK    5  A    between atoms: C6_10  and  N3_11 
REMARK    6  A    between atoms: N3_11  and  C7_13 
REMARK    7  A    between atoms: N5_19  and  C11_20 
REMARK    8  A    between atoms: C14_23  and  C15_24 
ROOT
HETATM    1  C5  UNL     1       2.082  -0.025   1.033  1.00  0.00     0.680 A 
HETATM    2  N2  UNL     1       2.429   1.245   0.795  1.00  0.00    -0.175 N 
ATOM      3  H2  UNL     1       3.363   1.567   1.047  1.00  0.00     0.186 HD
HETATM    4  C6  UNL     1       1.551   2.114   0.220  1.00  0.00     0.148 A 
HETATM    5  C10 UNL     1       0.319   1.593  -0.084  1.00  0.00     0.122 A 
HETATM    6  N4  UNL     1      -0.735   2.147  -0.654  1.00  0.00    -0.288 N 
ATOM      7  H4  UNL     1      -0.778   3.120  -0.958  1.00  0.00     0.188 HD
HETATM    8  N5  UNL     1      -1.757   1.258  -0.785  1.00  0.00    -0.260 N 
HETATM    9  C14 UNL     1      -1.371   0.086  -0.292  1.00  0.00     0.112 A 
HETATM   10  C21 UNL     1      -0.050   0.282   0.158  1.00  0.00     0.112 A 
HETATM   11  N7  UNL     1       0.845  -0.529   0.721  1.00  0.00    -0.187 N 
ATOM     12  H7  UNL     1       0.615  -1.504   0.916  1.00  0.00     0.184 HD
ENDROOT
BRANCH   9  13
HETATM   13  C15 UNL     1      -2.133  -1.149  -0.108  1.00  0.00     0.065 A 
HETATM   14  C16 UNL     1      -3.074  -1.757  -0.915  1.00  0.00     0.046 A 
HETATM   15  C17 UNL     1      -3.472  -2.999  -0.393  1.00  0.00     0.000 A 
HETATM   16  C18 UNL     1      -4.317  -4.015  -0.707  1.00  0.00     0.021 A 
HETATM   17  C20 UNL     1      -2.747  -3.123   0.747  1.00  0.00     0.084 A 
HETATM   18  C19 UNL     1      -4.361  -5.076   0.158  1.00  0.00     0.053 A 
HETATM   19  S1  UNL     1      -3.241  -4.635   1.367  1.00  0.00    -0.083 SA
HETATM   20  N6  UNL     1      -1.951  -2.031   0.925  1.00  0.00    -0.348 N 
ATOM     21  H6  UNL     1      -1.315  -1.891   1.710  1.00  0.00     0.166 HD
ENDBRANCH   9  13
BRANCH   8  22
HETATM   22  C11 UNL     1      -3.023   1.660  -1.357  1.00  0.00     0.005 C 
HETATM   23  C12 UNL     1      -3.130   1.420  -2.846  1.00  0.00     0.065 C 
HETATM   24  C13 UNL     1      -4.235   1.318  -0.565  1.00  0.00     0.065 C 
ENDBRANCH   8  22
BRANCH   4  25
HETATM   25  N3  UNL     1       1.952   3.304   0.025  1.00  0.00    -0.370 N 
ATOM     26  H3  UNL     1       2.908   3.503   0.321  1.00  0.00     0.161 HD
BRANCH  25  27
HETATM   27  C7  UNL     1       1.240   4.402  -0.555  1.00  0.00     0.075 C 
HETATM   28  C8  UNL     1       2.322   5.444  -0.905  1.00  0.00     0.031 C 
HETATM   29  C9  UNL     1       0.288   4.971   0.473  1.00  0.00     0.031 C 
ENDBRANCH  25  27
ENDBRANCH   4  25
BRANCH   1  30
HETATM   30  N1  UNL     1       2.917  -0.838   1.575  1.00  0.00    -0.226 N 
ATOM     31  H1  UNL     1       3.842  -0.481   1.814  1.00  0.00     0.177 HD
BRANCH  30  32
HETATM   32  C4  UNL     1       2.635  -2.210   1.866  1.00  0.00     0.138 C 
BRANCH  32  33
HETATM   33  C3  UNL     1       3.900  -2.909   2.308  1.00  0.00     0.020 C 
BRANCH  33  34
HETATM   34  C2  UNL     1       4.930  -2.832   1.200  1.00  0.00    -0.003 C 
HETATM   35  C1  UNL     1       4.456  -3.482  -0.062  1.00  0.00     0.005 C 
ENDBRANCH  33  34
ENDBRANCH  32  33
ENDBRANCH  30  32
ENDBRANCH   1  30
TORSDOF 8
