REMARK  7 active torsions:
REMARK  status: ('A' for Active; 'I' for Inactive)
REMARK    1  A    between atoms: C2_2  and  C3_4 
REMARK    2  A    between atoms: C6_9  and  C7_10 
REMARK    3  A    between atoms: C9_14  and  C10_15 
REMARK    4  A    between atoms: C10_15  and  C11_17 
REMARK    5  A    between atoms: C11_17  and  C12_18 
REMARK    6  A    between atoms: C15_21  and  O5_22 
REMARK    7  A    between atoms: C16_24  and  O6_25 
ROOT
HETATM    1  C7  UNL     1       1.969  -0.798   0.229  1.00  0.00     0.133 A 
HETATM    2  O2  UNL     1       1.389  -1.693  -0.533  1.00  0.00    -0.270 OA
HETATM    3  C8  UNL     1       0.141  -1.677  -0.850  1.00  0.00     0.305 A 
HETATM    4  O3  UNL     1      -0.395  -2.563  -1.595  1.00  0.00    -0.259 OA
HETATM    5  C9  UNL     1      -0.692  -0.669  -0.382  1.00  0.00     0.121 A 
HETATM    6  C15 UNL     1      -0.149   0.317   0.434  1.00  0.00     0.121 A 
HETATM    7  C16 UNL     1       1.213   0.224   0.730  1.00  0.00     0.136 A 
ENDROOT
BRANCH   1   8
HETATM    8  C6  UNL     1       3.405  -0.907   0.548  1.00  0.00     0.057 A 
HETATM    9  C3  UNL     1       4.447  -0.040   0.524  1.00  0.00     0.031 A 
HETATM   10  C4  UNL     1       5.606  -0.454   1.121  1.00  0.00     0.048 A 
HETATM   11  C5  UNL     1       5.632  -1.687   1.678  1.00  0.00     0.076 A 
HETATM   12 CL1  UNL     1       6.978  -2.488   2.511  1.00  0.00    -0.076 Cl
HETATM   13  S1  UNL     1       4.084  -2.283   1.393  1.00  0.00    -0.074 SA
BRANCH   9  14
HETATM   14  C2  UNL     1       4.466   1.201  -0.302  1.00  0.00     0.157 C 
HETATM   15  C1  UNL     1       3.480   1.504  -1.338  1.00  0.00     0.097 C 
HETATM   16  O1  UNL     1       5.378   2.044  -0.127  1.00  0.00    -0.293 OA
ENDBRANCH   9  14
ENDBRANCH   1   8
BRANCH   7  17
HETATM   17  O6  UNL     1       1.804   1.156   1.540  1.00  0.00    -0.356 OA
ATOM     18  H6  UNL     1       1.278   1.867   1.888  1.00  0.00     0.218 HD
ENDBRANCH   7  17
BRANCH   6  19
HETATM   19  O5  UNL     1      -0.952   1.326   0.911  1.00  0.00    -0.357 OA
ATOM     20  H5  UNL     1      -0.581   2.000   1.469  1.00  0.00     0.218 HD
ENDBRANCH   6  19
BRANCH   5  21
HETATM   21  C10 UNL     1      -2.087  -0.670  -0.755  1.00  0.00     0.168 C 
HETATM   22  O4  UNL     1      -2.526  -1.606  -1.506  1.00  0.00    -0.292 OA
BRANCH  21  23
HETATM   23  C11 UNL     1      -3.061   0.331  -0.334  1.00  0.00     0.088 C 
BRANCH  23  24
HETATM   24  C12 UNL     1      -4.455   0.034  -0.873  1.00  0.00    -0.015 C 
HETATM   25  C13 UNL     1      -4.904  -1.307  -0.363  1.00  0.00     0.010 C 
HETATM   26  C14 UNL     1      -5.407   1.080  -0.295  1.00  0.00     0.010 C 
ENDBRANCH  23  24
ENDBRANCH  21  23
ENDBRANCH   5  21
TORSDOF 7
