REMARK  12 active torsions:
REMARK  status: ('A' for Active; 'I' for Inactive)
REMARK    1  A    between atoms: C2_2  and  C3_3 
REMARK    2  A    between atoms: C3_3  and  N1_4 
REMARK    3  A    between atoms: C3_3  and  C23_36 
REMARK       I    between atoms: N1_4  and  C4_6 
REMARK       I    between atoms: C4_6  and  N2_8 
REMARK    4  A    between atoms: C7_11  and  N3_12 
REMARK       I    between atoms: N3_12  and  C8_14 
REMARK    5  A    between atoms: C8_14  and  C9_16 
REMARK    6  A    between atoms: C9_16  and  C10_17 
REMARK    7  A    between atoms: C9_16  and  N5_25 
REMARK    8  A    between atoms: C10_17  and  C11_18 
REMARK       I    between atoms: N5_25  and  C16_27 
REMARK    9  A    between atoms: C16_27  and  C17_29 
REMARK   10  A    between atoms: C17_29  and  O5_32 
REMARK   11  A    between atoms: C23_36  and  O6_37 
REMARK   12  A    between atoms: C23_36  and  N6_39 
ROOT
HETATM    1  N1  UNL     1       3.912  -0.006  -0.851  1.00  0.00    -0.331 N 
ATOM      2  H1  UNL     1       3.505  -0.101   0.080  1.00  0.00     0.165 HD
HETATM    3  C4  UNL     1       3.125  -0.481  -1.899  1.00  0.00     0.319 C 
HETATM    4  O1  UNL     1       3.505  -0.447  -3.100  1.00  0.00    -0.247 OA
HETATM    5  N2  UNL     1       1.817  -1.053  -1.680  1.00  0.00    -0.334 N 
HETATM    6  C5  UNL     1       1.226  -0.994  -0.379  1.00  0.00     0.129 C 
HETATM    7  C6  UNL     1       0.096  -1.966  -0.234  1.00  0.00     0.045 C 
HETATM    8  C7  UNL     1      -0.913  -1.986  -1.313  1.00  0.00     0.087 C 
HETATM    9  C21 UNL     1      -0.348  -1.737  -2.671  1.00  0.00     0.045 C 
HETATM   10  C22 UNL     1       1.126  -1.739  -2.747  1.00  0.00     0.129 C 
ENDROOT
BRANCH   8  11
HETATM   11  N3  UNL     1      -2.046  -1.071  -1.091  1.00  0.00    -0.355 N 
HETATM   12  C8  UNL     1      -3.242  -1.617  -0.578  1.00  0.00     0.240 C 
HETATM   13  O2  UNL     1      -3.314  -2.863  -0.294  1.00  0.00    -0.271 OA
ATOM     14  H3  UNL     1      -1.969  -0.076  -1.301  1.00  0.00     0.162 HD
BRANCH  12  15
HETATM   15  C9  UNL     1      -4.488  -0.818  -0.334  1.00  0.00     0.177 C 
BRANCH  15  16
HETATM   16  C10 UNL     1      -4.939  -0.430  -1.745  1.00  0.00     0.049 C 
BRANCH  16  17
HETATM   17  C11 UNL     1      -6.191   0.365  -1.785  1.00  0.00     0.082 C 
HETATM   18  C12 UNL     1      -6.484   0.665  -3.260  1.00  0.00     0.034 C 
HETATM   19  C13 UNL     1      -7.438   1.829  -3.161  1.00  0.00     0.126 C 
HETATM   20  N4  UNL     1      -7.093   2.488  -1.890  1.00  0.00    -0.356 N 
HETATM   21  C14 UNL     1      -7.633   3.755  -1.446  1.00  0.00     0.152 C 
HETATM   22  C15 UNL     1      -6.152   1.700  -1.188  1.00  0.00     0.223 C 
HETATM   23  O3  UNL     1      -5.457   2.167  -0.236  1.00  0.00    -0.273 OA
ENDBRANCH  16  17
ENDBRANCH  15  16
BRANCH  15  24
HETATM   24  N5  UNL     1      -5.495  -1.595   0.311  1.00  0.00    -0.345 N 
HETATM   25  C16 UNL     1      -6.030  -1.231   1.585  1.00  0.00     0.252 C 
HETATM   26  O4  UNL     1      -5.571  -0.193   2.129  1.00  0.00    -0.270 OA
ATOM     27  H5  UNL     1      -5.844  -2.435  -0.151  1.00  0.00     0.163 HD
BRANCH  25  28
HETATM   28  C17 UNL     1      -7.079  -2.004   2.275  1.00  0.00     0.133 C 
HETATM   29  C18 UNL     1      -6.644  -3.403   2.645  1.00  0.00     0.056 C 
HETATM   30  C19 UNL     1      -8.319  -2.131   1.391  1.00  0.00     0.056 C 
BRANCH  28  31
HETATM   31  O5  UNL     1      -7.395  -1.337   3.462  1.00  0.00    -0.376 OA
HETATM   32  C20 UNL     1      -8.374  -1.942   4.210  1.00  0.00     0.203 C 
ENDBRANCH  28  31
ENDBRANCH  25  28
ENDBRANCH  15  24
ENDBRANCH  12  15
ENDBRANCH   8  11
BRANCH   1  33
HETATM   33  C3  UNL     1       5.226   0.603  -0.896  1.00  0.00     0.160 C 
BRANCH  33  34
HETATM   34  C2  UNL     1       6.131  -0.269  -1.803  1.00  0.00     0.029 C 
HETATM   35  C1  UNL     1       7.541   0.234  -1.896  1.00  0.00     0.007 C 
ENDBRANCH  33  34
BRANCH  33  36
HETATM   36  C23 UNL     1       5.763   0.706   0.446  1.00  0.00     0.137 C 
BRANCH  36  37
HETATM   37  O6  UNL     1       5.499  -0.324   1.209  1.00  0.00    -0.348 OA
ATOM     38  H6  UNL     1       5.851  -0.256   2.089  1.00  0.00     0.219 HD
ENDBRANCH  36  37
BRANCH  36  39
HETATM   39  N6  UNL     1       6.509   1.716   1.061  1.00  0.00    -0.363 N 
HETATM   40  C24 UNL     1       6.844   2.950   0.413  1.00  0.00     0.124 C 
HETATM   41  C25 UNL     1       8.328   3.185   0.505  1.00  0.00     0.020 C 
HETATM   42  C26 UNL     1       8.851   3.450   1.875  1.00  0.00     0.002 C 
HETATM   43  C27 UNL     1       9.278   2.195   2.629  1.00  0.00     0.006 C 
HETATM   44  C28 UNL     1       8.414   1.008   2.268  1.00  0.00    -0.001 C 
HETATM   45  C29 UNL     1       8.700  -0.183   3.132  1.00  0.00     0.011 C 
HETATM   46  C30 UNL     1       6.954   1.406   2.441  1.00  0.00     0.128 C 
ENDBRANCH  36  39
ENDBRANCH  33  36
ENDBRANCH   1  33
TORSDOF 12
