REMARK  10 active torsions:
REMARK  status: ('A' for Active; 'I' for Inactive)
REMARK    1  A    between atoms: C2_2  and  C4_4 
REMARK    2  A    between atoms: C4_4  and  C5_5 
REMARK    3  A    between atoms: C5_5  and  C6_6 
REMARK    4  A    between atoms: C5_5  and  N2_16 
REMARK    5  A    between atoms: C6_6  and  N1_7 
REMARK       I    between atoms: N2_16  and  C15_18 
REMARK    6  A    between atoms: C15_18  and  C16_20 
REMARK    7  A    between atoms: C19_23  and  C20_24 
REMARK       I    between atoms: C20_24  and  N3_26 
REMARK    8  A    between atoms: N3_26  and  C21_28 
REMARK    9  A    between atoms: C25_32  and  C26_33 
REMARK       I    between atoms: N4_36  and  C27_37 
REMARK   10  A    between atoms: C27_37  and  C28_39 
ROOT
HETATM    1  C16 UNL     1      -1.600  -0.699  -1.630  1.00  0.00     0.180 C 
HETATM    2  C17 UNL     1      -2.270   0.653  -1.597  1.00  0.00     0.037 C 
HETATM    3  C18 UNL     1      -3.703   0.330  -1.229  1.00  0.00     0.037 C 
HETATM    4  C19 UNL     1      -3.540  -0.929  -0.365  1.00  0.00     0.180 C 
HETATM    5  N4  UNL     1      -2.462  -1.631  -1.005  1.00  0.00    -0.323 N 
HETATM    6  C27 UNL     1      -2.393  -3.062  -0.995  1.00  0.00     0.255 C 
HETATM    7  O5  UNL     1      -3.301  -3.667  -0.332  1.00  0.00    -0.271 OA
ENDROOT
BRANCH   1   8
HETATM    8  C15 UNL     1      -0.231  -0.575  -1.092  1.00  0.00     0.245 C 
HETATM    9  N2  UNL     1       0.636   0.404  -1.629  1.00  0.00    -0.324 N 
ATOM     10  H2  UNL     1       0.286   0.999  -2.380  1.00  0.00     0.169 HD
HETATM   11  O1  UNL     1       0.155  -1.328  -0.169  1.00  0.00    -0.271 OA
BRANCH   9  12
HETATM   12  C5  UNL     1       2.012   0.610  -1.164  1.00  0.00     0.046 C 
BRANCH  12  13
HETATM   13  C4  UNL     1       3.014   0.502  -2.214  1.00  0.00     0.008 C 
BRANCH  13  14
HETATM   14  C2  UNL     1       3.222   1.547  -3.219  1.00  0.00     0.002 C 
HETATM   15  C1  UNL     1       3.611   2.910  -2.789  1.00  0.00     0.013 C 
HETATM   16  C3  UNL     1       4.395   1.044  -4.094  1.00  0.00     0.013 C 
ENDBRANCH  13  14
ENDBRANCH  12  13
BRANCH  12  17
HETATM   17  C6  UNL     1       2.065   1.729  -0.169  1.00  0.00     0.119 C 
BRANCH  17  18
HETATM   18  N1  UNL     1       3.154   1.874   0.659  1.00  0.00    -0.367 N 
HETATM   19  C7  UNL     1       3.166   2.871   1.674  1.00  0.00     0.133 C 
HETATM   20  C8  UNL     1       4.208   2.344   2.697  1.00  0.00     0.013 C 
HETATM   21  C9  UNL     1       3.482   1.465   3.647  1.00  0.00     0.007 C 
HETATM   22  C13 UNL     1       5.191   1.660   1.813  1.00  0.00     0.030 C 
HETATM   23  C10 UNL     1       3.931   0.025   3.628  1.00  0.00     0.000 C 
HETATM   24  C11 UNL     1       5.445   0.028   3.701  1.00  0.00     0.001 C 
HETATM   25  C12 UNL     1       5.943   0.524   2.369  1.00  0.00     0.010 C 
HETATM   26  C14 UNL     1       4.368   1.217   0.609  1.00  0.00     0.068 C 
ENDBRANCH  17  18
ENDBRANCH  12  17
ENDBRANCH   9  12
ENDBRANCH   1   8
BRANCH   4  27
HETATM   27  C20 UNL     1      -3.345  -0.504   1.011  1.00  0.00     0.241 C 
HETATM   28  O2  UNL     1      -2.422  -0.777   1.790  1.00  0.00    -0.271 OA
HETATM   29  N3  UNL     1      -4.367   0.360   1.554  1.00  0.00    -0.354 N 
ATOM     30  H3  UNL     1      -5.154   0.617   0.959  1.00  0.00     0.162 HD
BRANCH  29  31
HETATM   31  C21 UNL     1      -4.324   0.877   2.904  1.00  0.00     0.098 C 
HETATM   32  C22 UNL     1      -5.585   0.488   3.679  1.00  0.00     0.026 C 
HETATM   33  C23 UNL     1      -6.652   1.323   2.997  1.00  0.00     0.003 C 
HETATM   34  C24 UNL     1      -5.976   2.621   2.655  1.00  0.00     0.017 C 
HETATM   35  C25 UNL     1      -4.486   2.391   2.907  1.00  0.00     0.109 C 
BRANCH  35  36
HETATM   36  C26 UNL     1      -3.730   3.063   1.846  1.00  0.00     0.179 C 
HETATM   37  O3  UNL     1      -4.323   3.771   1.006  1.00  0.00    -0.648 OA
HETATM   38  O4  UNL     1      -2.356   2.916   1.773  1.00  0.00    -0.648 OA
ENDBRANCH  35  36
ENDBRANCH  29  31
ENDBRANCH   4  27
BRANCH   6  39
HETATM   39  C28 UNL     1      -1.420  -3.916  -1.650  1.00  0.00     0.313 C 
HETATM   40  C29 UNL     1      -1.157  -3.683  -3.089  1.00  0.00     0.047 C 
HETATM   41  C30 UNL     1      -0.467  -4.983  -3.519  1.00  0.00     0.033 C 
HETATM   42  C31 UNL     1      -0.690  -5.915  -2.364  1.00  0.00     0.273 C 
HETATM   43  N5  UNL     1      -1.788  -5.329  -1.593  1.00  0.00     0.098 N 
HETATM   44  C32 UNL     1      -3.016  -5.627  -2.257  1.00  0.00     0.310 C 
ENDBRANCH   6  39
TORSDOF 10
