REMARK  2 active torsions:
REMARK  status: ('A' for Active; 'I' for Inactive)
REMARK    1  A    between atoms: N1_1  and  C1_4 
REMARK       I    between atoms: N5_14  and  C4_16 
REMARK    2  A    between atoms: C4_16  and  C5_18 
ROOT
HETATM    1  C1  UNL     1      -1.354  -1.495   0.515  1.00  0.00     0.149 A 
HETATM    2  N2  UNL     1      -2.392  -1.210   1.322  1.00  0.00    -0.291 N 
ATOM      3  H2  UNL     1      -3.018  -1.949   1.643  1.00  0.00     0.172 HD
HETATM    4  C2  UNL     1      -2.589   0.062   1.696  1.00  0.00     0.340 A 
HETATM    5  O1  UNL     1      -3.567   0.297   2.450  1.00  0.00    -0.245 OA
HETATM    6  N3  UNL     1      -1.751   1.016   1.260  1.00  0.00    -0.250 N 
ATOM      7  H3  UNL     1      -1.914   1.979   1.554  1.00  0.00     0.192 HD
HETATM    8  N4  UNL     1      -0.723   0.762   0.466  1.00  0.00    -0.278 N 
ATOM      9  H4  UNL     1      -0.110   1.516   0.157  1.00  0.00     0.189 HD
HETATM   10  C3  UNL     1      -0.497  -0.504   0.072  1.00  0.00     0.167 A 
HETATM   11  N5  UNL     1       0.468  -0.856  -0.694  1.00  0.00    -0.301 N 
ATOM     12  H5  UNL     1       0.539  -1.847  -0.927  1.00  0.00     0.171 HD
HETATM   13  C4  UNL     1       1.433  -0.001  -1.240  1.00  0.00     0.312 C 
HETATM   14  O2  UNL     1       1.428   0.299  -2.460  1.00  0.00    -0.262 OA
ENDROOT
BRANCH   1  15
HETATM   15  N1  UNL     1      -1.191  -2.748   0.168  1.00  0.00    -0.382 N 
ATOM     16  H12 UNL     1      -1.823  -3.479   0.495  1.00  0.00     0.157 HD
ATOM     17  H11 UNL     1      -0.404  -2.964  -0.444  1.00  0.00     0.157 HD
ENDBRANCH   1  15
BRANCH  13  18
HETATM   18  C5  UNL     1       2.486   0.579  -0.417  1.00  0.00     0.322 C 
HETATM   19  N6  UNL     1       3.474   1.448  -0.954  1.00  0.00    -0.053 NA
HETATM   20  O3  UNL     1       2.532   0.302   0.829  1.00  0.00    -0.266 OA
ENDBRANCH  13  18
TORSDOF 2
