REMARK  12 active torsions:
REMARK  status: ('A' for Active; 'I' for Inactive)
REMARK    1  A    between atoms: C2_2  and  C4_4 
REMARK       I    between atoms: C4_4  and  N1_6 
REMARK    2  A    between atoms: N1_6  and  C5_8 
REMARK    3  A    between atoms: C5_8  and  C6_9 
REMARK    4  A    between atoms: C6_9  and  C7_10 
REMARK       I    between atoms: N3_15  and  C10_16 
REMARK    5  A    between atoms: C10_16  and  C11_18 
REMARK       I    between atoms: N4_21  and  C14_22 
REMARK    6  A    between atoms: C18_27  and  C19_28 
REMARK       I    between atoms: C19_28  and  N5_30 
REMARK    7  A    between atoms: C21_32  and  C22_33 
REMARK    8  A    between atoms: C21_32  and  C25_36 
REMARK    9  A    between atoms: C22_33  and  C23_34 
REMARK   10  A    between atoms: C25_36  and  C26_37 
REMARK   11  A    between atoms: C30_41  and  C31_42 
REMARK       I    between atoms: C31_42  and  N6_44 
REMARK   12  A    between atoms: N6_44  and  C32_46 
ROOT
HETATM    1  C7  UNL     1       2.428  -1.085   1.087  1.00  0.00     0.085 C 
HETATM    2  S1  UNL     1       0.927  -0.170   1.562  1.00  0.00    -0.073 SA
HETATM    3  N2  UNL     1       0.705  -0.423  -0.195  1.00  0.00    -0.220 NA
HETATM    4  C8  UNL     1       2.163  -0.484  -0.283  1.00  0.00     0.105 C 
HETATM    5  C9  UNL     1       2.508   1.009  -0.209  1.00  0.00     0.150 C 
HETATM    6  N3  UNL     1       1.472   1.643  -0.979  1.00  0.00    -0.324 N 
HETATM    7  C10 UNL     1       1.610   2.871  -1.675  1.00  0.00     0.225 C 
HETATM    8  O2  UNL     1       0.583   3.281  -2.303  1.00  0.00    -0.273 OA
HETATM    9  C18 UNL     1       0.330   0.792  -0.887  1.00  0.00     0.266 C 
ENDROOT
BRANCH   9  10
HETATM   10  C19 UNL     1      -0.861   1.367  -0.257  1.00  0.00     0.259 C 
HETATM   11  O4  UNL     1      -0.910   2.601   0.033  1.00  0.00    -0.269 OA
HETATM   12  N5  UNL     1      -1.974   0.558   0.034  1.00  0.00    -0.335 N 
HETATM   13  C20 UNL     1      -2.115  -0.847  -0.288  1.00  0.00     0.136 C 
HETATM   14  C30 UNL     1      -3.219   0.960   0.726  1.00  0.00     0.180 C 
HETATM   15  C21 UNL     1      -3.638  -1.133  -0.227  1.00  0.00    -0.021 C 
HETATM   16  C29 UNL     1      -4.197   0.233  -0.189  1.00  0.00     0.046 C 
BRANCH  15  17
HETATM   17  C22 UNL     1      -4.003  -1.774  -1.544  1.00  0.00     0.011 C 
BRANCH  17  18
HETATM   18  C23 UNL     1      -3.263  -3.070  -1.796  1.00  0.00    -0.004 C 
HETATM   19  C24 UNL     1      -3.646  -3.672  -3.127  1.00  0.00     0.005 C 
ENDBRANCH  17  18
ENDBRANCH  15  17
BRANCH  15  20
HETATM   20  C25 UNL     1      -3.838  -2.010   0.942  1.00  0.00     0.015 C 
BRANCH  20  21
HETATM   21  C26 UNL     1      -5.197  -2.485   1.268  1.00  0.00    -0.022 C 
HETATM   22  C27 UNL     1      -5.045  -3.386   2.519  1.00  0.00     0.009 C 
HETATM   23  C28 UNL     1      -6.178  -1.420   1.710  1.00  0.00     0.009 C 
ENDBRANCH  20  21
ENDBRANCH  15  20
BRANCH  14  24
HETATM   24  C31 UNL     1      -3.435   2.400   0.752  1.00  0.00     0.240 C 
HETATM   25  O5  UNL     1      -3.887   2.980  -0.267  1.00  0.00    -0.271 OA
HETATM   26  N6  UNL     1      -3.154   3.197   1.894  1.00  0.00    -0.360 N 
ATOM     27  H6  UNL     1      -2.786   2.751   2.734  1.00  0.00     0.162 HD
BRANCH  26  28
HETATM   28  C32 UNL     1      -3.379   4.635   1.893  1.00  0.00     0.118 C 
HETATM   29  C33 UNL     1      -4.813   5.014   1.661  1.00  0.00     0.026 C 
ENDBRANCH  26  28
ENDBRANCH  14  24
ENDBRANCH   9  10
BRANCH   7  30
HETATM   30  C11 UNL     1       2.806   3.710  -1.745  1.00  0.00     0.081 C 
HETATM   31  C12 UNL     1       2.438   5.104  -2.283  1.00  0.00     0.034 C 
HETATM   32  C13 UNL     1       3.633   5.852  -2.788  1.00  0.00     0.126 C 
HETATM   33  N4  UNL     1       4.839   5.255  -2.216  1.00  0.00    -0.352 N 
HETATM   34  C14 UNL     1       5.675   5.958  -1.336  1.00  0.00     0.215 C 
HETATM   35  C16 UNL     1       5.142   3.899  -2.594  1.00  0.00     0.126 C 
HETATM   36  C15 UNL     1       6.893   5.345  -0.757  1.00  0.00     0.117 C 
HETATM   37  O3  UNL     1       5.376   7.144  -1.033  1.00  0.00    -0.274 OA
HETATM   38  C17 UNL     1       3.829   3.166  -2.736  1.00  0.00     0.034 C 
ENDBRANCH   7  30
BRANCH   1  39
HETATM   39  C6  UNL     1       2.256  -2.587   1.125  1.00  0.00     0.038 C 
BRANCH  39  40
HETATM   40  C5  UNL     1       3.554  -3.205   0.715  1.00  0.00     0.124 C 
BRANCH  40  41
HETATM   41  N1  UNL     1       3.575  -4.640   0.699  1.00  0.00    -0.357 N 
HETATM   42  C4  UNL     1       3.333  -5.401   1.856  1.00  0.00     0.246 C 
HETATM   43  O1  UNL     1       3.085  -4.891   2.960  1.00  0.00    -0.268 OA
ATOM     44  H1  UNL     1       3.771  -5.122  -0.178  1.00  0.00     0.162 HD
BRANCH  42  45
HETATM   45  C2  UNL     1       3.374  -6.862   1.754  1.00  0.00    -0.004 C 
HETATM   46  C1  UNL     1       3.145  -7.598   2.819  1.00  0.00     0.024 C 
HETATM   47  C3  UNL     1       3.687  -7.519   0.452  1.00  0.00     0.053 C 
ENDBRANCH  42  45
ENDBRANCH  40  41
ENDBRANCH  39  40
ENDBRANCH   1  39
TORSDOF 12
