REMARK  16 active torsions:
REMARK  status: ('A' for Active; 'I' for Inactive)
REMARK    1  A    between atoms: C2_2  and  C3_3 
REMARK    2  A    between atoms: N2_9  and  C6_10 
REMARK    3  A    between atoms: C6_10  and  C7_11 
REMARK    4  A    between atoms: C7_11  and  C8_12 
REMARK    5  A    between atoms: C8_12  and  C9_13 
REMARK    6  A    between atoms: C9_13  and  C10_14 
REMARK    7  A    between atoms: C12_19  and  C13_20 
REMARK    8  A    between atoms: C13_20  and  N4_21 
REMARK    9  A    between atoms: C20_28  and  O3_29 
REMARK   10  A    between atoms: N5_31  and  C21_32 
REMARK   11  A    between atoms: C21_32  and  O4_33 
REMARK   12  A    between atoms: C21_32  and  N6_35 
REMARK   13  A    between atoms: N6_35  and  C22_36 
REMARK   14  A    between atoms: N6_35  and  C30_46 
REMARK   15  A    between atoms: C22_36  and  C23_37 
REMARK       I    between atoms: C23_37  and  N7_39 
REMARK   16  A    between atoms: C30_46  and  C31_47 
ROOT
HETATM    1  C10 UNL     1      -1.553  -0.855  -0.005  1.00  0.00     0.182 C 
HETATM    2  C11 UNL     1      -2.582  -0.087   0.658  1.00  0.00     0.241 C 
HETATM    3  O2  UNL     1      -3.776  -0.513   0.728  1.00  0.00    -0.271 OA
HETATM    4  N3  UNL     1      -2.351   1.183   1.277  1.00  0.00    -0.349 N 
ATOM      5  H3  UNL     1      -2.954   1.477   2.046  1.00  0.00     0.163 HD
HETATM    6  C12 UNL     1      -1.261   2.082   0.832  1.00  0.00     0.159 C 
HETATM    7  C20 UNL     1      -0.777   1.429  -0.473  1.00  0.00     0.248 C 
HETATM    8  N5  UNL     1      -0.406   0.068  -0.285  1.00  0.00    -0.305 N 
ENDROOT
BRANCH   8   9
HETATM    9  C21 UNL     1       0.856  -0.484  -0.315  1.00  0.00     0.220 C 
BRANCH   9  10
HETATM   10  O4  UNL     1       0.831  -1.787  -0.018  1.00  0.00    -0.332 OA
ATOM     11  H4  UNL     1       1.701  -2.168  -0.039  1.00  0.00     0.220 HD
ENDBRANCH   9  10
BRANCH   9  12
HETATM   12  N6  UNL     1       2.120   0.002  -0.580  1.00  0.00    -0.338 N 
BRANCH  12  13
HETATM   13  C22 UNL     1       3.209  -1.022  -0.415  1.00  0.00     0.229 C 
BRANCH  13  14
HETATM   14  C23 UNL     1       3.658  -1.012   1.013  1.00  0.00     0.238 C 
HETATM   15  O5  UNL     1       3.088  -0.199   1.784  1.00  0.00    -0.272 OA
HETATM   16  N7  UNL     1       4.680  -1.890   1.446  1.00  0.00    -0.346 N 
HETATM   17  C24 UNL     1       5.209  -1.993   2.792  1.00  0.00     0.131 C 
HETATM   18  C28 UNL     1       5.377  -2.835   0.642  1.00  0.00     0.087 C 
HETATM   19  C25 UNL     1       6.274  -3.068   2.700  1.00  0.00     0.006 C 
HETATM   20  C26 UNL     1       5.585  -4.376   2.495  1.00  0.00     0.008 C 
HETATM   21  C29 UNL     1       6.781  -2.778   1.275  1.00  0.00     0.031 C 
HETATM   22  C27 UNL     1       4.981  -4.225   1.100  1.00  0.00     0.026 C 
ENDBRANCH  13  14
ENDBRANCH  12  13
BRANCH  12  23
HETATM   23  C30 UNL     1       2.598   1.290  -0.951  1.00  0.00     0.131 C 
BRANCH  23  24
HETATM   24  C31 UNL     1       2.574   1.620  -2.414  1.00  0.00     0.004 C 
HETATM   25  C32 UNL     1       3.142   3.036  -2.642  1.00  0.00     0.006 C 
HETATM   26  C33 UNL     1       4.312   2.871  -3.586  1.00  0.00     0.000 C 
HETATM   27  C34 UNL     1       4.732   1.423  -3.330  1.00  0.00     0.000 C 
HETATM   28  C35 UNL     1       3.337   0.771  -3.344  1.00  0.00     0.006 C 
ENDBRANCH  23  24
ENDBRANCH  12  23
ENDBRANCH   9  12
ENDBRANCH   8   9
BRANCH   1  29
HETATM   29  C9  UNL     1      -1.913  -1.573  -1.254  1.00  0.00     0.035 C 
BRANCH  29  30
HETATM   30  C8  UNL     1      -2.991  -2.604  -1.137  1.00  0.00     0.004 C 
BRANCH  30  31
HETATM   31  C7  UNL     1      -2.575  -3.659  -0.152  1.00  0.00     0.020 C 
BRANCH  31  32
HETATM   32  C6  UNL     1      -3.579  -4.765   0.034  1.00  0.00     0.128 C 
BRANCH  32  33
HETATM   33  N2  UNL     1      -4.861  -4.307   0.510  1.00  0.00    -0.325 N 
HETATM   34  C3  UNL     1      -5.265  -4.134   1.874  1.00  0.00     0.129 C 
HETATM   35  C4  UNL     1      -6.753  -3.976   1.829  1.00  0.00     0.153 C 
HETATM   36  N1  UNL     1      -6.953  -3.353   0.512  1.00  0.00    -0.341 N 
HETATM   37  C5  UNL     1      -5.942  -3.942  -0.320  1.00  0.00     0.319 C 
ATOM     38  H1  UNL     1      -7.652  -2.659   0.249  1.00  0.00     0.164 HD
HETATM   39  O1  UNL     1      -6.056  -4.085  -1.580  1.00  0.00    -0.247 OA
BRANCH  34  40
HETATM   40  C2  UNL     1      -4.853  -5.282   2.745  1.00  0.00    -0.010 C 
HETATM   41  C1  UNL     1      -5.068  -5.202   4.038  1.00  0.00     0.009 C 
ENDBRANCH  34  40
ENDBRANCH  32  33
ENDBRANCH  31  32
ENDBRANCH  30  31
ENDBRANCH  29  30
ENDBRANCH   1  29
BRANCH   7  42
HETATM   42  O3  UNL     1      -1.931   1.508  -1.321  1.00  0.00    -0.374 OA
ATOM     43  H3  UNL     1      -1.632   1.105  -2.127  1.00  0.00     0.212 HD
ENDBRANCH   7  42
BRANCH   6  44
HETATM   44  C13 UNL     1      -1.931   3.374   0.567  1.00  0.00     0.266 C 
BRANCH  44  45
HETATM   45  N4  UNL     1      -1.196   4.497   0.142  1.00  0.00    -0.069 N 
HETATM   46  C14 UNL     1       0.214   4.443   0.275  1.00  0.00     0.272 C 
HETATM   47  C15 UNL     1      -1.497   4.711  -1.279  1.00  0.00     0.237 C 
HETATM   48  C16 UNL     1      -1.324   6.164  -1.681  1.00  0.00     0.028 C 
HETATM   49  C17 UNL     1      -2.540   6.888  -1.096  1.00  0.00     0.003 C 
HETATM   50  C18 UNL     1      -2.878   6.300   0.263  1.00  0.00     0.028 C 
HETATM   51  C19 UNL     1      -1.658   5.678   0.903  1.00  0.00     0.237 C 
ENDBRANCH  44  45
ENDBRANCH   6  44
TORSDOF 16
