REMARK  11 active torsions:
REMARK  status: ('A' for Active; 'I' for Inactive)
REMARK    1  A    between atoms: C7_9  and  C8_10 
REMARK    2  A    between atoms: C8_10  and  C9_11 
REMARK       I    between atoms: C9_11  and  N2_13 
REMARK    3  A    between atoms: N4_18  and  C11_19 
REMARK    4  A    between atoms: C11_19  and  C12_20 
REMARK    5  A    between atoms: C15_23  and  C16_24 
REMARK    6  A    between atoms: C16_24  and  C17_25 
REMARK    7  A    between atoms: C17_25  and  C18_26 
REMARK    8  A    between atoms: C18_26  and  O2_27 
REMARK    9  A    between atoms: C22_33  and  C23_34 
REMARK   10  A    between atoms: C23_34  and  C24_35 
REMARK   11  A    between atoms: C28_39  and  C29_40 
ROOT
HETATM    1  C9  UNL     1      -3.012  -1.187   1.939  1.00  0.00     0.227 C 
HETATM    2  O1  UNL     1      -2.769  -1.822   0.886  1.00  0.00    -0.273 OA
HETATM    3  N2  UNL     1      -2.226  -0.118   2.329  1.00  0.00    -0.306 N 
ATOM      4  H2  UNL     1      -2.595   0.426   3.109  1.00  0.00     0.171 HD
HETATM    5  C10 UNL     1      -1.151   0.278   1.881  1.00  0.00     0.167 C 
HETATM    6  N3  UNL     1      -0.430  -0.293   0.812  1.00  0.00    -0.274 N 
ATOM      7  H3  UNL     1      -0.529  -1.294   0.643  1.00  0.00     0.189 HD
HETATM    8  N4  UNL     1       0.414   0.442  -0.029  1.00  0.00    -0.250 N 
HETATM    9  C21 UNL     1       0.662   1.857   0.077  1.00  0.00     0.279 C 
HETATM   10  O3  UNL     1       1.437   2.414  -0.747  1.00  0.00    -0.265 OA
HETATM   11  C22 UNL     1       0.069   2.697   1.078  1.00  0.00     0.078 C 
HETATM   12  S1  UNL     1      -0.380   1.777   2.611  1.00  0.00    -0.047 SA
ENDROOT
BRANCH   1  13
HETATM   13  C8  UNL     1      -4.195  -1.660   2.732  1.00  0.00     0.144 C 
BRANCH  13  14
HETATM   14  C7  UNL     1      -4.776  -2.832   2.039  1.00  0.00    -0.021 A 
HETATM   15  C6  UNL     1      -4.695  -4.171   2.389  1.00  0.00     0.097 A 
HETATM   16  N1  UNL     1      -5.363  -4.908   1.498  1.00  0.00    -0.365 N 
HETATM   17  C5  UNL     1      -5.871  -4.066   0.582  1.00  0.00     0.043 A 
ATOM     18  H1  UNL     1      -5.468  -5.922   1.510  1.00  0.00     0.165 HD
HETATM   19  C4  UNL     1      -6.633  -4.300  -0.541  1.00  0.00     0.031 A 
HETATM   20  C31 UNL     1      -5.524  -2.748   0.886  1.00  0.00    -0.001 A 
HETATM   21  C3  UNL     1      -7.039  -3.246  -1.342  1.00  0.00     0.009 A 
HETATM   22  C2  UNL     1      -6.703  -1.940  -1.056  1.00  0.00    -0.061 A 
HETATM   23  C1  UNL     1      -7.157  -0.852  -1.944  1.00  0.00     0.048 C 
HETATM   24  C32 UNL     1      -5.943  -1.719   0.067  1.00  0.00     0.021 A 
ENDBRANCH  13  14
ENDBRANCH   1  13
BRANCH   8  25
HETATM   25  C11 UNL     1       1.097  -0.305  -1.076  1.00  0.00     0.191 C 
BRANCH  25  26
HETATM   26  C12 UNL     1       2.321  -0.906  -0.517  1.00  0.00    -0.038 A 
HETATM   27  C13 UNL     1       3.519  -0.255  -0.573  1.00  0.00     0.009 A 
HETATM   28  C14 UNL     1       4.639  -0.852  -0.036  1.00  0.00     0.007 A 
HETATM   29  C15 UNL     1       4.584  -2.089   0.555  1.00  0.00    -0.058 A 
HETATM   30  C19 UNL     1       3.364  -2.718   0.594  1.00  0.00     0.007 A 
HETATM   31  C20 UNL     1       2.226  -2.157   0.071  1.00  0.00     0.009 A 
BRANCH  29  32
HETATM   32  C16 UNL     1       5.775  -2.748   1.136  1.00  0.00     0.041 C 
BRANCH  32  33
HETATM   33  C17 UNL     1       6.404  -3.592   0.040  1.00  0.00     0.030 C 
BRANCH  33  34
HETATM   34  C18 UNL     1       7.639  -4.311   0.547  1.00  0.00     0.164 C 
BRANCH  34  35
HETATM   35  O2  UNL     1       7.244  -5.125   1.610  1.00  0.00    -0.401 OA
ATOM     36  H2  UNL     1       8.018  -5.575   1.928  1.00  0.00     0.209 HD
ENDBRANCH  34  35
ENDBRANCH  33  34
ENDBRANCH  32  33
ENDBRANCH  29  32
ENDBRANCH  25  26
ENDBRANCH   8  25
BRANCH  11  37
HETATM   37  C23 UNL     1      -0.193   3.946   1.061  1.00  0.00     0.036 C 
BRANCH  37  38
HETATM   38  C24 UNL     1      -0.012   4.996   0.082  1.00  0.00    -0.034 A 
HETATM   39  C25 UNL     1      -1.133   5.680  -0.392  1.00  0.00     0.011 A 
HETATM   40  C26 UNL     1      -0.995   6.709  -1.261  1.00  0.00     0.002 A 
HETATM   41  C27 UNL     1       0.225   7.107  -1.694  1.00  0.00     0.015 A 
HETATM   42  C28 UNL     1       1.357   6.471  -1.260  1.00  0.00     0.005 A 
HETATM   43  C30 UNL     1       1.193   5.410  -0.362  1.00  0.00     0.026 A 
BRANCH  42  44
HETATM   44  C29 UNL     1       2.687   6.872  -1.705  1.00  0.00     0.120 C 
HETATM   45  N5  UNL     1       2.811   7.859  -2.496  1.00  0.00    -0.387 N 
ATOM     46  H52 UNL     1       1.987   8.369  -2.815  1.00  0.00     0.157 HD
ATOM     47  H51 UNL     1       3.741   8.139  -2.807  1.00  0.00     0.157 HD
HETATM   48  N6  UNL     1       3.822   6.170  -1.265  1.00  0.00    -0.082 NA
ENDBRANCH  42  44
ENDBRANCH  37  38
ENDBRANCH  11  37
TORSDOF 11
