REMARK  5 active torsions:
REMARK  status: ('A' for Active; 'I' for Inactive)
REMARK    1  A    between atoms: N1_2  and  C2_4 
REMARK    2  A    between atoms: C3_7  and  N3_8 
REMARK    3  A    between atoms: C9_14  and  N4_15 
REMARK    4  A    between atoms: N4_15  and  C10_17 
REMARK    5  A    between atoms: C10_17  and  C12_19 
ROOT
HETATM    1  C2  UNL     1      -1.859   1.445   0.327  1.00  0.00     0.680 A 
HETATM    2  N2  UNL     1      -2.617   0.345   0.234  1.00  0.00    -0.176 N 
ATOM      3  H2  UNL     1      -3.631   0.449   0.281  1.00  0.00     0.186 HD
HETATM    4  C3  UNL     1      -2.106  -0.890   0.082  1.00  0.00     0.130 A 
HETATM    5  C8  UNL     1      -0.736  -1.018   0.020  1.00  0.00     0.098 A 
HETATM    6  C9  UNL     1       0.036   0.131   0.118  1.00  0.00     0.120 A 
HETATM    7  N5  UNL     1      -0.523   1.337   0.268  1.00  0.00    -0.177 N 
ATOM      8  H5  UNL     1       0.063   2.169   0.337  1.00  0.00     0.185 HD
ENDROOT
BRANCH   6   9
HETATM    9  N4  UNL     1       1.321  -0.011   0.057  1.00  0.00    -0.371 N 
ATOM     10  H4  UNL     1       1.688  -0.956  -0.059  1.00  0.00     0.161 HD
BRANCH   9  11
HETATM   11  C10 UNL     1       2.274   1.073   0.141  1.00  0.00     0.082 C 
HETATM   12  C11 UNL     1       2.265   1.797  -1.168  1.00  0.00     0.032 C 
BRANCH  11  13
HETATM   13  C12 UNL     1       3.619   0.470   0.470  1.00  0.00    -0.000 C 
HETATM   14  C13 UNL     1       3.578  -0.272   1.783  1.00  0.00     0.011 C 
HETATM   15  C14 UNL     1       4.118  -0.461  -0.581  1.00  0.00     0.011 C 
ENDBRANCH  11  13
ENDBRANCH   9  11
ENDBRANCH   6   9
BRANCH   4  16
HETATM   16  N3  UNL     1      -2.949  -2.049  -0.014  1.00  0.00    -0.319 N 
HETATM   17  C4  UNL     1      -4.097  -2.281   0.625  1.00  0.00     0.098 A 
HETATM   18  C5  UNL     1      -4.609  -3.505   0.269  1.00  0.00     0.019 A 
HETATM   19  C6  UNL     1      -3.737  -4.056  -0.633  1.00  0.00     0.019 A 
HETATM   20  C7  UNL     1      -2.724  -3.133  -0.786  1.00  0.00     0.098 A 
ENDBRANCH   4  16
BRANCH   1  21
HETATM   21  N1  UNL     1      -2.359   2.624   0.472  1.00  0.00    -0.230 N 
HETATM   22  C1  UNL     1      -1.590   3.822   0.575  1.00  0.00     0.165 C 
ATOM     23  H1  UNL     1      -3.375   2.707   0.516  1.00  0.00     0.177 HD
ENDBRANCH   1  21
TORSDOF 5
