REMARK  3 active torsions:
REMARK  status: ('A' for Active; 'I' for Inactive)
REMARK    1  A    between atoms: C2_2  and  N1_3 
REMARK    2  A    between atoms: C6_10  and  C7_11 
REMARK       I    between atoms: C7_11  and  N3_13 
REMARK    3  A    between atoms: N3_13  and  C8_15 
ROOT
HETATM    1  C7  UNL     1       0.244  -1.106   0.044  1.00  0.00     0.253 C 
HETATM    2  O2  UNL     1       0.080  -1.341   1.258  1.00  0.00    -0.270 OA
HETATM    3  N3  UNL     1       1.531  -1.002  -0.513  1.00  0.00    -0.304 N 
ATOM      4  H3  UNL     1       1.748  -1.540  -1.352  1.00  0.00     0.171 HD
ENDROOT
BRANCH   1   5
HETATM    5  C6  UNL     1      -0.921  -0.932  -0.829  1.00  0.00     0.243 C 
HETATM    6  N1  UNL     1      -2.128  -1.075  -0.065  1.00  0.00    -0.314 N 
HETATM    7  C3  UNL     1      -2.552   0.225   0.287  1.00  0.00     0.326 C 
HETATM    8  O1  UNL     1      -3.442   0.563   1.118  1.00  0.00    -0.247 OA
HETATM    9  N2  UNL     1      -1.806   1.194  -0.457  1.00  0.00    -0.296 N 
HETATM   10  C4  UNL     1      -1.957   2.645  -0.369  1.00  0.00     0.162 C 
HETATM   11  C5  UNL     1      -0.905   0.495  -1.285  1.00  0.00     0.115 C 
HETATM   12  S1  UNL     1       0.002   1.068  -2.508  1.00  0.00    -0.062 SA
BRANCH   6  13
HETATM   13  C2  UNL     1      -2.799  -2.292   0.289  1.00  0.00     0.124 C 
HETATM   14  C1  UNL     1      -3.826  -2.726  -0.730  1.00  0.00     0.026 C 
ENDBRANCH   6  13
ENDBRANCH   1   5
BRANCH   3  15
HETATM   15  C8  UNL     1       2.461  -0.241   0.004  1.00  0.00     0.167 A 
HETATM   16  N4  UNL     1       2.432   0.550   1.078  1.00  0.00    -0.279 N 
HETATM   17  N5  UNL     1       3.473   1.201   1.388  1.00  0.00    -0.296 N 
ATOM     18  H4  UNL     1       1.585   0.629   1.640  1.00  0.00     0.189 HD
HETATM   19  C9  UNL     1       4.573   1.101   0.659  1.00  0.00     0.066 A 
ATOM     20  H5  UNL     1       3.464   1.808   2.207  1.00  0.00     0.187 HD
HETATM   21  C10 UNL     1       5.903   1.777   0.845  1.00  0.00     0.078 C 
HETATM   22  S2  UNL     1       4.060  -0.011  -0.554  1.00  0.00    -0.038 SA
ENDBRANCH   3  15
TORSDOF 3
