REMARK  2 active torsions:
REMARK  status: ('A' for Active; 'I' for Inactive)
REMARK    1  A    between atoms: S1_2  and  C2_3 
REMARK    2  A    between atoms: C8_14  and  C9_15 
ROOT
HETATM    1  C2  UNL     1      -2.077  -0.168  -0.019  1.00  0.00     0.160 C 
HETATM    2  C3  UNL     1      -2.309  -0.703   1.360  1.00  0.00     0.077 C 
HETATM    3  N1  UNL     1      -2.217  -1.150  -1.067  1.00  0.00    -0.319 N 
HETATM    4  C4  UNL     1      -2.837  -2.461  -1.075  1.00  0.00     0.156 C 
HETATM    5  C5  UNL     1      -1.573  -0.539  -2.200  1.00  0.00     0.254 C 
HETATM    6  O1  UNL     1      -1.799  -0.721  -3.422  1.00  0.00    -0.270 OA
HETATM    7  C6  UNL     1      -0.550   0.386  -1.664  1.00  0.00     0.274 C 
HETATM    8  C7  UNL     1       0.806  -0.054  -2.090  1.00  0.00     0.250 C 
HETATM    9  O2  UNL     1       1.009  -0.296  -3.304  1.00  0.00    -0.271 OA
HETATM   10  N2  UNL     1       1.811  -0.180  -1.098  1.00  0.00    -0.345 N 
ATOM     11  H2  UNL     1       2.569  -0.854  -1.203  1.00  0.00     0.163 HD
HETATM   12  C8  UNL     1       1.732   0.671   0.065  1.00  0.00     0.180 C 
HETATM   13  C12 UNL     1       0.400   0.511   0.663  1.00  0.00     0.246 C 
HETATM   14  O3  UNL     1       0.168   0.591   1.891  1.00  0.00    -0.271 OA
HETATM   15  N3  UNL     1      -0.692   0.248  -0.205  1.00  0.00    -0.292 N 
ENDROOT
BRANCH   1  16
HETATM   16  S1  UNL     1      -3.218   1.201  -0.345  1.00  0.00    -0.120 SA
HETATM   17  C1  UNL     1      -2.850   2.626   0.721  1.00  0.00     0.094 C 
ENDBRANCH   1  16
BRANCH  12  18
HETATM   18  C9  UNL     1       2.854   0.422   1.036  1.00  0.00     0.009 C 
HETATM   19  C10 UNL     1       4.159   0.694   0.319  1.00  0.00     0.012 C 
HETATM   20  C11 UNL     1       2.896  -0.949   1.610  1.00  0.00     0.012 C 
ENDBRANCH  12  18
TORSDOF 2
