REMARK  19 active torsions:
REMARK  status: ('A' for Active; 'I' for Inactive)
REMARK    1  A    between atoms: C2_2  and  C4_4 
REMARK    2  A    between atoms: C4_4  and  O1_5 
REMARK    3  A    between atoms: C4_4  and  C5_7 
REMARK    4  A    between atoms: C5_7  and  O2_8 
REMARK    5  A    between atoms: C5_7  and  C6_10 
REMARK    6  A    between atoms: C6_10  and  C7_11 
REMARK    7  A    between atoms: C6_10  and  N1_18 
REMARK    8  A    between atoms: C7_11  and  C8_12 
REMARK    9  A    between atoms: N1_18  and  C14_20 
REMARK   10  A    between atoms: C14_20  and  O3_21 
REMARK   11  A    between atoms: C14_20  and  C15_23 
REMARK   12  A    between atoms: C15_23  and  C16_24 
REMARK   13  A    between atoms: C15_23  and  N2_28 
REMARK   14  A    between atoms: C16_24  and  C17_25 
REMARK       I    between atoms: N2_28  and  C20_29 
REMARK   15  A    between atoms: C20_29  and  C21_31 
REMARK   16  A    between atoms: C21_31  and  N3_32 
REMARK   17  A    between atoms: N4_35  and  C24_36 
REMARK   18  A    between atoms: C24_36  and  C25_37 
REMARK   19  A    between atoms: C25_37  and  N5_38 
ROOT
HETATM    1  C15 UNL     1      -1.103   0.572   0.242  1.00  0.00     0.241 C 
ENDROOT
BRANCH   1   2
HETATM    2  C14 UNL     1      -2.499   0.240  -0.065  1.00  0.00     0.148 C 
BRANCH   2   3
HETATM    3  N1  UNL     1      -3.682   0.527   0.597  1.00  0.00    -0.365 N 
ATOM      4  H1  UNL     1      -3.695   1.099   1.441  1.00  0.00     0.161 HD
BRANCH   3   5
HETATM    5  C6  UNL     1      -4.949  -0.045   0.012  1.00  0.00     0.115 C 
BRANCH   5   6
HETATM    6  C5  UNL     1      -5.082  -1.395   0.755  1.00  0.00     0.169 C 
BRANCH   6   7
HETATM    7  C4  UNL     1      -5.787  -2.465   0.070  1.00  0.00     0.152 C 
BRANCH   7   8
HETATM    8  C2  UNL     1      -7.262  -2.517   0.008  1.00  0.00     0.009 C 
HETATM    9  C1  UNL     1      -7.984  -2.637   1.316  1.00  0.00     0.012 C 
HETATM   10  C3  UNL     1      -7.600  -3.825  -0.755  1.00  0.00     0.012 C 
ENDBRANCH   7   8
BRANCH   7  11
HETATM   11  O1  UNL     1      -5.356  -3.677   0.670  1.00  0.00    -0.393 OA
ATOM     12  H1  UNL     1      -4.407  -3.644   0.710  1.00  0.00     0.210 HD
ENDBRANCH   7  11
ENDBRANCH   6   7
BRANCH   6  13
HETATM   13  O2  UNL     1      -5.302  -1.276   2.093  1.00  0.00    -0.391 OA
ATOM     14  H2  UNL     1      -4.841  -0.576   2.541  1.00  0.00     0.210 HD
ENDBRANCH   6  13
ENDBRANCH   5   6
BRANCH   5  15
HETATM   15  C7  UNL     1      -6.110   0.757   0.388  1.00  0.00     0.032 C 
BRANCH  15  16
HETATM   16  C8  UNL     1      -6.254   2.121  -0.212  1.00  0.00    -0.013 C 
HETATM   17  C9  UNL     1      -7.530   2.825   0.265  1.00  0.00     0.005 C 
HETATM   18  C10 UNL     1      -8.756   2.030  -0.068  1.00  0.00     0.000 C 
HETATM   19  C11 UNL     1      -8.735   1.386  -1.407  1.00  0.00     0.000 C 
HETATM   20  C12 UNL     1      -7.619   1.713  -2.309  1.00  0.00     0.000 C 
HETATM   21  C13 UNL     1      -6.322   2.126  -1.705  1.00  0.00     0.005 C 
ENDBRANCH  15  16
ENDBRANCH   5  15
ENDBRANCH   3   5
ENDBRANCH   2   3
BRANCH   2  22
HETATM   22  O3  UNL     1      -2.644  -0.470  -1.148  1.00  0.00    -0.347 OA
ATOM     23  H3  UNL     1      -1.833  -0.667  -1.602  1.00  0.00     0.219 HD
ENDBRANCH   2  22
ENDBRANCH   1   2
BRANCH   1  24
HETATM   24  C16 UNL     1      -0.531   1.817  -0.301  1.00  0.00     0.052 C 
BRANCH  24  25
HETATM   25  C17 UNL     1      -0.982   3.141   0.074  1.00  0.00    -0.011 A 
HETATM   26  C18 UNL     1      -2.249   3.843   0.007  1.00  0.00     0.005 A 
HETATM   27  C19 UNL     1      -1.371   4.047  -1.146  1.00  0.00     0.005 A 
ENDBRANCH  24  25
ENDBRANCH   1  24
BRANCH   1  28
HETATM   28  N2  UNL     1      -0.192  -0.494   0.041  1.00  0.00    -0.399 NA
HETATM   29  C20 UNL     1       0.662  -1.513  -0.170  1.00  0.00     0.320 C 
HETATM   30  O4  UNL     1       0.698  -2.358  -1.132  1.00  0.00    -0.254 OA
BRANCH  29  31
HETATM   31  C21 UNL     1       1.772  -1.724   0.878  1.00  0.00     0.148 A 
HETATM   32  C36 UNL     1       2.440  -3.009   0.640  1.00  0.00     0.011 A 
HETATM   33  C37 UNL     1       1.859  -3.499   1.742  1.00  0.00    -0.024 A 
HETATM   34  C38 UNL     1       1.135  -2.255   2.084  1.00  0.00     0.073 A 
BRANCH  31  35
HETATM   35  N3  UNL     1       2.571  -0.552   0.885  1.00  0.00    -0.362 N 
HETATM   36  C22 UNL     1       3.168  -0.423  -0.420  1.00  0.00     0.168 C 
HETATM   37  C23 UNL     1       4.539   0.140  -0.461  1.00  0.00     0.084 C 
HETATM   38  N4  UNL     1       5.413  -0.147   0.599  1.00  0.00    -0.356 N 
HETATM   39  C34 UNL     1       4.850  -0.331   1.874  1.00  0.00     0.108 C 
HETATM   40  C35 UNL     1       3.363  -0.244   1.990  1.00  0.00     0.104 C 
BRANCH  38  41
HETATM   41  C24 UNL     1       6.651  -0.757   0.295  1.00  0.00     0.062 C 
HETATM   42  C30 UNL     1       6.417  -2.030  -0.575  1.00  0.00     0.033 C 
HETATM   43  C31 UNL     1       7.796  -2.664  -0.546  1.00  0.00     0.002 C 
HETATM   44  C32 UNL     1       8.509  -2.151   0.661  1.00  0.00     0.002 C 
HETATM   45  C33 UNL     1       7.421  -1.372   1.419  1.00  0.00     0.033 C 
BRANCH  41  46
HETATM   46  C25 UNL     1       7.478   0.132  -0.610  1.00  0.00     0.303 C 
BRANCH  46  47
HETATM   47  N5  UNL     1       7.789   1.425  -0.129  1.00  0.00     0.090 N 
HETATM   48  C26 UNL     1       8.539   2.088  -1.223  1.00  0.00     0.272 C 
HETATM   49  C27 UNL     1       9.353   3.150  -0.574  1.00  0.00     0.032 C 
HETATM   50  C28 UNL     1       9.305   2.907   0.919  1.00  0.00     0.032 C 
HETATM   51  C29 UNL     1       8.654   1.527   1.005  1.00  0.00     0.272 C 
ENDBRANCH  46  47
ENDBRANCH  41  46
ENDBRANCH  38  41
ENDBRANCH  31  35
ENDBRANCH  29  31
ENDBRANCH   1  28
TORSDOF 19
