REMARK  1 active torsions:
REMARK  status: ('A' for Active; 'I' for Inactive)
REMARK    1  A    between atoms: C4_5  and  C5_6 
ROOT
HETATM    1  C1  UNL     1      -2.386   0.733  -0.727  1.00  0.00     0.309 C 
HETATM    2  N1  UNL     1      -1.170   0.299  -0.070  1.00  0.00     0.085 N 
HETATM    3  C2  UNL     1      -1.204  -1.151   0.176  1.00  0.00     0.272 C 
HETATM    4  C3  UNL     1       0.235  -1.360   0.655  1.00  0.00     0.043 C 
HETATM    5  C4  UNL     1       1.047  -0.310  -0.111  1.00  0.00     0.080 C 
HETATM    6  C7  UNL     1      -0.014   0.414  -0.914  1.00  0.00     0.283 C 
ENDROOT
BRANCH   5   7
HETATM    7  C5  UNL     1       1.760   0.593   0.814  1.00  0.00     0.126 C 
HETATM    8  F1  UNL     1       1.144   1.289   1.798  1.00  0.00    -0.208 F 
HETATM    9  C6  UNL     1       3.073   0.723   0.663  1.00  0.00     0.226 C 
HETATM   10  F2  UNL     1       3.769   0.068  -0.291  1.00  0.00    -0.216 F 
ENDBRANCH   5   7
TORSDOF 1
