REMARK  2 active torsions:
REMARK  status: ('A' for Active; 'I' for Inactive)
REMARK    1  A    between atoms: C2_2  and  C3_3 
REMARK    2  A    between atoms: C3_3  and  N1_4 
ROOT
HETATM    1  C1  UNL     1      -0.138   1.550   0.304  1.00  0.00     0.023 C 
HETATM    2  C2  UNL     1      -0.260   0.061   0.019  1.00  0.00     0.051 A 
HETATM    3  C4  UNL     1      -1.423  -0.339  -0.780  1.00  0.00     0.096 A 
HETATM    4  C5  UNL     1      -1.419  -0.680   0.701  1.00  0.00     0.253 A 
HETATM    5  F1  UNL     1      -2.154   0.090   1.568  1.00  0.00    -0.205 F 
HETATM    6  F2  UNL     1      -1.276  -2.006   0.979  1.00  0.00    -0.205 F 
ENDROOT
BRANCH   2   7
HETATM    7  C3  UNL     1       1.018  -0.714   0.052  1.00  0.00     0.245 C 
BRANCH   7   8
HETATM    8  N1  UNL     1       1.996  -0.258  -0.909  1.00  0.00    -0.078 N 
ATOM      9  H13 UNL     1       1.602  -0.253  -1.850  1.00  0.00     0.274 HD
ATOM     10  H12 UNL     1       2.176   0.739  -0.794  1.00  0.00     0.274 HD
ATOM     11  H11 UNL     1       2.868  -0.787  -0.886  1.00  0.00     0.274 HD
ENDBRANCH   7   8
ENDBRANCH   2   7
TORSDOF 2
