REMARK  11 active torsions:
REMARK  status: ('A' for Active; 'I' for Inactive)
REMARK    1  A    between atoms: C6_6  and  C7_7 
REMARK    2  A    between atoms: C7_7  and  N1_8 
REMARK       I    between atoms: N1_8  and  C8_10 
REMARK    3  A    between atoms: C8_10  and  C9_12 
REMARK    4  A    between atoms: C12_16  and  C13_17 
REMARK    5  A    between atoms: C13_17  and  C14_18 
REMARK    6  A    between atoms: N3_20  and  C16_21 
REMARK    7  A    between atoms: C26_36  and  O3_37 
REMARK    8  A    between atoms: O3_37  and  C27_38 
REMARK    9  A    between atoms: C27_38  and  C28_39 
REMARK   10  A    between atoms: C28_39  and  O4_40 
REMARK   11  A    between atoms: C30_42  and  O5_43 
ROOT
HETATM    1  N1  UNL     1      -0.360   0.288  -0.734  1.00  0.00    -0.351 N 
ATOM      2  H1  UNL     1      -0.087   0.578   0.205  1.00  0.00     0.163 HD
HETATM    3  C8  UNL     1      -1.526   0.814  -1.401  1.00  0.00     0.253 C 
HETATM    4  O1  UNL     1      -1.820   0.435  -2.582  1.00  0.00    -0.268 OA
ENDROOT
BRANCH   1   5
HETATM    5  C7  UNL     1       0.385  -0.671  -1.491  1.00  0.00     0.180 C 
BRANCH   5   6
HETATM    6  C6  UNL     1       1.672  -1.113  -0.898  1.00  0.00     0.034 A 
HETATM    7  C4  UNL     1       1.816  -2.366  -0.520  1.00  0.00    -0.027 A 
HETATM    8  C3  UNL     1       3.121  -2.786   0.054  1.00  0.00    -0.017 A 
HETATM    9  C5  UNL     1       0.692  -3.287  -0.584  1.00  0.00     0.051 C 
HETATM   10  C2  UNL     1       3.350  -4.026   0.376  1.00  0.00    -0.018 C 
HETATM   11  C33 UNL     1       4.231  -1.772   0.191  1.00  0.00     0.043 A 
HETATM   12  C1  UNL     1       2.511  -5.226   0.278  1.00  0.00     0.037 C 
HETATM   13  C24 UNL     1       3.974  -0.480  -0.235  1.00  0.00     0.049 A 
HETATM   14  C32 UNL     1       5.457  -2.104   0.693  1.00  0.00     0.165 A 
HETATM   15  N5  UNL     1       2.723  -0.149  -0.770  1.00  0.00    -0.357 N 
HETATM   16  C25 UNL     1       4.983   0.470  -0.141  1.00  0.00     0.070 A 
ATOM     17  H5  UNL     1       2.555   0.809  -1.078  1.00  0.00     0.166 HD
HETATM   18  C26 UNL     1       6.230   0.186   0.355  1.00  0.00     0.107 A 
HETATM   19  C30 UNL     1       6.436  -1.101   0.760  1.00  0.00     0.141 A 
HETATM   20  F1  UNL     1       5.769  -3.325   1.129  1.00  0.00    -0.202 F 
BRANCH  18  21
HETATM   21  O3  UNL     1       7.218   1.166   0.432  1.00  0.00    -0.346 OA
BRANCH  21  22
HETATM   22  C27 UNL     1       7.059   2.481   0.037  1.00  0.00     0.201 C 
BRANCH  22  23
HETATM   23  C28 UNL     1       8.286   3.324   0.245  1.00  0.00     0.193 C 
BRANCH  23  24
HETATM   24  O4  UNL     1       9.420   2.977  -0.405  1.00  0.00    -0.394 OA
HETATM   25  C29 UNL     1       9.988   1.754  -0.193  1.00  0.00     0.201 C 
ENDBRANCH  23  24
ENDBRANCH  22  23
ENDBRANCH  21  22
ENDBRANCH  18  21
BRANCH  19  26
HETATM   26  O5  UNL     1       7.690  -1.467   1.273  1.00  0.00    -0.350 OA
HETATM   27  C31 UNL     1       8.649  -1.942   0.352  1.00  0.00     0.210 C 
ENDBRANCH  19  26
ENDBRANCH   5   6
ENDBRANCH   1   5
BRANCH   3  28
HETATM   28  C9  UNL     1      -2.384   1.775  -0.787  1.00  0.00     0.056 A 
HETATM   29  C10 UNL     1      -2.669   3.024  -1.353  1.00  0.00     0.108 A 
HETATM   30  N2  UNL     1      -3.443   3.698  -0.505  1.00  0.00    -0.359 N 
HETATM   31  C11 UNL     1      -3.679   2.958   0.583  1.00  0.00     0.019 A 
HETATM   32  C23 UNL     1      -4.112   4.990  -0.387  1.00  0.00     0.128 C 
HETATM   33  C12 UNL     1      -3.010   1.737   0.408  1.00  0.00    -0.013 A 
HETATM   34  C21 UNL     1      -4.548   3.697   1.520  1.00  0.00     0.059 C 
HETATM   35  C22 UNL     1      -5.208   4.709   0.597  1.00  0.00     0.026 C 
BRANCH  33  36
HETATM   36  C13 UNL     1      -3.085   0.574   1.370  1.00  0.00     0.100 C 
BRANCH  36  37
HETATM   37  C14 UNL     1      -4.104  -0.354   0.783  1.00  0.00     0.033 A 
HETATM   38  C15 UNL     1      -5.449  -0.037   0.811  1.00  0.00     0.122 A 
HETATM   39  N3  UNL     1      -6.147  -1.036   0.196  1.00  0.00    -0.299 N 
HETATM   40  C20 UNL     1      -5.245  -1.924  -0.186  1.00  0.00     0.327 A 
HETATM   41  O2  UNL     1      -5.425  -3.015  -0.792  1.00  0.00    -0.246 OA
HETATM   42  N4  UNL     1      -3.989  -1.517   0.169  1.00  0.00    -0.311 N 
ATOM     43  H4  UNL     1      -3.120  -2.021  -0.008  1.00  0.00     0.170 HD
BRANCH  39  44
HETATM   44  C16 UNL     1      -7.570  -1.076  -0.004  1.00  0.00     0.030 C 
HETATM   45  C17 UNL     1      -8.057   0.245  -0.595  1.00  0.00     0.038 C 
HETATM   46  C18 UNL     1      -8.283  -1.231   1.320  1.00  0.00     0.038 C 
HETATM   47  C19 UNL     1      -7.958  -2.222  -0.896  1.00  0.00     0.038 C 
ENDBRANCH  39  44
ENDBRANCH  36  37
ENDBRANCH  33  36
ENDBRANCH   3  28
TORSDOF 11
