REMARK  13 active torsions:
REMARK  status: ('A' for Active; 'I' for Inactive)
REMARK    1  A    between atoms: N2_5  and  C4_6 
REMARK    2  A    between atoms: C4_6  and  C5_7 
REMARK    3  A    between atoms: C5_7  and  N3_8 
REMARK    4  A    between atoms: N3_8  and  C6_9 
REMARK    5  A    between atoms: N3_8  and  C8_12 
REMARK    6  A    between atoms: C6_9  and  C7_10 
REMARK    7  A    between atoms: C8_12  and  C9_13 
REMARK    8  A    between atoms: C9_13  and  C10_14 
REMARK    9  A    between atoms: C10_14  and  O1_15 
REMARK   10  A    between atoms: O1_15  and  C11_16 
REMARK   11  A    between atoms: C29_34  and  O2_35 
REMARK   12  A    between atoms: C30_37  and  O3_39 
REMARK   13  A    between atoms: C33_42  and  O4_43 
ROOT
HETATM    1  C11 UNL     1       0.775  -1.779  -0.209  1.00  0.00     0.069 A 
HETATM    2  C12 UNL     1       0.651  -3.149  -0.344  1.00  0.00     0.037 A 
HETATM    3  C13 UNL     1      -0.589  -3.711  -0.441  1.00  0.00     0.013 A 
HETATM    4  C14 UNL     1      -1.765  -2.935  -0.410  1.00  0.00    -0.021 A 
HETATM    5  C15 UNL     1      -1.645  -1.611  -0.280  1.00  0.00    -0.035 A 
HETATM    6  C16 UNL     1      -0.351  -1.039  -0.180  1.00  0.00     0.045 A 
HETATM    7  C17 UNL     1      -3.080  -1.401  -0.317  1.00  0.00     0.018 A 
HETATM    8  C18 UNL     1      -3.580  -0.648  -1.503  1.00  0.00     0.018 C 
HETATM    9  C19 UNL     1      -4.430   0.527  -1.300  1.00  0.00     0.011 C 
HETATM   10  C20 UNL     1      -5.221   0.622  -0.034  1.00  0.00    -0.036 C 
HETATM   11  C21 UNL     1      -4.578   1.723   0.790  1.00  0.00     0.016 C 
HETATM   12  C22 UNL     1      -5.153  -0.707   0.665  1.00  0.00    -0.005 C 
HETATM   13  C23 UNL     1      -6.114  -0.837   1.792  1.00  0.00     0.006 C 
HETATM   14  C24 UNL     1      -7.482  -1.054   1.124  1.00  0.00     0.008 C 
HETATM   15  C25 UNL     1      -7.519  -0.357  -0.194  1.00  0.00     0.027 C 
HETATM   16  C26 UNL     1      -6.711   0.896  -0.272  1.00  0.00     0.001 C 
HETATM   17  C27 UNL     1      -7.245   2.008   0.582  1.00  0.00     0.008 C 
HETATM   18  C28 UNL     1      -8.633   1.839   1.080  1.00  0.00     0.035 C 
HETATM   19  C29 UNL     1      -9.560   1.047   0.237  1.00  0.00     0.152 C 
HETATM   20  C30 UNL     1      -8.944   0.002  -0.618  1.00  0.00     0.084 C 
HETATM   21  C31 UNL     1      -9.782  -1.262  -0.706  1.00  0.00     0.049 C 
HETATM   22  C32 UNL     1      -3.714  -0.948   0.990  1.00  0.00     0.022 C 
HETATM   23  C33 UNL     1      -3.226  -2.865  -0.452  1.00  0.00     0.164 A 
ENDROOT
BRANCH  23  24
HETATM   24  O4  UNL     1      -3.756  -3.528   0.662  1.00  0.00    -0.390 OA
ATOM     25  H4  UNL     1      -4.705  -3.483   0.635  1.00  0.00     0.210 HD
ENDBRANCH  23  24
BRANCH   1  26
HETATM   26  O1  UNL     1       2.036  -1.197  -0.108  1.00  0.00    -0.351 OA
BRANCH  26  27
HETATM   27  C10 UNL     1       2.245   0.180   0.031  1.00  0.00     0.177 C 
BRANCH  27  28
HETATM   28  C9  UNL     1       3.730   0.510   0.113  1.00  0.00     0.047 C 
BRANCH  28  29
HETATM   29  C8  UNL     1       4.474   0.078  -1.093  1.00  0.00     0.129 C 
BRANCH  29  30
HETATM   30  N3  UNL     1       5.878   0.410  -0.957  1.00  0.00    -0.371 N 
BRANCH  30  31
HETATM   31  C5  UNL     1       6.583  -0.312  -0.012  1.00  0.00     0.093 C 
BRANCH  31  32
HETATM   32  C4  UNL     1       7.433   0.531   0.892  1.00  0.00     0.317 C 
BRANCH  32  33
HETATM   33  N2  UNL     1       8.461   1.211   0.194  1.00  0.00     0.096 N 
HETATM   34  C3  UNL     1       9.440   0.274  -0.253  1.00  0.00     0.303 C 
HETATM   35  C2  UNL     1      10.777   0.619   0.362  1.00  0.00     0.302 C 
HETATM   36  N1  UNL     1      10.626   0.774   1.781  1.00  0.00     0.087 N 
HETATM   37  C1  UNL     1      11.957   0.901   2.362  1.00  0.00     0.310 C 
HETATM   38  C35 UNL     1       9.752   1.849   2.134  1.00  0.00     0.302 C 
HETATM   39  C34 UNL     1       8.964   2.325   0.935  1.00  0.00     0.303 C 
ENDBRANCH  32  33
ENDBRANCH  31  32
ENDBRANCH  30  31
BRANCH  30  40
HETATM   40  C6  UNL     1       6.430   1.056  -2.056  1.00  0.00     0.078 C 
BRANCH  40  41
HETATM   41  C7  UNL     1       6.985   0.180  -3.161  1.00  0.00     0.159 C 
HETATM   42 CL1  UNL     1       5.678  -0.861  -3.826  1.00  0.00    -0.125 Cl
ENDBRANCH  40  41
ENDBRANCH  30  40
ENDBRANCH  29  30
ENDBRANCH  28  29
ENDBRANCH  27  28
ENDBRANCH  26  27
ENDBRANCH   1  26
BRANCH  20  43
HETATM   43  O3  UNL     1      -8.831   0.485  -1.927  1.00  0.00    -0.387 OA
ATOM     44  H3  UNL     1      -9.716   0.708  -2.190  1.00  0.00     0.210 HD
ENDBRANCH  20  43
BRANCH  19  45
HETATM   45  O2  UNL     1     -10.536   0.510   1.114  1.00  0.00    -0.393 OA
ATOM     46  H2  UNL     1     -11.130   0.002   0.574  1.00  0.00     0.210 HD
ENDBRANCH  19  45
TORSDOF 13
