REMARK  11 active torsions:
REMARK  status: ('A' for Active; 'I' for Inactive)
REMARK    1  A    between atoms: O1_2  and  C2_3 
REMARK    2  A    between atoms: C2_3  and  O2_4 
REMARK    3  A    between atoms: O2_4  and  C3_5 
REMARK    4  A    between atoms: C3_5  and  C4_6 
REMARK    5  A    between atoms: C13_15  and  O3_16 
REMARK    6  A    between atoms: C15_19  and  C16_20 
REMARK    7  A    between atoms: C16_20  and  C17_22 
REMARK    8  A    between atoms: C17_22  and  O5_23 
REMARK    9  A    between atoms: C18_25  and  C19_26 
REMARK   10  A    between atoms: C20_27  and  C21_28 
REMARK   11  A    between atoms: C21_28  and  C22_29 
ROOT
HETATM    1  C4  UNL     1      -3.063  -0.900   0.236  1.00  0.00    -0.012 C 
HETATM    2  C5  UNL     1      -3.627  -2.163   0.921  1.00  0.00     0.018 C 
HETATM    3  C6  UNL     1      -3.909   0.224   0.820  1.00  0.00    -0.008 C 
HETATM    4  C7  UNL     1      -4.224   0.002   2.278  1.00  0.00     0.011 C 
HETATM    5  C8  UNL     1      -3.346   1.574   0.587  1.00  0.00     0.006 C 
HETATM    6  C9  UNL     1      -1.977   1.643   0.034  1.00  0.00     0.010 C 
HETATM    7  C10 UNL     1      -1.055   0.611   0.702  1.00  0.00    -0.033 C 
HETATM    8  C11 UNL     1      -0.933   1.090   2.132  1.00  0.00     0.016 C 
HETATM    9  C12 UNL     1      -1.664  -0.774   0.650  1.00  0.00     0.033 C 
HETATM   10  C13 UNL     1      -0.741  -1.777  -0.036  1.00  0.00     0.125 C 
HETATM   11  C14 UNL     1       0.616  -1.613   0.625  1.00  0.00     0.050 C 
HETATM   12  C15 UNL     1       1.262  -0.328   0.092  1.00  0.00     0.036 C 
HETATM   13  C18 UNL     1       2.214   0.230   1.123  1.00  0.00     0.024 C 
HETATM   14  C25 UNL     1       2.202   1.717   0.956  1.00  0.00     0.010 C 
HETATM   15  C26 UNL     1       0.886   2.039   0.247  1.00  0.00     0.007 C 
HETATM   16  C27 UNL     1       0.226   0.728  -0.083  1.00  0.00     0.011 C 
ENDROOT
BRANCH   1  17
HETATM   17  C3  UNL     1      -3.389  -1.089  -1.210  1.00  0.00     0.180 C 
BRANCH  17  18
HETATM   18  O2  UNL     1      -4.808  -1.170  -1.275  1.00  0.00    -0.366 OA
BRANCH  18  19
HETATM   19  C2  UNL     1      -5.234  -1.347  -2.572  1.00  0.00     0.337 C 
BRANCH  19  20
HETATM   20  O1  UNL     1      -6.622  -1.419  -2.563  1.00  0.00    -0.372 OA
HETATM   21  C1  UNL     1      -7.200  -0.266  -2.055  1.00  0.00     0.204 C 
ENDBRANCH  19  20
ENDBRANCH  18  19
ENDBRANCH  17  18
ENDBRANCH   1  17
BRANCH  10  22
HETATM   22  O3  UNL     1      -0.730  -1.662  -1.392  1.00  0.00    -0.395 OA
ATOM     23  H3  UNL     1      -0.155  -2.286  -1.819  1.00  0.00     0.210 HD
ENDBRANCH  10  22
BRANCH  12  24
HETATM   24  C16 UNL     1       1.955  -0.719  -1.162  1.00  0.00     0.159 C 
HETATM   25  O4  UNL     1       2.079  -1.919  -1.475  1.00  0.00    -0.295 OA
BRANCH  24  26
HETATM   26  C17 UNL     1       2.532   0.274  -2.098  1.00  0.00     0.243 C 
BRANCH  26  27
HETATM   27  O5  UNL     1       3.094  -0.371  -3.203  1.00  0.00    -0.394 OA
ATOM     28  H5  UNL     1       3.464   0.266  -3.803  1.00  0.00     0.209 HD
ENDBRANCH  26  27
ENDBRANCH  24  26
ENDBRANCH  12  24
BRANCH  13  29
HETATM   29  C19 UNL     1       3.551  -0.303   1.222  1.00  0.00    -0.025 C 
HETATM   30  C20 UNL     1       4.628   0.461   1.221  1.00  0.00    -0.030 C 
BRANCH  30  31
HETATM   31  C21 UNL     1       6.013  -0.068   1.326  1.00  0.00     0.030 C 
BRANCH  31  32
HETATM   32  C22 UNL     1       6.814   0.329   0.125  1.00  0.00    -0.019 C 
HETATM   33  C23 UNL     1       6.206  -0.224  -1.117  1.00  0.00     0.010 C 
HETATM   34  C24 UNL     1       6.891   1.862   0.084  1.00  0.00     0.010 C 
ENDBRANCH  31  32
ENDBRANCH  30  31
ENDBRANCH  13  29
TORSDOF 11
