REMARK  9 active torsions:
REMARK  status: ('A' for Active; 'I' for Inactive)
REMARK    1  A    between atoms: N1_1  and  N2_4 
REMARK       I    between atoms: N2_4  and  C1_6 
REMARK    2  A    between atoms: C1_6  and  C2_8 
REMARK    3  A    between atoms: C2_8  and  N3_9 
REMARK    4  A    between atoms: N3_9  and  C3_12 
REMARK    5  A    between atoms: C3_12  and  N4_13 
REMARK    6  A    between atoms: C5_15  and  N5_16 
REMARK    7  A    between atoms: N6_18  and  C6_20 
REMARK    8  A    between atoms: C9_23  and  S1_24 
REMARK    9  A    between atoms: S1_24  and  N7_25 
ROOT
HETATM    1  N4  UNL     1       2.294   0.635   0.749  1.00  0.00    -0.282 N 
HETATM    2  C4  UNL     1       1.062   0.582   0.234  1.00  0.00     0.134 A 
HETATM    3  C5  UNL     1       0.044   1.366   0.758  1.00  0.00     0.132 A 
HETATM    4  C12 UNL     1       0.284   2.211   1.818  1.00  0.00     0.279 A 
HETATM    5  O4  UNL     1      -0.595   2.937   2.327  1.00  0.00    -0.265 OA
HETATM    6  N8  UNL     1       1.550   2.235   2.314  1.00  0.00    -0.273 N 
ATOM      7  H8  UNL     1       1.770   2.847   3.100  1.00  0.00     0.173 HD
HETATM    8  C13 UNL     1       2.526   1.457   1.780  1.00  0.00     0.330 A 
HETATM    9  O5  UNL     1       3.694   1.484   2.243  1.00  0.00    -0.246 OA
ENDROOT
BRANCH   3  10
HETATM   10  N5  UNL     1      -1.289   1.336   0.234  1.00  0.00    -0.294 N 
HETATM   11  N6  UNL     1      -2.076   0.440   0.618  1.00  0.00    -0.300 N 
ATOM     12  H6  UNL     1      -1.710  -0.228   1.297  1.00  0.00     0.187 HD
ATOM     13  H5  UNL     1      -1.594   2.035  -0.443  1.00  0.00     0.187 HD
BRANCH  11  14
HETATM   14  C6  UNL     1      -3.416   0.256   0.211  1.00  0.00     0.048 A 
HETATM   15  C7  UNL     1      -3.887   0.549  -1.045  1.00  0.00     0.032 A 
HETATM   16  C8  UNL     1      -5.232   0.331  -1.365  1.00  0.00     0.027 A 
HETATM   17  C9  UNL     1      -6.107  -0.178  -0.432  1.00  0.00     0.079 A 
HETATM   18  C10 UNL     1      -5.647  -0.472   0.821  1.00  0.00     0.027 A 
HETATM   19  C11 UNL     1      -4.310  -0.253   1.129  1.00  0.00     0.032 A 
BRANCH  17  20
HETATM   20  S1  UNL     1      -7.784  -0.435  -0.895  1.00  0.00     0.256 S 
HETATM   21  O2  UNL     1      -8.698  -0.293   0.298  1.00  0.00    -0.201 OA
HETATM   22  O3  UNL     1      -8.179   0.519  -1.960  1.00  0.00    -0.201 OA
BRANCH  20  23
HETATM   23  N7  UNL     1      -7.873  -2.059  -1.512  1.00  0.00    -0.324 N 
ATOM     24  H72 UNL     1      -7.098  -2.719  -1.584  1.00  0.00     0.169 HD
ATOM     25  H71 UNL     1      -8.846  -2.208  -1.781  1.00  0.00     0.169 HD
ENDBRANCH  20  23
ENDBRANCH  17  20
ENDBRANCH  11  14
ENDBRANCH   3  10
BRANCH   1  26
HETATM   26  C3  UNL     1       3.334  -0.178   0.194  1.00  0.00     0.366 C 
BRANCH  26  27
HETATM   27  N3  UNL     1       4.057   0.433  -0.863  1.00  0.00    -0.051 N 
ATOM     28  H32 UNL     1       4.446   1.332  -0.578  1.00  0.00     0.279 HD
ATOM     29  H31 UNL     1       3.433   0.757  -1.602  1.00  0.00     0.279 HD
BRANCH  27  30
HETATM   30  C2  UNL     1       5.072  -0.435  -1.379  1.00  0.00     0.338 C 
BRANCH  30  31
HETATM   31  C1  UNL     1       6.206  -0.621  -0.452  1.00  0.00     0.261 C 
HETATM   32  N2  UNL     1       7.292  -1.481  -0.807  1.00  0.00    -0.275 N 
ATOM     33  H2  UNL     1       7.279  -1.967  -1.704  1.00  0.00     0.189 HD
HETATM   34  O1  UNL     1       6.280  -0.053   0.662  1.00  0.00    -0.270 OA
BRANCH  32  35
HETATM   35  N1  UNL     1       8.364  -1.661   0.056  1.00  0.00    -0.343 N 
ATOM     36  H12 UNL     1       8.362  -1.168   0.949  1.00  0.00     0.176 HD
ATOM     37  H11 UNL     1       9.139  -2.274  -0.197  1.00  0.00     0.176 HD
ENDBRANCH  32  35
ENDBRANCH  30  31
ENDBRANCH  27  30
ENDBRANCH  26  27
ENDBRANCH   1  26
TORSDOF 9
