REMARK  13 active torsions:
REMARK  status: ('A' for Active; 'I' for Inactive)
REMARK    1  A    between atoms: C2_2  and  C3_3 
REMARK    2  A    between atoms: C3_3  and  C4_4 
REMARK    3  A    between atoms: C4_4  and  C5_5 
REMARK    4  A    between atoms: N1_7  and  C7_8 
REMARK    5  A    between atoms: C10_13  and  N3_14 
REMARK    6  A    between atoms: N3_14  and  C11_16 
REMARK    7  A    between atoms: C12_19  and  C13_20 
REMARK    8  A    between atoms: C13_20  and  C14_21 
REMARK    9  A    between atoms: N6_25  and  O1_26 
REMARK   10  A    between atoms: C18_30  and  O2_31 
REMARK   11  A    between atoms: N8_40  and  C25_41 
REMARK   12  A    between atoms: C25_41  and  C26_42 
REMARK   13  A    between atoms: C26_42  and  N9_43 
ROOT
HETATM    1  C7  UNL     1       0.051  -0.137  -0.273  1.00  0.00     0.681 A 
HETATM    2  N2  UNL     1       0.893   0.256   0.696  1.00  0.00    -0.189 N 
ATOM      3  H2  UNL     1       0.632   0.443   1.664  1.00  0.00     0.184 HD
HETATM    4  C8  UNL     1       2.125   0.364   0.194  1.00  0.00     0.078 A 
HETATM    5  C9  UNL     1       3.380   0.691   0.648  1.00  0.00     0.064 A 
HETATM    6  C10 UNL     1       4.518   0.691  -0.146  1.00  0.00     0.069 A 
HETATM    7  C18 UNL     1       4.330   0.336  -1.472  1.00  0.00     0.097 A 
HETATM    8  C20 UNL     1       3.104   0.005  -1.962  1.00  0.00     0.071 A 
HETATM    9  C21 UNL     1       2.011   0.017  -1.137  1.00  0.00     0.079 A 
HETATM   10  N7  UNL     1       0.733  -0.290  -1.421  1.00  0.00    -0.189 N 
ATOM     11  H7  UNL     1       0.358  -0.580  -2.324  1.00  0.00     0.184 HD
ENDROOT
BRANCH   1  12
HETATM   12  N1  UNL     1      -1.350  -0.408  -0.184  1.00  0.00    -0.212 N 
HETATM   13  C6  UNL     1      -2.173   0.708  -0.500  1.00  0.00     0.193 C 
HETATM   14  C5  UNL     1      -3.663   0.502  -0.414  1.00  0.00     0.003 C 
HETATM   15  N8  UNL     1      -4.145  -0.218   0.684  1.00  0.00    -0.384 N 
HETATM   16  C24 UNL     1      -3.884  -1.573   0.878  1.00  0.00     0.124 C 
HETATM   17  C23 UNL     1      -2.476  -1.842   1.437  1.00  0.00     0.040 C 
HETATM   18  C22 UNL     1      -1.589  -1.766   0.215  1.00  0.00     0.143 C 
BRANCH  14  19
HETATM   19  C4  UNL     1      -4.317   0.317  -1.743  1.00  0.00     0.054 C 
BRANCH  19  20
HETATM   20  C3  UNL     1      -3.866  -0.810  -2.590  1.00  0.00     0.005 C 
BRANCH  20  21
HETATM   21  C2  UNL     1      -4.694  -0.756  -3.882  1.00  0.00    -0.004 C 
HETATM   22  C1  UNL     1      -4.489   0.551  -4.618  1.00  0.00     0.005 C 
ENDBRANCH  20  21
ENDBRANCH  19  20
ENDBRANCH  14  19
BRANCH  15  23
HETATM   23  C25 UNL     1      -5.052   0.403   1.573  1.00  0.00     0.152 C 
BRANCH  23  24
HETATM   24  C26 UNL     1      -6.403   0.647   1.011  1.00  0.00     0.292 C 
BRANCH  24  25
HETATM   25  N9  UNL     1      -7.323   1.264   1.919  1.00  0.00     0.094 N 
HETATM   26  C27 UNL     1      -8.608   1.355   1.246  1.00  0.00     0.298 C 
HETATM   27  C28 UNL     1      -9.225  -0.024   1.057  1.00  0.00     0.198 C 
HETATM   28  O3  UNL     1      -8.749  -0.974   1.925  1.00  0.00    -0.388 OA
HETATM   29  C29 UNL     1      -8.426  -0.527   3.176  1.00  0.00     0.198 C 
HETATM   30  C30 UNL     1      -7.506   0.658   3.181  1.00  0.00     0.298 C 
ENDBRANCH  24  25
ENDBRANCH  23  24
ENDBRANCH  15  23
ENDBRANCH   1  12
BRANCH   6  31
HETATM   31  N3  UNL     1       5.785   1.000   0.258  1.00  0.00    -0.338 N 
ATOM     32  H3  UNL     1       6.052   1.915  -0.105  1.00  0.00     0.167 HD
BRANCH  31  33
HETATM   33  C11 UNL     1       6.710   0.524   0.923  1.00  0.00     0.134 A 
HETATM   34  N4  UNL     1       7.842   1.292   1.026  1.00  0.00    -0.329 N 
HETATM   35  C12 UNL     1       8.930   0.962   1.685  1.00  0.00     0.099 A 
ATOM     36  H4  UNL     1       7.839   2.195   0.551  1.00  0.00     0.168 HD
HETATM   37  N5  UNL     1       8.941  -0.245   2.325  1.00  0.00    -0.263 N 
HETATM   38  N6  UNL     1       7.880  -1.018   2.256  1.00  0.00    -0.163 N 
ATOM     39  H5  UNL     1       9.763  -0.543   2.850  1.00  0.00     0.191 HD
HETATM   40  C16 UNL     1       6.743  -0.687   1.574  1.00  0.00     0.099 A 
HETATM   41  C17 UNL     1       5.594  -1.634   1.551  1.00  0.00     0.077 C 
BRANCH  35  42
HETATM   42  C13 UNL     1      10.174   1.788   1.803  1.00  0.00     0.077 C 
BRANCH  42  43
HETATM   43  C14 UNL     1      11.091   1.399   0.669  1.00  0.00     0.003 C 
HETATM   44  C15 UNL     1      10.544   1.643  -0.694  1.00  0.00     0.005 C 
ENDBRANCH  42  43
ENDBRANCH  35  42
BRANCH  38  45
HETATM   45  O1  UNL     1       7.879  -2.251   2.906  1.00  0.00    -0.268 OA
ATOM     46  H1  UNL     1       7.112  -2.810   2.856  1.00  0.00     0.247 HD
ENDBRANCH  38  45
ENDBRANCH  31  33
ENDBRANCH   6  31
BRANCH   7  47
HETATM   47  O2  UNL     1       5.423   0.312  -2.342  1.00  0.00    -0.354 OA
HETATM   48  C19 UNL     1       5.240  -0.050  -3.697  1.00  0.00     0.210 C 
ENDBRANCH   7  47
TORSDOF 13
