REMARK  12 active torsions:
REMARK  status: ('A' for Active; 'I' for Inactive)
REMARK    1  A    between atoms: C2_2  and  C3_3 
REMARK    2  A    between atoms: C5_5  and  C6_6 
REMARK       I    between atoms: C6_6  and  N1_8 
REMARK    3  A    between atoms: N1_8  and  C7_10 
REMARK    4  A    between atoms: C7_10  and  C8_11 
REMARK    5  A    between atoms: C7_10  and  C16_19 
REMARK    6  A    between atoms: C8_11  and  C9_12 
REMARK    7  A    between atoms: C10_13  and  C12_15 
REMARK    8  A    between atoms: C16_19  and  C17_21 
REMARK    9  A    between atoms: C17_21  and  C18_22 
REMARK   10  A    between atoms: C18_22  and  C19_23 
REMARK   11  A    between atoms: C18_22  and  C24_30 
REMARK       I    between atoms: C19_23  and  N2_25 
REMARK   12  A    between atoms: C24_30  and  C27_33 
ROOT
HETATM    1  C7  UNL     1       0.442   0.805   0.104  1.00  0.00     0.158 C 
ENDROOT
BRANCH   1   2
HETATM    2  N1  UNL     1       1.668  -0.039   0.083  1.00  0.00    -0.348 N 
HETATM    3  C6  UNL     1       2.704   0.133   1.019  1.00  0.00     0.243 C 
HETATM    4  O1  UNL     1       2.560   1.042   1.885  1.00  0.00    -0.271 OA
ATOM      5  H1  UNL     1       1.759  -0.762  -0.630  1.00  0.00     0.163 HD
BRANCH   3   6
HETATM    6  C5  UNL     1       3.931  -0.658   1.067  1.00  0.00     0.207 C 
HETATM    7  C4  UNL     1       3.705  -2.111   1.471  1.00  0.00     0.064 C 
HETATM    8  C3  UNL     1       4.999  -2.722   0.935  1.00  0.00     0.115 C 
HETATM    9  N5  UNL     1       5.107  -2.046  -0.332  1.00  0.00    -0.230 N 
HETATM   10  N3  UNL     1       4.501  -0.862  -0.274  1.00  0.00    -0.222 N 
HETATM   11  C30 UNL     1       5.620  -2.208  -1.568  1.00  0.00     0.347 A 
HETATM   12  C28 UNL     1       4.655  -0.311  -1.488  1.00  0.00     0.348 A 
HETATM   13  O5  UNL     1       4.240   0.820  -1.896  1.00  0.00    -0.245 OA
HETATM   14  N4  UNL     1       5.342  -1.121  -2.305  1.00  0.00    -0.253 N 
HETATM   15  C29 UNL     1       5.721  -0.908  -3.688  1.00  0.00     0.166 C 
HETATM   16  O6  UNL     1       6.262  -3.204  -1.995  1.00  0.00    -0.245 OA
BRANCH   8  17
HETATM   17  C2  UNL     1       4.879  -4.210   0.762  1.00  0.00     0.023 C 
HETATM   18  C1  UNL     1       4.568  -4.904   2.075  1.00  0.00     0.007 C 
ENDBRANCH   8  17
ENDBRANCH   3   6
ENDBRANCH   1   2
BRANCH   1  19
HETATM   19  C8  UNL     1       0.663   1.783  -1.023  1.00  0.00     0.060 C 
BRANCH  19  20
HETATM   20  C9  UNL     1      -0.428   2.758  -1.206  1.00  0.00    -0.021 C 
HETATM   21  C10 UNL     1      -0.242   4.068  -1.037  1.00  0.00    -0.080 C 
HETATM   22  C11 UNL     1       1.113   4.531  -0.654  1.00  0.00     0.044 C 
BRANCH  21  23
HETATM   23  C12 UNL     1      -1.380   4.989  -1.237  1.00  0.00    -0.029 C 
HETATM   24  C13 UNL     1      -1.653   5.728   0.067  1.00  0.00     0.019 C 
HETATM   25  C14 UNL     1      -2.610   4.318  -1.776  1.00  0.00     0.019 C 
HETATM   26  C15 UNL     1      -1.008   6.075  -2.257  1.00  0.00     0.019 C 
ENDBRANCH  21  23
ENDBRANCH  19  20
ENDBRANCH   1  19
BRANCH   1  27
HETATM   27  C16 UNL     1      -0.746  -0.053  -0.033  1.00  0.00     0.153 C 
HETATM   28  O2  UNL     1      -0.585  -1.113  -0.610  1.00  0.00    -0.295 OA
BRANCH  27  29
HETATM   29  C17 UNL     1      -2.050   0.298   0.479  1.00  0.00     0.121 C 
BRANCH  29  30
HETATM   30  C18 UNL     1      -3.179  -0.632   0.188  1.00  0.00     0.009 C 
BRANCH  30  31
HETATM   31  C19 UNL     1      -2.955  -1.997   0.704  1.00  0.00     0.247 C 
HETATM   32  O3  UNL     1      -2.773  -2.922  -0.126  1.00  0.00    -0.268 OA
HETATM   33  N2  UNL     1      -2.927  -2.343   2.085  1.00  0.00    -0.348 N 
HETATM   34  C20 UNL     1      -3.119  -1.508   3.265  1.00  0.00     0.126 C 
HETATM   35  C23 UNL     1      -2.684  -3.665   2.624  1.00  0.00     0.126 C 
HETATM   36  C21 UNL     1      -3.933  -2.380   4.234  1.00  0.00     0.021 C 
HETATM   37  C22 UNL     1      -3.691  -3.787   3.772  1.00  0.00     0.021 C 
ENDBRANCH  30  31
BRANCH  30  38
HETATM   38  C24 UNL     1      -3.868  -0.564  -1.106  1.00  0.00     0.035 C 
HETATM   39  C25 UNL     1      -4.494   0.815  -1.299  1.00  0.00     0.027 C 
HETATM   40  C26 UNL     1      -3.134  -0.979  -2.334  1.00  0.00     0.027 C 
BRANCH  38  41
HETATM   41  C27 UNL     1      -5.074  -1.478  -1.007  1.00  0.00     0.244 C 
HETATM   42  O4  UNL     1      -6.163  -1.111  -0.666  1.00  0.00    -0.306 OA
ENDBRANCH  38  41
ENDBRANCH  30  38
ENDBRANCH  29  30
ENDBRANCH  27  29
ENDBRANCH   1  27
TORSDOF 12
