REMARK  13 active torsions:
REMARK  status: ('A' for Active; 'I' for Inactive)
REMARK    1  A    between atoms: C2_2  and  C3_3 
REMARK    2  A    between atoms: C2_2  and  C6_9 
REMARK    3  A    between atoms: C3_3  and  O2_5 
REMARK    4  A    between atoms: O2_5  and  C4_6 
REMARK    5  A    between atoms: C6_9  and  C7_10 
REMARK    6  A    between atoms: C6_9  and  O4_13 
REMARK    7  A    between atoms: C7_10  and  C8_11 
REMARK    8  A    between atoms: O4_13  and  C10_14 
REMARK    9  A    between atoms: C10_14  and  C11_15 
REMARK   10  A    between atoms: C11_15  and  C12_16 
REMARK   11  A    between atoms: C11_15  and  C15_19 
REMARK   12  A    between atoms: C12_16  and  C13_17 
REMARK   13  A    between atoms: C18_25  and  C19_26 
ROOT
HETATM    1  C15 UNL     1      -0.412  -0.713   0.279  1.00  0.00     0.170 C 
HETATM    2  O5  UNL     1      -0.177   0.505  -0.351  1.00  0.00    -0.305 OA
HETATM    3  C16 UNL     1      -0.373   1.750   0.233  1.00  0.00     0.332 C 
HETATM    4  O6  UNL     1       0.411   2.681  -0.174  1.00  0.00    -0.256 OA
HETATM    5  C17 UNL     1      -1.341   2.097   1.227  1.00  0.00     0.246 C 
HETATM    6  O7  UNL     1      -0.913   2.717   2.267  1.00  0.00    -0.284 OA
HETATM    7  C18 UNL     1      -2.794   1.835   1.218  1.00  0.00     0.164 C 
HETATM    8  N1  UNL     1      -3.365   1.888  -0.105  1.00  0.00    -0.347 N 
ATOM      9  H1  UNL     1      -2.784   2.308  -0.830  1.00  0.00     0.163 HD
HETATM   10  C21 UNL     1      -4.615   1.433  -0.507  1.00  0.00     0.240 C 
HETATM   11  O8  UNL     1      -5.299   2.174  -1.295  1.00  0.00    -0.271 OA
HETATM   12  C22 UNL     1      -5.272   0.160  -0.124  1.00  0.00     0.172 C 
HETATM   13  C23 UNL     1      -6.450   0.562   0.777  1.00  0.00     0.042 C 
HETATM   14  N2  UNL     1      -5.748  -0.576  -1.276  1.00  0.00    -0.348 N 
ATOM     15  H2  UNL     1      -6.717  -0.892  -1.238  1.00  0.00     0.163 HD
HETATM   16  C24 UNL     1      -5.042  -0.904  -2.429  1.00  0.00     0.225 C 
HETATM   17  O9  UNL     1      -5.562  -0.679  -3.560  1.00  0.00    -0.273 OA
HETATM   18  C25 UNL     1      -3.668  -1.526  -2.479  1.00  0.00     0.096 C 
HETATM   19  C26 UNL     1      -3.777  -2.615  -3.569  1.00  0.00     0.024 C 
HETATM   20  C27 UNL     1      -3.334  -2.134  -1.175  1.00  0.00    -0.017 C 
HETATM   21  C28 UNL     1      -2.242  -2.213  -0.515  1.00  0.00    -0.023 C 
HETATM   22  C29 UNL     1      -0.864  -1.749  -0.747  1.00  0.00     0.038 C 
HETATM   23  C30 UNL     1      -0.568  -1.180  -2.101  1.00  0.00     0.017 C 
ENDROOT
BRANCH   1  24
HETATM   24  C11 UNL     1       0.663  -1.128   1.182  1.00  0.00    -0.028 C 
BRANCH  24  25
HETATM   25  C10 UNL     1       2.023  -1.432   0.765  1.00  0.00     0.141 C 
BRANCH  25  26
HETATM   26  O4  UNL     1       2.797  -0.929  -0.136  1.00  0.00    -0.353 OA
BRANCH  26  27
HETATM   27  C6  UNL     1       3.275   0.316  -0.285  1.00  0.00     0.166 C 
BRANCH  27  28
HETATM   28  C2  UNL     1       4.655   0.469   0.275  1.00  0.00     0.037 C 
HETATM   29  C1  UNL     1       5.310  -0.563   0.728  1.00  0.00     0.028 C 
BRANCH  28  30
HETATM   30  C3  UNL     1       5.262   1.757   0.362  1.00  0.00     0.298 C 
HETATM   31  O1  UNL     1       4.730   2.833  -0.039  1.00  0.00    -0.259 OA
BRANCH  30  32
HETATM   32  O2  UNL     1       6.526   1.897   0.918  1.00  0.00    -0.241 OA
BRANCH  32  33
HETATM   33  C4  UNL     1       7.182   3.100   1.040  1.00  0.00     0.262 C 
HETATM   34  C5  UNL     1       8.543   3.149   1.654  1.00  0.00     0.126 C 
HETATM   35  O3  UNL     1       6.611   4.134   0.627  1.00  0.00    -0.265 OA
ENDBRANCH  32  33
ENDBRANCH  30  32
ENDBRANCH  28  30
ENDBRANCH  27  28
BRANCH  27  36
HETATM   36  C7  UNL     1       3.097   0.784  -1.673  1.00  0.00     0.037 C 
BRANCH  36  37
HETATM   37  C8  UNL     1       3.882   0.133  -2.765  1.00  0.00    -0.002 C 
HETATM   38  C9  UNL     1       5.353   0.235  -2.760  1.00  0.00     0.005 C 
ENDBRANCH  36  37
ENDBRANCH  27  36
ENDBRANCH  26  27
ENDBRANCH  25  26
ENDBRANCH  24  25
BRANCH  24  39
HETATM   39  C12 UNL     1       0.256  -2.043   2.326  1.00  0.00     0.038 C 
BRANCH  39  40
HETATM   40  C13 UNL     1       0.291  -3.493   2.061  1.00  0.00    -0.000 C 
HETATM   41  C14 UNL     1      -0.135  -4.292   3.319  1.00  0.00     0.005 C 
ENDBRANCH  39  40
ENDBRANCH  24  39
ENDBRANCH   1  24
BRANCH   7  42
HETATM   42  C19 UNL     1      -3.520   2.927   2.025  1.00  0.00     0.029 C 
HETATM   43  C20 UNL     1      -3.282   4.291   1.444  1.00  0.00     0.007 C 
ENDBRANCH   7  42
TORSDOF 13
