REMARK  11 active torsions:
REMARK  status: ('A' for Active; 'I' for Inactive)
REMARK    1  A    between atoms: C2_2  and  C3_3 
REMARK    2  A    between atoms: C3_3  and  C4_4 
REMARK    3  A    between atoms: C3_3  and  N5_13 
REMARK    4  A    between atoms: C4_4  and  S1_5 
REMARK    5  A    between atoms: S1_5  and  C5_6 
REMARK       I    between atoms: N5_13  and  C7_15 
REMARK    6  A    between atoms: C7_15  and  C8_17 
REMARK    7  A    between atoms: C8_17  and  C9_18 
REMARK    8  A    between atoms: C8_17  and  N8_28 
REMARK    9  A    between atoms: C9_18  and  C10_19 
REMARK       I    between atoms: C10_19  and  N6_21 
REMARK       I    between atoms: N8_28  and  C16_30 
REMARK   10  A    between atoms: C16_30  and  C17_32 
REMARK   11  A    between atoms: C23_38  and  C24_39 
ROOT
HETATM    1  C10 UNL     1       0.574   2.765   0.578  1.00  0.00     0.223 C 
HETATM    2  O2  UNL     1       0.668   2.247  -0.579  1.00  0.00    -0.273 OA
HETATM    3  N6  UNL     1       0.659   4.174   0.635  1.00  0.00    -0.335 N 
HETATM    4  C11 UNL     1       0.570   4.959   1.849  1.00  0.00     0.127 C 
HETATM    5  C12 UNL     1       1.261   6.273   1.555  1.00  0.00     0.023 C 
HETATM    6  C13 UNL     1       1.907   6.033   0.203  1.00  0.00     0.042 C 
HETATM    7  C14 UNL     1       0.848   5.135  -0.452  1.00  0.00     0.194 C 
HETATM    8  C15 UNL     1      -0.356   5.922  -0.688  1.00  0.00     0.084 C 
HETATM    9  N7  UNL     1      -1.303   6.565  -0.881  1.00  0.00    -0.195 NA
ENDROOT
BRANCH   1  10
HETATM   10  C9  UNL     1       0.388   1.995   1.802  1.00  0.00     0.138 C 
BRANCH  10  11
HETATM   11  C8  UNL     1       0.275   0.503   1.609  1.00  0.00     0.185 C 
BRANCH  11  12
HETATM   12  C7  UNL     1       1.418  -0.149   0.995  1.00  0.00     0.241 C 
HETATM   13  N5  UNL     1       2.760  -0.032   1.436  1.00  0.00    -0.354 N 
ATOM     14  H5  UNL     1       2.953   0.553   2.249  1.00  0.00     0.162 HD
HETATM   15  O1  UNL     1       1.252  -0.899  -0.032  1.00  0.00    -0.271 OA
BRANCH  13  16
HETATM   16  C3  UNL     1       3.876  -0.704   0.788  1.00  0.00     0.093 C 
BRANCH  16  17
HETATM   17  C2  UNL     1       4.468  -1.668   1.743  1.00  0.00     0.021 C 
HETATM   18  C1  UNL     1       5.556  -2.546   1.187  1.00  0.00     0.007 C 
ENDBRANCH  16  17
BRANCH  16  19
HETATM   19  C4  UNL     1       4.775   0.303   0.177  1.00  0.00     0.107 C 
BRANCH  19  20
HETATM   20  S1  UNL     1       6.109  -0.344  -0.807  1.00  0.00    -0.090 SA
BRANCH  20  21
HETATM   21  C5  UNL     1       5.552  -1.144  -2.298  1.00  0.00     0.172 A 
HETATM   22  N1  UNL     1       4.303  -1.326  -2.737  1.00  0.00    -0.265 N 
HETATM   23  N2  UNL     1       4.367  -1.966  -3.899  1.00  0.00    -0.007 NA
ATOM     24  H1  UNL     1       3.451  -1.026  -2.263  1.00  0.00     0.186 HD
HETATM   25  N3  UNL     1       5.644  -2.194  -4.213  1.00  0.00    -0.005 NA
HETATM   26  N4  UNL     1       6.358  -1.684  -3.219  1.00  0.00    -0.260 N 
HETATM   27  C6  UNL     1       7.812  -1.753  -3.229  1.00  0.00     0.177 C 
ENDBRANCH  20  21
ENDBRANCH  19  20
ENDBRANCH  16  19
ENDBRANCH  13  16
ENDBRANCH  11  12
BRANCH  11  28
HETATM   28  N8  UNL     1      -0.930   0.155   0.879  1.00  0.00    -0.347 N 
HETATM   29  C16 UNL     1      -2.060  -0.422   1.483  1.00  0.00     0.227 C 
HETATM   30  O3  UNL     1      -2.054  -0.653   2.709  1.00  0.00    -0.273 OA
ATOM     31  H8  UNL     1      -0.958   0.339  -0.124  1.00  0.00     0.163 HD
BRANCH  29  32
HETATM   32  C17 UNL     1      -3.262  -0.767   0.689  1.00  0.00     0.042 C 
HETATM   33  C18 UNL     1      -4.508  -0.579   1.513  1.00  0.00     0.024 C 
HETATM   34  C19 UNL     1      -5.706  -0.836   0.653  1.00  0.00    -0.012 C 
HETATM   35  C20 UNL     1      -5.654   0.059  -0.545  1.00  0.00     0.009 C 
HETATM   36  C26 UNL     1      -5.751  -2.283   0.181  1.00  0.00     0.014 C 
HETATM   37  C21 UNL     1      -4.485  -0.289  -1.403  1.00  0.00    -0.012 C 
HETATM   38  C22 UNL     1      -4.417  -1.756  -1.778  1.00  0.00     0.014 C 
HETATM   39  C28 UNL     1      -3.224  -0.011  -0.591  1.00  0.00     0.024 C 
HETATM   40  C23 UNL     1      -4.443  -2.573  -0.488  1.00  0.00    -0.039 C 
HETATM   41  C27 UNL     1      -3.231  -2.253   0.338  1.00  0.00     0.028 C 
BRANCH  40  42
HETATM   42  C24 UNL     1      -4.424  -4.039  -0.895  1.00  0.00     0.005 C 
HETATM   43  C25 UNL     1      -4.456  -4.942   0.318  1.00  0.00     0.006 C 
ENDBRANCH  40  42
ENDBRANCH  29  32
ENDBRANCH  11  28
ENDBRANCH  10  11
ENDBRANCH   1  10
TORSDOF 11
