REMARK  6 active torsions:
REMARK  status: ('A' for Active; 'I' for Inactive)
REMARK    1  A    between atoms: C2_2  and  O1_3 
REMARK    2  A    between atoms: O1_3  and  C3_4 
REMARK    3  A    between atoms: C3_4  and  C4_5 
REMARK    4  A    between atoms: C4_5  and  N1_6 
REMARK    5  A    between atoms: N1_6  and  C5_8 
REMARK    6  A    between atoms: C8_15  and  N4_16 
ROOT
HETATM    1  C5  UNL     1       1.322   0.444   0.071  1.00  0.00     0.145 A 
HETATM    2  N2  UNL     1       1.117  -0.417  -0.934  1.00  0.00    -0.348 N 
ATOM      3  H2  UNL     1       0.166  -0.677  -1.194  1.00  0.00     0.167 HD
HETATM    4  C6  UNL     1       2.162  -0.941  -1.602  1.00  0.00     0.107 A 
HETATM    5  C7  UNL     1       3.479  -0.616  -1.281  1.00  0.00     0.107 A 
HETATM    6  N3  UNL     1       3.684   0.243  -0.277  1.00  0.00    -0.348 N 
ATOM      7  H3  UNL     1       4.634   0.504  -0.014  1.00  0.00     0.167 HD
HETATM    8  C8  UNL     1       2.623   0.769   0.393  1.00  0.00     0.143 A 
ENDROOT
BRANCH   1   9
HETATM    9  N1  UNL     1       0.391   0.988   0.757  1.00  0.00    -0.371 N 
ATOM     10  H1  UNL     1       0.678   1.628   1.498  1.00  0.00     0.161 HD
BRANCH   9  11
HETATM   11  C4  UNL     1      -1.012   0.786   0.586  1.00  0.00     0.148 C 
BRANCH  11  12
HETATM   12  C3  UNL     1      -1.480  -0.497   1.287  1.00  0.00     0.194 C 
BRANCH  12  13
HETATM   13  O1  UNL     1      -2.850  -0.696   1.121  1.00  0.00    -0.362 OA
BRANCH  13  14
HETATM   14  C2  UNL     1      -3.494  -0.844  -0.086  1.00  0.00     0.124 C 
HETATM   15  C1  UNL     1      -4.316   0.090  -0.565  1.00  0.00     0.037 C 
ENDBRANCH  13  14
ENDBRANCH  12  13
ENDBRANCH  11  12
ENDBRANCH   9  11
ENDBRANCH   1   9
BRANCH   8  16
HETATM   16  N4  UNL     1       2.914   1.588   1.345  1.00  0.00    -0.382 N 
ATOM     17  H42 UNL     1       2.119   1.982   1.847  1.00  0.00     0.157 HD
ATOM     18  H41 UNL     1       3.876   1.828   1.583  1.00  0.00     0.157 HD
ENDBRANCH   8  16
TORSDOF 6
