REMARK  12 active torsions:
REMARK  status: ('A' for Active; 'I' for Inactive)
REMARK    1  A    between atoms: C2_2  and  C3_3 
REMARK    2  A    between atoms: C3_3  and  C4_4 
REMARK    3  A    between atoms: C4_4  and  N1_5 
REMARK    4  A    between atoms: C6_8  and  N3_9 
REMARK    5  A    between atoms: N3_9  and  C7_10 
REMARK       I    between atoms: N3_9  and  C18_22 
REMARK    6  A    between atoms: C7_10  and  C8_11 
REMARK    7  A    between atoms: C8_11  and  C9_12 
REMARK    8  A    between atoms: C18_22  and  C19_24 
REMARK    9  A    between atoms: C19_24  and  C20_25 
REMARK   10  A    between atoms: C20_25  and  C21_26 
REMARK   11  A    between atoms: C21_26  and  C22_28 
REMARK   12  A    between atoms: C25_31  and  C26_32 
ROOT
HETATM    1  N3  UNL     1      -0.434   0.710   1.076  1.00  0.00    -0.310 N 
HETATM    2  C18 UNL     1       0.887   0.301   1.377  1.00  0.00     0.225 C 
HETATM    3  O1  UNL     1       1.811   1.138   1.242  1.00  0.00    -0.273 OA
ENDROOT
BRANCH   1   4
HETATM    4  C6  UNL     1      -0.708   2.062   0.644  1.00  0.00     0.147 A 
HETATM    5  C5  UNL     1      -0.366   2.492  -0.610  1.00  0.00     0.155 A 
HETATM    6  N1  UNL     1      -0.658   3.798  -0.963  1.00  0.00    -0.285 N 
HETATM    7  N2  UNL     1       0.263   1.628  -1.545  1.00  0.00    -0.080 NA
HETATM    8  C31 UNL     1      -1.259   4.592  -0.083  1.00  0.00     0.330 A 
HETATM    9  N5  UNL     1      -1.598   4.165   1.162  1.00  0.00    -0.273 N 
HETATM   10  O4  UNL     1      -1.555   5.795  -0.360  1.00  0.00    -0.246 OA
HETATM   11  C30 UNL     1      -1.339   2.921   1.552  1.00  0.00     0.279 A 
ATOM     12  H5  UNL     1      -2.058   4.808   1.806  1.00  0.00     0.173 HD
HETATM   13  O3  UNL     1      -1.629   2.464   2.695  1.00  0.00    -0.265 OA
BRANCH   6  14
HETATM   14  C4  UNL     1      -0.294   4.156  -2.309  1.00  0.00     0.135 C 
BRANCH  14  15
HETATM   15  C3  UNL     1       1.116   4.563  -2.476  1.00  0.00     0.020 C 
BRANCH  15  16
HETATM   16  C2  UNL     1       1.572   5.796  -1.800  1.00  0.00    -0.003 C 
HETATM   17  C1  UNL     1       0.927   7.069  -2.307  1.00  0.00     0.005 C 
ENDBRANCH  15  16
ENDBRANCH  14  15
ENDBRANCH   6  14
ENDBRANCH   1   4
BRANCH   1  18
HETATM   18  C7  UNL     1      -1.578  -0.172   1.177  1.00  0.00     0.133 C 
BRANCH  18  19
HETATM   19  C8  UNL     1      -1.894  -0.914  -0.079  1.00  0.00     0.027 C 
BRANCH  19  20
HETATM   20  C9  UNL     1      -3.075  -1.835   0.058  1.00  0.00     0.015 C 
HETATM   21  C10 UNL     1      -2.851  -2.869   1.114  1.00  0.00     0.008 C 
HETATM   22  C11 UNL     1      -4.142  -3.696   1.200  1.00  0.00     0.036 C 
HETATM   23  C12 UNL     1      -5.231  -2.738   1.595  1.00  0.00     0.223 C 
HETATM   24  C13 UNL     1      -6.521  -3.447   1.935  1.00  0.00     0.036 C 
HETATM   25  N4  UNL     1      -5.486  -1.844   0.515  1.00  0.00     0.093 N 
HETATM   26  C14 UNL     1      -6.986  -4.240   0.744  1.00  0.00     0.004 C 
HETATM   27  C15 UNL     1      -7.068  -3.435  -0.514  1.00  0.00     0.030 C 
HETATM   28  C16 UNL     1      -5.984  -2.430  -0.685  1.00  0.00     0.273 C 
HETATM   29  C17 UNL     1      -4.324  -1.040   0.209  1.00  0.00     0.277 C 
ENDBRANCH  19  20
ENDBRANCH  18  19
ENDBRANCH   1  18
BRANCH   2  30
HETATM   30  C19 UNL     1       1.191  -1.055   1.837  1.00  0.00     0.111 C 
BRANCH  30  31
HETATM   31  C20 UNL     1       2.677  -1.313   1.819  1.00  0.00     0.093 C 
BRANCH  31  32
HETATM   32  C21 UNL     1       3.191  -1.215   0.437  1.00  0.00     0.160 C 
HETATM   33  O2  UNL     1       2.383  -1.016  -0.500  1.00  0.00    -0.292 OA
BRANCH  32  34
HETATM   34  C22 UNL     1       4.615  -1.347   0.158  1.00  0.00     0.011 A 
HETATM   35  C23 UNL     1       5.065  -1.263  -1.140  1.00  0.00     0.016 A 
HETATM   36  C24 UNL     1       6.400  -1.384  -1.434  1.00  0.00     0.010 A 
HETATM   37  C25 UNL     1       7.343  -1.595  -0.437  1.00  0.00    -0.037 A 
HETATM   38  C28 UNL     1       6.877  -1.677   0.856  1.00  0.00     0.041 A 
HETATM   39 CL1  UNL     1       8.014  -1.942   2.167  1.00  0.00    -0.084 Cl
HETATM   40  C29 UNL     1       5.535  -1.556   1.159  1.00  0.00     0.039 A 
BRANCH  37  41
HETATM   41  C26 UNL     1       8.778  -1.725  -0.754  1.00  0.00     0.036 C 
HETATM   42  C27 UNL     1       9.533  -0.469  -0.413  1.00  0.00     0.010 C 
ENDBRANCH  37  41
ENDBRANCH  32  34
ENDBRANCH  31  32
ENDBRANCH  30  31
ENDBRANCH   2  30
TORSDOF 12
