REMARK  14 active torsions:
REMARK  status: ('A' for Active; 'I' for Inactive)
REMARK    1  A    between atoms: C2_2  and  C3_3 
REMARK    2  A    between atoms: C3_3  and  C4_4 
REMARK    3  A    between atoms: C4_4  and  C5_5 
REMARK    4  A    between atoms: C5_5  and  C6_6 
REMARK    5  A    between atoms: C6_6  and  C7_7 
REMARK    6  A    between atoms: C7_7  and  C8_8 
REMARK    7  A    between atoms: C8_8  and  C9_9 
REMARK    8  A    between atoms: C9_9  and  C10_10 
REMARK    9  A    between atoms: C10_10  and  C11_11 
REMARK   10  A    between atoms: C11_11  and  C12_12 
REMARK   11  A    between atoms: C11_11  and  N4_22 
REMARK   12  A    between atoms: C19_25  and  O1_26 
REMARK   13  A    between atoms: O1_26  and  C20_27 
REMARK   14  A    between atoms: C23_30  and  C24_31 
ROOT
HETATM    1  C12 UNL     1      -2.213  -0.535  -0.726  1.00  0.00     0.049 A 
HETATM    2  C13 UNL     1      -2.922  -1.676  -1.040  1.00  0.00     0.045 A 
HETATM    3  C14 UNL     1      -3.766  -1.662  -2.120  1.00  0.00     0.092 A 
HETATM    4  N1  UNL     1      -3.893  -0.530  -2.864  1.00  0.00    -0.344 N 
ATOM      5  H1  UNL     1      -4.523  -0.527  -3.666  1.00  0.00     0.167 HD
HETATM    6  C15 UNL     1      -3.206   0.581  -2.562  1.00  0.00     0.188 A 
HETATM    7  C16 UNL     1      -3.313   1.806  -3.331  1.00  0.00     0.137 C 
HETATM    8  N2  UNL     1      -3.395   2.792  -3.927  1.00  0.00    -0.188 NA
HETATM    9  N3  UNL     1      -2.395   0.531  -1.505  1.00  0.00    -0.335 N 
ATOM     10  H3  UNL     1      -1.872   1.376  -1.274  1.00  0.00     0.168 HD
ENDROOT
BRANCH   1  11
HETATM   11  C11 UNL     1      -1.264  -0.506   0.405  1.00  0.00     0.295 C 
BRANCH  11  12
HETATM   12  C10 UNL     1      -1.804  -0.175   1.732  1.00  0.00     0.011 C 
BRANCH  12  13
HETATM   13  C9  UNL     1      -2.433   1.087   2.082  1.00  0.00    -0.028 C 
BRANCH  13  14
HETATM   14  C8  UNL     1      -3.671   1.569   1.455  1.00  0.00     0.027 C 
BRANCH  14  15
HETATM   15  C7  UNL     1      -4.869   0.647   1.589  1.00  0.00     0.004 C 
BRANCH  15  16
HETATM   16  C6  UNL     1      -6.083   1.272   0.901  1.00  0.00     0.000 C 
BRANCH  16  17
HETATM   17  C5  UNL     1      -7.269   0.372   1.026  1.00  0.00     0.000 C 
BRANCH  17  18
HETATM   18  C4  UNL     1      -8.504   0.914   0.385  1.00  0.00     0.000 C 
BRANCH  18  19
HETATM   19  C3  UNL     1      -8.343   1.158  -1.086  1.00  0.00    -0.000 C 
BRANCH  19  20
HETATM   20  C2  UNL     1      -7.997  -0.115  -1.815  1.00  0.00    -0.005 C 
HETATM   21  C1  UNL     1      -9.074  -1.169  -1.641  1.00  0.00     0.005 C 
ENDBRANCH  19  20
ENDBRANCH  18  19
ENDBRANCH  17  18
ENDBRANCH  16  17
ENDBRANCH  15  16
ENDBRANCH  14  15
ENDBRANCH  13  14
ENDBRANCH  12  13
ENDBRANCH  11  12
BRANCH  11  22
HETATM   22  N4  UNL     1      -0.084   0.274   0.088  1.00  0.00     0.102 N 
HETATM   23  C17 UNL     1       1.009   0.154   0.972  1.00  0.00     0.276 C 
HETATM   24  C18 UNL     1       1.805  -1.127   0.858  1.00  0.00     0.062 C 
HETATM   25  C19 UNL     1       2.247  -1.351  -0.573  1.00  0.00     0.132 C 
HETATM   26  C30 UNL     1       1.796  -0.226  -1.463  1.00  0.00     0.062 C 
HETATM   27  C31 UNL     1       0.331   0.092  -1.287  1.00  0.00     0.276 C 
BRANCH  25  28
HETATM   28  O1  UNL     1       3.573  -1.620  -0.772  1.00  0.00    -0.346 OA
BRANCH  28  29
HETATM   29  C20 UNL     1       4.740  -1.081  -0.417  1.00  0.00     0.069 A 
HETATM   30  C21 UNL     1       5.912  -1.743  -0.812  1.00  0.00     0.037 A 
HETATM   31  C22 UNL     1       7.162  -1.265  -0.497  1.00  0.00     0.012 A 
HETATM   32  C23 UNL     1       7.312  -0.089   0.235  1.00  0.00    -0.028 A 
HETATM   33  C28 UNL     1       6.170   0.567   0.627  1.00  0.00     0.012 A 
HETATM   34  C29 UNL     1       4.923   0.068   0.299  1.00  0.00     0.037 A 
BRANCH  32  35
HETATM   35  C24 UNL     1       8.620   0.481   0.615  1.00  0.00     0.180 C 
HETATM   36  C25 UNL     1       9.070  -0.128   1.898  1.00  0.00     0.268 C 
HETATM   37  N5  UNL     1      10.298   0.528   2.308  1.00  0.00    -0.070 N 
HETATM   38  C26 UNL     1      11.270   0.389   1.262  1.00  0.00     0.258 C 
ATOM     39  H52 UNL     1      10.149   1.501   2.574  1.00  0.00     0.277 HD
ATOM     40  H51 UNL     1      10.641   0.186   3.206  1.00  0.00     0.277 HD
HETATM   41  C27 UNL     1      10.699  -0.266   0.020  1.00  0.00     0.196 C 
HETATM   42  O2  UNL     1       9.551   0.392  -0.418  1.00  0.00    -0.378 OA
ENDBRANCH  32  35
ENDBRANCH  28  29
ENDBRANCH  25  28
ENDBRANCH  11  22
ENDBRANCH   1  11
TORSDOF 14
