REMARK  7 active torsions:
REMARK  status: ('A' for Active; 'I' for Inactive)
REMARK    1  A    between atoms: C4_5  and  C5_6 
REMARK    2  A    between atoms: C7_9  and  N2_10 
REMARK    3  A    between atoms: N2_10  and  C8_11 
REMARK    4  A    between atoms: N2_10  and  C14_19 
REMARK    5  A    between atoms: C8_11  and  C9_12 
REMARK    6  A    between atoms: C14_19  and  N4_21 
REMARK       I    between atoms: N4_21  and  C15_23 
REMARK    7  A    between atoms: C15_23  and  C16_25 
ROOT
HETATM    1  N2  UNL     1      -1.129   1.958   0.031  1.00  0.00    -0.300 N 
ENDROOT
BRANCH   1   2
HETATM    2  C7  UNL     1       0.067   1.259  -0.338  1.00  0.00     0.153 A 
HETATM    3  S1  UNL     1       0.759   0.983  -1.873  1.00  0.00    -0.063 SA
HETATM    4  C6  UNL     1       2.126   0.086  -1.379  1.00  0.00     0.083 A 
HETATM    5  C5  UNL     1       1.962   0.051  -0.016  1.00  0.00     0.051 A 
HETATM    6  N5  UNL     1       0.914   0.653   0.471  1.00  0.00    -0.335 N 
ATOM      7  H5  UNL     1       0.749   0.656   1.478  1.00  0.00     0.168 HD
BRANCH   5   8
HETATM    8  C4  UNL     1       2.937  -0.645   0.858  1.00  0.00    -0.009 A 
HETATM    9  C3  UNL     1       4.035  -1.275   0.357  1.00  0.00     0.015 A 
HETATM   10  C2  UNL     1       4.920  -1.917   1.222  1.00  0.00     0.027 A 
HETATM   11  C1  UNL     1       4.742  -1.951   2.587  1.00  0.00     0.046 A 
HETATM   12  N1  UNL     1       5.666  -2.617   3.450  1.00  0.00    -0.102 NA
HETATM   13  C23 UNL     1       3.630  -1.313   3.094  1.00  0.00     0.027 A 
HETATM   14  C22 UNL     1       2.751  -0.673   2.222  1.00  0.00     0.015 A 
ENDBRANCH   5   8
ENDBRANCH   1   2
BRANCH   1  15
HETATM   15  C8  UNL     1      -1.049   3.371   0.281  1.00  0.00     0.172 C 
BRANCH  15  16
HETATM   16  C9  UNL     1      -0.567   4.097  -0.919  1.00  0.00    -0.037 A 
HETATM   17  C10 UNL     1      -1.410   4.557  -1.915  1.00  0.00     0.026 A 
HETATM   18  C11 UNL     1      -0.907   5.227  -3.006  1.00  0.00     0.088 A 
HETATM   19  N3  UNL     1       0.411   5.437  -3.106  1.00  0.00    -0.375 N 
HETATM   20  C12 UNL     1       1.233   5.003  -2.158  1.00  0.00     0.088 A 
ATOM     21  H3  UNL     1       0.786   5.933  -3.915  1.00  0.00     0.164 HD
HETATM   22  C13 UNL     1       0.765   4.338  -1.070  1.00  0.00     0.026 A 
ENDBRANCH  15  16
ENDBRANCH   1  15
BRANCH   1  23
HETATM   23  C14 UNL     1      -2.343   1.254   0.146  1.00  0.00     0.183 C 
HETATM   24  S2  UNL     1      -3.715   2.059   0.573  1.00  0.00    -0.040 SA
BRANCH  23  25
HETATM   25  N4  UNL     1      -2.393  -0.141  -0.101  1.00  0.00    -0.299 N 
HETATM   26  C15 UNL     1      -3.587  -0.899   0.003  1.00  0.00     0.257 C 
HETATM   27  O1  UNL     1      -4.679  -0.315   0.332  1.00  0.00    -0.267 OA
ATOM     28  H4  UNL     1      -1.532  -0.621  -0.365  1.00  0.00     0.171 HD
BRANCH  26  29
HETATM   29  C16 UNL     1      -3.640  -2.337  -0.251  1.00  0.00     0.032 A 
HETATM   30  C17 UNL     1      -2.573  -3.043  -0.752  1.00  0.00     0.017 A 
HETATM   31  C18 UNL     1      -2.681  -4.405  -0.964  1.00  0.00     0.001 A 
HETATM   32  C19 UNL     1      -3.844  -5.110  -0.687  1.00  0.00     0.000 A 
HETATM   33  C20 UNL     1      -4.889  -4.356  -0.185  1.00  0.00     0.001 A 
HETATM   34  C21 UNL     1      -4.807  -3.009   0.033  1.00  0.00     0.017 A 
ENDBRANCH  26  29
ENDBRANCH  23  25
ENDBRANCH   1  23
TORSDOF 7
