REMARK  6 active torsions:
REMARK  status: ('A' for Active; 'I' for Inactive)
REMARK    1  A    between atoms: C2_2  and  C3_3 
REMARK    2  A    between atoms: C6_6  and  N1_7 
REMARK       I    between atoms: N1_7  and  C7_9 
REMARK    3  A    between atoms: C7_9  and  C8_11 
REMARK    4  A    between atoms: C13_16  and  N2_17 
REMARK    5  A    between atoms: N2_17  and  C14_19 
REMARK    6  A    between atoms: C19_28  and  C20_29 
ROOT
HETATM    1  N2  UNL     1      -0.902  -2.091  -0.592  1.00  0.00    -0.341 N 
ATOM      2  H2  UNL     1      -0.948  -1.176  -1.040  1.00  0.00     0.167 HD
ENDROOT
BRANCH   1   3
HETATM    3  C13 UNL     1      -0.176  -3.110  -1.243  1.00  0.00     0.049 A 
HETATM    4  C8  UNL     1       1.173  -2.986  -1.396  1.00  0.00     0.059 A 
HETATM    5  C9  UNL     1       1.845  -4.054  -2.015  1.00  0.00     0.019 A 
HETATM    6  C10 UNL     1       1.126  -5.151  -2.431  1.00  0.00     0.001 A 
HETATM    7  C11 UNL     1      -0.236  -5.249  -2.265  1.00  0.00     0.002 A 
HETATM    8  C12 UNL     1      -0.908  -4.222  -1.664  1.00  0.00     0.030 A 
BRANCH   4   9
HETATM    9  C7  UNL     1       2.002  -1.846  -1.037  1.00  0.00     0.258 C 
HETATM   10  N1  UNL     1       1.626  -0.522  -0.880  1.00  0.00    -0.322 N 
ATOM     11  H1  UNL     1       0.637  -0.327  -1.037  1.00  0.00     0.169 HD
HETATM   12  O1  UNL     1       3.247  -2.110  -0.844  1.00  0.00    -0.267 OA
BRANCH  10  13
HETATM   13  C6  UNL     1       2.406   0.584  -0.538  1.00  0.00     0.050 A 
HETATM   14  C5  UNL     1       1.820   1.743  -0.031  1.00  0.00     0.033 A 
HETATM   15  C4  UNL     1       2.585   2.835   0.277  1.00  0.00     0.031 A 
HETATM   16  C3  UNL     1       3.956   2.844   0.103  1.00  0.00     0.031 A 
HETATM   17  N7  UNL     1       4.498   1.728  -0.383  1.00  0.00    -0.364 N 
HETATM   18  C26 UNL     1       3.760   0.611  -0.704  1.00  0.00     0.117 A 
ATOM     19  H7  UNL     1       5.508   1.700  -0.524  1.00  0.00     0.165 HD
BRANCH  16  20
HETATM   20  C2  UNL     1       4.741   4.021   0.440  1.00  0.00     0.019 C 
HETATM   21  C1  UNL     1       6.049   3.989   0.267  1.00  0.00     0.013 C 
ENDBRANCH  16  20
ENDBRANCH  10  13
ENDBRANCH   4   9
ENDBRANCH   1   3
BRANCH   1  22
HETATM   22  C14 UNL     1      -1.510  -2.245   0.533  1.00  0.00     0.119 A 
HETATM   23  N3  UNL     1      -1.527  -3.384   1.220  1.00  0.00    -0.338 N 
HETATM   24  C15 UNL     1      -2.187  -3.462   2.385  1.00  0.00     0.182 A 
ATOM     25  H3  UNL     1      -1.036  -4.202   0.859  1.00  0.00     0.168 HD
HETATM   26  N4  UNL     1      -2.855  -2.429   2.922  1.00  0.00    -0.352 N 
HETATM   27  C16 UNL     1      -2.868  -1.250   2.264  1.00  0.00     0.047 A 
ATOM     28  H4  UNL     1      -3.344  -2.533   3.811  1.00  0.00     0.166 HD
HETATM   29  C17 UNL     1      -3.537  -0.156   2.767  1.00  0.00     0.031 A 
HETATM   30  C25 UNL     1      -2.181  -1.156   1.045  1.00  0.00     0.035 A 
HETATM   31  C18 UNL     1      -3.526   1.026   2.063  1.00  0.00     0.014 A 
HETATM   32  C19 UNL     1      -2.858   1.155   0.855  1.00  0.00    -0.022 A 
HETATM   33  C24 UNL     1      -2.193   0.056   0.362  1.00  0.00     0.030 A 
BRANCH  32  34
HETATM   34  C20 UNL     1      -2.824   2.389   0.087  1.00  0.00     0.005 A 
HETATM   35  C21 UNL     1      -2.745   2.449  -1.285  1.00  0.00     0.102 A 
HETATM   36  N5  UNL     1      -2.715   3.610  -1.963  1.00  0.00    -0.361 N 
HETATM   37  C22 UNL     1      -2.764   4.771  -1.273  1.00  0.00     0.180 A 
ATOM     38  H5  UNL     1      -2.656   3.614  -2.981  1.00  0.00     0.166 HD
HETATM   39  N6  UNL     1      -2.840   4.736   0.067  1.00  0.00    -0.361 N 
HETATM   40  C23 UNL     1      -2.872   3.588   0.769  1.00  0.00     0.102 A 
ATOM     41  H6  UNL     1      -2.875   5.619   0.576  1.00  0.00     0.166 HD
ENDBRANCH  32  34
ENDBRANCH   1  22
TORSDOF 6
