REMARK  11 active torsions:
REMARK  status: ('A' for Active; 'I' for Inactive)
REMARK    1  A    between atoms: S1_2  and  C2_3 
REMARK    2  A    between atoms: C2_3  and  C3_4 
REMARK    3  A    between atoms: C3_4  and  C4_5 
REMARK    4  A    between atoms: C4_5  and  C5_6 
REMARK    5  A    between atoms: C5_6  and  C6_7 
REMARK    6  A    between atoms: C6_7  and  C7_8 
REMARK    7  A    between atoms: C9_13  and  C10_14 
REMARK    8  A    between atoms: C12_20  and  C13_21 
REMARK    9  A    between atoms: C13_21  and  C14_22 
REMARK   10  A    between atoms: C17_26  and  C18_27 
REMARK   11  A    between atoms: C21_31  and  C22_32 
ROOT
HETATM    1  C7  UNL     1       2.615  -0.408   0.855  1.00  0.00     0.176 C 
HETATM    2  N1  UNL     1       1.490  -0.007   1.653  1.00  0.00    -0.346 N 
ATOM      3  H1  UNL     1       1.011  -0.781   2.114  1.00  0.00     0.163 HD
HETATM    4  C8  UNL     1       0.929   1.247   1.915  1.00  0.00     0.243 C 
HETATM    5  O1  UNL     1       0.938   1.697   3.128  1.00  0.00    -0.271 OA
HETATM    6  C9  UNL     1       0.289   2.196   0.973  1.00  0.00     0.205 C 
HETATM    7  N2  UNL     1      -1.049   2.470   1.440  1.00  0.00    -0.340 N 
ATOM      8  H2  UNL     1      -1.181   3.393   1.853  1.00  0.00     0.163 HD
HETATM    9  C11 UNL     1      -2.174   1.677   1.414  1.00  0.00     0.265 C 
HETATM   10  O2  UNL     1      -2.773   1.479   2.536  1.00  0.00    -0.266 OA
HETATM   11  C12 UNL     1      -2.802   1.012   0.254  1.00  0.00     0.081 C 
HETATM   12  N3  UNL     1      -3.288  -0.263   0.522  1.00  0.00    -0.335 N 
HETATM   13  C17 UNL     1      -4.415  -0.703   1.128  1.00  0.00     0.091 C 
HETATM   14  C21 UNL     1      -2.161  -1.209   0.518  1.00  0.00     0.195 C 
HETATM   15  N4  UNL     1      -2.006  -1.833  -0.777  1.00  0.00    -0.337 N 
ATOM     16  H4  UNL     1      -2.855  -2.059  -1.295  1.00  0.00     0.164 HD
HETATM   17  C25 UNL     1      -0.762  -2.156  -1.384  1.00  0.00     0.241 C 
HETATM   18  O3  UNL     1      -0.688  -3.280  -1.976  1.00  0.00    -0.271 OA
HETATM   19  C26 UNL     1       0.438  -1.272  -1.367  1.00  0.00     0.174 C 
HETATM   20  C27 UNL     1       0.655  -0.700  -2.775  1.00  0.00     0.042 C 
HETATM   21  N5  UNL     1       1.647  -1.981  -0.957  1.00  0.00    -0.342 N 
HETATM   22  C28 UNL     1       2.079  -3.040  -1.885  1.00  0.00     0.153 C 
HETATM   23  C29 UNL     1       2.381  -1.735   0.212  1.00  0.00     0.243 C 
HETATM   24  O4  UNL     1       2.894  -2.762   0.767  1.00  0.00    -0.271 OA
ENDROOT
BRANCH   1  25
HETATM   25  C6  UNL     1       3.144   0.609  -0.098  1.00  0.00     0.035 C 
BRANCH  25  26
HETATM   26  C5  UNL     1       4.335   0.115  -0.877  1.00  0.00     0.002 C 
BRANCH  26  27
HETATM   27  C4  UNL     1       5.506  -0.251   0.036  1.00  0.00     0.001 C 
BRANCH  27  28
HETATM   28  C3  UNL     1       6.671  -0.735  -0.752  1.00  0.00     0.010 C 
BRANCH  28  29
HETATM   29  C2  UNL     1       7.875  -1.153  -0.006  1.00  0.00     0.073 C 
BRANCH  29  30
HETATM   30  S1  UNL     1       8.658   0.057   1.037  1.00  0.00    -0.173 SA
HETATM   31  C1  UNL     1       7.637   0.456   2.468  1.00  0.00     0.089 C 
ENDBRANCH  29  30
ENDBRANCH  28  29
ENDBRANCH  27  28
ENDBRANCH  26  27
ENDBRANCH  25  26
ENDBRANCH   1  25
BRANCH   6  32
HETATM   32  C10 UNL     1       1.040   3.530   0.979  1.00  0.00     0.257 C 
HETATM   33  F1  UNL     1       0.474   4.438   0.116  1.00  0.00    -0.253 F 
ENDBRANCH   6  32
BRANCH  11  34
HETATM   34  C13 UNL     1      -3.576   1.999  -0.508  1.00  0.00     0.067 C 
BRANCH  34  35
HETATM   35  C14 UNL     1      -2.824   3.141  -1.138  1.00  0.00    -0.017 C 
HETATM   36  C15 UNL     1      -1.821   2.751  -2.168  1.00  0.00     0.010 C 
HETATM   37  C16 UNL     1      -3.838   4.057  -1.818  1.00  0.00     0.010 C 
ENDBRANCH  34  35
ENDBRANCH  11  34
BRANCH  14  38
HETATM   38  C22 UNL     1      -2.254  -2.223   1.603  1.00  0.00     0.029 A 
HETATM   39  C23 UNL     1      -1.127  -3.231   1.672  1.00  0.00     0.009 A 
HETATM   40  C24 UNL     1      -2.467  -3.663   1.203  1.00  0.00     0.009 A 
ENDBRANCH  14  38
BRANCH  13  41
HETATM   41  C18 UNL     1      -5.803  -0.685   0.636  1.00  0.00     0.062 C 
HETATM   42  C19 UNL     1      -6.529   0.541   0.313  1.00  0.00     0.038 C 
HETATM   43  C20 UNL     1      -5.945  -1.606  -0.615  1.00  0.00     0.038 C 
HETATM   44 CL1  UNL     1      -6.791  -1.615   1.873  1.00  0.00    -0.114 Cl
ENDBRANCH  13  41
TORSDOF 11
