REMARK  13 active torsions:
REMARK  status: ('A' for Active; 'I' for Inactive)
REMARK    1  A    between atoms: C2_2  and  C3_3 
REMARK       I    between atoms: N1_5  and  C5_6 
REMARK       I    between atoms: C5_6  and  N2_8 
REMARK    2  A    between atoms: N2_8  and  C6_10 
REMARK    3  A    between atoms: N3_17  and  C12_18 
REMARK    4  A    between atoms: C12_18  and  C13_19 
REMARK    5  A    between atoms: N4_25  and  C17_26 
REMARK    6  A    between atoms: C17_26  and  C18_27 
REMARK       I    between atoms: C18_27  and  N5_29 
REMARK    7  A    between atoms: N5_29  and  C19_30 
REMARK    8  A    between atoms: N5_29  and  C21_32 
REMARK    9  A    between atoms: C25_36  and  C26_37 
REMARK   10  A    between atoms: C26_37  and  O4_38 
REMARK   11  A    between atoms: C26_37  and  N6_40 
REMARK   12  A    between atoms: N6_40  and  C27_41 
REMARK   13  A    between atoms: N6_40  and  C30_44 
ROOT
HETATM    1  C13 UNL     1       2.842  -2.017   0.222  1.00  0.00     0.128 C 
HETATM    2  C14 UNL     1       3.651  -3.009   1.087  1.00  0.00     0.111 C 
HETATM    3  C15 UNL     1       3.545  -2.494   2.462  1.00  0.00     0.261 C 
HETATM    4  F1  UNL     1       3.195  -3.466   3.394  1.00  0.00    -0.204 F 
HETATM    5  F2  UNL     1       4.773  -1.968   2.883  1.00  0.00    -0.204 F 
HETATM    6  C16 UNL     1       2.456  -1.481   2.469  1.00  0.00     0.202 C 
HETATM    7  N4  UNL     1       1.887  -1.563   1.145  1.00  0.00    -0.370 N 
ENDROOT
BRANCH   7   8
HETATM    8  C17 UNL     1       0.528  -1.767   1.066  1.00  0.00     0.161 C 
BRANCH   8   9
HETATM    9  C18 UNL     1      -0.050  -3.124   1.237  1.00  0.00     0.259 C 
HETATM   10  O3  UNL     1       0.614  -4.108   1.387  1.00  0.00    -0.267 OA
HETATM   11  N5  UNL     1      -1.509  -3.245   1.231  1.00  0.00    -0.343 N 
BRANCH  11  12
HETATM   12  C19 UNL     1      -2.039  -4.574   1.416  1.00  0.00     0.122 C 
HETATM   13  C20 UNL     1      -2.232  -4.990   2.835  1.00  0.00     0.026 C 
ENDBRANCH  11  12
BRANCH  11  14
HETATM   14  C21 UNL     1      -2.394  -2.131   1.040  1.00  0.00     0.088 C 
HETATM   15  C22 UNL     1      -2.950  -1.767   2.390  1.00  0.00     0.025 C 
HETATM   16  C23 UNL     1      -4.043  -0.738   2.302  1.00  0.00     0.003 C 
HETATM   17  C24 UNL     1      -5.097  -1.355   1.397  1.00  0.00     0.013 C 
HETATM   18  C25 UNL     1      -4.581  -1.369   0.004  1.00  0.00     0.062 C 
HETATM   19  C33 UNL     1      -3.290  -2.158  -0.113  1.00  0.00     0.038 C 
BRANCH  18  20
HETATM   20  C26 UNL     1      -4.489  -0.046  -0.553  1.00  0.00     0.118 C 
BRANCH  20  21
HETATM   21  O4  UNL     1      -3.175   0.374  -0.475  1.00  0.00    -0.349 OA
ATOM     22  H4  UNL     1      -3.114   1.248  -0.843  1.00  0.00     0.219 HD
ENDBRANCH  20  21
BRANCH  20  23
HETATM   23  N6  UNL     1      -5.270   0.922  -1.124  1.00  0.00    -0.357 N 
BRANCH  23  24
HETATM   24  C27 UNL     1      -6.685   0.859  -1.441  1.00  0.00     0.078 C 
HETATM   25  C28 UNL     1      -6.949  -0.170  -2.522  1.00  0.00     0.032 C 
HETATM   26  C29 UNL     1      -7.600   0.739  -0.262  1.00  0.00     0.032 C 
ENDBRANCH  23  24
BRANCH  23  27
HETATM   27  C30 UNL     1      -4.623   2.224  -1.496  1.00  0.00     0.078 C 
HETATM   28  C31 UNL     1      -4.858   2.566  -2.918  1.00  0.00     0.032 C 
HETATM   29  C32 UNL     1      -5.218   3.310  -0.608  1.00  0.00     0.032 C 
ENDBRANCH  23  27
ENDBRANCH  20  23
ENDBRANCH  18  20
ENDBRANCH  11  14
ENDBRANCH   8   9
ENDBRANCH   7   8
BRANCH   1  30
HETATM   30  C12 UNL     1       3.857  -0.925  -0.059  1.00  0.00     0.093 C 
BRANCH  30  31
HETATM   31  N3  UNL     1       3.589   0.143  -0.899  1.00  0.00    -0.322 N 
HETATM   32  C3  UNL     1       4.106   0.247  -2.280  1.00  0.00     0.110 C 
HETATM   33  C4  UNL     1       5.030   1.494  -2.316  1.00  0.00     0.154 C 
HETATM   34  N1  UNL     1       4.693   2.454  -1.312  1.00  0.00    -0.319 N 
HETATM   35  C5  UNL     1       5.701   3.100  -0.568  1.00  0.00     0.319 C 
HETATM   36  C9  UNL     1       3.264   2.647  -1.078  1.00  0.00     0.177 C 
HETATM   37  O1  UNL     1       6.893   2.846  -0.788  1.00  0.00    -0.247 OA
HETATM   38  N2  UNL     1       5.448   4.062   0.471  1.00  0.00    -0.338 N 
ATOM     39  H2  UNL     1       4.490   4.341   0.682  1.00  0.00     0.164 HD
HETATM   40  C10 UNL     1       2.540   2.883  -2.347  1.00  0.00     0.043 C 
HETATM   41  C11 UNL     1       2.878   1.313  -0.439  1.00  0.00     0.246 C 
HETATM   42  O2  UNL     1       2.004   1.341   0.401  1.00  0.00    -0.271 OA
BRANCH  32  43
HETATM   43  C2  UNL     1       4.979  -0.872  -2.720  1.00  0.00     0.023 C 
HETATM   44  C1  UNL     1       4.340  -2.218  -2.845  1.00  0.00     0.007 C 
ENDBRANCH  32  43
BRANCH  38  45
HETATM   45  C6  UNL     1       6.543   4.635   1.217  1.00  0.00     0.086 A 
HETATM   46  C7  UNL     1       6.254   5.880   1.994  1.00  0.00     0.027 A 
HETATM   47  C8  UNL     1       6.440   4.594   2.736  1.00  0.00     0.027 A 
ENDBRANCH  38  45
ENDBRANCH  30  31
ENDBRANCH   1  30
TORSDOF 13
