REMARK  9 active torsions:
REMARK  status: ('A' for Active; 'I' for Inactive)
REMARK    1  A    between atoms: N1_1  and  C1_5 
REMARK    2  A    between atoms: C3_7  and  C4_8 
REMARK    3  A    between atoms: N2_11  and  C5_12 
REMARK    4  A    between atoms: C5_12  and  C6_17 
REMARK    5  A    between atoms: N3_13  and  O3_15 
REMARK    6  A    between atoms: C8_22  and  C9_23 
REMARK    7  A    between atoms: C9_23  and  O5_24 
REMARK    8  A    between atoms: C11_29  and  C12_30 
REMARK    9  A    between atoms: C16_43  and  N9_44 
ROOT
HETATM    1  C6  UNL     1      -1.458   0.325  -0.372  1.00  0.00     0.205 C 
HETATM    2  C7  UNL     1      -0.481   0.374  -1.505  1.00  0.00     0.234 C 
HETATM    3  O4  UNL     1      -0.780   0.645  -2.689  1.00  0.00    -0.273 OA
HETATM    4  N4  UNL     1       0.884   0.085  -1.172  1.00  0.00    -0.328 N 
ATOM      5  H4  UNL     1       1.622   0.385  -1.809  1.00  0.00     0.164 HD
HETATM    6  C8  UNL     1       1.246  -0.618   0.039  1.00  0.00     0.354 C 
HETATM    7  N8  UNL     1       0.259  -0.448   1.058  1.00  0.00    -0.019 N 
ATOM      8  H81 UNL     1       0.242   0.493   1.452  1.00  0.00     0.282 HD
ATOM      9  H82 UNL     1       0.480  -0.943   1.922  1.00  0.00     0.282 HD
HETATM   10  C16 UNL     1      -1.033  -0.858   0.461  1.00  0.00     0.403 C 
ENDROOT
BRANCH   1  11
HETATM   11  C5  UNL     1      -2.852   0.337  -0.804  1.00  0.00     0.117 C 
HETATM   12  N3  UNL     1      -3.140   0.390  -2.058  1.00  0.00    -0.256 N 
ATOM     13  H3  UNL     1      -2.372   0.393  -2.730  1.00  0.00     0.195 HD
BRANCH  11  14
HETATM   14  N2  UNL     1      -3.894   0.330   0.141  1.00  0.00    -0.352 N 
HETATM   15  C3  UNL     1      -4.474  -0.683   0.962  1.00  0.00     0.188 C 
HETATM   16  C2  UNL     1      -5.913  -0.212   1.261  1.00  0.00     0.070 C 
HETATM   17  C1  UNL     1      -6.054   1.065   0.462  1.00  0.00     0.204 C 
HETATM   18  C17 UNL     1      -4.633   1.564   0.468  1.00  0.00     0.158 C 
BRANCH  15  19
HETATM   19  C4  UNL     1      -4.591  -2.020   0.393  1.00  0.00     0.196 C 
HETATM   20  O1  UNL     1      -5.134  -2.903   1.150  1.00  0.00    -0.646 OA
HETATM   21  O2  UNL     1      -4.182  -2.410  -0.847  1.00  0.00    -0.646 OA
ENDBRANCH  15  19
BRANCH  17  22
HETATM   22  N1  UNL     1      -6.960   2.001   1.103  1.00  0.00    -0.073 N 
ATOM     23  H13 UNL     1      -7.868   1.574   1.286  1.00  0.00     0.274 HD
ATOM     24  H12 UNL     1      -6.678   2.193   2.064  1.00  0.00     0.274 HD
ATOM     25  H11 UNL     1      -7.055   2.862   0.564  1.00  0.00     0.274 HD
ENDBRANCH  17  22
ENDBRANCH  11  14
BRANCH  12  26
HETATM   26  O3  UNL     1      -4.419   0.442  -2.538  1.00  0.00    -0.288 OA
ATOM     27  H3  UNL     1      -4.631   0.481  -3.463  1.00  0.00     0.244 HD
ENDBRANCH  12  26
ENDBRANCH   1  11
BRANCH  10  28
HETATM   28  N9  UNL     1      -0.711  -1.942  -0.483  1.00  0.00    -0.049 N 
ATOM     29  H93 UNL     1      -1.472  -2.155  -1.128  1.00  0.00     0.276 HD
ATOM     30  H92 UNL     1      -0.021  -1.674  -1.185  1.00  0.00     0.276 HD
ATOM     31  H91 UNL     1      -0.424  -2.742   0.080  1.00  0.00     0.276 HD
ENDBRANCH  10  28
BRANCH   6  32
HETATM   32  C9  UNL     1       2.637  -0.179   0.517  1.00  0.00     0.258 C 
HETATM   33  N5  UNL     1       3.553  -0.546  -0.504  1.00  0.00    -0.379 N 
HETATM   34  C10 UNL     1       4.612  -1.419  -0.112  1.00  0.00     0.149 C 
ATOM     35  H5  UNL     1       3.460  -0.206  -1.461  1.00  0.00     0.156 HD
HETATM   36  C11 UNL     1       5.886  -0.567  -0.008  1.00  0.00     0.159 C 
HETATM   37  N6  UNL     1       6.057   0.356  -1.038  1.00  0.00    -0.388 N 
HETATM   38  C13 UNL     1       5.359   1.574  -1.079  1.00  0.00     0.076 C 
ATOM     39  H6  UNL     1       6.712   0.139  -1.789  1.00  0.00     0.159 HD
HETATM   40  C14 UNL     1       4.920   2.184   0.208  1.00  0.00     0.166 C 
HETATM   41  N7  UNL     1       3.470   2.261   0.336  1.00  0.00    -0.352 N 
HETATM   42  C15 UNL     1       2.629   1.268   0.859  1.00  0.00     0.277 C 
ATOM     43  H7  UNL     1       3.024   3.120   0.014  1.00  0.00     0.162 HD
HETATM   44  O7  UNL     1       1.751   1.582   1.717  1.00  0.00    -0.268 OA
BRANCH  32  45
HETATM   45  O5  UNL     1       2.899  -0.900   1.685  1.00  0.00    -0.360 OA
ATOM     46  H5  UNL     1       3.760  -0.628   1.981  1.00  0.00     0.213 HD
ENDBRANCH  32  45
BRANCH  36  47
HETATM   47  C12 UNL     1       7.005  -1.572  -0.072  1.00  0.00     0.257 C 
HETATM   48  O6  UNL     1       7.858  -1.484  -0.927  1.00  0.00    -0.305 OA
ENDBRANCH  36  47
ENDBRANCH   6  32
TORSDOF 9
