REMARK  8 active torsions:
REMARK  status: ('A' for Active; 'I' for Inactive)
REMARK    1  A    between atoms: N1_1  and  C1_4 
REMARK    2  A    between atoms: C3_8  and  C4_9 
REMARK       I    between atoms: C4_9  and  N3_11 
REMARK    3  A    between atoms: N3_11  and  N4_13 
REMARK    4  A    between atoms: C5_15  and  O2_16 
REMARK    5  A    between atoms: C5_15  and  N5_18 
REMARK    6  A    between atoms: C6_23  and  C7_24 
REMARK    7  A    between atoms: C7_24  and  O5_25 
REMARK    8  A    between atoms: C7_24  and  O6_27 
ROOT
HETATM    1  C1  UNL     1       0.548   3.005   0.878  1.00  0.00     0.144 A 
HETATM    2  N2  UNL     1       0.521   1.844   0.216  1.00  0.00    -0.333 N 
ATOM      3  H2  UNL     1       1.247   1.618  -0.464  1.00  0.00     0.168 HD
HETATM    4  C2  UNL     1      -0.448   1.006   0.454  1.00  0.00     0.101 A 
HETATM    5  C3  UNL     1      -0.518  -0.222  -0.224  1.00  0.00     0.133 C 
HETATM    6  N6  UNL     1      -1.670  -0.846  -0.650  1.00  0.00    -0.345 N 
ATOM      7  H6  UNL     1      -1.601  -1.396  -1.507  1.00  0.00     0.166 HD
HETATM    8  C6  UNL     1      -2.875  -0.807  -0.056  1.00  0.00     0.133 C 
HETATM    9  C8  UNL     1      -3.236  -0.230   1.128  1.00  0.00     0.274 C 
HETATM   10  O7  UNL     1      -4.325  -0.601   1.633  1.00  0.00    -0.266 OA
HETATM   11  N7  UNL     1      -2.518   0.719   1.819  1.00  0.00    -0.314 N 
ATOM     12  H7  UNL     1      -2.855   0.961   2.751  1.00  0.00     0.170 HD
HETATM   13  C9  UNL     1      -1.395   1.371   1.379  1.00  0.00     0.110 A 
HETATM   14  S1  UNL     1      -0.841   2.910   1.867  1.00  0.00    -0.034 SA
ENDROOT
BRANCH   5  15
HETATM   15  C4  UNL     1       0.710  -0.940  -0.483  1.00  0.00     0.289 C 
HETATM   16  O1  UNL     1       0.664  -1.848  -1.378  1.00  0.00    -0.264 OA
HETATM   17  N3  UNL     1       1.919  -0.684   0.203  1.00  0.00    -0.261 N 
ATOM     18  H3  UNL     1       1.963   0.034   0.926  1.00  0.00     0.190 HD
BRANCH  17  19
HETATM   19  N4  UNL     1       3.075  -1.445  -0.131  1.00  0.00    -0.258 N 
HETATM   20  C5  UNL     1       4.224  -0.870  -0.145  1.00  0.00     0.301 C 
ATOM     21  H4  UNL     1       2.992  -2.436  -0.357  1.00  0.00     0.191 HD
BRANCH  20  22
HETATM   22  O2  UNL     1       5.334  -1.625  -0.471  1.00  0.00    -0.327 OA
ATOM     23  H2  UNL     1       6.184  -1.200  -0.481  1.00  0.00     0.221 HD
ENDBRANCH  20  22
BRANCH  20  24
HETATM   24  N5  UNL     1       4.343   0.507   0.167  1.00  0.00    -0.070 N 
HETATM   25  O3  UNL     1       4.258   1.354  -0.758  1.00  0.00    -0.529 OA
HETATM   26  O4  UNL     1       4.548   0.948   1.444  1.00  0.00    -0.529 OA
ENDBRANCH  20  24
ENDBRANCH  17  19
ENDBRANCH   5  15
BRANCH   8  27
HETATM   27  C7  UNL     1      -4.002  -1.484  -0.769  1.00  0.00     0.311 C 
BRANCH  27  28
HETATM   28  O5  UNL     1      -3.914  -1.110  -2.111  1.00  0.00    -0.366 OA
ATOM     29  H5  UNL     1      -4.630  -1.540  -2.564  1.00  0.00     0.213 HD
ENDBRANCH  27  28
BRANCH  27  30
HETATM   30  O6  UNL     1      -3.925  -2.875  -0.636  1.00  0.00    -0.366 OA
ATOM     31  H6  UNL     1      -4.641  -3.305  -1.089  1.00  0.00     0.213 HD
ENDBRANCH  27  30
ENDBRANCH   8  27
BRANCH   1  32
HETATM   32  N1  UNL     1       1.418   3.985   0.800  1.00  0.00    -0.380 N 
ATOM     33  H12 UNL     1       2.248   4.042   0.209  1.00  0.00     0.158 HD
ATOM     34  H11 UNL     1       1.439   4.871   1.305  1.00  0.00     0.158 HD
ENDBRANCH   1  32
TORSDOF 8
