REMARK  4 active torsions:
REMARK  status: ('A' for Active; 'I' for Inactive)
REMARK    1  A    between atoms: O1_2  and  N1_3 
REMARK    2  A    between atoms: C2_5  and  C4_7 
REMARK    3  A    between atoms: N2_8  and  N3_10 
REMARK    4  A    between atoms: N3_10  and  C5_12 
ROOT
HETATM    1  C5  UNL     1      -1.088  -0.540   0.461  1.00  0.00     0.700 A 
HETATM    2  N4  UNL     1      -1.617   0.409   1.222  1.00  0.00    -0.153 N 
ATOM      3  H4  UNL     1      -1.027   0.807   1.953  1.00  0.00     0.187 HD
HETATM    4  C6  UNL     1      -2.861   0.886   1.108  1.00  0.00     0.289 A 
HETATM    5  O2  UNL     1      -3.214   1.785   1.905  1.00  0.00    -0.265 OA
HETATM    6  C7  UNL     1      -3.718   0.373   0.115  1.00  0.00     0.138 A 
HETATM    7  N5  UNL     1      -4.964   0.728  -0.133  1.00  0.00    -0.335 N 
ATOM      8  H5  UNL     1      -5.421   1.452   0.422  1.00  0.00     0.167 HD
HETATM    9  C8  UNL     1      -5.612   0.118  -1.127  1.00  0.00     0.145 A 
HETATM   10  S1  UNL     1      -7.170   0.386  -1.628  1.00  0.00    -0.052 SA
HETATM   11  S2  UNL     1      -4.451  -0.978  -1.725  1.00  0.00    -0.040 SA
HETATM   12  C9  UNL     1      -3.171  -0.601  -0.665  1.00  0.00     0.125 A 
HETATM   13  N6  UNL     1      -1.889  -1.056  -0.507  1.00  0.00    -0.181 N 
ATOM     14  H6  UNL     1      -1.533  -1.788  -1.121  1.00  0.00     0.185 HD
ENDROOT
BRANCH   1  15
HETATM   15  N3  UNL     1       0.111  -0.965   0.609  1.00  0.00    -0.132 N 
ATOM     16  H3  UNL     1       0.674  -0.547   1.349  1.00  0.00     0.205 HD
BRANCH  15  17
HETATM   17  N2  UNL     1       0.691  -1.943  -0.158  1.00  0.00    -0.296 N 
HETATM   18  C4  UNL     1       1.929  -1.900  -0.473  1.00  0.00     0.134 C 
ATOM     19  H2  UNL     1       0.121  -2.723  -0.485  1.00  0.00     0.186 HD
BRANCH  18  20
HETATM   20  C2  UNL     1       2.841  -0.846  -0.069  1.00  0.00     0.045 C 
HETATM   21  N1  UNL     1       2.421   0.114   0.643  1.00  0.00    -0.270 N 
ATOM     22  H1  UNL     1       1.435   0.096   0.903  1.00  0.00     0.194 HD
HETATM   23  C3  UNL     1       4.268  -0.938  -0.519  1.00  0.00     0.071 C 
BRANCH  21  24
HETATM   24  O1  UNL     1       3.153   1.164   1.094  1.00  0.00    -0.285 OA
HETATM   25  C1  UNL     1       3.878   2.038   0.269  1.00  0.00     0.237 C 
ENDBRANCH  21  24
ENDBRANCH  18  20
ENDBRANCH  15  17
ENDBRANCH   1  15
TORSDOF 4
