REMARK  9 active torsions:
REMARK  status: ('A' for Active; 'I' for Inactive)
REMARK    1  A    between atoms: C2_2  and  C3_3 
REMARK    2  A    between atoms: C3_3  and  N1_4 
REMARK    3  A    between atoms: C5_12  and  N3_13 
REMARK    4  A    between atoms: C5_12  and  C6_17 
REMARK    5  A    between atoms: C6_17  and  C7_18 
REMARK    6  A    between atoms: C7_18  and  N4_19 
REMARK    7  A    between atoms: N4_19  and  C8_21 
REMARK    8  A    between atoms: C9_24  and  N6_25 
REMARK    9  A    between atoms: C12_28  and  O2_29 
ROOT
HETATM    1  C3  UNL     1       4.298   0.574  -0.001  1.00  0.00     0.364 C 
HETATM    2  N2  UNL     1       3.810   0.648  -1.361  1.00  0.00    -0.302 N 
ATOM      3  H2  UNL     1       4.300   1.049  -2.161  1.00  0.00     0.166 HD
HETATM    4  C4  UNL     1       2.520   0.056  -1.371  1.00  0.00     0.286 C 
HETATM    5  O1  UNL     1       1.662   0.112  -2.279  1.00  0.00    -0.269 OA
HETATM    6  C5  UNL     1       2.371  -0.649  -0.095  1.00  0.00     0.369 C 
HETATM    7  N9  UNL     1       3.213   0.083   0.797  1.00  0.00     0.022 N 
ATOM      8  H91 UNL     1       2.723   0.814   1.312  1.00  0.00     0.286 HD
ATOM      9  H92 UNL     1       3.515  -0.457   1.608  1.00  0.00     0.286 HD
ENDROOT
BRANCH   6  10
HETATM   10  N3  UNL     1       2.913  -1.983  -0.254  1.00  0.00    -0.035 N 
ATOM     11  H33 UNL     1       2.494  -2.488  -1.035  1.00  0.00     0.278 HD
ATOM     12  H32 UNL     1       3.875  -1.980  -0.593  1.00  0.00     0.278 HD
ATOM     13  H31 UNL     1       2.809  -2.474   0.634  1.00  0.00     0.278 HD
ENDBRANCH   6  10
BRANCH   6  14
HETATM   14  C6  UNL     1       0.946  -0.762   0.376  1.00  0.00     0.100 C 
BRANCH  14  15
HETATM   15  C7  UNL     1       0.283   0.559   0.585  1.00  0.00     0.143 C 
BRANCH  15  16
HETATM   16  N4  UNL     1      -1.057   0.349   1.028  1.00  0.00    -0.226 N 
ATOM     17  H4  UNL     1      -1.209   0.289   2.035  1.00  0.00     0.177 HD
BRANCH  16  18
HETATM   18  C8  UNL     1      -2.089   0.229   0.273  1.00  0.00     0.681 A 
HETATM   19  N5  UNL     1      -3.271   0.036   0.883  1.00  0.00    -0.174 N 
HETATM   20  C9  UNL     1      -4.440  -0.108   0.214  1.00  0.00     0.155 A 
ATOM     21  H5  UNL     1      -3.289  -0.004   1.902  1.00  0.00     0.186 HD
HETATM   22  C12 UNL     1      -4.356  -0.044  -1.154  1.00  0.00     0.152 A 
HETATM   23  C13 UNL     1      -3.151   0.155  -1.816  1.00  0.00     0.168 A 
HETATM   24  N7  UNL     1      -3.128   0.212  -3.232  1.00  0.00    -0.079 NA
HETATM   25  N8  UNL     1      -2.045   0.286  -1.062  1.00  0.00    -0.176 N 
ATOM     26  H8  UNL     1      -1.147   0.433  -1.522  1.00  0.00     0.185 HD
BRANCH  20  27
HETATM   27  N6  UNL     1      -5.650  -0.308   0.887  1.00  0.00    -0.373 N 
HETATM   28  C10 UNL     1      -5.621  -0.359   2.360  1.00  0.00     0.150 C 
HETATM   29  C11 UNL     1      -6.912  -0.465   0.238  1.00  0.00     0.150 C 
ENDBRANCH  20  27
BRANCH  22  30
HETATM   30  O2  UNL     1      -5.480  -0.177  -1.917  1.00  0.00    -0.354 OA
ATOM     31  H2  UNL     1      -5.422  -0.133  -2.864  1.00  0.00     0.218 HD
ENDBRANCH  22  30
ENDBRANCH  16  18
ENDBRANCH  15  16
ENDBRANCH  14  15
ENDBRANCH   6  14
BRANCH   1  32
HETATM   32  C2  UNL     1       5.541  -0.260   0.101  1.00  0.00     0.089 C 
HETATM   33  C1  UNL     1       6.054  -0.228   1.517  1.00  0.00     0.011 C 
ENDBRANCH   1  32
BRANCH   1  34
HETATM   34  N1  UNL     1       4.673   1.940   0.386  1.00  0.00    -0.026 N 
ATOM     35  H13 UNL     1       5.118   1.991   1.303  1.00  0.00     0.279 HD
ATOM     36  H12 UNL     1       5.453   2.312  -0.156  1.00  0.00     0.279 HD
ATOM     37  H11 UNL     1       3.828   2.507   0.317  1.00  0.00     0.279 HD
ENDBRANCH   1  34
TORSDOF 9
