REMARK  5 active torsions:
REMARK  status: ('A' for Active; 'I' for Inactive)
REMARK    1  A    between atoms: N1_1  and  C1_4 
REMARK    2  A    between atoms: N2_5  and  N3_6 
REMARK    3  A    between atoms: N4_11  and  N5_12 
REMARK    4  A    between atoms: N5_12  and  S1_14 
REMARK    5  A    between atoms: S1_14  and  N6_15 
ROOT
HETATM    1  C1  UNL     1      -0.506   0.404  -0.768  1.00  0.00     0.718 A 
HETATM    2  N2  UNL     1      -1.858   0.313  -0.818  1.00  0.00    -0.102 N 
HETATM    3  C2  UNL     1      -2.307  -0.793  -0.221  1.00  0.00     0.154 A 
HETATM    4  C3  UNL     1      -1.173  -1.442   0.235  1.00  0.00     0.155 A 
HETATM    5  N4  UNL     1      -0.108  -0.696  -0.110  1.00  0.00    -0.084 N 
ENDROOT
BRANCH   5   6
HETATM    6  N5  UNL     1       1.195  -1.043   0.186  1.00  0.00    -0.189 N 
ATOM      7  H5  UNL     1       1.690  -1.666  -0.452  1.00  0.00     0.203 HD
BRANCH   6   8
HETATM    8  S1  UNL     1       2.028  -0.468   1.591  1.00  0.00     0.331 S 
HETATM    9  O1  UNL     1       2.926  -1.549   2.101  1.00  0.00    -0.181 OA
HETATM   10  O2  UNL     1       1.069  -0.093   2.683  1.00  0.00    -0.181 OA
BRANCH   8  11
HETATM   11  N6  UNL     1       2.975   0.886   1.066  1.00  0.00    -0.310 N 
ATOM     12  H62 UNL     1       3.022   1.257   0.117  1.00  0.00     0.170 HD
ATOM     13  H61 UNL     1       3.466   1.225   1.894  1.00  0.00     0.170 HD
ENDBRANCH   8  11
ENDBRANCH   6   8
ENDBRANCH   5   6
BRANCH   1  14
HETATM   14  N1  UNL     1       0.155   1.371  -1.265  1.00  0.00    -0.231 N 
ATOM     15  H12 UNL     1      -0.147   2.207  -1.765  1.00  0.00     0.174 HD
ATOM     16  H11 UNL     1       1.172   1.439  -1.227  1.00  0.00     0.174 HD
ENDBRANCH   1  14
BRANCH   2  17
HETATM   17  N3  UNL     1      -2.678   1.278  -1.431  1.00  0.00    -0.325 N 
ATOM     18  H32 UNL     1      -2.335   2.123  -1.887  1.00  0.00     0.178 HD
ATOM     19  H31 UNL     1      -3.695   1.210  -1.469  1.00  0.00     0.178 HD
ENDBRANCH   2  17
TORSDOF 5
