REMARK  4 active torsions:
REMARK  status: ('A' for Active; 'I' for Inactive)
REMARK    1  A    between atoms: N1_1  and  N2_4 
REMARK    2  A    between atoms: N2_4  and  O1_5 
REMARK    3  A    between atoms: N2_4  and  N3_7 
REMARK    4  A    between atoms: C3_15  and  C4_16 
ROOT
HETATM    1  N3  UNL     1      -2.020  -0.131   0.031  1.00  0.00    -0.133 N 
HETATM    2  N4  UNL     1      -2.118  -1.446  -0.000  1.00  0.00    -0.238 N 
ATOM      3  H4  UNL     1      -2.997  -1.963  -0.027  1.00  0.00     0.192 HD
HETATM    4  C1  UNL     1      -0.907  -2.005   0.009  1.00  0.00     0.292 A 
HETATM    5  O2  UNL     1      -0.563  -3.209  -0.012  1.00  0.00    -0.264 OA
HETATM    6  C2  UNL     1      -0.007  -0.966   0.047  1.00  0.00     0.152 A 
HETATM    7  N5  UNL     1       1.296  -0.645   0.080  1.00  0.00    -0.331 N 
ATOM      8  H5  UNL     1       2.072  -1.306   0.080  1.00  0.00     0.168 HD
HETATM    9  C3  UNL     1       1.406   0.693   0.113  1.00  0.00     0.174 A 
HETATM   10  N7  UNL     1       0.161   1.255   0.102  1.00  0.00    -0.319 N 
ATOM     11  H7  UNL     1      -0.068   2.249   0.121  1.00  0.00     0.169 HD
HETATM   12  C5  UNL     1      -0.707   0.212   0.061  1.00  0.00     0.184 A 
ENDROOT
BRANCH   1  13
HETATM   13  N2  UNL     1      -3.086   0.777   0.040  1.00  0.00    -0.078 N 
BRANCH  13  14
HETATM   14  N1  UNL     1      -3.563   1.241   1.118  1.00  0.00    -0.302 N 
ATOM     15  H12 UNL     1      -4.339   1.902   1.125  1.00  0.00     0.181 HD
ATOM     16  H11 UNL     1      -3.175   0.956   2.017  1.00  0.00     0.181 HD
ENDBRANCH  13  14
BRANCH  13  17
HETATM   17  O1  UNL     1      -3.607   1.159  -1.167  1.00  0.00    -0.252 OA
ATOM     18  H1  UNL     1      -3.249   0.811  -1.975  1.00  0.00     0.248 HD
ENDBRANCH  13  17
ENDBRANCH   1  13
BRANCH   9  19
HETATM   19  C4  UNL     1       2.676   1.416   0.163  1.00  0.00     0.298 C 
HETATM   20  N6  UNL     1       3.874   0.623   0.217  1.00  0.00    -0.054 NA
HETATM   21  O3  UNL     1       2.719   2.681   0.158  1.00  0.00    -0.268 OA
ENDBRANCH   9  19
TORSDOF 4
