REMARK  9 active torsions:
REMARK  status: ('A' for Active; 'I' for Inactive)
REMARK    1  A    between atoms: C2_2  and  O1_3 
REMARK    2  A    between atoms: C2_2  and  O2_7 
REMARK    3  A    between atoms: O1_3  and  N1_4 
REMARK    4  A    between atoms: O2_7  and  C3_8 
REMARK    5  A    between atoms: C3_8  and  N2_9 
REMARK    6  A    between atoms: C7_13  and  C8_14 
REMARK    7  A    between atoms: C8_14  and  C9_15 
REMARK    8  A    between atoms: C10_18  and  N4_19 
REMARK    9  A    between atoms: C11_24  and  N6_25 
ROOT
HETATM    1  C8  UNL     1      -2.496  -0.618  -1.454  1.00  0.00     0.136 C 
ENDROOT
BRANCH   1   2
HETATM    2  C7  UNL     1      -1.059  -1.023  -1.383  1.00  0.00     0.033 A 
HETATM    3  C6  UNL     1      -0.766  -2.287  -0.971  1.00  0.00     0.028 A 
HETATM    4  C5  UNL     1       0.553  -2.659  -0.906  1.00  0.00     0.021 A 
HETATM    5  C4  UNL     1       1.509  -1.726  -1.264  1.00  0.00     0.118 A 
HETATM    6  N2  UNL     1       1.223  -0.483  -1.668  1.00  0.00    -0.257 N 
HETATM    7  N8  UNL     1      -0.080  -0.172  -1.713  1.00  0.00    -0.297 N 
ATOM      8  H8  UNL     1      -0.340   0.767  -2.016  1.00  0.00     0.187 HD
BRANCH   6   9
HETATM    9  C3  UNL     1       2.217   0.501  -2.027  1.00  0.00     0.253 C 
BRANCH   9  10
HETATM   10  O2  UNL     1       2.632   1.331  -1.042  1.00  0.00    -0.312 OA
BRANCH  10  11
HETATM   11  C2  UNL     1       3.237   0.828   0.067  1.00  0.00     0.291 C 
HETATM   12  C1  UNL     1       2.421   1.092   1.338  1.00  0.00     0.073 C 
BRANCH  11  13
HETATM   13  O1  UNL     1       4.528   1.335   0.260  1.00  0.00    -0.255 OA
BRANCH  13  14
HETATM   14  N1  UNL     1       5.452   0.374   0.312  1.00  0.00    -0.308 N 
ATOM     15  H12 UNL     1       5.227  -0.617   0.220  1.00  0.00     0.184 HD
ATOM     16  H11 UNL     1       6.392   0.743   0.453  1.00  0.00     0.184 HD
ENDBRANCH  13  14
ENDBRANCH  11  13
ENDBRANCH  10  11
ENDBRANCH   9  10
ENDBRANCH   6   9
ENDBRANCH   1   2
BRANCH   1  17
HETATM   17  C9  UNL     1      -2.942  -0.033  -0.163  1.00  0.00     0.119 A 
HETATM   18  N3  UNL     1      -3.452  -0.890   0.748  1.00  0.00    -0.179 N 
HETATM   19  C10 UNL     1      -3.861  -0.373   1.924  1.00  0.00     0.691 A 
ATOM     20  H3  UNL     1      -3.525  -1.889   0.554  1.00  0.00     0.185 HD
HETATM   21  N5  UNL     1      -3.764   0.927   2.173  1.00  0.00    -0.023 N 
HETATM   22  C11 UNL     1      -3.251   1.766   1.249  1.00  0.00     0.691 A 
ATOM     23  H5  UNL     1      -4.080   1.295   3.070  1.00  0.00     0.203 HD
HETATM   24  N7  UNL     1      -2.841   1.282   0.081  1.00  0.00    -0.179 N 
ATOM     25  H7  UNL     1      -2.452   1.907  -0.625  1.00  0.00     0.185 HD
BRANCH  19  26
HETATM   26  N4  UNL     1      -4.360  -1.131   2.845  1.00  0.00    -0.234 N 
ATOM     27  H42 UNL     1      -4.435  -2.130   2.654  1.00  0.00     0.174 HD
ATOM     28  H41 UNL     1      -4.669  -0.740   3.735  1.00  0.00     0.174 HD
ENDBRANCH  19  26
BRANCH  22  29
HETATM   29  N6  UNL     1      -3.183   3.007   1.544  1.00  0.00    -0.234 N 
ATOM     30  H62 UNL     1      -3.498   3.378   2.440  1.00  0.00     0.174 HD
ATOM     31  H61 UNL     1      -2.795   3.641   0.846  1.00  0.00     0.174 HD
ENDBRANCH  22  29
ENDBRANCH   1  17
TORSDOF 9
