REMARK  6 active torsions:
REMARK  status: ('A' for Active; 'I' for Inactive)
REMARK    1  A    between atoms: N3_4  and  C2_6 
REMARK    2  A    between atoms: C2_6  and  C3_7 
REMARK    3  A    between atoms: C3_7  and  C4_8 
REMARK    4  A    between atoms: C4_8  and  C5_9 
REMARK    5  A    between atoms: N7_23  and  C12_24 
REMARK    6  A    between atoms: C12_24  and  O2_25 
ROOT
HETATM    1  C5  UNL     1      -0.297  -0.698  -0.508  1.00  0.00     0.175 C 
HETATM    2  C6  UNL     1      -0.936  -2.034  -0.800  1.00  0.00     0.240 C 
HETATM    3  O1  UNL     1      -0.271  -3.104  -0.793  1.00  0.00    -0.271 OA
HETATM    4  N4  UNL     1      -2.320  -2.157  -1.098  1.00  0.00    -0.355 N 
ATOM      5  H4  UNL     1      -2.811  -2.989  -0.769  1.00  0.00     0.162 HD
HETATM    6  C7  UNL     1      -3.074  -1.167  -1.843  1.00  0.00     0.166 C 
HETATM    7  C8  UNL     1      -4.109  -0.470  -0.981  1.00  0.00     0.075 C 
HETATM    8  N5  UNL     1      -3.779   0.897  -0.895  1.00  0.00    -0.399 N 
ATOM      9  H5  UNL     1      -3.400   1.402  -1.696  1.00  0.00     0.158 HD
HETATM   10  C9  UNL     1      -3.994   1.545   0.349  1.00  0.00     0.138 C 
HETATM   11  C10 UNL     1      -3.292   1.004   1.526  1.00  0.00     0.135 C 
HETATM   12  N6  UNL     1      -1.986   1.508   1.777  1.00  0.00    -0.405 N 
ATOM     13  H6  UNL     1      -1.767   2.036   2.622  1.00  0.00     0.154 HD
HETATM   14  C11 UNL     1      -0.998   1.235   0.784  1.00  0.00     0.238 C 
HETATM   15  N7  UNL     1      -0.714  -0.155   0.722  1.00  0.00    -0.364 N 
ENDROOT
BRANCH   1  16
HETATM   16  C4  UNL     1       1.159  -0.859  -0.729  1.00  0.00     0.036 C 
BRANCH  16  17
HETATM   17  C3  UNL     1       2.001   0.339  -0.500  1.00  0.00     0.022 C 
BRANCH  17  18
HETATM   18  C2  UNL     1       3.454  -0.070  -0.790  1.00  0.00     0.122 C 
BRANCH  18  19
HETATM   19  N3  UNL     1       4.330   1.068  -0.583  1.00  0.00    -0.367 N 
HETATM   20  C1  UNL     1       5.574   0.953  -0.280  1.00  0.00     0.196 C 
HETATM   21  N1  UNL     1       6.174  -0.331  -0.128  1.00  0.00    -0.067 NA
HETATM   22  N2  UNL     1       6.333   2.128  -0.101  1.00  0.00    -0.067 NA
ATOM     23  H3  UNL     1       3.940   2.005  -0.683  1.00  0.00     0.161 HD
ENDBRANCH  18  19
ENDBRANCH  17  18
ENDBRANCH  16  17
ENDBRANCH   1  16
BRANCH  15  24
HETATM   24  C12 UNL     1      -0.220  -0.769   1.897  1.00  0.00     0.287 C 
BRANCH  24  25
HETATM   25  O2  UNL     1      -0.642  -2.120   1.896  1.00  0.00    -0.382 OA
ATOM     26  H2  UNL     1      -0.310  -2.532   2.685  1.00  0.00     0.211 HD
ENDBRANCH  24  25
ENDBRANCH  15  24
TORSDOF 6
