REMARK  4 active torsions:
REMARK  status: ('A' for Active; 'I' for Inactive)
REMARK    1  A    between atoms: C2_2  and  C3_3 
REMARK    2  A    between atoms: C17_17  and  O1_18 
REMARK    3  A    between atoms: C19_21  and  N1_22 
REMARK    4  A    between atoms: N1_22  and  O2_23 
ROOT
HETATM    1  C3  UNL     1      -2.323   0.792   0.105  1.00  0.00     0.017 C 
HETATM    2  C4  UNL     1      -1.445   1.490  -0.912  1.00  0.00     0.010 C 
HETATM    3  C5  UNL     1      -0.473   2.452  -0.297  1.00  0.00     0.038 C 
HETATM    4  C6  UNL     1       0.973   2.219  -0.476  1.00  0.00     0.057 C 
HETATM    5  C7  UNL     1       1.538   3.557  -1.041  1.00  0.00     0.046 C 
HETATM    6  C8  UNL     1       1.625   2.148   0.881  1.00  0.00     0.038 C 
HETATM    7  C9  UNL     1       1.185   1.071   1.805  1.00  0.00     0.008 C 
HETATM    8  C10 UNL     1       1.524  -0.314   1.509  1.00  0.00    -0.007 C 
HETATM    9  C11 UNL     1       2.949  -0.328   0.948  1.00  0.00     0.016 C 
HETATM   10  C12 UNL     1       2.938  -0.466  -0.565  1.00  0.00    -0.022 C 
HETATM   11  C13 UNL     1       4.453  -0.661  -0.874  1.00  0.00     0.017 C 
HETATM   12  C14 UNL     1       2.348  -1.785  -0.859  1.00  0.00     0.012 C 
HETATM   13  C15 UNL     1       1.537  -2.376   0.326  1.00  0.00     0.008 C 
HETATM   14  C16 UNL     1       0.633  -1.195   0.740  1.00  0.00     0.019 C 
HETATM   15  C17 UNL     1      -0.654  -1.558   1.400  1.00  0.00     0.132 C 
HETATM   16  C18 UNL     1      -1.852  -1.714   0.547  1.00  0.00     0.094 A 
HETATM   17  C19 UNL     1      -1.715  -2.242  -0.846  1.00  0.00     0.313 A 
HETATM   18  N2  UNL     1      -2.516  -1.193  -1.403  1.00  0.00    -0.049 N 
ATOM     19  H21 UNL     1      -3.358  -1.398  -1.940  1.00  0.00     0.279 HD
ATOM     20  H22 UNL     1      -2.184  -0.633  -2.188  1.00  0.00     0.279 HD
HETATM   21  C20 UNL     1      -2.594  -0.631  -0.039  1.00  0.00     0.202 A 
HETATM   22  C21 UNL     1       2.577   0.725  -1.320  1.00  0.00     0.177 C 
HETATM   23  O3  UNL     1       1.395   1.307  -1.372  1.00  0.00    -0.380 OA
ENDROOT
BRANCH  17  24
HETATM   24  N1  UNL     1      -2.390  -3.526  -1.115  1.00  0.00    -0.070 NA
BRANCH  24  25
HETATM   25  O2  UNL     1      -3.714  -3.374  -0.883  1.00  0.00    -0.294 OA
ATOM     26  H2  UNL     1      -4.149  -4.201  -1.056  1.00  0.00     0.238 HD
ENDBRANCH  24  25
ENDBRANCH  17  24
BRANCH  15  27
HETATM   27  O1  UNL     1      -0.407  -2.686   2.181  1.00  0.00    -0.395 OA
ATOM     28  H1  UNL     1      -1.227  -2.917   2.601  1.00  0.00     0.210 HD
ENDBRANCH  15  27
BRANCH   1  29
HETATM   29  C2  UNL     1      -3.619   1.635   0.086  1.00  0.00     0.002 C 
HETATM   30  C1  UNL     1      -4.635   1.106   1.038  1.00  0.00     0.005 C 
ENDBRANCH   1  29
TORSDOF 4
