REMARK  19 active torsions:
REMARK  status: ('A' for Active; 'I' for Inactive)
REMARK    1  A    between atoms: N1_2  and  C2_5 
REMARK    2  A    between atoms: C2_5  and  C3_6 
REMARK    3  A    between atoms: C4_7  and  N2_8 
REMARK    4  A    between atoms: N2_8  and  C5_10 
REMARK    5  A    between atoms: C7_17  and  N5_18 
REMARK    6  A    between atoms: N5_18  and  N6_20 
REMARK    7  A    between atoms: C9_26  and  C10_27 
REMARK    8  A    between atoms: C10_27  and  N8_28 
REMARK    9  A    between atoms: C11_33  and  N9_34 
REMARK   10  A    between atoms: N9_34  and  O3_35 
REMARK   11  A    between atoms: N9_34  and  C12_37 
REMARK   12  A    between atoms: C12_37  and  C13_38 
REMARK   13  A    between atoms: C13_38  and  O4_39 
REMARK   14  A    between atoms: N10_41  and  C14_43 
REMARK   15  A    between atoms: C16_45  and  O5_46 
REMARK   16  A    between atoms: C17_48  and  C18_49 
REMARK   17  A    between atoms: C22_55  and  C23_56 
REMARK   18  A    between atoms: C23_56  and  N12_57 
REMARK   19  A    between atoms: C24_63  and  O7_64 
ROOT
HETATM    1  C3  UNL     1       2.805  -0.191  -0.499  1.00  0.00     0.080 C 
HETATM    2  C4  UNL     1       3.737   0.657   0.270  1.00  0.00     0.111 C 
HETATM    3  C8  UNL     1       3.606   0.488   1.768  1.00  0.00     0.060 C 
HETATM    4  C9  UNL     1       2.238   0.150   2.214  1.00  0.00     0.151 C 
HETATM    5  O2  UNL     1       1.363  -0.347   1.313  1.00  0.00    -0.362 OA
HETATM    6  C11 UNL     1       1.379   0.074   0.030  1.00  0.00     0.229 C 
ENDROOT
BRANCH   6   7
HETATM    7  N9  UNL     1       0.914   1.343  -0.305  1.00  0.00    -0.162 NA
BRANCH   7   8
HETATM    8  O3  UNL     1       1.364   1.830  -1.485  1.00  0.00    -0.310 OA
ATOM      9  H3  UNL     1       1.047   2.696  -1.714  1.00  0.00     0.237 HD
ENDBRANCH   7   8
BRANCH   7  10
HETATM   10  C12 UNL     1      -0.506   1.577  -0.281  1.00  0.00     0.207 C 
BRANCH  10  11
HETATM   11  C13 UNL     1      -1.147   1.605   1.063  1.00  0.00     0.127 C 
HETATM   12  N10 UNL     1      -1.472   0.405   1.624  1.00  0.00    -0.366 N 
ATOM     13  H10 UNL     1      -0.888   0.123   2.411  1.00  0.00     0.161 HD
BRANCH  11  14
HETATM   14  O4  UNL     1      -0.485   2.566   1.866  1.00  0.00    -0.349 OA
ATOM     15  H4  UNL     1      -0.894   2.584   2.723  1.00  0.00     0.219 HD
ENDBRANCH  11  14
BRANCH  12  16
HETATM   16  C14 UNL     1      -2.461  -0.476   1.291  1.00  0.00     0.115 C 
HETATM   17  C15 UNL     1      -3.887   0.089   1.491  1.00  0.00     0.060 C 
HETATM   18  C16 UNL     1      -4.659  -1.209   1.333  1.00  0.00     0.128 C 
HETATM   19  C17 UNL     1      -3.935  -1.943   0.243  1.00  0.00     0.068 C 
HETATM   20  C24 UNL     1      -2.615  -1.160   0.007  1.00  0.00     0.149 C 
BRANCH  18  21
HETATM   21  O5  UNL     1      -4.517  -1.887   2.567  1.00  0.00    -0.395 OA
ATOM     22  H5  UNL     1      -5.000  -2.699   2.468  1.00  0.00     0.210 HD
ENDBRANCH  18  21
BRANCH  19  23
HETATM   23  C18 UNL     1      -4.797  -1.916  -1.027  1.00  0.00     0.100 C 
HETATM   24  C19 UNL     1      -6.096  -2.584  -0.747  1.00  0.00     0.129 C 
HETATM   25  C20 UNL     1      -7.292  -1.870  -1.234  1.00  0.00     0.226 C 
HETATM   26  O6  UNL     1      -8.425  -2.439  -1.290  1.00  0.00    -0.273 OA
HETATM   27  N11 UNL     1      -7.196  -0.523  -1.650  1.00  0.00    -0.311 N 
HETATM   28  C21 UNL     1      -8.350   0.287  -1.993  1.00  0.00     0.160 C 
HETATM   29  C22 UNL     1      -5.926   0.112  -1.750  1.00  0.00     0.107 C 
HETATM   30  N13 UNL     1      -4.864  -0.562  -1.454  1.00  0.00    -0.372 N 
ATOM     31  H13 UNL     1      -3.976  -0.068  -1.536  1.00  0.00     0.161 HD
BRANCH  29  32
HETATM   32  C23 UNL     1      -5.792   1.517  -2.178  1.00  0.00     0.305 C 
BRANCH  32  33
HETATM   33  N12 UNL     1      -6.461   2.443  -1.287  1.00  0.00    -0.073 N 
ATOM     34 3H12 UNL     1      -7.442   2.190  -1.167  1.00  0.00     0.274 HD
ATOM     35 2H12 UNL     1      -6.140   2.322  -0.327  1.00  0.00     0.274 HD
ATOM     36 1H12 UNL     1      -6.368   3.415  -1.583  1.00  0.00     0.274 HD
ENDBRANCH  32  33
ENDBRANCH  29  32
ENDBRANCH  19  23
BRANCH  20  37
HETATM   37  O7  UNL     1      -1.598  -2.074  -0.241  1.00  0.00    -0.393 OA
ATOM     38  H7  UNL     1      -1.698  -2.518  -1.075  1.00  0.00     0.210 HD
ENDBRANCH  20  37
ENDBRANCH  12  16
ENDBRANCH  10  11
ENDBRANCH   7  10
ENDBRANCH   6   7
BRANCH   1  39
HETATM   39  C2  UNL     1       2.989  -1.647  -0.507  1.00  0.00     0.242 C 
BRANCH  39  40
HETATM   40  N1  UNL     1       4.237  -2.137  -1.022  1.00  0.00    -0.079 N 
HETATM   41  C1  UNL     1       4.227  -3.595  -0.951  1.00  0.00     0.267 C 
ATOM     42  H12 UNL     1       5.043  -1.728  -0.550  1.00  0.00     0.276 HD
ATOM     43  H11 UNL     1       4.435  -1.792  -1.961  1.00  0.00     0.276 HD
ENDBRANCH  39  40
ENDBRANCH   1  39
BRANCH   2  44
HETATM   44  N2  UNL     1       5.141   0.511  -0.019  1.00  0.00    -0.220 N 
ATOM     45  H2  UNL     1       5.472  -0.409  -0.309  1.00  0.00     0.178 HD
BRANCH  44  46
HETATM   46  C5  UNL     1       5.996   1.447   0.062  1.00  0.00     0.697 A 
HETATM   47  N3  UNL     1       5.682   2.692   0.433  1.00  0.00    -0.140 N 
HETATM   48  C6  UNL     1       6.624   3.694   0.510  1.00  0.00     0.352 A 
ATOM     49  H3  UNL     1       4.713   2.907   0.667  1.00  0.00     0.189 HD
HETATM   50  O1  UNL     1       6.319   4.852   0.858  1.00  0.00    -0.246 OA
HETATM   51  N4  UNL     1       7.904   3.378   0.194  1.00  0.00    -0.139 N 
HETATM   52  C7  UNL     1       8.239   2.137  -0.179  1.00  0.00     0.715 A 
ATOM     53  H4  UNL     1       8.624   4.099   0.241  1.00  0.00     0.189 HD
HETATM   54  N7  UNL     1       7.280   1.212  -0.234  1.00  0.00    -0.021 N 
ATOM     55  H7  UNL     1       7.541   0.268  -0.519  1.00  0.00     0.203 HD
BRANCH  52  56
HETATM   56  N5  UNL     1       9.488   1.924  -0.466  1.00  0.00    -0.138 N 
ATOM     57  H5  UNL     1      10.190   2.662  -0.412  1.00  0.00     0.205 HD
BRANCH  56  58
HETATM   58  N6  UNL     1       9.811   0.617  -0.854  1.00  0.00    -0.331 N 
ATOM     59  H62 UNL     1       9.098  -0.111  -0.903  1.00  0.00     0.177 HD
ATOM     60  H61 UNL     1      10.792   0.450  -1.079  1.00  0.00     0.177 HD
ENDBRANCH  56  58
ENDBRANCH  52  56
ENDBRANCH  44  46
ENDBRANCH   2  44
BRANCH   4  61
HETATM   61  C10 UNL     1       2.367  -0.879   3.354  1.00  0.00     0.261 C 
BRANCH  61  62
HETATM   62  N8  UNL     1       1.078  -1.091   3.990  1.00  0.00    -0.077 N 
ATOM     63  H83 UNL     1       0.664  -0.216   4.312  1.00  0.00     0.274 HD
ATOM     64  H82 UNL     1       0.360  -1.358   3.316  1.00  0.00     0.274 HD
ATOM     65  H81 UNL     1       1.163  -1.772   4.745  1.00  0.00     0.274 HD
ENDBRANCH  61  62
ENDBRANCH   4  61
TORSDOF 19
