REMARK  17 active torsions:
REMARK  status: ('A' for Active; 'I' for Inactive)
REMARK    1  A    between atoms: C2_2  and  C4_4 
REMARK    2  A    between atoms: C4_4  and  N1_5 
REMARK    3  A    between atoms: C4_4  and  C21_59 
REMARK       I    between atoms: N1_5  and  C5_7 
REMARK    4  A    between atoms: C5_7  and  C6_9 
REMARK    5  A    between atoms: C6_9  and  N2_10 
REMARK    6  A    between atoms: C6_9  and  C7_14 
REMARK    7  A    between atoms: C7_14  and  O2_15 
REMARK    8  A    between atoms: C7_14  and  N3_17 
REMARK    9  A    between atoms: N3_17  and  C8_18 
REMARK   10  A    between atoms: N3_17  and  S1_55 
REMARK   11  A    between atoms: C9_22  and  N5_23 
REMARK   12  A    between atoms: C12_28  and  N7_29 
REMARK   13  A    between atoms: C13_34  and  N9_35 
REMARK   14  A    between atoms: C15_37  and  N10_38 
REMARK   15  A    between atoms: C16_42  and  O3_43 
REMARK   16  A    between atoms: C19_49  and  O4_50 
REMARK   17  A    between atoms: C20_52  and  O5_53 
ROOT
HETATM    1  C8  UNL     1       0.452  -0.942  -0.237  1.00  0.00     0.338 C 
HETATM    2  N4  UNL     1      -0.728  -1.086   0.544  1.00  0.00    -0.026 N 
ATOM      3  H41 UNL     1      -0.985  -0.237   1.047  1.00  0.00     0.282 HD
ATOM      4  H42 UNL     1      -0.601  -1.684   1.361  1.00  0.00     0.282 HD
HETATM    5  C9  UNL     1      -1.763  -1.556  -0.357  1.00  0.00     0.327 C 
HETATM    6  C19 UNL     1      -1.078  -2.378  -1.385  1.00  0.00     0.201 C 
HETATM    7  C20 UNL     1       0.362  -1.949  -1.337  1.00  0.00     0.202 C 
ENDROOT
BRANCH   5   8
HETATM    8  N5  UNL     1      -2.854  -2.176   0.324  1.00  0.00    -0.295 N 
HETATM    9  C10 UNL     1      -2.809  -3.362   0.955  1.00  0.00     0.187 A 
HETATM   10  N6  UNL     1      -4.032  -3.639   1.492  1.00  0.00    -0.346 N 
HETATM   11  C11 UNL     1      -4.846  -2.608   1.188  1.00  0.00     0.123 A 
ATOM     12  H6  UNL     1      -4.284  -4.472   2.025  1.00  0.00     0.167 HD
HETATM   13  C12 UNL     1      -6.162  -2.310   1.444  1.00  0.00     0.145 A 
HETATM   14  C18 UNL     1      -4.094  -1.716   0.466  1.00  0.00     0.156 A 
HETATM   15  N8  UNL     1      -6.662  -1.161   0.979  1.00  0.00    -0.175 N 
HETATM   16  C13 UNL     1      -5.951  -0.260   0.265  1.00  0.00     0.683 A 
ATOM     17  H8  UNL     1      -7.641  -0.951   1.175  1.00  0.00     0.186 HD
HETATM   18  N11 UNL     1      -4.668  -0.585   0.034  1.00  0.00    -0.174 N 
ATOM     19  H11 UNL     1      -4.097   0.068  -0.502  1.00  0.00     0.186 HD
BRANCH  13  20
HETATM   20  N7  UNL     1      -6.893  -3.134   2.121  1.00  0.00    -0.383 N 
ATOM     21  H72 UNL     1      -6.511  -4.011   2.476  1.00  0.00     0.157 HD
ATOM     22  H71 UNL     1      -7.870  -2.913   2.311  1.00  0.00     0.157 HD
ENDBRANCH  13  20
BRANCH  16  23
HETATM   23  N9  UNL     1      -6.531   0.954  -0.206  1.00  0.00    -0.213 N 
HETATM   24  C14 UNL     1      -7.928   1.318   0.043  1.00  0.00     0.176 C 
HETATM   25  C15 UNL     1      -8.262   2.306  -1.041  1.00  0.00     0.232 C 
HETATM   26  C16 UNL     1      -6.942   3.013  -1.234  1.00  0.00     0.168 C 
HETATM   27  C17 UNL     1      -5.863   1.965  -0.965  1.00  0.00     0.175 C 
BRANCH  25  28
HETATM   28  N10 UNL     1      -9.301   3.204  -0.550  1.00  0.00    -0.071 N 
ATOM     29 3H10 UNL     1     -10.122   2.703  -0.212  1.00  0.00     0.274 HD
ATOM     30 2H10 UNL     1      -9.043   3.658   0.326  1.00  0.00     0.274 HD
ATOM     31 1H10 UNL     1      -9.527   3.874  -1.285  1.00  0.00     0.274 HD
ENDBRANCH  25  28
BRANCH  26  32
HETATM   32  O3  UNL     1      -6.782   4.014  -0.271  1.00  0.00    -0.392 OA
ATOM     33  H3  UNL     1      -5.951   4.459  -0.392  1.00  0.00     0.210 HD
ENDBRANCH  26  32
ENDBRANCH  16  23
ENDBRANCH   5   8
BRANCH   6  34
HETATM   34  O4  UNL     1      -1.125  -3.751  -1.166  1.00  0.00    -0.389 OA
ATOM     35  H4  UNL     1      -0.686  -4.277  -1.824  1.00  0.00     0.210 HD
ENDBRANCH   6  34
BRANCH   1  36
HETATM   36  N3  UNL     1       1.696  -0.960   0.525  1.00  0.00    -0.204 N 
BRANCH  36  37
HETATM   37  C7  UNL     1       2.552   0.153   0.498  1.00  0.00     0.172 C 
BRANCH  37  38
HETATM   38  C6  UNL     1       3.871   0.374   1.103  1.00  0.00     0.349 C 
BRANCH  38  39
HETATM   39  C5  UNL     1       4.731   1.258   0.270  1.00  0.00     0.257 C 
HETATM   40  N1  UNL     1       6.085   0.940   0.067  1.00  0.00    -0.344 N 
ATOM     41  H1  UNL     1       6.448   0.095   0.509  1.00  0.00     0.163 HD
HETATM   42  O1  UNL     1       4.281   2.305  -0.270  1.00  0.00    -0.271 OA
BRANCH  40  43
HETATM   43  C4  UNL     1       6.996   1.732  -0.727  1.00  0.00     0.189 C 
BRANCH  43  44
HETATM   44  C2  UNL     1       8.132   2.291   0.120  1.00  0.00     0.010 C 
HETATM   45  C1  UNL     1       8.873   1.125   0.717  1.00  0.00     0.012 C 
HETATM   46  C3  UNL     1       7.572   3.137   1.213  1.00  0.00     0.012 C 
ENDBRANCH  43  44
BRANCH  43  47
HETATM   47  C21 UNL     1       7.644   0.915  -1.795  1.00  0.00     0.197 C 
HETATM   48  O9  UNL     1       7.369  -0.305  -1.917  1.00  0.00    -0.646 OA
HETATM   49  O10 UNL     1       8.549   1.501  -2.654  1.00  0.00    -0.646 OA
ENDBRANCH  43  47
ENDBRANCH  40  43
ENDBRANCH  38  39
BRANCH  38  50
HETATM   50  N2  UNL     1       4.630  -0.819   1.382  1.00  0.00    -0.059 N 
ATOM     51  H23 UNL     1       4.977  -1.278   0.540  1.00  0.00     0.275 HD
ATOM     52  H22 UNL     1       5.536  -0.625   1.809  1.00  0.00     0.275 HD
ATOM     53  H21 UNL     1       4.041  -1.425   1.953  1.00  0.00     0.275 HD
ENDBRANCH  38  50
ENDBRANCH  37  38
BRANCH  37  54
HETATM   54  O2  UNL     1       2.163   1.217  -0.170  1.00  0.00    -0.347 OA
ATOM     55  H2  UNL     1       1.309   1.074  -0.562  1.00  0.00     0.219 HD
ENDBRANCH  37  54
ENDBRANCH  36  37
BRANCH  36  56
HETATM   56  S1  UNL     1       2.043  -2.337   1.462  1.00  0.00     0.214 S 
HETATM   57  O6  UNL     1       2.500  -2.026   2.868  1.00  0.00    -0.578 OA
HETATM   58  O7  UNL     1       0.769  -3.205   1.572  1.00  0.00    -0.578 OA
HETATM   59  O8  UNL     1       3.185  -3.363   0.792  1.00  0.00    -0.578 OA
ENDBRANCH  36  56
ENDBRANCH   1  36
BRANCH   7  60
HETATM   60  O5  UNL     1       1.158  -3.055  -1.222  1.00  0.00    -0.389 OA
ATOM     61  H5  UNL     1       1.101  -3.695  -1.921  1.00  0.00     0.210 HD
ENDBRANCH   7  60
TORSDOF 17
