REMARK  10 active torsions:
REMARK  status: ('A' for Active; 'I' for Inactive)
REMARK    1  A    between atoms: O1_1  and  C1_3 
REMARK    2  A    between atoms: C1_3  and  C2_4 
REMARK    3  A    between atoms: C5_10  and  O2_11 
REMARK    4  A    between atoms: O2_11  and  C6_12 
REMARK    5  A    between atoms: C7_13  and  O3_14 
REMARK    6  A    between atoms: C8_16  and  S1_17 
REMARK    7  A    between atoms: S1_17  and  C9_18 
REMARK    8  A    between atoms: C12_21  and  C13_22 
REMARK    9  A    between atoms: C13_22  and  O4_23 
REMARK   10  A    between atoms: C21_34  and  O6_35 
ROOT
HETATM    1  C6  UNL     1       2.330   0.142  -0.124  1.00  0.00     0.184 C 
HETATM    2  C7  UNL     1       1.015  -0.610  -0.430  1.00  0.00     0.166 C 
HETATM    3  C8  UNL     1       0.258   0.666  -0.098  1.00  0.00     0.110 C 
HETATM    4  C21 UNL     1       1.532   1.399  -0.542  1.00  0.00     0.166 C 
ENDROOT
BRANCH   3   5
HETATM    5  S1  UNL     1      -1.157   1.097  -1.039  1.00  0.00    -0.151 SA
BRANCH   5   6
HETATM    6  C9  UNL     1      -2.654   0.186  -0.809  1.00  0.00     0.090 C 
HETATM    7  C10 UNL     1      -2.542  -1.263  -1.229  1.00  0.00     0.025 C 
HETATM    8  C11 UNL     1      -3.482  -2.018  -0.347  1.00  0.00     0.027 C 
HETATM    9  C12 UNL     1      -4.900  -2.053  -0.622  1.00  0.00     0.149 C 
HETATM   10  C15 UNL     1      -3.381  -1.264   0.984  1.00  0.00     0.058 C 
HETATM   11  O5  UNL     1      -5.607  -1.606   0.500  1.00  0.00    -0.383 OA
HETATM   12  C14 UNL     1      -4.725  -1.611   1.562  1.00  0.00     0.176 C 
HETATM   13  C16 UNL     1      -3.248   0.176   0.556  1.00  0.00     0.209 A 
HETATM   14  C17 UNL     1      -4.358   1.031   0.848  1.00  0.00     0.264 A 
HETATM   15  N2  UNL     1      -3.088   1.112   1.571  1.00  0.00     0.109 N 
HETATM   16  C18 UNL     1      -4.562   2.420   0.241  1.00  0.00     0.040 C 
HETATM   17  C19 UNL     1      -3.952   3.244   1.385  1.00  0.00     0.033 C 
HETATM   18  C20 UNL     1      -2.658   2.435   1.579  1.00  0.00     0.274 C 
BRANCH   9  19
HETATM   19  C13 UNL     1      -5.468  -1.385  -1.810  1.00  0.00     0.196 C 
BRANCH  19  20
HETATM   20  O4  UNL     1      -4.876  -1.724  -3.023  1.00  0.00    -0.398 OA
ATOM     21  H4  UNL     1      -5.241  -1.294  -3.787  1.00  0.00     0.209 HD
ENDBRANCH  19  20
ENDBRANCH   9  19
ENDBRANCH   5   6
ENDBRANCH   3   5
BRANCH   2  22
HETATM   22  O3  UNL     1       1.015  -0.973  -1.778  1.00  0.00    -0.392 OA
ATOM     23  H3  UNL     1       0.207  -1.435  -1.966  1.00  0.00     0.210 HD
ENDBRANCH   2  22
BRANCH   4  24
HETATM   24  O6  UNL     1       1.838   2.530   0.169  1.00  0.00    -0.392 OA
ATOM     25  H6  UNL     1       1.348   3.302  -0.088  1.00  0.00     0.210 HD
ENDBRANCH   4  24
BRANCH   1  26
HETATM   26  O2  UNL     1       3.307  -0.159  -1.048  1.00  0.00    -0.351 OA
BRANCH  26  27
HETATM   27  C5  UNL     1       4.532  -0.452  -0.439  1.00  0.00     0.264 C 
HETATM   28  C4  UNL     1       4.959  -1.825  -0.884  1.00  0.00     0.088 C 
HETATM   29  C3  UNL     1       6.469  -1.951  -0.836  1.00  0.00     0.240 C 
HETATM   30  N1  UNL     1       6.977  -0.953   0.076  1.00  0.00    -0.046 N 
HETATM   31  C2  UNL     1       6.702   0.369  -0.417  1.00  0.00     0.346 C 
ATOM     32  H12 UNL     1       7.970  -1.086   0.269  1.00  0.00     0.280 HD
ATOM     33  H11 UNL     1       6.619  -1.087   1.022  1.00  0.00     0.280 HD
HETATM   34  O7  UNL     1       5.415   0.542  -0.858  1.00  0.00    -0.327 OA
BRANCH  31  35
HETATM   35  C1  UNL     1       7.084   1.406   0.612  1.00  0.00     0.225 C 
BRANCH  35  36
HETATM   36  O1  UNL     1       8.452   1.307   0.902  1.00  0.00    -0.397 OA
ATOM     37  H1  UNL     1       8.692   1.959   1.549  1.00  0.00     0.209 HD
ENDBRANCH  35  36
ENDBRANCH  31  35
ENDBRANCH  26  27
ENDBRANCH   1  26
TORSDOF 10
