REMARK  11 active torsions:
REMARK  status: ('A' for Active; 'I' for Inactive)
REMARK    1  A    between atoms: C5_5  and  C6_6 
REMARK    2  A    between atoms: C6_6  and  N1_7 
REMARK    3  A    between atoms: N1_7  and  C7_9 
REMARK    4  A    between atoms: C12_14  and  C13_15 
REMARK    5  A    between atoms: C13_15  and  N2_16 
REMARK    6  A    between atoms: N2_16  and  C14_19 
REMARK    7  A    between atoms: C14_19  and  C15_20 
REMARK    8  A    between atoms: C15_20  and  C16_21 
REMARK    9  A    between atoms: C16_21  and  N3_22 
REMARK   10  A    between atoms: N3_22  and  C17_24 
REMARK   11  A    between atoms: C17_24  and  C18_25 
ROOT
HETATM    1  C13 UNL     1      -0.019  -0.995   0.001  1.00  0.00     0.273 C 
ENDROOT
BRANCH   1   2
HETATM    2  C12 UNL     1      -1.270  -1.714   0.299  1.00  0.00    -0.006 A 
HETATM    3  C7  UNL     1      -2.375  -0.918   0.673  1.00  0.00     0.036 A 
HETATM    4  C8  UNL     1      -3.508  -1.546   1.098  1.00  0.00     0.030 A 
HETATM    5  C9  UNL     1      -3.640  -2.937   1.182  1.00  0.00     0.002 A 
HETATM    6  C10 UNL     1      -2.569  -3.705   0.817  1.00  0.00     0.001 A 
HETATM    7  C11 UNL     1      -1.421  -3.059   0.387  1.00  0.00     0.011 A 
BRANCH   3   8
HETATM    8  N1  UNL     1      -2.350   0.481   0.536  1.00  0.00    -0.385 N 
ATOM      9  H1  UNL     1      -1.493   0.860   0.134  1.00  0.00     0.160 HD
BRANCH   8  10
HETATM   10  C6  UNL     1      -3.341   1.452   0.874  1.00  0.00     0.158 C 
BRANCH  10  11
HETATM   11  C5  UNL     1      -4.684   1.274   0.302  1.00  0.00    -0.041 A 
HETATM   12  C4  UNL     1      -5.814   1.617   1.051  1.00  0.00     0.009 A 
HETATM   13  C3  UNL     1      -7.097   1.492   0.584  1.00  0.00     0.007 A 
HETATM   14  C2  UNL     1      -7.325   1.013  -0.679  1.00  0.00    -0.062 A 
HETATM   15  C1  UNL     1      -8.729   0.887  -1.176  1.00  0.00     0.048 C 
HETATM   16  C24 UNL     1      -6.226   0.659  -1.464  1.00  0.00     0.007 A 
HETATM   17  C23 UNL     1      -4.941   0.794  -0.970  1.00  0.00     0.009 A 
ENDBRANCH  10  11
ENDBRANCH   8  10
ENDBRANCH   3   8
ENDBRANCH   1   2
BRANCH   1  18
HETATM   18  N2  UNL     1       1.107  -1.810  -0.399  1.00  0.00    -0.071 N 
ATOM     19  H22 UNL     1       0.848  -2.785  -0.552  1.00  0.00     0.277 HD
ATOM     20  H21 UNL     1       1.425  -1.598  -1.345  1.00  0.00     0.277 HD
BRANCH  18  21
HETATM   21  C14 UNL     1       2.178  -1.663   0.600  1.00  0.00     0.234 C 
BRANCH  21  22
HETATM   22  C15 UNL     1       2.772  -0.364   0.783  1.00  0.00     0.046 C 
BRANCH  22  23
HETATM   23  C16 UNL     1       3.685   0.184  -0.269  1.00  0.00     0.115 C 
BRANCH  23  24
HETATM   24  N3  UNL     1       4.966  -0.431  -0.283  1.00  0.00    -0.417 N 
ATOM     25  H3  UNL     1       5.215  -1.193   0.348  1.00  0.00     0.153 HD
BRANCH  24  26
HETATM   26  C17 UNL     1       5.886   0.102  -1.254  1.00  0.00     0.154 C 
BRANCH  26  27
HETATM   27  C18 UNL     1       7.019   0.718  -0.527  1.00  0.00    -0.025 A 
HETATM   28  C19 UNL     1       7.144   2.110  -0.541  1.00  0.00     0.011 A 
HETATM   29  C20 UNL     1       8.106   2.762   0.175  1.00  0.00     0.018 A 
HETATM   30  C21 UNL     1       8.990   2.003   0.940  1.00  0.00     0.087 A 
HETATM   31  N4  UNL     1       8.867   0.667   0.946  1.00  0.00    -0.375 N 
HETATM   32  C22 UNL     1       7.901   0.027   0.226  1.00  0.00     0.096 A 
ATOM     33  H4  UNL     1       9.515   0.113   1.506  1.00  0.00     0.164 HD
ENDBRANCH  26  27
ENDBRANCH  24  26
ENDBRANCH  23  24
ENDBRANCH  22  23
ENDBRANCH  21  22
ENDBRANCH  18  21
ENDBRANCH   1  18
TORSDOF 11
