REMARK  10 active torsions:
REMARK  status: ('A' for Active; 'I' for Inactive)
REMARK    1  A    between atoms: C6_7  and  C7_8 
REMARK       I    between atoms: C7_8  and  N2_10 
REMARK    2  A    between atoms: N2_10  and  C8_12 
REMARK    3  A    between atoms: C10_14  and  C11_15 
REMARK       I    between atoms: C11_15  and  N3_17 
REMARK    4  A    between atoms: N3_17  and  C12_19 
REMARK    5  A    between atoms: C12_19  and  C13_20 
REMARK    6  A    between atoms: N5_27  and  C17_28 
REMARK    7  A    between atoms: C17_28  and  C18_29 
REMARK    8  A    between atoms: C18_29  and  C19_30 
REMARK    9  A    between atoms: N6_33  and  C22_34 
REMARK   10  A    between atoms: C22_34  and  C23_35 
ROOT
HETATM    1  C13 UNL     1       1.351  -2.044   0.952  1.00  0.00     0.259 C 
HETATM    2  C14 UNL     1       0.901  -2.951   2.062  1.00  0.00     0.160 C 
HETATM    3  N4  UNL     1       0.360  -2.261   3.209  1.00  0.00    -0.357 N 
ATOM      4  H4  UNL     1      -0.476  -2.591   3.691  1.00  0.00     0.162 HD
HETATM    5  C15 UNL     1       1.066  -1.081   3.634  1.00  0.00     0.246 C 
HETATM    6  O3  UNL     1       0.756  -0.401   4.595  1.00  0.00    -0.272 OA
HETATM    7  C16 UNL     1       2.231  -0.766   2.770  1.00  0.00     0.375 C 
HETATM    8  N5  UNL     1       1.949  -0.852   1.361  1.00  0.00     0.105 N 
ENDROOT
BRANCH   1   9
HETATM    9  C12 UNL     1       0.194  -1.937  -0.016  1.00  0.00     0.160 C 
BRANCH   9  10
HETATM   10  N3  UNL     1      -1.020  -1.400   0.531  1.00  0.00    -0.359 N 
HETATM   11  C11 UNL     1      -2.136  -1.277  -0.324  1.00  0.00     0.222 C 
HETATM   12  O2  UNL     1      -2.063  -1.627  -1.512  1.00  0.00    -0.273 OA
ATOM     13  H3  UNL     1      -1.074  -1.116   1.509  1.00  0.00     0.162 HD
BRANCH  11  14
HETATM   14  C10 UNL     1      -3.395  -0.730   0.210  1.00  0.00     0.080 C 
HETATM   15  C9  UNL     1      -4.502  -0.609  -0.786  1.00  0.00     0.040 C 
HETATM   16  C8  UNL     1      -5.238   0.630  -0.408  1.00  0.00     0.093 C 
HETATM   17  C32 UNL     1      -4.497   1.276   0.701  1.00  0.00    -0.026 C 
HETATM   18  C31 UNL     1      -3.105   0.716   0.641  1.00  0.00     0.025 C 
HETATM   19  C33 UNL     1      -4.364   2.776   0.515  1.00  0.00     0.017 C 
HETATM   20  C34 UNL     1      -5.065   0.943   2.067  1.00  0.00     0.017 C 
BRANCH  16  21
HETATM   21  N2  UNL     1      -6.630   0.369  -0.084  1.00  0.00    -0.354 N 
HETATM   22  C7  UNL     1      -7.725   0.967  -0.711  1.00  0.00     0.240 C 
HETATM   23  O1  UNL     1      -7.552   1.799  -1.623  1.00  0.00    -0.271 OA
ATOM     24  H2  UNL     1      -6.822  -0.303   0.659  1.00  0.00     0.162 HD
BRANCH  22  25
HETATM   25  C6  UNL     1      -9.098   0.617  -0.295  1.00  0.00     0.171 C 
HETATM   26  N1  UNL     1     -10.076   1.406  -0.965  1.00  0.00    -0.404 N 
HETATM   27  C1  UNL     1     -11.085   1.946  -0.080  1.00  0.00     0.144 C 
HETATM   28  C2  UNL     1     -10.579   0.911  -2.197  1.00  0.00     0.117 C 
HETATM   29  C3  UNL     1     -11.046  -0.546  -2.093  1.00  0.00     0.019 C 
HETATM   30  C4  UNL     1      -9.788  -1.333  -1.728  1.00  0.00     0.004 C 
HETATM   31  C5  UNL     1      -9.357  -0.867  -0.364  1.00  0.00     0.035 C 
ENDBRANCH  22  25
ENDBRANCH  16  21
ENDBRANCH  11  14
ENDBRANCH   9  10
ENDBRANCH   1   9
BRANCH   8  32
HETATM   32  C17 UNL     1       3.208  -0.498   0.706  1.00  0.00     0.274 C 
BRANCH  32  33
HETATM   33  C18 UNL     1       2.961  -0.163  -0.710  1.00  0.00     0.035 C 
BRANCH  33  34
HETATM   34  C19 UNL     1       4.228   0.269  -1.477  1.00  0.00    -0.007 C 
HETATM   35  C20 UNL     1       4.866   1.460  -0.907  1.00  0.00     0.049 C 
HETATM   36  C21 UNL     1       6.341   1.347  -0.602  1.00  0.00     0.064 C 
HETATM   37  N6  UNL     1       7.011   0.596  -1.576  1.00  0.00    -0.370 N 
HETATM   38  C29 UNL     1       6.542  -0.739  -1.609  1.00  0.00     0.128 C 
HETATM   39  C30 UNL     1       5.080  -0.906  -1.801  1.00  0.00     0.025 C 
BRANCH  37  40
HETATM   40  C22 UNL     1       8.274   0.919  -2.022  1.00  0.00     0.092 C 
BRANCH  40  41
HETATM   41  C23 UNL     1       9.479   0.750  -1.145  1.00  0.00    -0.064 C 
HETATM   42  C24 UNL     1       9.731  -0.636  -0.667  1.00  0.00     0.035 C 
HETATM   43  C25 UNL     1       9.581  -0.847   0.819  1.00  0.00     0.004 C 
HETATM   44  C26 UNL     1      10.352   0.236   1.557  1.00  0.00     0.001 C 
HETATM   45  C27 UNL     1       9.580   1.522   1.277  1.00  0.00     0.004 C 
HETATM   46  C28 UNL     1       9.699   1.837  -0.168  1.00  0.00     0.035 C 
ENDBRANCH  40  41
ENDBRANCH  37  40
ENDBRANCH  33  34
ENDBRANCH  32  33
ENDBRANCH   8  32
TORSDOF 10
