REMARK  7 active torsions:
REMARK  status: ('A' for Active; 'I' for Inactive)
REMARK    1  A    between atoms: C2_2  and  N1_3 
REMARK       I    between atoms: C3_5  and  N2_6 
REMARK       I    between atoms: C3_5  and  N6_25 
REMARK    2  A    between atoms: N2_6  and  C4_8 
REMARK    3  A    between atoms: C4_8  and  C5_9 
REMARK    4  A    between atoms: C5_9  and  N3_10 
REMARK    5  A    between atoms: C9_14  and  C11_16 
REMARK    6  A    between atoms: C11_16  and  N4_17 
REMARK    7  A    between atoms: N6_25  and  C17_27 
ROOT
HETATM    1  C4  UNL     1      -0.428   0.324  -1.347  1.00  0.00     0.157 C 
ENDROOT
BRANCH   1   2
HETATM    2  N2  UNL     1      -1.840   0.580  -1.109  1.00  0.00    -0.225 N 
HETATM    3  C3  UNL     1      -2.609  -0.281  -0.264  1.00  0.00     0.670 C 
HETATM    4  N1  UNL     1      -2.443  -1.541  -0.224  1.00  0.00    -0.227 N 
HETATM    5  N6  UNL     1      -3.588   0.315   0.563  1.00  0.00    -0.222 N 
ATOM      6  H1  UNL     1      -1.717  -1.907  -0.840  1.00  0.00     0.177 HD
ATOM      7  H6  UNL     1      -3.633   0.012   1.536  1.00  0.00     0.178 HD
ATOM      8  H2  UNL     1      -2.287   1.383  -1.550  1.00  0.00     0.177 HD
BRANCH   4   9
HETATM    9  C2  UNL     1      -3.126  -2.510   0.557  1.00  0.00     0.133 C 
HETATM   10  C1  UNL     1      -4.403  -3.019  -0.019  1.00  0.00     0.027 C 
ENDBRANCH   4   9
BRANCH   5  11
HETATM   11  C17 UNL     1      -4.522   1.313   0.136  1.00  0.00     0.103 C 
HETATM   12  C18 UNL     1      -5.439   0.837  -0.994  1.00  0.00     0.030 C 
HETATM   13  C19 UNL     1      -6.837   1.075  -0.496  1.00  0.00    -0.012 C 
HETATM   14  C20 UNL     1      -7.147   0.029   0.527  1.00  0.00     0.005 C 
HETATM   15  C23 UNL     1      -6.603   2.284   0.427  1.00  0.00     0.011 C 
HETATM   16  C21 UNL     1      -6.172   0.367   1.663  1.00  0.00     0.007 C 
HETATM   17  C22 UNL     1      -5.478   1.608   1.242  1.00  0.00     0.009 C 
ENDBRANCH   5  11
ENDBRANCH   1   2
BRANCH   1  18
HETATM   18  C5  UNL     1       0.391   0.549  -0.097  1.00  0.00     0.137 C 
BRANCH  18  19
HETATM   19  N3  UNL     1       1.756   0.261  -0.369  1.00  0.00    -0.411 N 
HETATM   20  C6  UNL     1       2.074  -1.110  -0.599  1.00  0.00     0.117 C 
HETATM   21  C7  UNL     1       2.990  -1.210  -1.779  1.00  0.00     0.020 C 
HETATM   22  C8  UNL     1       4.111  -0.239  -1.660  1.00  0.00     0.012 C 
HETATM   23  C9  UNL     1       4.816  -0.258  -0.308  1.00  0.00    -0.026 C 
HETATM   24  C10 UNL     1       5.211  -1.712  -0.011  1.00  0.00     0.017 C 
HETATM   25  C15 UNL     1       3.950   0.256   0.782  1.00  0.00     0.030 C 
HETATM   26  C16 UNL     1       2.731   1.022   0.316  1.00  0.00     0.117 C 
BRANCH  23  27
HETATM   27  C11 UNL     1       6.081   0.523  -0.526  1.00  0.00     0.138 C 
BRANCH  27  28
HETATM   28  N4  UNL     1       6.958   0.661   0.585  1.00  0.00    -0.351 N 
HETATM   29  C12 UNL     1       6.970   1.652   1.487  1.00  0.00     0.108 A 
HETATM   30  C13 UNL     1       7.961   1.413   2.393  1.00  0.00     0.106 A 
HETATM   31  N5  UNL     1       8.534   0.266   2.012  1.00  0.00    -0.361 N 
HETATM   32  C14 UNL     1       7.936  -0.203   0.916  1.00  0.00     0.182 A 
ATOM     33  H5  UNL     1       9.314  -0.184   2.490  1.00  0.00     0.166 HD
ENDBRANCH  27  28
ENDBRANCH  23  27
ENDBRANCH  18  19
ENDBRANCH   1  18
TORSDOF 7
