REMARK  8 active torsions:
REMARK  status: ('A' for Active; 'I' for Inactive)
REMARK    1  A    between atoms: C2_2  and  O1_3 
REMARK    2  A    between atoms: C2_2  and  C3_5 
REMARK    3  A    between atoms: N2_13  and  C10_14 
REMARK    4  A    between atoms: C12_16  and  N3_17 
REMARK    5  A    between atoms: C19_26  and  O2_27 
REMARK    6  A    between atoms: C20_29  and  O3_30 
REMARK    7  A    between atoms: C21_32  and  C22_33 
REMARK    8  A    between atoms: C23_34  and  C24_35 
ROOT
HETATM    1  C3  UNL     1      -3.692  -1.865   1.144  1.00  0.00     0.257 C 
HETATM    2  C4  UNL     1      -3.383  -0.525   0.547  1.00  0.00     0.049 C 
HETATM    3  C5  UNL     1      -3.676   0.481   1.675  1.00  0.00     0.017 C 
HETATM    4  C6  UNL     1      -2.902   0.013   2.881  1.00  0.00     0.039 C 
HETATM    5  C7  UNL     1      -3.443  -1.319   3.402  1.00  0.00     0.279 C 
HETATM    6  N1  UNL     1      -2.962  -2.204   2.318  1.00  0.00     0.098 N 
HETATM    7  C8  UNL     1      -1.575  -1.859   2.351  1.00  0.00     0.298 C 
HETATM    8  C9  UNL     1      -1.518  -0.345   2.466  1.00  0.00     0.119 C 
HETATM    9  N2  UNL     1      -1.164   0.143   1.153  1.00  0.00    -0.363 N 
HETATM   10  C21 UNL     1      -2.030  -0.255   0.063  1.00  0.00     0.114 C 
ENDROOT
BRANCH   9  11
HETATM   11  C10 UNL     1      -0.002   0.954   1.011  1.00  0.00     0.070 A 
HETATM   12  C11 UNL     1       1.017   0.541   0.163  1.00  0.00     0.063 A 
HETATM   13  C12 UNL     1       2.184   1.263  -0.039  1.00  0.00     0.053 A 
HETATM   14  C18 UNL     1       2.304   2.440   0.649  1.00  0.00     0.073 A 
HETATM   15 BR1  UNL     1       3.883   3.501   0.438  1.00  0.00    -0.046 Br
HETATM   16  C19 UNL     1       1.283   2.868   1.506  1.00  0.00     0.121 A 
HETATM   17  C20 UNL     1       0.132   2.140   1.695  1.00  0.00     0.127 A 
BRANCH  13  18
HETATM   18  N3  UNL     1       3.188   0.756  -0.947  1.00  0.00    -0.373 N 
HETATM   19  C13 UNL     1       3.572   1.433  -2.148  1.00  0.00     0.167 C 
HETATM   20  C14 UNL     1       5.010   1.292  -2.428  1.00  0.00     0.077 C 
HETATM   21  N4  UNL     1       5.704   0.144  -2.055  1.00  0.00    -0.394 N 
HETATM   22  C15 UNL     1       6.198  -0.696  -3.094  1.00  0.00     0.148 C 
HETATM   23  C16 UNL     1       5.300  -0.526  -0.867  1.00  0.00     0.141 C 
HETATM   24  C17 UNL     1       3.816  -0.505  -0.643  1.00  0.00     0.143 C 
ENDBRANCH  13  18
BRANCH  16  25
HETATM   25  O2  UNL     1       1.405   4.062   2.204  1.00  0.00    -0.357 OA
ATOM     26  H2  UNL     1       0.712   4.352   2.786  1.00  0.00     0.218 HD
ENDBRANCH  16  25
BRANCH  17  27
HETATM   27  O3  UNL     1      -0.878   2.597   2.565  1.00  0.00    -0.356 OA
ATOM     28  H3  UNL     1      -0.785   3.416   3.037  1.00  0.00     0.218 HD
ENDBRANCH  17  27
ENDBRANCH   9  11
BRANCH  10  29
HETATM   29  C22 UNL     1      -2.124   0.849  -0.964  1.00  0.00    -0.003 C 
HETATM   30  C23 UNL     1      -1.532   0.779  -2.131  1.00  0.00     0.002 C 
BRANCH  30  31
HETATM   31  C24 UNL     1      -1.635   1.868  -3.125  1.00  0.00     0.249 C 
HETATM   32  F1  UNL     1      -2.396   2.920  -2.689  1.00  0.00    -0.251 F 
ENDBRANCH  30  31
ENDBRANCH  10  29
BRANCH   1  33
HETATM   33  C2  UNL     1      -3.911  -2.963   0.174  1.00  0.00     0.147 C 
HETATM   34  C1  UNL     1      -2.753  -3.689  -0.372  1.00  0.00     0.041 C 
BRANCH  33  35
HETATM   35  O1  UNL     1      -4.643  -2.434  -0.908  1.00  0.00    -0.394 OA
ATOM     36  H1  UNL     1      -5.390  -1.965  -0.556  1.00  0.00     0.210 HD
ENDBRANCH  33  35
ENDBRANCH   1  33
TORSDOF 8
