REMARK  3 active torsions:
REMARK  status: ('A' for Active; 'I' for Inactive)
REMARK    1  A    between atoms: C1_4  and  N2_5 
REMARK    2  A    between atoms: N2_5  and  C2_7 
REMARK    3  A    between atoms: C3_11  and  N4_12 
ROOT
HETATM    1  C2  UNL     1      -0.147  -0.307  -0.721  1.00  0.00     0.346 A 
HETATM    2  N3  UNL     1      -0.497  -1.556  -0.039  1.00  0.00    -0.018 N 
ATOM      3  H31 UNL     1      -0.226  -2.033   0.821  1.00  0.00     0.282 HD
ATOM      4  H32 UNL     1      -0.342  -2.553  -0.190  1.00  0.00     0.282 HD
HETATM    5  C3  UNL     1      -1.523  -0.533  -0.448  1.00  0.00     0.432 A 
ENDROOT
BRANCH   1   6
HETATM    6  N2  UNL     1       0.737   0.536   0.020  1.00  0.00    -0.356 N 
ATOM      7  H2  UNL     1       0.382   1.045   0.830  1.00  0.00     0.162 HD
BRANCH   6   8
HETATM    8  C1  UNL     1       2.099   0.678  -0.350  1.00  0.00     0.170 C 
HETATM    9  N1  UNL     1       3.091   0.642   0.469  1.00  0.00    -0.395 N 
ATOM     10  H12 UNL     1       2.864   0.500   1.453  1.00  0.00     0.156 HD
ATOM     11  H11 UNL     1       4.070   0.744   0.203  1.00  0.00     0.156 HD
ENDBRANCH   6   8
ENDBRANCH   1   6
BRANCH   5  12
HETATM   12  N4  UNL     1      -2.273   0.013   0.650  1.00  0.00    -0.046 N 
ATOM     13  H43 UNL     1      -1.767  -0.243   1.498  1.00  0.00     0.276 HD
ATOM     14  H42 UNL     1      -2.153   1.025   0.604  1.00  0.00     0.276 HD
ATOM     15  H41 UNL     1      -3.261  -0.149   0.846  1.00  0.00     0.276 HD
ENDBRANCH   5  12
TORSDOF 3
