REMARK  14 active torsions:
REMARK  status: ('A' for Active; 'I' for Inactive)
REMARK    1  A    between atoms: C2_2  and  C3_3 
REMARK    2  A    between atoms: C3_3  and  C4_4 
REMARK    3  A    between atoms: C4_4  and  C5_5 
REMARK    4  A    between atoms: C5_5  and  C6_6 
REMARK    5  A    between atoms: C6_6  and  O1_7 
REMARK    6  A    between atoms: C6_6  and  C7_9 
REMARK    7  A    between atoms: C7_9  and  C8_10 
REMARK    8  A    between atoms: C8_10  and  S1_11 
REMARK    9  A    between atoms: S1_11  and  C9_12 
REMARK   10  A    between atoms: C9_12  and  C10_13 
REMARK   11  A    between atoms: C10_13  and  C11_14 
REMARK   12  A    between atoms: C13_17  and  C14_18 
REMARK   13  A    between atoms: C14_18  and  C15_19 
REMARK   14  A    between atoms: C17_21  and  O3_22 
ROOT
HETATM    1  C9  UNL     1      -0.637  -0.775  -1.153  1.00  0.00     0.080 C 
ENDROOT
BRANCH   1   2
HETATM    2  S1  UNL     1      -0.584  -1.477   0.521  1.00  0.00    -0.169 SA
BRANCH   2   3
HETATM    3  C8  UNL     1       0.982  -0.989   1.301  1.00  0.00     0.076 C 
BRANCH   3   4
HETATM    4  C7  UNL     1       2.175  -1.656   0.606  1.00  0.00     0.042 C 
BRANCH   4   5
HETATM    5  C6  UNL     1       3.404  -1.158   1.335  1.00  0.00     0.118 C 
BRANCH   5   6
HETATM    6  C5  UNL     1       4.673  -1.714   0.800  1.00  0.00     0.032 C 
BRANCH   6   7
HETATM    7  C4  UNL     1       5.057  -1.421  -0.586  1.00  0.00     0.006 C 
BRANCH   7   8
HETATM    8  C3  UNL     1       5.313  -0.048  -1.044  1.00  0.00     0.026 C 
BRANCH   8   9
HETATM    9  C2  UNL     1       4.247   0.948  -0.976  1.00  0.00    -0.037 C 
HETATM   10  C1  UNL     1       4.351   2.144  -0.397  1.00  0.00     0.007 C 
ENDBRANCH   8   9
ENDBRANCH   7   8
ENDBRANCH   6   7
ENDBRANCH   5   6
BRANCH   5  11
HETATM   11  O1  UNL     1       3.306  -1.629   2.680  1.00  0.00    -0.396 OA
ATOM     12  H1  UNL     1       2.494  -1.273   3.022  1.00  0.00     0.210 HD
ENDBRANCH   5  11
ENDBRANCH   4   5
ENDBRANCH   3   4
ENDBRANCH   2   3
ENDBRANCH   1   2
BRANCH   1  13
HETATM   13  C10 UNL     1      -0.717   0.757  -1.040  1.00  0.00     0.078 C 
BRANCH  13  14
HETATM   14  C11 UNL     1      -1.953   1.142  -0.299  1.00  0.00     0.086 A 
HETATM   15  O2  UNL     1      -2.124   1.547   0.930  1.00  0.00    -0.324 OA
HETATM   16  C12 UNL     1      -3.399   1.780   1.174  1.00  0.00     0.152 A 
HETATM   17  C13 UNL     1      -4.144   1.521   0.049  1.00  0.00    -0.000 A 
HETATM   18  C17 UNL     1      -3.208   1.108  -0.904  1.00  0.00     0.103 A 
BRANCH  17  19
HETATM   19  C14 UNL     1      -5.587   1.666  -0.065  1.00  0.00     0.043 C 
BRANCH  19  20
HETATM   20  C15 UNL     1      -6.374   0.397  -0.055  1.00  0.00     0.000 C 
HETATM   21  C16 UNL     1      -6.154  -0.353   1.216  1.00  0.00     0.005 C 
ENDBRANCH  19  20
ENDBRANCH  17  19
BRANCH  18  22
HETATM   22  O3  UNL     1      -3.563   0.753  -2.181  1.00  0.00    -0.358 OA
ATOM     23  H3  UNL     1      -4.418   0.730  -2.593  1.00  0.00     0.217 HD
ENDBRANCH  18  22
ENDBRANCH  13  14
ENDBRANCH   1  13
TORSDOF 14
