REMARK  6 active torsions:
REMARK  status: ('A' for Active; 'I' for Inactive)
REMARK    1  A    between atoms: N3_9  and  C4_10 
REMARK    2  A    between atoms: C4_10  and  C5_11 
REMARK    3  A    between atoms: C5_11  and  C6_12 
REMARK    4  A    between atoms: C6_12  and  C7_13 
REMARK    5  A    between atoms: C7_13  and  C8_14 
REMARK    6  A    between atoms: C8_14  and  N4_15 
ROOT
HETATM    1  N1  UNL     1      -5.084   1.694  -0.162  1.00  0.00    -0.234 N 
ATOM      2  H11 UNL     1      -5.166   2.515   0.437  1.00  0.00     0.174 HD
ATOM      3  H12 UNL     1      -5.759   1.195  -0.742  1.00  0.00     0.174 HD
HETATM    4  C1  UNL     1      -3.921   1.185  -0.204  1.00  0.00     0.687 C 
HETATM    5  N2  UNL     1      -3.806   0.028  -1.048  1.00  0.00    -0.224 N 
ATOM      6  H2  UNL     1      -4.497   0.042  -1.798  1.00  0.00     0.177 HD
HETATM    7  C2  UNL     1      -2.977  -1.143  -1.116  1.00  0.00     0.159 C 
HETATM    8  C3  UNL     1      -1.532  -0.856  -1.378  1.00  0.00     0.164 C 
HETATM    9  N3  UNL     1      -0.790  -0.397  -0.229  1.00  0.00    -0.311 N 
HETATM   10  N5  UNL     1      -0.794   0.767   0.510  1.00  0.00    -0.230 N 
ATOM     11  H5  UNL     1       0.137   0.945   0.886  1.00  0.00     0.209 HD
HETATM   12  N6  UNL     1      -1.599   1.696   0.874  1.00  0.00    -0.214 N 
ATOM     13  H6  UNL     1      -1.177   2.422   1.453  1.00  0.00     0.210 HD
HETATM   14  N7  UNL     1      -2.980   1.881   0.605  1.00  0.00    -0.117 N 
ATOM     15  H7  UNL     1      -3.382   2.681   1.094  1.00  0.00     0.207 HD
ENDROOT
BRANCH   9  16
HETATM   16  C4  UNL     1       0.124  -1.382   0.249  1.00  0.00     0.144 C 
BRANCH  16  17
HETATM   17  C5  UNL     1       1.042  -1.005   1.348  1.00  0.00     0.021 C 
BRANCH  17  18
HETATM   18  C6  UNL     1       2.022   0.081   1.076  1.00  0.00     0.003 C 
BRANCH  18  19
HETATM   19  C7  UNL     1       2.891  -0.348  -0.090  1.00  0.00     0.027 C 
BRANCH  19  20
HETATM   20  C8  UNL     1       3.916   0.677  -0.454  1.00  0.00     0.229 C 
BRANCH  20  21
HETATM   21  N4  UNL     1       4.832   0.995   0.601  1.00  0.00    -0.079 N 
ATOM     22  H43 UNL     1       4.325   1.280   1.439  1.00  0.00     0.274 HD
ATOM     23  H42 UNL     1       5.282   0.149   0.949  1.00  0.00     0.274 HD
ATOM     24  H41 UNL     1       5.532   1.695   0.353  1.00  0.00     0.274 HD
ENDBRANCH  20  21
ENDBRANCH  19  20
ENDBRANCH  18  19
ENDBRANCH  17  18
ENDBRANCH  16  17
ENDBRANCH   9  16
TORSDOF 6
