REMARK  9 active torsions:
REMARK  status: ('A' for Active; 'I' for Inactive)
REMARK    1  A    between atoms: C4_4  and  C5_5 
REMARK    2  A    between atoms: C5_5  and  C6_6 
REMARK    3  A    between atoms: C6_6  and  C7_7 
REMARK    4  A    between atoms: C9_9  and  C10_10 
REMARK    5  A    between atoms: C10_10  and  C11_11 
REMARK    6  A    between atoms: C12_12  and  O1_13 
REMARK    7  A    between atoms: C13_15  and  O2_16 
REMARK    8  A    between atoms: C14_18  and  C15_19 
REMARK    9  A    between atoms: C15_19  and  N1_20 
ROOT
HETATM    1  C11 UNL     1      -0.401  -0.986   0.725  1.00  0.00     0.032 C 
HETATM    2  C12 UNL     1      -0.722  -0.181   1.830  1.00  0.00     0.110 C 
HETATM    3  C13 UNL     1      -1.948   0.431   2.122  1.00  0.00     0.113 C 
HETATM    4  C14 UNL     1      -3.122   0.341   1.342  1.00  0.00     0.038 C 
HETATM    5  C18 UNL     1      -3.145   0.174  -0.016  1.00  0.00     0.062 A 
HETATM    6  N2  UNL     1      -4.170   0.850  -0.546  1.00  0.00    -0.333 N 
ATOM      7  H2  UNL     1      -4.802   1.383   0.052  1.00  0.00     0.168 HD
HETATM    8  C19 UNL     1      -4.358   0.819  -1.878  1.00  0.00     0.171 A 
HETATM    9  C20 UNL     1      -3.505   0.095  -2.720  1.00  0.00     0.082 A 
HETATM   10  C21 UNL     1      -2.444  -0.606  -2.187  1.00  0.00     0.051 A 
HETATM   11  C22 UNL     1      -2.268  -0.562  -0.828  1.00  0.00     0.045 A 
HETATM   12  C23 UNL     1      -1.152  -1.272  -0.399  1.00  0.00     0.193 C 
HETATM   13  O3  UNL     1      -0.851  -2.237  -1.131  1.00  0.00    -0.287 OA
HETATM   14  N3  UNL     1      -3.930   0.235  -4.069  1.00  0.00    -0.365 N 
ATOM     15  H3  UNL     1      -3.511  -0.202  -4.890  1.00  0.00     0.162 HD
HETATM   16  C24 UNL     1      -5.092   1.133  -4.047  1.00  0.00     0.300 A 
HETATM   17  O4  UNL     1      -5.313   1.409  -2.697  1.00  0.00    -0.314 OA
ENDROOT
BRANCH   1  18
HETATM   18  C10 UNL     1       0.940  -1.603   0.786  1.00  0.00     0.073 C 
BRANCH  18  19
HETATM   19  C9  UNL     1       2.035  -0.643   0.442  1.00  0.00    -0.019 C 
HETATM   20  C7  UNL     1       2.887  -0.858  -0.569  1.00  0.00    -0.087 C 
HETATM   21  C8  UNL     1       2.782  -2.078  -1.407  1.00  0.00     0.043 C 
BRANCH  20  22
HETATM   22  C6  UNL     1       3.930   0.141  -0.833  1.00  0.00     0.037 C 
BRANCH  22  23
HETATM   23  C5  UNL     1       5.284  -0.512  -0.691  1.00  0.00     0.031 C 
BRANCH  23  24
HETATM   24  C4  UNL     1       6.311   0.558  -0.976  1.00  0.00    -0.024 C 
HETATM   25  C2  UNL     1       7.192   0.898  -0.047  1.00  0.00    -0.091 C 
HETATM   26  C1  UNL     1       7.159   0.210   1.291  1.00  0.00     0.042 C 
HETATM   27  C3  UNL     1       8.184   1.949  -0.361  1.00  0.00     0.042 C 
ENDBRANCH  23  24
ENDBRANCH  22  23
ENDBRANCH  20  22
ENDBRANCH  18  19
ENDBRANCH   1  18
BRANCH   2  28
HETATM   28  O1  UNL     1       0.339  -0.021   2.682  1.00  0.00    -0.357 OA
ATOM     29  H1  UNL     1       0.122   0.524   3.430  1.00  0.00     0.217 HD
ENDBRANCH   2  28
BRANCH   3  30
HETATM   30  O2  UNL     1      -2.032   1.178   3.247  1.00  0.00    -0.357 OA
ATOM     31  H2  UNL     1      -2.863   1.593   3.445  1.00  0.00     0.217 HD
ENDBRANCH   3  30
BRANCH   4  32
HETATM   32  C15 UNL     1      -4.342   0.483   2.081  1.00  0.00     0.075 C 
BRANCH  32  33
HETATM   33  N1  UNL     1      -5.601   0.327   1.476  1.00  0.00    -0.300 NA
HETATM   34  C16 UNL     1      -5.887  -1.078   1.132  1.00  0.00     0.115 C 
HETATM   35  C17 UNL     1      -6.642   0.724   2.405  1.00  0.00     0.115 C 
ENDBRANCH  32  33
ENDBRANCH   4  32
TORSDOF 9
