REMARK  6 active torsions:
REMARK  status: ('A' for Active; 'I' for Inactive)
REMARK    1  A    between atoms: C5_5  and  C6_6 
REMARK    2  A    between atoms: C6_6  and  N1_7 
REMARK    3  A    between atoms: C8_9  and  C9_10 
REMARK    4  A    between atoms: C9_10  and  N2_11 
REMARK       I    between atoms: N2_11  and  C10_13 
REMARK    5  A    between atoms: C10_13  and  C11_15 
REMARK    6  A    between atoms: C11_15  and  C12_16 
ROOT
HETATM    1  N1  UNL     1      -1.621   0.090  -0.943  1.00  0.00    -0.343 N 
HETATM    2  C7  UNL     1      -0.731   1.109  -0.630  1.00  0.00     0.118 A 
HETATM    3  C8  UNL     1       0.259   0.986   0.288  1.00  0.00     0.044 A 
HETATM    4  N3  UNL     1       0.412  -0.172   0.947  1.00  0.00    -0.341 N 
ATOM      5  H3  UNL     1       1.152  -0.275   1.642  1.00  0.00     0.167 HD
HETATM    6  C18 UNL     1      -0.420  -1.196   0.683  1.00  0.00     0.144 A 
HETATM    7  C19 UNL     1      -1.424  -1.042  -0.264  1.00  0.00     0.148 A 
HETATM    8  C20 UNL     1      -2.192  -2.156  -0.492  1.00  0.00     0.282 A 
HETATM    9  O2  UNL     1      -3.102  -2.156  -1.311  1.00  0.00    -0.265 OA
HETATM   10  N4  UNL     1      -2.000  -3.336   0.162  1.00  0.00    -0.269 N 
HETATM   11  C21 UNL     1      -2.853  -4.461  -0.133  1.00  0.00     0.164 C 
HETATM   12  C22 UNL     1      -1.021  -3.436   1.072  1.00  0.00     0.332 A 
HETATM   13  O3  UNL     1      -0.826  -4.503   1.684  1.00  0.00    -0.246 OA
HETATM   14  N5  UNL     1      -0.260  -2.374   1.309  1.00  0.00    -0.287 N 
HETATM   15  C23 UNL     1       0.815  -2.456   2.293  1.00  0.00     0.163 C 
ENDROOT
BRANCH   3  16
HETATM   16  C9  UNL     1       1.210   2.090   0.619  1.00  0.00     0.181 C 
BRANCH  16  17
HETATM   17  N2  UNL     1       2.365   2.087  -0.252  1.00  0.00    -0.355 N 
HETATM   18  C10 UNL     1       3.430   1.160  -0.119  1.00  0.00     0.222 C 
HETATM   19  O1  UNL     1       3.384   0.296   0.792  1.00  0.00    -0.273 OA
ATOM     20  H2  UNL     1       2.416   2.783  -0.996  1.00  0.00     0.162 HD
BRANCH  18  21
HETATM   21  C11 UNL     1       4.608   1.164  -1.014  1.00  0.00     0.141 C 
BRANCH  21  22
HETATM   22  C12 UNL     1       5.563   0.079  -0.645  1.00  0.00    -0.049 A 
HETATM   23  C13 UNL     1       5.482  -1.178  -1.207  1.00  0.00     0.011 A 
HETATM   24  C14 UNL     1       6.387  -2.130  -0.826  1.00  0.00     0.043 A 
HETATM   25  C15 UNL     1       7.387  -1.911   0.095  1.00  0.00     0.116 A 
HETATM   26  F1  UNL     1       8.271  -2.889   0.449  1.00  0.00    -0.206 F 
HETATM   27  C16 UNL     1       7.464  -0.647   0.656  1.00  0.00     0.043 A 
HETATM   28  C17 UNL     1       6.557   0.321   0.280  1.00  0.00     0.011 A 
ENDBRANCH  21  22
ENDBRANCH  18  21
ENDBRANCH  16  17
ENDBRANCH   3  16
BRANCH   1  29
HETATM   29  C6  UNL     1      -2.688   0.407  -1.853  1.00  0.00     0.167 C 
BRANCH  29  30
HETATM   30  C5  UNL     1      -3.677   1.255  -1.101  1.00  0.00    -0.040 A 
HETATM   31  C4  UNL     1      -3.614   2.657  -1.212  1.00  0.00     0.009 A 
HETATM   32  C3  UNL     1      -4.477   3.500  -0.553  1.00  0.00     0.007 A 
HETATM   33  C2  UNL     1      -5.467   3.002   0.264  1.00  0.00    -0.062 A 
HETATM   34  C1  UNL     1      -6.413   3.914   0.987  1.00  0.00     0.048 C 
HETATM   35  C25 UNL     1      -5.546   1.641   0.386  1.00  0.00     0.007 A 
HETATM   36  C24 UNL     1      -4.671   0.807  -0.282  1.00  0.00     0.009 A 
ENDBRANCH  29  30
ENDBRANCH   1  29
TORSDOF 6
