REMARK  9 active torsions:
REMARK  status: ('A' for Active; 'I' for Inactive)
REMARK    1  A    between atoms: C2_2  and  O1_3 
REMARK    2  A    between atoms: O1_3  and  C3_4 
REMARK    3  A    between atoms: C3_4  and  C4_6 
REMARK    4  A    between atoms: C8_10  and  C9_11 
REMARK    5  A    between atoms: C9_11  and  N1_12 
REMARK    6  A    between atoms: N1_12  and  C10_13 
REMARK       I    between atoms: N1_12  and  C17_25 
REMARK    7  A    between atoms: C10_13  and  C11_14 
REMARK    8  A    between atoms: C17_25  and  C18_27 
REMARK    9  A    between atoms: C18_27  and  N3_28 
ROOT
HETATM    1  N1  UNL     1      -1.427   0.285  -0.656  1.00  0.00    -0.322 N 
HETATM    2  C17 UNL     1      -1.736   1.425  -1.444  1.00  0.00     0.249 C 
HETATM    3  O5  UNL     1      -0.995   1.789  -2.406  1.00  0.00    -0.271 OA
ENDROOT
BRANCH   1   4
HETATM    4  C9  UNL     1      -0.184  -0.423  -0.954  1.00  0.00     0.170 C 
BRANCH   4   5
HETATM    5  C8  UNL     1       0.942   0.129  -0.158  1.00  0.00    -0.039 A 
HETATM    6  C7  UNL     1       0.709   1.170   0.716  1.00  0.00     0.009 A 
HETATM    7  C6  UNL     1       1.726   1.710   1.470  1.00  0.00     0.002 A 
HETATM    8  C5  UNL     1       3.002   1.183   1.335  1.00  0.00     0.017 A 
HETATM    9  C4  UNL     1       3.278   0.145   0.475  1.00  0.00     0.040 A 
HETATM   10  C19 UNL     1       2.215  -0.354  -0.255  1.00  0.00     0.026 A 
BRANCH   9  11
HETATM   11  C3  UNL     1       4.626  -0.374   0.366  1.00  0.00     0.293 C 
HETATM   12  O2  UNL     1       4.944  -1.320  -0.399  1.00  0.00    -0.259 OA
BRANCH  11  13
HETATM   13  O1  UNL     1       5.624   0.191   1.138  1.00  0.00    -0.318 OA
BRANCH  13  14
HETATM   14  C2  UNL     1       6.963  -0.278   1.071  1.00  0.00     0.174 C 
HETATM   15  C1  UNL     1       7.463  -0.116  -0.327  1.00  0.00     0.034 C 
ENDBRANCH  13  14
ENDBRANCH  11  13
ENDBRANCH   9  11
ENDBRANCH   4   5
ENDBRANCH   1   4
BRANCH   1  16
HETATM   16  C10 UNL     1      -2.317  -0.157   0.354  1.00  0.00     0.107 C 
BRANCH  16  17
HETATM   17  C11 UNL     1      -3.295  -1.176   0.156  1.00  0.00     0.003 C 
HETATM   18  C12 UNL     1      -3.555  -1.973   1.297  1.00  0.00     0.020 C 
HETATM   19  C13 UNL     1      -4.734  -2.617   1.668  1.00  0.00     0.075 C 
HETATM   20  C14 UNL     1      -5.934  -2.660   0.945  1.00  0.00     0.248 C 
HETATM   21  O3  UNL     1      -6.857  -3.271   1.543  1.00  0.00    -0.268 OA
HETATM   22  N2  UNL     1      -6.200  -2.142  -0.270  1.00  0.00    -0.289 N 
HETATM   23  C15 UNL     1      -5.356  -1.570  -1.178  1.00  0.00     0.266 C 
ATOM     24  H2  UNL     1      -7.179  -2.183  -0.554  1.00  0.00     0.172 HD
HETATM   25  O4  UNL     1      -5.868  -1.203  -2.261  1.00  0.00    -0.267 OA
HETATM   26  C16 UNL     1      -3.982  -1.362  -1.007  1.00  0.00     0.090 C 
HETATM   27 BR1  UNL     1      -2.996  -1.389  -2.638  1.00  0.00    -0.044 Br
ENDBRANCH  16  17
ENDBRANCH   1  16
BRANCH   2  28
HETATM   28  C18 UNL     1      -2.933   2.261  -1.187  1.00  0.00     0.332 C 
BRANCH  28  29
HETATM   29  N3  UNL     1      -2.998   3.381  -2.138  1.00  0.00    -0.071 N 
ATOM     30  H33 UNL     1      -2.141   3.934  -2.130  1.00  0.00     0.274 HD
ATOM     31  H32 UNL     1      -2.962   3.059  -3.105  1.00  0.00     0.274 HD
ATOM     32  H31 UNL     1      -3.822   3.956  -1.961  1.00  0.00     0.274 HD
ENDBRANCH  28  29
ENDBRANCH   2  28
TORSDOF 9
