REMARK  2 active torsions:
REMARK  status: ('A' for Active; 'I' for Inactive)
REMARK    1  A    between atoms: C1_4  and  O1_5 
REMARK    2  A    between atoms: O1_5  and  C2_6 
ROOT
HETATM    1  O1  UNL     1       1.272  -1.100   0.114  1.00  0.00    -0.342 OA
ENDROOT
BRANCH   1   2
HETATM    2  C1  UNL     1       2.155  -0.030   0.159  1.00  0.00     0.219 C 
HETATM    3  N1  UNL     1       1.641   1.117   0.312  1.00  0.00    -0.390 N 
ATOM      4  H12 UNL     1       0.631   1.232   0.396  1.00  0.00     0.157 HD
ATOM      5  H11 UNL     1       2.290   1.903   0.345  1.00  0.00     0.157 HD
ENDBRANCH   1   2
BRANCH   1   6
HETATM    6  C2  UNL     1      -0.084  -1.048  -0.151  1.00  0.00     0.129 A 
HETATM    7  C3  UNL     1      -0.964  -0.248   0.747  1.00  0.00     0.032 A 
HETATM    8  C4  UNL     1      -1.468   0.600  -0.391  1.00  0.00     0.005 A 
HETATM    9  C5  UNL     1      -0.528  -0.181  -1.307  1.00  0.00     0.032 A 
ENDBRANCH   1   6
TORSDOF 2
