REMARK  3 active torsions:
REMARK  status: ('A' for Active; 'I' for Inactive)
REMARK    1  A    between atoms: N1_1  and  N2_4 
REMARK    2  A    between atoms: N2_4  and  C1_6 
REMARK    3  A    between atoms: C4_14  and  N5_15 
ROOT
HETATM    1  C1  UNL     1      -1.735   0.446  -0.225  1.00  0.00     0.700 A 
HETATM    2  N3  UNL     1      -1.492  -0.151   0.942  1.00  0.00    -0.153 N 
ATOM      3  H3  UNL     1      -2.293  -0.329   1.548  1.00  0.00     0.187 HD
HETATM    4  C2  UNL     1      -0.308  -0.533   1.385  1.00  0.00     0.289 A 
HETATM    5  O1  UNL     1      -0.228  -1.088   2.513  1.00  0.00    -0.265 OA
HETATM    6  C3  UNL     1       0.827  -0.310   0.587  1.00  0.00     0.138 A 
HETATM    7  N4  UNL     1       2.059  -0.628   0.883  1.00  0.00    -0.325 N 
ATOM      8  H4  UNL     1       2.269  -1.084   1.771  1.00  0.00     0.168 HD
HETATM    9  C4  UNL     1       3.032  -0.358   0.032  1.00  0.00     0.218 A 
HETATM   10  S1  UNL     1       2.193   0.382  -1.255  1.00  0.00    -0.027 SA
HETATM   11  C5  UNL     1       0.592   0.300  -0.610  1.00  0.00     0.126 A 
HETATM   12  N6  UNL     1      -0.657   0.673  -1.016  1.00  0.00    -0.181 N 
ATOM     13  H6  UNL     1      -0.780   1.126  -1.922  1.00  0.00     0.185 HD
ENDROOT
BRANCH   1  14
HETATM   14  N2  UNL     1      -2.894   0.809  -0.635  1.00  0.00    -0.138 N 
ATOM     15  H2  UNL     1      -2.982   1.260  -1.545  1.00  0.00     0.205 HD
BRANCH  14  16
HETATM   16  N1  UNL     1      -4.029   0.602   0.131  1.00  0.00    -0.331 N 
ATOM     17  H12 UNL     1      -3.923   0.149   1.039  1.00  0.00     0.177 HD
ATOM     18  H11 UNL     1      -4.951   0.891  -0.195  1.00  0.00     0.177 HD
ENDBRANCH  14  16
ENDBRANCH   1  14
BRANCH   9  19
HETATM   19  N5  UNL     1       4.435  -0.614   0.148  1.00  0.00    -0.090 N 
HETATM   20  O2  UNL     1       4.917  -1.162   1.143  1.00  0.00    -0.530 OA
HETATM   21  O3  UNL     1       5.247  -0.239  -0.869  1.00  0.00    -0.530 OA
ENDBRANCH   9  19
TORSDOF 3
