REMARK  4 active torsions:
REMARK  status: ('A' for Active; 'I' for Inactive)
REMARK    1  A    between atoms: C2_2  and  O1_6 
REMARK    2  A    between atoms: O1_6  and  C3_7 
REMARK    3  A    between atoms: C4_8  and  C5_9 
REMARK    4  A    between atoms: N2_14  and  O5_15 
ROOT
HETATM    1  C3  UNL     1      -0.342   0.034  -0.345  1.00  0.00     0.178 A 
HETATM    2  C4  UNL     1      -1.087  -1.097  -0.078  1.00  0.00     0.162 A 
HETATM    3  C6  UNL     1      -2.291  -0.942   0.626  1.00  0.00     0.297 A 
HETATM    4  O4  UNL     1      -2.958  -1.989   0.862  1.00  0.00    -0.264 OA
HETATM    5  N2  UNL     1      -2.647   0.274   0.996  1.00  0.00    -0.133 N 
HETATM    6  C7  UNL     1      -1.885   1.355   0.711  1.00  0.00     0.357 A 
HETATM    7  O6  UNL     1      -2.302   2.490   1.104  1.00  0.00    -0.244 OA
HETATM    8  N3  UNL     1      -0.732   1.256   0.044  1.00  0.00    -0.281 N 
HETATM    9  C8  UNL     1       0.096   2.385  -0.271  1.00  0.00     0.163 C 
ENDROOT
BRANCH   1  10
HETATM   10  O1  UNL     1       0.857  -0.048  -1.032  1.00  0.00    -0.280 OA
BRANCH  10  11
HETATM   11  C2  UNL     1       2.017  -0.109  -0.240  1.00  0.00     0.115 C 
HETATM   12  C1  UNL     1       3.367  -0.307  -0.881  1.00  0.00     0.097 C 
HETATM   13  N1  UNL     1       1.914   0.004   1.038  1.00  0.00    -0.383 N 
ATOM     14  H12 UNL     1       2.756  -0.040   1.613  1.00  0.00     0.157 HD
ATOM     15  H11 UNL     1       1.001   0.138   1.472  1.00  0.00     0.157 HD
ENDBRANCH  10  11
ENDBRANCH   1  10
BRANCH   2  16
HETATM   16  C5  UNL     1      -0.660  -2.406  -0.524  1.00  0.00     0.219 C 
HETATM   17  O2  UNL     1      -1.356  -3.412  -0.258  1.00  0.00    -0.644 OA
HETATM   18  O3  UNL     1       0.503  -2.540  -1.237  1.00  0.00    -0.644 OA
ENDBRANCH   2  16
BRANCH   5  19
HETATM   19  O5  UNL     1      -3.830   0.414   1.686  1.00  0.00    -0.276 OA
ATOM     20  H5  UNL     1      -4.086   1.289   1.952  1.00  0.00     0.245 HD
ENDBRANCH   5  19
TORSDOF 4
