REMARK  1 active torsions:
REMARK  status: ('A' for Active; 'I' for Inactive)
REMARK    1  A    between atoms: C6_10  and  C7_11 
ROOT
HETATM    1  C1  UNL     1      -3.875   0.188   0.119  1.00  0.00     0.070 C 
HETATM    2  C2  UNL     1      -2.387   0.332  -0.062  1.00  0.00     0.031 A 
HETATM    3  C3  UNL     1      -1.535  -0.679  -0.019  1.00  0.00     0.120 A 
HETATM    4  C4  UNL     1      -1.896  -2.047   0.202  1.00  0.00     0.103 C 
HETATM    5  N1  UNL     1      -2.183  -3.158   0.402  1.00  0.00    -0.191 NA
HETATM    6  C5  UNL     1      -0.144  -0.218  -0.232  1.00  0.00     0.332 A 
HETATM    7  O1  UNL     1       0.417  -0.873  -1.334  1.00  0.00    -0.220 OA
HETATM    8  N2  UNL     1       1.741  -0.656  -1.625  1.00  0.00    -0.239 N 
ATOM      9  H2  UNL     1       2.090  -0.689  -2.583  1.00  0.00     0.196 HD
HETATM   10  C6  UNL     1       2.522  -0.408  -0.630  1.00  0.00     0.223 C 
HETATM   11  N3  UNL     1       1.934  -0.384   0.658  1.00  0.00    -0.239 N 
ATOM     12  H3  UNL     1       2.547  -0.230   1.459  1.00  0.00     0.196 HD
HETATM   13  O4  UNL     1       0.629  -0.550   0.894  1.00  0.00    -0.220 OA
HETATM   14  C8  UNL     1      -0.281   1.235  -0.411  1.00  0.00     0.295 A 
HETATM   15  O5  UNL     1       0.660   2.072  -0.625  1.00  0.00    -0.266 OA
HETATM   16  N4  UNL     1      -1.666   1.533  -0.300  1.00  0.00    -0.325 N 
ATOM     17  H4  UNL     1      -2.078   2.463  -0.379  1.00  0.00     0.169 HD
ENDROOT
BRANCH  10  18
HETATM   18  C7  UNL     1       3.940  -0.162  -0.816  1.00  0.00     0.248 C 
HETATM   19  O2  UNL     1       4.458  -0.183  -1.956  1.00  0.00    -0.642 OA
HETATM   20  O3  UNL     1       4.750   0.101   0.272  1.00  0.00    -0.642 OA
ENDBRANCH  10  18
TORSDOF 1
