REMARK  3 active torsions:
REMARK  status: ('A' for Active; 'I' for Inactive)
REMARK    1  A    between atoms: N1_1  and  N2_4 
REMARK    2  A    between atoms: N2_4  and  C1_6 
REMARK    3  A    between atoms: N3_7  and  N4_9 
ROOT
HETATM    1  C1  UNL     1       1.197  -0.237   0.529  1.00  0.00     0.213 C 
HETATM    2  N3  UNL     1       0.333  -1.128   0.252  1.00  0.00    -0.294 N 
ATOM      3  H3  UNL     1       0.575  -1.884  -0.388  1.00  0.00     0.187 HD
ENDROOT
BRANCH   2   4
HETATM    4  N4  UNL     1      -0.930  -1.082   0.809  1.00  0.00    -0.287 N 
HETATM    5  C2  UNL     1      -1.939  -0.484   0.291  1.00  0.00     0.110 A 
HETATM    6  C3  UNL     1      -3.292  -0.039   0.208  1.00  0.00     0.198 A 
HETATM    7  N5  UNL     1      -2.387   0.333  -0.882  1.00  0.00    -0.370 N 
ATOM      8  H5  UNL     1      -2.202   0.798  -1.771  1.00  0.00     0.161 HD
ATOM      9  H4  UNL     1      -1.071  -1.560   1.699  1.00  0.00     0.188 HD
ENDBRANCH   2   4
BRANCH   1  10
HETATM   10  N2  UNL     1       2.485  -0.335  -0.076  1.00  0.00    -0.301 N 
ATOM     11  H2  UNL     1       2.816  -1.251  -0.378  1.00  0.00     0.187 HD
BRANCH  10  12
HETATM   12  N1  UNL     1       3.314   0.777  -0.272  1.00  0.00    -0.344 N 
ATOM     13  H12 UNL     1       2.968   1.686   0.036  1.00  0.00     0.176 HD
ATOM     14  H11 UNL     1       4.235   0.707  -0.705  1.00  0.00     0.176 HD
ENDBRANCH  10  12
ENDBRANCH   1  10
TORSDOF 3
