REMARK  2 active torsions:
REMARK  status: ('A' for Active; 'I' for Inactive)
REMARK    1  A    between atoms: N2_3  and  C2_5 
REMARK    2  A    between atoms: N3_6  and  C3_8 
ROOT
HETATM    1  C2  UNL     1       0.585  -0.481   0.795  1.00  0.00     0.178 C 
HETATM    2  N3  UNL     1      -0.651  -0.601   1.155  1.00  0.00    -0.357 N 
ATOM      3  H3  UNL     1      -0.899  -0.572   2.144  1.00  0.00     0.162 HD
ENDROOT
BRANCH   2   4
HETATM    4  C3  UNL     1      -1.672  -0.775   0.164  1.00  0.00     0.310 A 
HETATM    5  C4  UNL     1      -2.204   0.349  -0.554  1.00  0.00     0.289 A 
HETATM    6  N4  UNL     1      -3.019  -0.349   0.412  1.00  0.00    -0.049 N 
ATOM      7  H42 UNL     1      -3.934  -0.800   0.394  1.00  0.00     0.279 HD
ATOM      8  H41 UNL     1      -3.550  -0.078   1.240  1.00  0.00     0.279 HD
ENDBRANCH   2   4
BRANCH   1   9
HETATM    9  N2  UNL     1       0.990  -0.516  -0.581  1.00  0.00    -0.351 N 
HETATM   10  C1  UNL     1       2.101   0.052  -0.907  1.00  0.00     0.190 C 
HETATM   11  N1  UNL     1       2.935   0.707   0.039  1.00  0.00    -0.097 NA
ATOM     12  H2  UNL     1       0.414  -0.979  -1.284  1.00  0.00     0.166 HD
ENDBRANCH   1   9
TORSDOF 2
