REMARK  3 active torsions:
REMARK  status: ('A' for Active; 'I' for Inactive)
REMARK    1  A    between atoms: C3_3  and  O1_4 
REMARK    2  A    between atoms: C6_10  and  C7_11 
REMARK    3  A    between atoms: C7_11  and  O4_12 
ROOT
HETATM    1  C1  UNL     1      -1.463  -1.359   1.806  1.00  0.00     0.014 C 
HETATM    2  C2  UNL     1      -1.176  -1.485   0.303  1.00  0.00     0.031 C 
HETATM    3  C3  UNL     1      -0.323  -2.709   0.142  1.00  0.00     0.132 C 
HETATM    4  C4  UNL     1       0.057  -3.013  -1.273  1.00  0.00     0.143 C 
HETATM    5  C5  UNL     1       0.920  -1.979  -1.900  1.00  0.00     0.261 C 
HETATM    6  O2  UNL     1       0.998  -2.141  -3.155  1.00  0.00    -0.265 OA
HETATM    7  O3  UNL     1       1.491  -1.043  -1.134  1.00  0.00    -0.314 OA
HETATM    8  C6  UNL     1       2.670  -0.786  -0.508  1.00  0.00     0.155 C 
HETATM    9  C8  UNL     1       2.586  -0.265   0.909  1.00  0.00     0.035 C 
HETATM   10  C9  UNL     1       2.893   1.209   1.017  1.00  0.00     0.010 C 
HETATM   11  C10 UNL     1       1.992   1.941   0.041  1.00  0.00     0.078 C 
HETATM   12  C11 UNL     1       1.456   3.192   0.623  1.00  0.00     0.127 C 
HETATM   13  O5  UNL     1       2.292   4.001   1.037  1.00  0.00    -0.298 OA
HETATM   14  C12 UNL     1       0.037   3.536   0.743  1.00  0.00     0.078 C 
HETATM   15  C13 UNL     1      -0.804   3.126  -0.434  1.00  0.00     0.007 C 
HETATM   16  C14 UNL     1      -2.263   3.303  -0.029  1.00  0.00     0.000 C 
HETATM   17  C15 UNL     1      -3.053   2.190  -0.725  1.00  0.00     0.002 C 
HETATM   18  C16 UNL     1      -2.845   0.892   0.022  1.00  0.00     0.022 C 
HETATM   19  C17 UNL     1      -3.003  -0.256  -0.917  1.00  0.00     0.101 C 
HETATM   20 CL1  UNL     1      -2.331   0.120  -2.517  1.00  0.00    -0.123 Cl
HETATM   21  C18 UNL     1      -2.502  -1.566  -0.381  1.00  0.00     0.107 C 
HETATM   22 CL2  UNL     1      -3.755  -2.166   0.763  1.00  0.00    -0.123 Cl
ENDROOT
BRANCH   8  23
HETATM   23  C7  UNL     1       3.709  -1.881  -0.517  1.00  0.00     0.196 C 
BRANCH  23  24
HETATM   24  O4  UNL     1       3.306  -3.051   0.080  1.00  0.00    -0.398 OA
ATOM     25  H4  UNL     1       3.960  -3.740   0.074  1.00  0.00     0.209 HD
ENDBRANCH  23  24
ENDBRANCH   8  23
BRANCH   3  26
HETATM   26  O1  UNL     1      -1.094  -3.792   0.628  1.00  0.00    -0.395 OA
ATOM     27  H1  UNL     1      -0.554  -4.567   0.526  1.00  0.00     0.210 HD
ENDBRANCH   3  26
TORSDOF 3
