REMARK  6 active torsions:
REMARK  status: ('A' for Active; 'I' for Inactive)
REMARK    1  A    between atoms: C2_2  and  O2_4 
REMARK    2  A    between atoms: O2_4  and  C3_5 
REMARK    3  A    between atoms: C7_10  and  N1_11 
REMARK    4  A    between atoms: N1_11  and  N2_13 
REMARK    5  A    between atoms: N2_13  and  N3_14 
REMARK    6  A    between atoms: C14_25  and  O3_26 
ROOT
HETATM    1  C3  UNL     1       1.392   0.674   0.817  1.00  0.00     0.141 C 
HETATM    2  C4  UNL     1       0.384   1.794   0.983  1.00  0.00     0.070 C 
HETATM    3  C5  UNL     1      -0.938   1.541   0.404  1.00  0.00    -0.043 C 
HETATM    4  C6  UNL     1      -1.919   2.335   0.812  1.00  0.00     0.047 C 
HETATM    5 CL1  UNL     1      -1.612   3.603   1.974  1.00  0.00    -0.086 Cl
HETATM    6  C7  UNL     1      -3.334   2.132   0.295  1.00  0.00     0.222 C 
HETATM    7  C8  UNL     1      -3.528   0.641   0.177  1.00  0.00     0.145 C 
HETATM    8  F1  UNL     1      -4.736   0.160   0.523  1.00  0.00    -0.206 F 
HETATM    9  C9  UNL     1      -2.525  -0.138  -0.255  1.00  0.00     0.074 C 
HETATM   10  N4  UNL     1      -2.880  -1.521  -0.303  1.00  0.00    -0.103 NA
HETATM   11  C10 UNL     1      -1.285   0.491  -0.614  1.00  0.00     0.028 C 
HETATM   12  C11 UNL     1      -1.530   1.260  -1.927  1.00  0.00     0.027 C 
HETATM   13  C12 UNL     1      -0.070  -0.311  -0.822  1.00  0.00     0.014 C 
HETATM   14  C13 UNL     1      -0.048  -1.542  -1.581  1.00  0.00     0.039 C 
HETATM   15  C14 UNL     1       1.228  -2.225  -1.036  1.00  0.00     0.126 C 
HETATM   16  C15 UNL     1       1.260  -1.840   0.428  1.00  0.00    -0.015 C 
HETATM   17  C16 UNL     1       0.357  -2.875   1.128  1.00  0.00     0.018 C 
HETATM   18  C17 UNL     1       2.597  -1.982   1.056  1.00  0.00     0.018 C 
HETATM   19  C18 UNL     1       0.586  -0.539   0.527  1.00  0.00     0.031 C 
ENDROOT
BRANCH   6  20
HETATM   20  N1  UNL     1      -4.264   2.669   1.267  1.00  0.00    -0.236 N 
ATOM     21  H1  UNL     1      -5.005   3.304   0.971  1.00  0.00     0.198 HD
BRANCH  20  22
HETATM   22  N2  UNL     1      -4.156   2.357   2.442  1.00  0.00    -0.247 NA
BRANCH  22  23
HETATM   23  N3  UNL     1      -4.415   2.043   3.601  1.00  0.00    -0.261 N 
ATOM     24  H32 UNL     1      -5.427   2.060   3.472  1.00  0.00     0.193 HD
ATOM     25  H31 UNL     1      -4.325   1.782   4.583  1.00  0.00     0.193 HD
ENDBRANCH  22  23
ENDBRANCH  20  22
ENDBRANCH   6  20
BRANCH   1  26
HETATM   26  O2  UNL     1       2.210   1.088  -0.288  1.00  0.00    -0.316 OA
BRANCH  26  27
HETATM   27  C2  UNL     1       3.526   1.396  -0.085  1.00  0.00     0.255 C 
HETATM   28  C1  UNL     1       4.437   1.830  -1.196  1.00  0.00     0.126 C 
HETATM   29  O1  UNL     1       4.018   1.323   1.065  1.00  0.00    -0.266 OA
ENDBRANCH  26  27
ENDBRANCH   1  26
BRANCH  15  30
HETATM   30  O3  UNL     1       1.075  -3.588  -1.239  1.00  0.00    -0.395 OA
ATOM     31  H3  UNL     1       1.859  -4.008  -0.904  1.00  0.00     0.210 HD
ENDBRANCH  15  30
TORSDOF 6
