REMARK  1 active torsions:
REMARK  status: ('A' for Active; 'I' for Inactive)
REMARK    1  A    between atoms: C4_4  and  C5_5 
ROOT
HETATM    1  C1  UNL     1      -1.964   1.606  -1.896  1.00  0.00     0.044 C 
HETATM    2  C2  UNL     1      -1.816   0.586  -0.804  1.00  0.00    -0.076 C 
HETATM    3  C3  UNL     1      -0.725   0.399  -0.097  1.00  0.00    -0.032 C 
HETATM    4  C4  UNL     1       0.646   1.055  -0.101  1.00  0.00     0.131 C 
HETATM    5  C6  UNL     1       1.702  -0.034  -0.096  1.00  0.00     0.008 C 
HETATM    6  C7  UNL     1       3.046   0.519   0.322  1.00  0.00     0.022 C 
HETATM    7  C8  UNL     1       1.826  -0.534  -1.552  1.00  0.00     0.022 C 
HETATM    8  C9  UNL     1       1.369  -1.206   0.709  1.00  0.00     0.051 C 
HETATM    9  C10 UNL     1       2.508  -2.076   1.031  1.00  0.00     0.097 C 
HETATM   10  N1  UNL     1       3.392  -2.774   1.294  1.00  0.00    -0.192 NA
HETATM   11  C11 UNL     1       0.180  -1.521   1.144  1.00  0.00     0.059 C 
HETATM   12 CL1  UNL     1      -0.014  -2.975   2.098  1.00  0.00    -0.085 Cl
HETATM   13  C12 UNL     1      -0.996  -0.697   0.869  1.00  0.00     0.143 C 
HETATM   14  C13 UNL     1      -1.436  -0.125   2.150  1.00  0.00     0.082 C 
HETATM   15  N2  UNL     1      -1.781   0.319   3.170  1.00  0.00    -0.196 NA
HETATM   16  C14 UNL     1      -2.185  -1.436   0.304  1.00  0.00     0.140 C 
HETATM   17 BR1  UNL     1      -3.352  -2.089   1.702  1.00  0.00    -0.066 Br
HETATM   18  C15 UNL     1      -1.806  -2.535  -0.545  1.00  0.00     0.084 C 
HETATM   19  N3  UNL     1      -1.511  -3.411  -1.216  1.00  0.00    -0.195 NA
HETATM   20  C16 UNL     1      -2.923  -0.333  -0.430  1.00  0.00     0.073 C 
ENDROOT
BRANCH   4  21
HETATM   21  C5  UNL     1       0.750   1.972   1.056  1.00  0.00     0.182 C 
HETATM   22  O1  UNL     1       1.569   1.856   2.000  1.00  0.00    -0.647 OA
HETATM   23  O2  UNL     1      -0.124   3.076   1.144  1.00  0.00    -0.647 OA
ENDBRANCH   4  21
TORSDOF 1
