REMARK  8 active torsions:
REMARK  status: ('A' for Active; 'I' for Inactive)
REMARK    1  A    between atoms: C2_2  and  N1_3 
REMARK    2  A    between atoms: C14_20  and  O3_21 
REMARK    3  A    between atoms: N4_23  and  C15_24 
REMARK    4  A    between atoms: C15_24  and  C17_26 
REMARK    5  A    between atoms: C17_26  and  O4_27 
REMARK    6  A    between atoms: C21_32  and  C22_33 
REMARK    7  A    between atoms: C22_33  and  N5_34 
REMARK    8  A    between atoms: N5_34  and  C23_37 
ROOT
HETATM    1  N1  UNL     1      -2.099  -0.568   1.024  1.00  0.00    -0.315 N 
HETATM    2  C3  UNL     1      -2.023   0.802   1.506  1.00  0.00     0.221 C 
HETATM    3  N2  UNL     1      -2.717   1.075   2.534  1.00  0.00    -0.360 N 
ATOM      4  H2  UNL     1      -3.237   0.265   2.872  1.00  0.00     0.162 HD
HETATM    5  C4  UNL     1      -2.944   2.211   3.317  1.00  0.00     0.150 C 
HETATM    6  O1  UNL     1      -1.289   1.755   0.954  1.00  0.00    -0.317 OA
HETATM    7  C5  UNL     1      -1.112   2.597  -0.090  1.00  0.00     0.128 C 
HETATM    8  C6  UNL     1      -2.419   3.227  -0.602  1.00  0.00     0.040 C 
HETATM    9  C7  UNL     1      -0.322   3.812   0.441  1.00  0.00     0.032 C 
HETATM   10  C8  UNL     1       1.039   3.934  -0.204  1.00  0.00     0.012 C 
HETATM   11  C9  UNL     1       2.034   2.904   0.324  1.00  0.00     0.103 C 
HETATM   12  C10 UNL     1       3.088   2.681  -0.688  1.00  0.00     0.220 C 
HETATM   13  O2  UNL     1       3.369   3.714  -1.401  1.00  0.00    -0.273 OA
HETATM   14  N3  UNL     1       3.810   1.521  -0.971  1.00  0.00    -0.345 N 
HETATM   15  C11 UNL     1       5.286   1.603  -1.001  1.00  0.00     0.153 C 
HETATM   16  C12 UNL     1       3.253   0.191  -1.254  1.00  0.00     0.157 C 
HETATM   17  C13 UNL     1       2.054   0.208  -2.105  1.00  0.00     0.041 C 
HETATM   18  C14 UNL     1       3.274  -0.570  -0.016  1.00  0.00     0.141 C 
HETATM   19  N4  UNL     1       2.284  -1.342   0.650  1.00  0.00    -0.333 N 
HETATM   20  C18 UNL     1       0.895  -1.060   0.766  1.00  0.00     0.102 C 
HETATM   21  C19 UNL     1      -0.136  -1.884   0.122  1.00  0.00    -0.022 C 
HETATM   22  C20 UNL     1      -0.384  -3.263   0.568  1.00  0.00     0.052 C 
HETATM   23  C21 UNL     1      -1.371  -1.023  -0.106  1.00  0.00     0.048 C 
ENDROOT
BRANCH  23  24
HETATM   24  C22 UNL     1      -2.132  -1.462  -1.329  1.00  0.00     0.290 C 
BRANCH  24  25
HETATM   25  N5  UNL     1      -2.942  -0.354  -1.867  1.00  0.00    -0.066 N 
ATOM     26  H52 UNL     1      -3.767  -0.182  -1.293  1.00  0.00     0.278 HD
ATOM     27  H51 UNL     1      -2.474   0.544  -1.744  1.00  0.00     0.278 HD
BRANCH  25  28
HETATM   28  C23 UNL     1      -3.292  -0.577  -3.228  1.00  0.00     0.186 A 
HETATM   29  C24 UNL     1      -4.644  -0.292  -3.799  1.00  0.00     0.035 A 
HETATM   30  C25 UNL     1      -4.152  -1.718  -3.688  1.00  0.00     0.035 A 
ENDBRANCH  25  28
ENDBRANCH  24  25
ENDBRANCH  23  24
BRANCH   1  31
HETATM   31  C2  UNL     1      -2.876  -1.574   1.724  1.00  0.00     0.128 C 
HETATM   32  C1  UNL     1      -3.960  -1.098   2.643  1.00  0.00     0.027 C 
ENDBRANCH   1  31
BRANCH  19  33
HETATM   33  C15 UNL     1       2.793  -2.515   1.330  1.00  0.00     0.110 C 
HETATM   34  C16 UNL     1       3.625  -2.019   2.538  1.00  0.00     0.035 C 
BRANCH  33  35
HETATM   35  C17 UNL     1       3.612  -3.429   0.456  1.00  0.00     0.189 C 
BRANCH  35  36
HETATM   36  O4  UNL     1       4.090  -4.533   1.159  1.00  0.00    -0.399 OA
ATOM     37  H4  UNL     1       4.606  -5.109   0.608  1.00  0.00     0.209 HD
ENDBRANCH  35  36
ENDBRANCH  33  35
ENDBRANCH  19  33
BRANCH  18  38
HETATM   38  O3  UNL     1       4.464  -0.476   0.526  1.00  0.00    -0.348 OA
ATOM     39  H3  UNL     1       4.478  -0.973   1.335  1.00  0.00     0.219 HD
ENDBRANCH  18  38
TORSDOF 8
