REMARK  9 active torsions:
REMARK  status: ('A' for Active; 'I' for Inactive)
REMARK    1  A    between atoms: C2_2  and  C3_3 
REMARK    2  A    between atoms: C2_2  and  C23_35 
REMARK    3  A    between atoms: C3_3  and  N1_4 
REMARK    4  A    between atoms: N1_4  and  C4_7 
REMARK    5  A    between atoms: C4_7  and  C5_8 
REMARK    6  A    between atoms: C4_7  and  C19_31 
REMARK       I    between atoms: C5_8  and  N2_10 
REMARK    7  A    between atoms: N2_10  and  C6_12 
REMARK    8  A    between atoms: C13_22  and  C14_23 
REMARK       I    between atoms: C14_23  and  N4_25 
REMARK    9  A    between atoms: N4_25  and  C15_27 
ROOT
HETATM    1  C6  UNL     1       0.596   0.104  -0.873  1.00  0.00     0.179 C 
HETATM    2  C7  UNL     1       0.767  -1.374  -1.155  1.00  0.00     0.069 C 
HETATM    3  C8  UNL     1       2.045  -2.012  -0.812  1.00  0.00     0.147 C 
HETATM    4  O2  UNL     1       3.009  -2.014  -1.832  1.00  0.00    -0.376 OA
HETATM    5  C9  UNL     1       4.266  -1.771  -1.332  1.00  0.00     0.156 C 
HETATM    6  C10 UNL     1       4.077  -2.058   0.169  1.00  0.00     0.062 C 
HETATM    7  C11 UNL     1       2.839  -1.195   0.231  1.00  0.00     0.120 C 
HETATM    8  N3  UNL     1       3.093  -0.024  -0.658  1.00  0.00    -0.327 N 
HETATM    9  C12 UNL     1       1.944   0.784  -0.775  1.00  0.00     0.244 C 
HETATM   10  O3  UNL     1       2.081   2.018  -0.797  1.00  0.00    -0.271 OA
HETATM   11  C13 UNL     1       4.420  -0.217  -1.136  1.00  0.00     0.208 C 
ENDROOT
BRANCH   1  12
HETATM   12  N2  UNL     1      -0.270   0.386   0.214  1.00  0.00    -0.346 N 
HETATM   13  C5  UNL     1      -1.600   0.866   0.008  1.00  0.00     0.250 C 
HETATM   14  O1  UNL     1      -1.956   1.021  -1.201  1.00  0.00    -0.271 OA
ATOM     15  H2  UNL     1       0.065   0.243   1.167  1.00  0.00     0.163 HD
BRANCH  13  16
HETATM   16  C4  UNL     1      -2.538   1.172   1.082  1.00  0.00     0.284 C 
BRANCH  16  17
HETATM   17  N1  UNL     1      -3.902   1.097   0.539  1.00  0.00    -0.061 N 
ATOM     18  H12 UNL     1      -4.037   1.762  -0.223  1.00  0.00     0.278 HD
ATOM     19  H11 UNL     1      -4.586   1.469   1.197  1.00  0.00     0.278 HD
BRANCH  17  20
HETATM   20  C3  UNL     1      -4.236  -0.238   0.135  1.00  0.00     0.238 C 
BRANCH  20  21
HETATM   21  C2  UNL     1      -5.674  -0.232  -0.378  1.00  0.00     0.014 C 
HETATM   22  C1  UNL     1      -6.631   0.214   0.699  1.00  0.00     0.012 C 
BRANCH  21  23
HETATM   23  C23 UNL     1      -5.991  -1.641  -0.889  1.00  0.00    -0.047 C 
HETATM   24  C24 UNL     1      -4.941  -1.942  -1.962  1.00  0.00     0.015 C 
HETATM   25  C25 UNL     1      -7.342  -1.599  -1.568  1.00  0.00     0.015 C 
HETATM   26  C26 UNL     1      -5.914  -2.666   0.212  1.00  0.00     0.015 C 
ENDBRANCH  21  23
ENDBRANCH  20  21
ENDBRANCH  17  20
ENDBRANCH  16  17
BRANCH  16  27
HETATM   27  C19 UNL     1      -2.404   2.566   1.638  1.00  0.00    -0.014 C 
HETATM   28  C20 UNL     1      -3.450   2.802   2.716  1.00  0.00     0.017 C 
HETATM   29  C21 UNL     1      -2.520   3.635   0.584  1.00  0.00     0.017 C 
HETATM   30  C22 UNL     1      -1.071   2.783   2.322  1.00  0.00     0.017 C 
ENDBRANCH  16  27
ENDBRANCH  13  16
ENDBRANCH   1  12
BRANCH  11  31
HETATM   31  C14 UNL     1       5.482   0.125  -0.209  1.00  0.00     0.243 C 
HETATM   32  O4  UNL     1       5.246   0.619   0.918  1.00  0.00    -0.271 OA
HETATM   33  N4  UNL     1       6.845  -0.079  -0.521  1.00  0.00    -0.355 N 
ATOM     34  H4  UNL     1       7.047  -0.477  -1.438  1.00  0.00     0.162 HD
BRANCH  33  35
HETATM   35  C15 UNL     1       7.970   0.213   0.310  1.00  0.00     0.084 C 
HETATM   36  C16 UNL     1       8.915   1.158  -0.429  1.00  0.00     0.025 C 
HETATM   37  C17 UNL     1       9.562  -0.103  -1.007  1.00  0.00     0.004 C 
HETATM   38  C18 UNL     1       9.097  -0.804   0.250  1.00  0.00     0.025 C 
ENDBRANCH  33  35
ENDBRANCH  11  31
TORSDOF 9
