REMARK  9 active torsions:
REMARK  status: ('A' for Active; 'I' for Inactive)
REMARK    1  A    between atoms: N1_2  and  C2_4 
REMARK    2  A    between atoms: C4_16  and  C5_17 
REMARK    3  A    between atoms: C5_17  and  N7_18 
REMARK    4  A    between atoms: C5_17  and  O4_34 
REMARK    5  A    between atoms: N7_18  and  C6_20 
REMARK    6  A    between atoms: C6_20  and  C7_21 
REMARK    7  A    between atoms: C9_23  and  O1_24 
REMARK    8  A    between atoms: C11_26  and  O2_27 
REMARK    9  A    between atoms: C12_29  and  O3_30 
ROOT
HETATM    1  C2  UNL     1       3.823   1.653  -0.832  1.00  0.00     0.694 A 
HETATM    2  N2  UNL     1       5.003   1.340  -0.292  1.00  0.00    -0.021 N 
ATOM      3  H2  UNL     1       5.768   2.010  -0.371  1.00  0.00     0.203 HD
HETATM    4  C3  UNL     1       5.227   0.184   0.349  1.00  0.00     0.714 A 
HETATM    5  N3  UNL     1       6.344  -0.112   0.860  1.00  0.00    -0.232 N 
ATOM      6  H31 UNL     1       6.514  -0.992   1.348  1.00  0.00     0.174 HD
ATOM      7  H32 UNL     1       7.136   0.529   0.807  1.00  0.00     0.174 HD
HETATM    8  N4  UNL     1       4.155  -0.683   0.421  1.00  0.00    -0.052 N 
HETATM    9  N5  UNL     1       4.088  -1.873   0.930  1.00  0.00    -0.219 N 
ATOM     10  H5  UNL     1       4.855  -2.359   1.395  1.00  0.00     0.209 HD
HETATM   11  N6  UNL     1       2.880  -2.357   0.754  1.00  0.00    -0.281 N 
ATOM     12  H6  UNL     1       2.567  -3.277   1.063  1.00  0.00     0.188 HD
HETATM   13  C4  UNL     1       2.078  -1.414   0.073  1.00  0.00     0.122 A 
HETATM   14  C15 UNL     1       2.964  -0.390  -0.106  1.00  0.00     0.190 A 
HETATM   15  N9  UNL     1       2.777   0.770  -0.738  1.00  0.00    -0.172 N 
ATOM     16  H9  UNL     1       1.870   0.997  -1.145  1.00  0.00     0.186 HD
ENDROOT
BRANCH  13  17
HETATM   17  C5  UNL     1       0.679  -1.662  -0.014  1.00  0.00     0.272 C 
BRANCH  17  18
HETATM   18  N7  UNL     1      -0.318  -1.097  -0.772  1.00  0.00    -0.387 N 
ATOM     19  H7  UNL     1      -0.783  -1.635  -1.503  1.00  0.00     0.156 HD
BRANCH  18  20
HETATM   20  C6  UNL     1      -0.698   0.282  -0.513  1.00  0.00     0.174 C 
BRANCH  20  21
HETATM   21  C7  UNL     1      -2.140   0.401  -0.279  1.00  0.00     0.031 A 
HETATM   22  C8  UNL     1      -2.821  -0.757  -0.002  1.00  0.00     0.066 A 
HETATM   23  C9  UNL     1      -4.142  -0.711   0.333  1.00  0.00     0.107 A 
HETATM   24  C11 UNL     1      -4.755   0.499   0.382  1.00  0.00     0.150 A 
HETATM   25  C12 UNL     1      -4.065   1.701   0.094  1.00  0.00     0.179 A 
HETATM   26  N8  UNL     1      -2.774   1.564  -0.225  1.00  0.00    -0.337 N 
ATOM     27  H8  UNL     1      -2.243   2.408  -0.441  1.00  0.00     0.168 HD
BRANCH  23  28
HETATM   28  O1  UNL     1      -4.830  -1.914   0.618  1.00  0.00    -0.353 OA
HETATM   29  C10 UNL     1      -4.057  -3.115   0.514  1.00  0.00     0.210 C 
ENDBRANCH  23  28
BRANCH  24  30
HETATM   30  O2  UNL     1      -6.069   0.631   0.720  1.00  0.00    -0.355 OA
ATOM     31  H2  UNL     1      -6.498   1.478   0.754  1.00  0.00     0.218 HD
ENDBRANCH  24  30
BRANCH  25  32
HETATM   32  O3  UNL     1      -4.730   2.898   0.156  1.00  0.00    -0.339 OA
HETATM   33  C13 UNL     1      -4.042   4.091  -0.138  1.00  0.00     0.211 C 
ENDBRANCH  25  32
ENDBRANCH  20  21
ENDBRANCH  18  20
ENDBRANCH  17  18
BRANCH  17  34
HETATM   34  O4  UNL     1       0.644  -3.063  -0.541  1.00  0.00    -0.366 OA
HETATM   35  C14 UNL     1       0.179  -3.925   0.402  1.00  0.00     0.204 C 
ENDBRANCH  17  34
ENDBRANCH  13  17
BRANCH   1  36
HETATM   36  N1  UNL     1       3.571   2.750  -1.487  1.00  0.00    -0.230 N 
HETATM   37  C1  UNL     1       4.677   3.716  -1.646  1.00  0.00     0.165 C 
ATOM     38  H1  UNL     1       2.646   2.935  -1.875  1.00  0.00     0.177 HD
ENDBRANCH   1  36
TORSDOF 9
