REMARK  2 active torsions:
REMARK  status: ('A' for Active; 'I' for Inactive)
REMARK    1  A    between atoms: C5_12  and  C6_13 
REMARK    2  A    between atoms: C10_17  and  C11_18 
ROOT
HETATM    1  C6  UNL     1       1.373   0.456   0.892  1.00  0.00    -0.034 A 
HETATM    2  C7  UNL     1       1.513  -0.254   2.057  1.00  0.00     0.011 A 
HETATM    3  C8  UNL     1       0.403  -0.848   2.670  1.00  0.00     0.002 A 
HETATM    4  C9  UNL     1      -0.843  -0.714   2.094  1.00  0.00     0.012 A 
HETATM    5  C10 UNL     1      -1.026  -0.001   0.914  1.00  0.00    -0.025 A 
HETATM    6  C18 UNL     1       0.086   0.568   0.339  1.00  0.00     0.023 A 
ENDROOT
BRANCH   1   7
HETATM    7  C5  UNL     1       2.481   1.071   0.211  1.00  0.00     0.034 C 
HETATM    8  C4  UNL     1       3.553   0.583  -0.329  1.00  0.00     0.101 A 
HETATM    9  C1  UNL     1       4.503   1.546  -0.948  1.00  0.00     0.263 A 
HETATM   10  C3  UNL     1       3.846  -0.836  -0.394  1.00  0.00     0.263 A 
HETATM   11  O1  UNL     1       4.309   2.790  -0.929  1.00  0.00    -0.267 OA
HETATM   12  N1  UNL     1       5.657   1.016  -1.574  1.00  0.00    -0.299 N 
HETATM   13  C2  UNL     1       5.913  -0.385  -1.618  1.00  0.00     0.181 A 
ATOM     14  H1  UNL     1       6.324   1.655  -2.006  1.00  0.00     0.171 HD
HETATM   15  S1  UNL     1       7.280  -0.913  -2.367  1.00  0.00    -0.040 SA
HETATM   16  N2  UNL     1       5.027  -1.321  -1.038  1.00  0.00    -0.299 N 
ATOM     17  H2  UNL     1       5.226  -2.321  -1.078  1.00  0.00     0.171 HD
HETATM   18  O2  UNL     1       3.072  -1.724   0.111  1.00  0.00    -0.267 OA
ENDBRANCH   1   7
BRANCH   5  19
HETATM   19  C11 UNL     1      -2.362   0.115   0.341  1.00  0.00    -0.025 A 
HETATM   20  C12 UNL     1      -2.733   1.230  -0.375  1.00  0.00     0.014 A 
HETATM   21  C13 UNL     1      -4.025   1.318  -0.914  1.00  0.00     0.033 A 
HETATM   22  C14 UNL     1      -4.931   0.302  -0.738  1.00  0.00     0.071 A 
HETATM   23  N3  UNL     1      -6.199   0.138  -1.139  1.00  0.00    -0.257 N 
HETATM   24  C16 UNL     1      -4.582  -0.830  -0.023  1.00  0.00     0.070 A 
HETATM   25  O3  UNL     1      -6.629  -1.020  -0.708  1.00  0.00    -0.194 OA
ATOM     26  H3  UNL     1      -6.739   0.805  -1.689  1.00  0.00     0.195 HD
HETATM   27  C15 UNL     1      -5.701  -1.631  -0.038  1.00  0.00     0.317 A 
HETATM   28  O4  UNL     1      -5.796  -2.751   0.501  1.00  0.00    -0.257 OA
HETATM   29  C17 UNL     1      -3.310  -0.897   0.498  1.00  0.00     0.032 A 
ENDBRANCH   5  19
TORSDOF 2
