REMARK  5 active torsions:
REMARK  status: ('A' for Active; 'I' for Inactive)
REMARK    1  A    between atoms: N1_8  and  O1_9 
REMARK    2  A    between atoms: C8_11  and  N2_12 
REMARK    3  A    between atoms: N2_12  and  C9_14 
REMARK    4  A    between atoms: C11_21  and  N6_22 
REMARK    5  A    between atoms: N6_22  and  C12_24 
ROOT
HETATM    1  C9  UNL     1      -0.014  -1.417  -0.588  1.00  0.00     0.701 A 
HETATM    2  N3  UNL     1       0.684  -2.475  -0.136  1.00  0.00    -0.162 N 
ATOM      3  H3  UNL     1       0.264  -3.404  -0.111  1.00  0.00     0.187 HD
HETATM    4  C10 UNL     1       1.948  -2.281   0.282  1.00  0.00     0.221 A 
HETATM    5  N4  UNL     1       2.753  -3.344   0.774  1.00  0.00    -0.062 NA
HETATM    6  N5  UNL     1       2.491  -1.050   0.244  1.00  0.00    -0.162 N 
ATOM      7  H5  UNL     1       3.450  -0.917   0.565  1.00  0.00     0.187 HD
HETATM    8  C11 UNL     1       1.792   0.015  -0.211  1.00  0.00     0.699 A 
HETATM    9  N7  UNL     1       0.528  -0.177  -0.629  1.00  0.00    -0.022 N 
ATOM     10  H7  UNL     1      -0.021   0.610  -0.976  1.00  0.00     0.203 HD
ENDROOT
BRANCH   1  11
HETATM   11  N2  UNL     1      -1.213  -1.620  -0.981  1.00  0.00    -0.173 N 
ATOM     12  H2  UNL     1      -1.569  -2.574  -0.928  1.00  0.00     0.186 HD
BRANCH  11  13
HETATM   13  C8  UNL     1      -2.084  -0.627  -1.483  1.00  0.00     0.158 A 
HETATM   14  N1  UNL     1      -1.933  -0.150  -2.748  1.00  0.00    -0.218 N 
HETATM   15  C7  UNL     1      -2.771   0.796  -3.210  1.00  0.00     0.126 A 
HETATM   16  C6  UNL     1      -3.774   1.269  -2.393  1.00  0.00     0.032 A 
HETATM   17  C5  UNL     1      -3.949   0.799  -1.099  1.00  0.00    -0.021 A 
HETATM   18  C4  UNL     1      -4.944   1.259  -0.267  1.00  0.00     0.013 A 
HETATM   19  C18 UNL     1      -3.083  -0.170  -0.639  1.00  0.00     0.021 A 
HETATM   20  C3  UNL     1      -5.091   0.763   1.030  1.00  0.00     0.007 A 
HETATM   21  C2  UNL     1      -4.231  -0.206   1.501  1.00  0.00    -0.061 A 
HETATM   22  C1  UNL     1      -4.356  -0.764   2.889  1.00  0.00     0.048 C 
HETATM   23  C19 UNL     1      -3.240  -0.654   0.652  1.00  0.00     0.023 A 
BRANCH  14  24
HETATM   24  O1  UNL     1      -0.928  -0.621  -3.575  1.00  0.00    -0.282 OA
ATOM     25  H1  UNL     1      -0.336  -1.289  -3.249  1.00  0.00     0.245 HD
ENDBRANCH  14  24
ENDBRANCH  11  13
ENDBRANCH   1  11
BRANCH   8  26
HETATM   26  N6  UNL     1       2.296   1.209  -0.256  1.00  0.00    -0.191 N 
ATOM     27  H6  UNL     1       1.751   1.999  -0.602  1.00  0.00     0.184 HD
BRANCH  26  28
HETATM   28  C12 UNL     1       3.638   1.380   0.195  1.00  0.00     0.049 A 
HETATM   29  C13 UNL     1       3.921   2.208   1.262  1.00  0.00     0.030 A 
HETATM   30  C14 UNL     1       5.212   2.397   1.725  1.00  0.00     0.002 A 
HETATM   31  C15 UNL     1       6.270   1.743   1.111  1.00  0.00     0.000 A 
HETATM   32  C16 UNL     1       6.008   0.913   0.046  1.00  0.00     0.002 A 
HETATM   33  C17 UNL     1       4.700   0.736  -0.407  1.00  0.00     0.030 A 
ENDBRANCH  26  28
ENDBRANCH   8  26
TORSDOF 5
