REMARK  5 active torsions:
REMARK  status: ('A' for Active; 'I' for Inactive)
REMARK    1  A    between atoms: N1_2  and  C2_4 
REMARK    2  A    between atoms: C7_11  and  N3_12 
REMARK    3  A    between atoms: N3_12  and  C8_14 
REMARK    4  A    between atoms: C11_17  and  S1_18 
REMARK    5  A    between atoms: S1_18  and  N4_19 
ROOT
HETATM    1  C2  UNL     1      -5.732  -0.276   0.155  1.00  0.00     0.225 A 
HETATM    2  N2  UNL     1      -5.223  -1.530   0.077  1.00  0.00    -0.320 N 
ATOM      3  H2  UNL     1      -5.762  -2.396   0.067  1.00  0.00     0.169 HD
HETATM    4  C3  UNL     1      -3.896  -1.434   0.015  1.00  0.00     0.071 A 
HETATM    5  C4  UNL     1      -2.898  -2.380  -0.075  1.00  0.00     0.033 A 
HETATM    6  C5  UNL     1      -1.577  -1.977  -0.123  1.00  0.00     0.018 A 
HETATM    7  C6  UNL     1      -1.219  -0.644  -0.085  1.00  0.00     0.020 A 
HETATM    8  C7  UNL     1       0.096  -0.244  -0.133  1.00  0.00     0.046 A 
HETATM    9  C14 UNL     1       0.364   1.105  -0.090  1.00  0.00     0.047 A 
HETATM   10  C15 UNL     1      -0.699   1.986   0.000  1.00  0.00     0.090 A 
HETATM   11  N5  UNL     1      -1.964   1.582   0.046  1.00  0.00    -0.363 N 
ATOM     12  H5  UNL     1      -2.714   2.270   0.112  1.00  0.00     0.165 HD
HETATM   13  C16 UNL     1      -2.257   0.288   0.006  1.00  0.00     0.081 A 
HETATM   14  C17 UNL     1      -3.580  -0.102   0.056  1.00  0.00     0.133 A 
HETATM   15  O3  UNL     1      -4.717   0.546   0.140  1.00  0.00    -0.275 OA
ENDROOT
BRANCH   8  16
HETATM   16  N3  UNL     1       1.031  -1.109  -0.216  1.00  0.00    -0.355 N 
ATOM     17  H3  UNL     1       0.751  -2.089  -0.243  1.00  0.00     0.166 HD
BRANCH  16  18
HETATM   18  C8  UNL     1       2.396  -0.843  -0.273  1.00  0.00     0.032 A 
HETATM   19  C9  UNL     1       3.092  -0.511   0.864  1.00  0.00     0.031 A 
HETATM   20  C10 UNL     1       4.451  -0.240   0.843  1.00  0.00     0.027 A 
HETATM   21  C11 UNL     1       5.139  -0.301  -0.342  1.00  0.00     0.079 A 
HETATM   22  C12 UNL     1       4.445  -0.634  -1.483  1.00  0.00     0.027 A 
HETATM   23  C13 UNL     1       3.076  -0.907  -1.466  1.00  0.00     0.031 A 
BRANCH  21  24
HETATM   24  S1  UNL     1       6.860   0.032  -0.426  1.00  0.00     0.256 S 
HETATM   25  O1  UNL     1       7.494  -0.816  -1.500  1.00  0.00    -0.201 OA
HETATM   26  O2  UNL     1       7.528  -0.384   0.875  1.00  0.00    -0.201 OA
BRANCH  24  27
HETATM   27  N4  UNL     1       7.126   1.696  -0.715  1.00  0.00    -0.324 N 
ATOM     28  H42 UNL     1       6.381   2.384  -0.821  1.00  0.00     0.169 HD
ATOM     29  H41 UNL     1       8.126   1.890  -0.764  1.00  0.00     0.169 HD
ENDBRANCH  24  27
ENDBRANCH  21  24
ENDBRANCH  16  18
ENDBRANCH   8  16
BRANCH   1  30
HETATM   30  N1  UNL     1      -7.007   0.013   0.231  1.00  0.00    -0.360 N 
HETATM   31  C1  UNL     1      -7.384   1.411   0.309  1.00  0.00     0.150 C 
ATOM     32  H1  UNL     1      -7.713  -0.723   0.235  1.00  0.00     0.162 HD
ENDBRANCH   1  30
TORSDOF 5
