REMARK  4 active torsions:
REMARK  status: ('A' for Active; 'I' for Inactive)
REMARK    1  A    between atoms: C6_6  and  C7_7 
REMARK       I    between atoms: C7_7  and  N1_9 
REMARK    2  A    between atoms: N1_9  and  C8_11 
REMARK    3  A    between atoms: C11_14  and  N2_15 
REMARK    4  A    between atoms: C12_20  and  C13_21 
ROOT
HETATM    1  C1  UNL     1       7.492   1.845   2.226  1.00  0.00     0.103 C 
HETATM    2  C2  UNL     1       6.722   1.138   1.592  1.00  0.00    -0.147 C 
HETATM    3  C3  UNL     1       5.822   0.291   0.862  1.00  0.00     0.020 A 
HETATM    4  C4  UNL     1       6.176  -0.193  -0.402  1.00  0.00     0.023 A 
HETATM    5  C5  UNL     1       5.295  -0.992  -1.059  1.00  0.00     0.037 A 
HETATM    6  C6  UNL     1       4.078  -1.330  -0.515  1.00  0.00     0.101 A 
HETATM    7  N7  UNL     1       3.781  -0.849   0.686  1.00  0.00    -0.360 N 
ATOM      8  H7  UNL     1       2.879  -1.097   1.092  1.00  0.00     0.165 HD
HETATM    9  C20 UNL     1       4.598  -0.054   1.400  1.00  0.00     0.108 A 
ENDROOT
BRANCH   6  10
HETATM   10  C7  UNL     1       3.197  -2.190  -1.290  1.00  0.00     0.273 C 
HETATM   11  O1  UNL     1       3.523  -2.621  -2.425  1.00  0.00    -0.266 OA
HETATM   12  N1  UNL     1       1.957  -2.541  -0.748  1.00  0.00    -0.308 N 
ATOM     13  H1  UNL     1       1.861  -3.476  -0.351  1.00  0.00     0.170 HD
BRANCH  12  14
HETATM   14  C8  UNL     1       0.925  -1.767  -0.714  1.00  0.00     0.108 A 
HETATM   15  C9  UNL     1      -0.280  -2.161  -0.166  1.00  0.00     0.066 A 
HETATM   16  C10 UNL     1      -1.388  -1.323  -0.131  1.00  0.00     0.039 A 
HETATM   17  C11 UNL     1      -2.584  -1.730   0.418  1.00  0.00     0.113 A 
HETATM   18  C18 UNL     1      -1.274  -0.049  -0.667  1.00  0.00     0.063 A 
HETATM   19  N3  UNL     1      -3.637  -0.852   0.419  1.00  0.00    -0.328 N 
HETATM   20  C12 UNL     1      -3.530   0.370  -0.094  1.00  0.00     0.117 A 
ATOM     21  H3  UNL     1      -4.526  -1.144   0.824  1.00  0.00     0.169 HD
HETATM   22  N5  UNL     1      -2.341   0.758  -0.634  1.00  0.00    -0.340 N 
ATOM     23  H5  UNL     1      -2.261   1.696  -1.027  1.00  0.00     0.167 HD
HETATM   24  C19 UNL     1      -0.075   0.321  -1.204  1.00  0.00     0.120 A 
HETATM   25  N6  UNL     1       0.994  -0.526  -1.222  1.00  0.00    -0.350 N 
ATOM     26  H6  UNL     1       1.871  -0.207  -1.633  1.00  0.00     0.166 HD
BRANCH  17  27
HETATM   27  N2  UNL     1      -2.714  -2.876   0.909  1.00  0.00    -0.385 N 
ATOM     28  H22 UNL     1      -1.931  -3.529   0.908  1.00  0.00     0.157 HD
ATOM     29  H21 UNL     1      -3.600  -3.177   1.316  1.00  0.00     0.157 HD
ENDBRANCH  17  27
BRANCH  20  30
HETATM   30  C13 UNL     1      -4.618   1.331  -0.114  1.00  0.00     0.011 A 
HETATM   31  C14 UNL     1      -5.851   1.030   0.406  1.00  0.00     0.032 A 
HETATM   32  C15 UNL     1      -6.893   1.962   0.382  1.00  0.00     0.088 A 
HETATM   33  N4  UNL     1      -6.677   3.177  -0.164  1.00  0.00    -0.375 N 
HETATM   34  C16 UNL     1      -5.487   3.514  -0.684  1.00  0.00     0.088 A 
ATOM     35  H4  UNL     1      -7.438   3.856  -0.182  1.00  0.00     0.164 HD
HETATM   36  C17 UNL     1      -4.470   2.597  -0.658  1.00  0.00     0.032 A 
ENDBRANCH  20  30
ENDBRANCH  12  14
ENDBRANCH   6  10
TORSDOF 4
