REMARK  4 active torsions:
REMARK  status: ('A' for Active; 'I' for Inactive)
REMARK    1  A    between atoms: C2_2  and  C3_3 
REMARK    2  A    between atoms: C3_3  and  S1_6 
REMARK    3  A    between atoms: S1_6  and  C6_7 
REMARK    4  A    between atoms: N1_14  and  O2_16 
ROOT
HETATM    1  C6  UNL     1      -0.512   0.579  -0.195  1.00  0.00     0.231 C 
HETATM    2  O1  UNL     1      -0.763  -0.637   0.369  1.00  0.00    -0.365 OA
HETATM    3  C7  UNL     1      -2.069  -0.865   0.735  1.00  0.00     0.119 C 
HETATM    4  C8  UNL     1      -2.299  -2.363   0.777  1.00  0.00     0.039 C 
HETATM    5  C9  UNL     1      -3.077  -0.309  -0.247  1.00  0.00     0.037 C 
HETATM    6  C10 UNL     1      -2.977   1.200  -0.368  1.00  0.00     0.060 C 
HETATM    7  C11 UNL     1      -1.581   1.574  -0.122  1.00  0.00     0.048 C 
HETATM    8  N1  UNL     1      -1.309   2.798   0.162  1.00  0.00    -0.274 N 
ATOM      9  H1  UNL     1      -0.335   3.046   0.333  1.00  0.00     0.193 HD
ENDROOT
BRANCH   1  10
HETATM   10  S1  UNL     1       1.046   1.205   0.548  1.00  0.00    -0.118 SA
BRANCH  10  11
HETATM   11  C3  UNL     1       2.365   0.106  -0.029  1.00  0.00     0.021 C 
HETATM   12  C4  UNL     1       2.042  -1.313   0.382  1.00  0.00     0.031 C 
HETATM   13  C5  UNL     1       2.378   0.224  -1.561  1.00  0.00     0.031 C 
BRANCH  11  14
HETATM   14  C2  UNL     1       3.694   0.522   0.505  1.00  0.00    -0.017 C 
HETATM   15  C1  UNL     1       4.759  -0.081   0.031  1.00  0.00     0.008 C 
ENDBRANCH  11  14
ENDBRANCH  10  11
ENDBRANCH   1  10
BRANCH   8  16
HETATM   16  O2  UNL     1      -2.255   3.791   0.249  1.00  0.00    -0.290 OA
ATOM     17  H2  UNL     1      -2.054   4.695   0.459  1.00  0.00     0.244 HD
ENDBRANCH   8  16
TORSDOF 4
