REMARK  3 active torsions:
REMARK  status: ('A' for Active; 'I' for Inactive)
REMARK    1  A    between atoms: N1_1  and  C1_5 
REMARK    2  A    between atoms: C1_5  and  N2_6 
REMARK    3  A    between atoms: C1_5  and  C2_10 
ROOT
HETATM    1  C2  UNL     1      -0.903  -0.086   0.857  1.00  0.00     0.234 A 
HETATM    2  N3  UNL     1       0.216   0.809   0.825  1.00  0.00    -0.356 N 
ATOM      3  H3  UNL     1       0.065   1.761   1.159  1.00  0.00     0.162 HD
HETATM    4  C3  UNL     1       1.389   0.509   0.411  1.00  0.00     0.151 A 
HETATM    5  N4  UNL     1       2.540   1.264   0.327  1.00  0.00    -0.292 N 
ATOM      6  H4  UNL     1       2.645   2.242   0.598  1.00  0.00     0.172 HD
HETATM    7  C4  UNL     1       3.489   0.475  -0.175  1.00  0.00     0.327 A 
HETATM    8  O1  UNL     1       4.686   0.877  -0.380  1.00  0.00    -0.247 OA
HETATM    9  N5  UNL     1       2.993  -0.750  -0.414  1.00  0.00    -0.291 N 
ATOM     10  H5  UNL     1       3.508  -1.543  -0.797  1.00  0.00     0.172 HD
HETATM   11  C5  UNL     1       1.672  -0.745  -0.051  1.00  0.00     0.156 A 
HETATM   12  N6  UNL     1       0.758  -1.640  -0.075  1.00  0.00    -0.308 N 
ATOM     13  H6  UNL     1       1.007  -2.564  -0.427  1.00  0.00     0.170 HD
HETATM   14  C6  UNL     1      -0.574  -1.434   0.354  1.00  0.00     0.250 A 
HETATM   15  O2  UNL     1      -1.450  -2.325   0.321  1.00  0.00    -0.271 OA
ENDROOT
BRANCH   1  16
HETATM   16  C1  UNL     1      -2.013   0.565   0.060  1.00  0.00     0.409 C 
BRANCH  16  17
HETATM   17  N1  UNL     1      -1.638   0.807  -1.306  1.00  0.00    -0.048 N 
ATOM     18  H13 UNL     1      -1.569  -0.060  -1.839  1.00  0.00     0.276 HD
ATOM     19  H12 UNL     1      -2.391   1.251  -1.832  1.00  0.00     0.276 HD
ATOM     20  H11 UNL     1      -0.775   1.348  -1.351  1.00  0.00     0.276 HD
ENDBRANCH  16  17
BRANCH  16  21
HETATM   21  N2  UNL     1      -3.244  -0.207   0.124  1.00  0.00    -0.048 N 
ATOM     22  H23 UNL     1      -3.997   0.237  -0.402  1.00  0.00     0.276 HD
ATOM     23  H22 UNL     1      -3.175  -1.074  -0.409  1.00  0.00     0.276 HD
ATOM     24  H21 UNL     1      -3.510  -0.379   1.094  1.00  0.00     0.276 HD
ENDBRANCH  16  21
ENDBRANCH   1  16
TORSDOF 3
