REMARK  5 active torsions:
REMARK  status: ('A' for Active; 'I' for Inactive)
REMARK    1  A    between atoms: C5_7  and  C6_8 
REMARK    2  A    between atoms: C6_8  and  C7_9 
REMARK    3  A    between atoms: C7_9  and  C8_10 
REMARK    4  A    between atoms: C8_10  and  C9_11 
REMARK    5  A    between atoms: C9_11  and  C10_12 
ROOT
HETATM    1  C7  UNL     1       0.229  -0.728   0.221  1.00  0.00     0.006 C 
ENDROOT
BRANCH   1   2
HETATM    2  C6  UNL     1       1.110   0.113  -0.641  1.00  0.00     0.057 C 
BRANCH   2   3
HETATM    3  C5  UNL     1       2.528   0.085  -0.259  1.00  0.00     0.009 A 
HETATM    4  N1  UNL     1       3.402   0.811  -0.979  1.00  0.00    -0.359 N 
HETATM    5  C4  UNL     1       4.725   0.859  -0.720  1.00  0.00     0.042 A 
ATOM      6  H1  UNL     1       3.045   1.355  -1.764  1.00  0.00     0.166 HD
HETATM    7  C3  UNL     1       5.596   1.615  -1.483  1.00  0.00     0.030 A 
HETATM    8  C20 UNL     1       5.269   0.147   0.328  1.00  0.00    -0.009 A 
HETATM    9  C2  UNL     1       6.951   1.674  -1.231  1.00  0.00     0.002 A 
HETATM   10  C1  UNL     1       7.491   0.961  -0.183  1.00  0.00     0.001 A 
HETATM   11  C21 UNL     1       6.628   0.205   0.582  1.00  0.00     0.013 A 
HETATM   12  C19 UNL     1       4.397  -0.613   1.094  1.00  0.00     0.015 A 
HETATM   13  C18 UNL     1       3.041  -0.640   0.799  1.00  0.00     0.026 A 
ENDBRANCH   2   3
ENDBRANCH   1   2
BRANCH   1  14
HETATM   14  C8  UNL     1      -1.183  -0.593  -0.305  1.00  0.00     0.005 C 
BRANCH  14  15
HETATM   15  C9  UNL     1      -2.166  -1.411   0.496  1.00  0.00     0.041 C 
BRANCH  15  16
HETATM   16  C10 UNL     1      -3.541  -1.279  -0.021  1.00  0.00    -0.030 A 
HETATM   17  C11 UNL     1      -4.214  -2.213  -0.773  1.00  0.00     0.096 A 
HETATM   18  N2  UNL     1      -5.438  -1.710  -1.043  1.00  0.00    -0.365 N 
HETATM   19  C12 UNL     1      -5.595  -0.491  -0.503  1.00  0.00     0.042 A 
ATOM     20  H2  UNL     1      -6.152  -2.194  -1.587  1.00  0.00     0.165 HD
HETATM   21  C13 UNL     1      -6.641   0.386  -0.510  1.00  0.00     0.030 A 
HETATM   22  C17 UNL     1      -4.391  -0.210   0.150  1.00  0.00    -0.002 A 
HETATM   23  C14 UNL     1      -6.504   1.585   0.146  1.00  0.00     0.002 A 
HETATM   24  C15 UNL     1      -5.347   1.912   0.801  1.00  0.00     0.001 A 
HETATM   25  C16 UNL     1      -4.306   1.008   0.793  1.00  0.00     0.014 A 
ENDBRANCH  15  16
ENDBRANCH  14  15
ENDBRANCH   1  14
TORSDOF 5
