REMARK  9 active torsions:
REMARK  status: ('A' for Active; 'I' for Inactive)
REMARK    1  A    between atoms: N1_1  and  C1_5 
REMARK    2  A    between atoms: C4_8  and  S1_9 
REMARK    3  A    between atoms: S1_9  and  C5_12 
REMARK    4  A    between atoms: C9_16  and  N2_17 
REMARK    5  A    between atoms: N2_17  and  S2_19 
REMARK    6  A    between atoms: S2_19  and  C10_22 
REMARK    7  A    between atoms: C10_22  and  C11_23 
REMARK    8  A    between atoms: C11_23  and  C12_24 
REMARK       I    between atoms: N3_27  and  C15_28 
REMARK    9  A    between atoms: C15_28  and  C16_30 
ROOT
HETATM    1  S2  UNL     1       0.436  -1.012   1.632  1.00  0.00     0.227 S 
HETATM    2  O3  UNL     1       0.014  -1.760   2.891  1.00  0.00    -0.206 OA
HETATM    3  O4  UNL     1       0.593   0.429   2.052  1.00  0.00    -0.206 OA
ENDROOT
BRANCH   1   4
HETATM    4  N2  UNL     1       1.873  -1.628   0.981  1.00  0.00    -0.313 N 
ATOM      5  H2  UNL     1       1.979  -2.608   0.719  1.00  0.00     0.172 HD
BRANCH   4   6
HETATM    6  C9  UNL     1       2.945  -0.659   0.823  1.00  0.00     0.124 C 
HETATM    7  C1  UNL     1       4.000  -1.004   1.816  1.00  0.00     0.206 C 
HETATM    8  C2  UNL     1       5.403  -0.779   1.392  1.00  0.00     0.036 C 
HETATM    9  C3  UNL     1       5.689  -1.138  -0.044  1.00  0.00     0.022 C 
HETATM   10  C4  UNL     1       4.757  -0.341  -0.909  1.00  0.00     0.111 C 
HETATM   11  C8  UNL     1       3.323  -0.519  -0.579  1.00  0.00     0.048 C 
BRANCH   7  12
HETATM   12  N1  UNL     1       3.810  -0.300   3.081  1.00  0.00    -0.073 N 
ATOM     13  H13 UNL     1       4.490  -0.568   3.793  1.00  0.00     0.274 HD
ATOM     14  H12 UNL     1       4.057   0.688   3.028  1.00  0.00     0.274 HD
ATOM     15  H11 UNL     1       2.845  -0.455   3.373  1.00  0.00     0.274 HD
ENDBRANCH   7  12
BRANCH  10  16
HETATM   16  S1  UNL     1       5.237   1.384  -0.978  1.00  0.00     0.152 S 
HETATM   17  O1  UNL     1       4.448   1.997  -2.117  1.00  0.00    -0.227 OA
HETATM   18  O2  UNL     1       4.906   2.127   0.249  1.00  0.00    -0.227 OA
BRANCH  16  19
HETATM   19  C5  UNL     1       6.949   1.475  -1.434  1.00  0.00     0.109 A 
HETATM   20  C6  UNL     1       8.017   1.557  -0.434  1.00  0.00     0.021 A 
HETATM   21  C7  UNL     1       7.598   2.827  -1.153  1.00  0.00     0.021 A 
ENDBRANCH  16  19
ENDBRANCH  10  16
ENDBRANCH   4   6
ENDBRANCH   1   4
BRANCH   1  22
HETATM   22  C10 UNL     1      -0.881  -1.099   0.462  1.00  0.00     0.163 C 
BRANCH  22  23
HETATM   23  C11 UNL     1      -0.566  -0.310  -0.763  1.00  0.00     0.023 C 
BRANCH  23  24
HETATM   24  C12 UNL     1      -1.698  -0.367  -1.784  1.00  0.00     0.006 C 
HETATM   25  C13 UNL     1      -1.983  -1.761  -2.232  1.00  0.00     0.026 C 
HETATM   26  C14 UNL     1      -3.379  -2.037  -1.784  1.00  0.00     0.126 C 
HETATM   27  N3  UNL     1      -3.797  -0.911  -0.988  1.00  0.00    -0.351 N 
HETATM   28  C15 UNL     1      -4.860  -0.887  -0.030  1.00  0.00     0.224 C 
HETATM   29  C22 UNL     1      -2.972   0.233  -1.299  1.00  0.00     0.130 C 
HETATM   30  O5  UNL     1      -5.506  -1.938   0.160  1.00  0.00    -0.273 OA
BRANCH  28  31
HETATM   31  C16 UNL     1      -5.192   0.362   0.727  1.00  0.00     0.078 C 
HETATM   32  C17 UNL     1      -5.583   1.471  -0.228  1.00  0.00     0.020 C 
HETATM   33  C18 UNL     1      -6.840   2.174   0.255  1.00  0.00     0.080 C 
HETATM   34  C19 UNL     1      -7.995   1.188   0.297  1.00  0.00     0.243 C 
HETATM   35  F1  UNL     1      -8.323   0.862  -1.014  1.00  0.00    -0.206 F 
HETATM   36  F2  UNL     1      -9.066   1.836   0.883  1.00  0.00    -0.206 F 
HETATM   37  C20 UNL     1      -7.637  -0.031   1.104  1.00  0.00     0.080 C 
HETATM   38  C21 UNL     1      -6.260   0.070   1.730  1.00  0.00     0.020 C 
ENDBRANCH  28  31
ENDBRANCH  23  24
ENDBRANCH  22  23
ENDBRANCH   1  22
TORSDOF 9
