REMARK  12 active torsions:
REMARK  status: ('A' for Active; 'I' for Inactive)
REMARK    1  A    between atoms: N1_1  and  C1_4 
REMARK    2  A    between atoms: N3_11  and  C4_12 
REMARK    3  A    between atoms: C4_12  and  C5_13 
REMARK    4  A    between atoms: C4_12  and  C6_16 
REMARK    5  A    between atoms: C5_13  and  O3_14 
REMARK    6  A    between atoms: C8_20  and  N4_21 
REMARK    7  A    between atoms: N5_24  and  C9_25 
REMARK    8  A    between atoms: C9_25  and  C10_26 
REMARK    9  A    between atoms: C12_32  and  C13_33 
REMARK   10  A    between atoms: C13_33  and  O8_34 
REMARK   11  A    between atoms: C13_33  and  O9_36 
REMARK   12  A    between atoms: C14_38  and  O10_39 
ROOT
HETATM    1  C1  UNL     1       0.696  -2.541   0.735  1.00  0.00     0.682 A 
HETATM    2  N2  UNL     1      -0.053  -2.526   1.834  1.00  0.00    -0.168 N 
ATOM      3  H2  UNL     1       0.229  -3.114   2.618  1.00  0.00     0.186 HD
HETATM    4  C2  UNL     1      -1.163  -1.776   1.967  1.00  0.00     0.198 A 
HETATM    5  O1  UNL     1      -2.036  -1.597   2.915  1.00  0.00    -0.241 OA
HETATM    6  C3  UNL     1      -2.961  -0.725   2.515  1.00  0.00     0.375 A 
HETATM    7  O2  UNL     1      -3.941  -0.347   3.214  1.00  0.00    -0.237 OA
HETATM    8  N3  UNL     1      -2.709  -0.301   1.264  1.00  0.00    -0.269 N 
HETATM    9  C7  UNL     1      -1.562  -0.968   0.906  1.00  0.00     0.137 A 
HETATM   10  C8  UNL     1      -0.769  -1.007  -0.214  1.00  0.00     0.149 A 
HETATM   11  N5  UNL     1       0.335  -1.772  -0.308  1.00  0.00    -0.161 N 
ENDROOT
BRANCH  11  12
HETATM   12  C9  UNL     1       1.096  -1.771  -1.503  1.00  0.00     0.209 C 
BRANCH  12  13
HETATM   13  C10 UNL     1       2.165  -0.804  -1.679  1.00  0.00     0.069 A 
HETATM   14  N6  UNL     1       2.814  -0.854  -2.864  1.00  0.00    -0.302 N 
HETATM   15  C11 UNL     1       3.814  -0.001  -3.120  1.00  0.00     0.370 A 
ATOM     16  H6  UNL     1       2.541  -1.543  -3.565  1.00  0.00     0.171 HD
HETATM   17  O6  UNL     1       4.395  -0.087  -4.248  1.00  0.00    -0.238 OA
HETATM   18  O7  UNL     1       4.171   0.885  -2.231  1.00  0.00    -0.258 OA
HETATM   19  C12 UNL     1       3.583   1.003  -1.038  1.00  0.00     0.147 A 
HETATM   20  C14 UNL     1       2.557   0.137  -0.756  1.00  0.00     0.125 A 
BRANCH  19  21
HETATM   21  C13 UNL     1       4.081   2.065  -0.108  1.00  0.00     0.316 C 
BRANCH  21  22
HETATM   22  O8  UNL     1       3.120   2.844   0.460  1.00  0.00    -0.365 OA
ATOM     23  H8  UNL     1       3.436   3.518   1.050  1.00  0.00     0.213 HD
ENDBRANCH  21  22
BRANCH  21  24
HETATM   24  O9  UNL     1       4.933   2.897  -0.832  1.00  0.00    -0.365 OA
ATOM     25  H9  UNL     1       5.249   3.571  -0.242  1.00  0.00     0.213 HD
ENDBRANCH  21  24
ENDBRANCH  19  21
BRANCH  20  26
HETATM   26  O10 UNL     1       1.926   0.220   0.465  1.00  0.00    -0.356 OA
ATOM     27  H10 UNL     1       2.197   0.870   1.103  1.00  0.00     0.218 HD
ENDBRANCH  20  26
ENDBRANCH  12  13
ENDBRANCH  11  12
BRANCH   1  28
HETATM   28  N1  UNL     1       1.773  -3.298   0.650  1.00  0.00    -0.234 N 
ATOM     29  H12 UNL     1       2.047  -3.881   1.441  1.00  0.00     0.174 HD
ATOM     30  H11 UNL     1       2.347  -3.310  -0.193  1.00  0.00     0.174 HD
ENDBRANCH   1  28
BRANCH  10  31
HETATM   31  N4  UNL     1      -1.141  -0.255  -1.203  1.00  0.00    -0.383 N 
ATOM     32  H42 UNL     1      -1.977   0.325  -1.132  1.00  0.00     0.157 HD
ATOM     33  H41 UNL     1      -0.552  -0.284  -2.035  1.00  0.00     0.157 HD
ENDBRANCH  10  31
BRANCH   8  34
HETATM   34  C4  UNL     1      -3.387   0.616   0.400  1.00  0.00     0.220 C 
BRANCH  34  35
HETATM   35  C5  UNL     1      -4.806   0.867   0.895  1.00  0.00     0.201 C 
BRANCH  35  36
HETATM   36  O3  UNL     1      -5.471   1.740   0.017  1.00  0.00    -0.398 OA
ATOM     37  H3  UNL     1      -6.356   1.896   0.326  1.00  0.00     0.209 HD
ENDBRANCH  35  36
ENDBRANCH  34  35
BRANCH  34  38
HETATM   38  C6  UNL     1      -2.722   1.974   0.428  1.00  0.00     0.199 C 
HETATM   39  O4  UNL     1      -1.779   2.200   1.207  1.00  0.00    -0.646 OA
HETATM   40  O5  UNL     1      -3.164   2.970  -0.414  1.00  0.00    -0.646 OA
ENDBRANCH  34  38
ENDBRANCH   8  34
TORSDOF 12
