REMARK  16 active torsions:
REMARK  status: ('A' for Active; 'I' for Inactive)
REMARK    1  A    between atoms: O1_2  and  C2_3 
REMARK    2  A    between atoms: C5_8  and  O3_9 
REMARK    3  A    between atoms: O3_9  and  C6_10 
REMARK    4  A    between atoms: C6_10  and  O4_11 
REMARK    5  A    between atoms: O4_11  and  C7_12 
REMARK    6  A    between atoms: C7_12  and  C8_13 
REMARK    7  A    between atoms: C9_19  and  N4_20 
REMARK    8  A    between atoms: C13_28  and  O7_29 
REMARK    9  A    between atoms: O7_29  and  C14_30 
REMARK   10  A    between atoms: C15_35  and  C16_36 
REMARK   11  A    between atoms: N8_42  and  N9_44 
REMARK       I    between atoms: N9_44  and  C19_46 
REMARK   12  A    between atoms: C19_46  and  O9_48 
REMARK   13  A    between atoms: O9_48  and  C20_49 
REMARK   14  A    between atoms: C20_49  and  C21_50 
REMARK   15  A    between atoms: C21_50  and  N10_51 
REMARK   16  A    between atoms: C23_57  and  O10_58 
ROOT
HETATM    1  C2  UNL     1       0.596   1.775   0.368  1.00  0.00     0.175 C 
HETATM    2  C3  UNL     1      -0.104   2.096  -1.090  1.00  0.00     0.259 C 
HETATM    3  O2  UNL     1       0.439   2.593  -2.026  1.00  0.00    -0.270 OA
HETATM    4  N1  UNL     1      -1.075   1.558  -0.387  1.00  0.00    -0.324 N 
HETATM    5  C4  UNL     1      -1.891   0.454  -0.164  1.00  0.00     0.149 C 
HETATM    6  C5  UNL     1      -3.082   0.800   0.640  1.00  0.00     0.171 C 
HETATM    7  C10 UNL     1      -2.835   1.648   1.853  1.00  0.00     0.161 C 
HETATM    8  S1  UNL     1      -3.867   3.172   1.704  1.00  0.00    -0.081 SA
HETATM    9  C11 UNL     1      -1.445   2.134   1.880  1.00  0.00     0.170 C 
HETATM   10  O6  UNL     1      -0.951   2.209   3.027  1.00  0.00    -0.294 OA
HETATM   11  C12 UNL     1      -0.757   2.481   0.676  1.00  0.00     0.203 C 
HETATM   12  C13 UNL     1      -0.822  -0.402   0.617  1.00  0.00     0.165 C 
HETATM   13  C15 UNL     1       0.531   0.296   0.472  1.00  0.00     0.079 C 
ENDROOT
BRANCH  13  14
HETATM   14  C16 UNL     1       1.338  -0.386  -0.617  1.00  0.00     0.090 C 
HETATM   15  C17 UNL     1       2.784  -0.073  -0.596  1.00  0.00     0.048 C 
HETATM   16  N7  UNL     1       3.390   0.766  -1.336  1.00  0.00    -0.399 N 
HETATM   17  C18 UNL     1       3.503  -0.880   0.392  1.00  0.00     0.112 C 
ATOM     18  H72 UNL     1       2.889   1.328  -2.024  1.00  0.00     0.156 HD
ATOM     19  H71 UNL     1       4.387   0.982  -1.322  1.00  0.00     0.156 HD
HETATM   20  N8  UNL     1       4.646  -0.785   0.912  1.00  0.00    -0.288 N 
HETATM   21  S2  UNL     1       2.343  -2.226   0.834  1.00  0.00    -0.071 SA
ATOM     22  H8  UNL     1       4.876  -1.515   1.586  1.00  0.00     0.188 HD
HETATM   23  C22 UNL     1       1.267  -1.858  -0.595  1.00  0.00     0.017 C 
HETATM   24  C23 UNL     1       0.736  -2.795  -1.315  1.00  0.00     0.146 C 
BRANCH  20  25
HETATM   25  N9  UNL     1       5.632   0.152   0.710  1.00  0.00    -0.244 N 
HETATM   26  C19 UNL     1       6.940  -0.266   0.368  1.00  0.00     0.379 C 
HETATM   27  O8  UNL     1       7.201  -1.513   0.247  1.00  0.00    -0.237 OA
ATOM     28  H9  UNL     1       5.421   1.145   0.806  1.00  0.00     0.192 HD
BRANCH  26  29
HETATM   29  O9  UNL     1       7.985   0.595   0.147  1.00  0.00    -0.301 OA
BRANCH  29  30
HETATM   30  C20 UNL     1       9.290   0.267  -0.192  1.00  0.00     0.207 C 
BRANCH  30  31
HETATM   31  C21 UNL     1       9.430  -0.480  -1.492  1.00  0.00     0.256 C 
BRANCH  31  32
HETATM   32  N10 UNL     1      10.864  -0.729  -1.668  1.00  0.00    -0.077 N 
ATOM     33 3H10 UNL     1      11.431   0.118  -1.623  1.00  0.00     0.274 HD
ATOM     34 2H10 UNL     1      11.293  -1.208  -0.876  1.00  0.00     0.274 HD
ATOM     35 1H10 UNL     1      10.959  -1.235  -2.549  1.00  0.00     0.274 HD
ENDBRANCH  31  32
ENDBRANCH  30  31
ENDBRANCH  29  30
ENDBRANCH  26  29
ENDBRANCH  20  25
BRANCH  24  36
HETATM   36  O10 UNL     1      -0.017  -2.547  -2.481  1.00  0.00    -0.372 OA
ATOM     37  H10 UNL     1      -0.406  -3.234  -3.009  1.00  0.00     0.216 HD
ENDBRANCH  24  36
ENDBRANCH  13  14
BRANCH   1  38
HETATM   38  O1  UNL     1       1.632   2.493   0.597  1.00  0.00    -0.372 OA
HETATM   39  C1  UNL     1       2.319   2.529   1.762  1.00  0.00     0.203 C 
ENDBRANCH   1  38
BRANCH  12  40
HETATM   40  O7  UNL     1      -1.151  -0.889   1.835  1.00  0.00    -0.317 OA
BRANCH  40  41
HETATM   41  C14 UNL     1      -2.129  -1.825   2.126  1.00  0.00     0.225 C 
HETATM   42  N5  UNL     1      -2.313  -2.703   1.184  1.00  0.00    -0.368 N 
ATOM     43  H52 UNL     1      -1.780  -2.692   0.315  1.00  0.00     0.159 HD
ATOM     44  H51 UNL     1      -3.033  -3.393   1.398  1.00  0.00     0.159 HD
HETATM   45  N6  UNL     1      -2.867  -1.840   3.329  1.00  0.00    -0.057 NA
ENDBRANCH  40  41
ENDBRANCH  12  40
BRANCH   6  46
HETATM   46  O3  UNL     1      -4.022   1.495  -0.199  1.00  0.00    -0.358 OA
BRANCH  46  47
HETATM   47  C6  UNL     1      -5.206   0.728  -0.161  1.00  0.00     0.338 C 
BRANCH  47  48
HETATM   48  O4  UNL     1      -6.181   1.301  -0.933  1.00  0.00    -0.361 OA
BRANCH  48  49
HETATM   49  C7  UNL     1      -7.354   0.641  -0.955  1.00  0.00     0.233 C 
BRANCH  49  50
HETATM   50  C8  UNL     1      -7.412  -0.698  -1.533  1.00  0.00     0.103 A 
HETATM   51  N2  UNL     1      -6.449  -1.396  -2.106  1.00  0.00    -0.240 N 
HETATM   52  O5  UNL     1      -6.911  -2.530  -2.507  1.00  0.00    -0.155 OA
ATOM     53  H2  UNL     1      -5.484  -1.084  -2.215  1.00  0.00     0.196 HD
HETATM   54  N3  UNL     1      -8.172  -2.640  -2.228  1.00  0.00    -0.224 N 
HETATM   55  C9  UNL     1      -8.554  -1.515  -1.610  1.00  0.00     0.148 A 
ATOM     56  H3  UNL     1      -8.767  -3.441  -2.441  1.00  0.00     0.198 HD
BRANCH  55  57
HETATM   57  N4  UNL     1      -9.718  -1.258  -1.188  1.00  0.00    -0.382 N 
ATOM     58  H42 UNL     1     -10.009  -0.401  -0.717  1.00  0.00     0.157 HD
ATOM     59  H41 UNL     1     -10.546  -1.851  -1.244  1.00  0.00     0.157 HD
ENDBRANCH  55  57
ENDBRANCH  49  50
ENDBRANCH  48  49
ENDBRANCH  47  48
ENDBRANCH  46  47
ENDBRANCH   6  46
TORSDOF 16
