REMARK  16 active torsions:
REMARK  status: ('A' for Active; 'I' for Inactive)
REMARK    1  A    between atoms: N1_1  and  C1_5 
REMARK    2  A    between atoms: C1_5  and  C2_6 
REMARK    3  A    between atoms: C2_6  and  O1_7 
REMARK    4  A    between atoms: O1_7  and  C3_8 
REMARK    5  A    between atoms: C8_14  and  O2_15 
REMARK    6  A    between atoms: C12_25  and  O4_26 
REMARK    7  A    between atoms: O4_26  and  C13_27 
REMARK    8  A    between atoms: C13_27  and  C14_28 
REMARK    9  A    between atoms: C14_28  and  S1_29 
REMARK   10  A    between atoms: S1_29  and  C15_30 
REMARK   11  A    between atoms: C18_36  and  O6_37 
REMARK   12  A    between atoms: C19_41  and  N7_42 
REMARK   13  A    between atoms: N7_42  and  C20_44 
REMARK   14  A    between atoms: C20_44  and  O7_45 
REMARK   15  A    between atoms: C20_44  and  C21_47 
REMARK   16  A    between atoms: C23_51  and  N9_52 
ROOT
HETATM    1  C3  UNL     1      -3.466  -3.275  -0.374  1.00  0.00     0.126 A 
HETATM    2  C4  UNL     1      -3.218  -4.216  -1.348  1.00  0.00     0.083 A 
HETATM    3  N2  UNL     1      -3.910  -5.465  -1.333  1.00  0.00    -0.099 NA
HETATM    4  C5  UNL     1      -2.296  -3.908  -2.319  1.00  0.00     0.047 A 
HETATM    5  C6  UNL     1      -1.640  -2.667  -2.296  1.00  0.00     0.045 A 
HETATM    6  C7  UNL     1      -1.882  -1.721  -1.323  1.00  0.00     0.026 A 
HETATM    7  C8  UNL     1      -2.808  -2.036  -0.354  1.00  0.00     0.111 A 
HETATM    8  C9  UNL     1      -1.127  -0.420  -1.287  1.00  0.00     0.106 A 
HETATM    9  C10 UNL     1      -0.830  -0.031  -2.728  1.00  0.00     0.161 C 
HETATM   10  N3  UNL     1      -0.074  -1.064  -3.390  1.00  0.00    -0.354 N 
ATOM     11  H3  UNL     1       0.831  -0.894  -3.830  1.00  0.00     0.162 HD
HETATM   12  C11 UNL     1      -0.710  -2.361  -3.376  1.00  0.00     0.252 C 
HETATM   13  O3  UNL     1      -0.479  -3.215  -4.261  1.00  0.00    -0.268 OA
HETATM   14  N4  UNL     1      -1.711   0.650  -0.616  1.00  0.00    -0.355 N 
ATOM     15  H4  UNL     1      -2.572   1.170  -0.782  1.00  0.00     0.162 HD
HETATM   16  C12 UNL     1      -0.819   0.759   0.263  1.00  0.00     0.140 A 
HETATM   17  C19 UNL     1      -0.063  -0.353  -0.285  1.00  0.00     0.189 A 
ENDROOT
BRANCH  17  18
HETATM   18  N7  UNL     1       1.295  -0.241  -0.537  1.00  0.00    -0.378 N 
ATOM     19  H7  UNL     1       1.884  -1.024  -0.255  1.00  0.00     0.157 HD
BRANCH  18  20
HETATM   20  C20 UNL     1       1.928   0.840  -1.139  1.00  0.00     0.268 C 
BRANCH  20  21
HETATM   21  O7  UNL     1       1.738   2.065  -0.452  1.00  0.00    -0.371 OA
ATOM     22  H7  UNL     1       2.171   2.804  -0.863  1.00  0.00     0.212 HD
ENDBRANCH  20  21
BRANCH  20  23
HETATM   23  C21 UNL     1       3.427   0.597  -0.961  1.00  0.00     0.090 A 
HETATM   24  C22 UNL     1       4.278   0.803  -1.991  1.00  0.00     0.137 A 
HETATM   25  N8  UNL     1       5.600   0.571  -1.832  1.00  0.00    -0.199 N 
HETATM   26  C23 UNL     1       6.069   0.135  -0.648  1.00  0.00     0.694 A 
ATOM     27  H8  UNL     1       6.242   0.726  -2.609  1.00  0.00     0.183 HD
HETATM   28  N10 UNL     1       5.219  -0.064   0.368  1.00  0.00    -0.132 N 
HETATM   29  N11 UNL     1       3.916   0.164   0.213  1.00  0.00    -0.285 N 
ATOM     30  H10 UNL     1       5.572  -0.392   1.267  1.00  0.00     0.205 HD
ATOM     31  H11 UNL     1       3.281   0.008   0.996  1.00  0.00     0.187 HD
BRANCH  26  32
HETATM   32  N9  UNL     1       7.448  -0.131  -0.442  1.00  0.00    -0.212 N 
HETATM   33  C24 UNL     1       8.386   0.157  -1.513  1.00  0.00     0.167 C 
HETATM   34  C25 UNL     1       9.648   0.715  -0.920  1.00  0.00     0.188 C 
HETATM   35  O8  UNL     1      10.166  -0.265  -0.067  1.00  0.00    -0.388 OA
HETATM   36  C26 UNL     1       9.379  -0.389   1.077  1.00  0.00     0.188 C 
HETATM   37  C27 UNL     1       7.938  -0.680   0.780  1.00  0.00     0.167 C 
ENDBRANCH  26  32
ENDBRANCH  20  23
ENDBRANCH  18  20
ENDBRANCH  17  18
BRANCH   7  38
HETATM   38  O2  UNL     1      -3.126  -1.163   0.660  1.00  0.00    -0.357 OA
ATOM     39  H2  UNL     1      -2.680  -0.324   0.674  1.00  0.00     0.217 HD
ENDBRANCH   7  38
BRANCH  16  40
HETATM   40  O4  UNL     1      -0.759   1.696   1.326  1.00  0.00    -0.337 OA
BRANCH  40  41
HETATM   41  C13 UNL     1      -1.388   2.975   1.128  1.00  0.00     0.187 C 
BRANCH  41  42
HETATM   42  C14 UNL     1      -1.255   3.863   2.316  1.00  0.00     0.109 C 
BRANCH  42  43
HETATM   43  S1  UNL     1      -2.065   5.424   1.972  1.00  0.00    -0.092 SA
BRANCH  43  44
HETATM   44  C15 UNL     1      -3.821   5.170   1.839  1.00  0.00     0.149 A 
HETATM   45  N5  UNL     1      -4.427   3.995   2.018  1.00  0.00    -0.304 N 
HETATM   46  C16 UNL     1      -5.745   3.805   1.926  1.00  0.00     0.251 A 
ATOM     47  H5  UNL     1      -3.844   3.188   2.240  1.00  0.00     0.171 HD
HETATM   48  O5  UNL     1      -6.290   2.689   2.099  1.00  0.00    -0.268 OA
HETATM   49  C17 UNL     1      -6.526   4.894   1.625  1.00  0.00     0.130 A 
HETATM   50  C18 UNL     1      -5.921   6.128   1.433  1.00  0.00     0.147 A 
HETATM   51  N6  UNL     1      -4.592   6.250   1.542  1.00  0.00    -0.317 N 
ATOM     52  H6  UNL     1      -4.154   7.161   1.401  1.00  0.00     0.170 HD
BRANCH  50  53
HETATM   53  O6  UNL     1      -6.752   7.204   1.129  1.00  0.00    -0.346 OA
ATOM     54  H6  UNL     1      -6.338   8.049   0.998  1.00  0.00     0.219 HD
ENDBRANCH  50  53
ENDBRANCH  43  44
ENDBRANCH  42  43
ENDBRANCH  41  42
ENDBRANCH  40  41
ENDBRANCH  16  40
BRANCH   1  55
HETATM   55  O1  UNL     1      -4.398  -3.607   0.593  1.00  0.00    -0.345 OA
BRANCH  55  56
HETATM   56  C2  UNL     1      -4.066  -4.254   1.789  1.00  0.00     0.203 C 
BRANCH  56  57
HETATM   57  C1  UNL     1      -5.279  -4.501   2.667  1.00  0.00     0.256 C 
BRANCH  57  58
HETATM   58  N1  UNL     1      -6.278  -5.317   2.046  1.00  0.00    -0.077 N 
ATOM     59  H13 UNL     1      -6.557  -4.924   1.147  1.00  0.00     0.274 HD
ATOM     60  H12 UNL     1      -5.877  -6.199   1.728  1.00  0.00     0.274 HD
ATOM     61  H11 UNL     1      -7.093  -5.483   2.636  1.00  0.00     0.274 HD
ENDBRANCH  57  58
ENDBRANCH  56  57
ENDBRANCH  55  56
ENDBRANCH   1  55
TORSDOF 16
