REMARK  3 active torsions:
REMARK  status: ('A' for Active; 'I' for Inactive)
REMARK    1  A    between atoms: N2_4  and  C1_6 
REMARK    2  A    between atoms: N4_11  and  N5_12 
REMARK    3  A    between atoms: C6_19  and  N7_20 
ROOT
HETATM    1  C1  UNL     1      -1.972   0.308   0.287  1.00  0.00     0.093 A 
HETATM    2  C2  UNL     1      -0.937   1.215   0.184  1.00  0.00     0.068 A 
HETATM    3  C3  UNL     1       0.357   0.709   0.172  1.00  0.00     0.080 A 
HETATM    4  N3  UNL     1       1.578   1.224   0.089  1.00  0.00    -0.278 N 
ATOM      5  H3  UNL     1       1.768   2.223   0.009  1.00  0.00     0.189 HD
HETATM    6  N4  UNL     1       2.521   0.296   0.121  1.00  0.00    -0.212 N 
HETATM    7  C4  UNL     1       1.897  -0.884   0.229  1.00  0.00     0.167 A 
HETATM    8  C5  UNL     1       0.535  -0.673   0.264  1.00  0.00     0.081 A 
HETATM    9  N6  UNL     1      -0.522  -1.510   0.363  1.00  0.00    -0.338 N 
ATOM     10  H6  UNL     1      -0.355  -2.514   0.428  1.00  0.00     0.167 HD
HETATM   11  C6  UNL     1      -1.787  -1.055   0.378  1.00  0.00     0.128 A 
ENDROOT
BRANCH   1  12
HETATM   12  N2  UNL     1      -3.300   0.806   0.301  1.00  0.00    -0.304 N 
HETATM   13  N1  UNL     1      -3.663   1.913  -0.143  1.00  0.00    -0.345 N 
ATOM     14  H12 UNL     1      -2.931   2.497  -0.547  1.00  0.00     0.176 HD
ATOM     15  H11 UNL     1      -4.618   2.271  -0.133  1.00  0.00     0.176 HD
ATOM     16  H2  UNL     1      -4.019   0.208   0.709  1.00  0.00     0.186 HD
ENDBRANCH   1  12
BRANCH  11  17
HETATM   17  N7  UNL     1      -2.788  -1.877   0.474  1.00  0.00    -0.384 N 
ATOM     18  H72 UNL     1      -3.748  -1.532   0.485  1.00  0.00     0.157 HD
ATOM     19  H71 UNL     1      -2.651  -2.886   0.541  1.00  0.00     0.157 HD
ENDBRANCH  11  17
BRANCH   6  20
HETATM   20  N5  UNL     1       3.903   0.566   0.050  1.00  0.00    -0.324 N 
ATOM     21  H52 UNL     1       4.378   1.465  -0.032  1.00  0.00     0.178 HD
ATOM     22  H51 UNL     1       4.630  -0.149   0.075  1.00  0.00     0.178 HD
ENDBRANCH   6  20
TORSDOF 3
