REMARK  3 active torsions:
REMARK  status: ('A' for Active; 'I' for Inactive)
REMARK    1  A    between atoms: C4_9  and  N4_10 
REMARK    2  A    between atoms: N4_10  and  N5_12 
REMARK    3  A    between atoms: N5_12  and  O1_14 
ROOT
HETATM    1  N1  UNL     1       3.761  -0.080  -0.151  1.00  0.00    -0.062 NA
HETATM    2  C1  UNL     1       2.325  -0.075  -0.134  1.00  0.00     0.208 A 
HETATM    3  N2  UNL     1       1.639  -1.081   0.273  1.00  0.00    -0.314 N 
ATOM      4  H2  UNL     1       2.134  -1.912   0.595  1.00  0.00     0.170 HD
HETATM    5  C2  UNL     1       0.204  -1.084   0.293  1.00  0.00     0.138 A 
HETATM    6  N3  UNL     1      -0.734  -1.996   0.674  1.00  0.00    -0.348 N 
ATOM      7  H3  UNL     1      -0.516  -2.923   1.041  1.00  0.00     0.167 HD
HETATM    8  C3  UNL     1      -1.961  -1.532   0.510  1.00  0.00     0.123 A 
HETATM    9  C4  UNL     1      -1.848  -0.255  -0.003  1.00  0.00     0.097 A 
HETATM   10  C5  UNL     1      -0.487   0.027  -0.138  1.00  0.00     0.122 A 
HETATM   11  N6  UNL     1       0.253   1.146  -0.591  1.00  0.00    -0.293 N 
ATOM     12  H6  UNL     1      -0.232   1.982  -0.917  1.00  0.00     0.187 HD
HETATM   13  N7  UNL     1       1.651   1.100  -0.590  1.00  0.00    -0.273 N 
ATOM     14  H7  UNL     1       2.189   1.904  -0.914  1.00  0.00     0.189 HD
ENDROOT
BRANCH   9  15
HETATM   15  N4  UNL     1      -2.876   0.665  -0.347  1.00  0.00    -0.278 N 
ATOM     16  H4  UNL     1      -3.292   0.624  -1.277  1.00  0.00     0.189 HD
BRANCH  15  17
HETATM   17  N5  UNL     1      -3.335   1.638   0.575  1.00  0.00    -0.210 N 
ATOM     18  H5  UNL     1      -4.317   1.911   0.624  1.00  0.00     0.215 HD
BRANCH  17  19
HETATM   19  O1  UNL     1      -2.466   2.148   1.330  1.00  0.00    -0.274 OA
ATOM     20  H1  UNL     1      -2.774   2.800   1.948  1.00  0.00     0.246 HD
ENDBRANCH  17  19
ENDBRANCH  15  17
ENDBRANCH   9  15
TORSDOF 3
