REMARK  3 active torsions:
REMARK  status: ('A' for Active; 'I' for Inactive)
REMARK    1  A    between atoms: C3_3  and  C4_4 
REMARK       I    between atoms: C4_4  and  N1_6 
REMARK    2  A    between atoms: N1_6  and  N2_8 
REMARK    3  A    between atoms: C7_18  and  N6_19 
ROOT
HETATM    1  C1  UNL     1      -0.753  -2.174   0.617  1.00  0.00     0.055 C 
HETATM    2  C2  UNL     1      -0.878  -0.747   0.216  1.00  0.00     0.014 A 
HETATM    3  C3  UNL     1       0.230   0.029  -0.026  1.00  0.00     0.114 A 
HETATM    4  N3  UNL     1       0.081   1.337  -0.392  1.00  0.00    -0.329 N 
ATOM      5  H3  UNL     1       0.910   1.904  -0.570  1.00  0.00     0.168 HD
HETATM    6  C5  UNL     1      -1.126   1.885  -0.521  1.00  0.00     0.190 A 
HETATM    7  C6  UNL     1      -1.287   3.283  -0.912  1.00  0.00     0.137 C 
HETATM    8  N4  UNL     1      -1.421   4.377  -1.210  1.00  0.00    -0.188 NA
HETATM    9  N5  UNL     1      -2.202   1.144  -0.289  1.00  0.00    -0.320 N 
ATOM     10  H5  UNL     1      -3.122   1.572  -0.391  1.00  0.00     0.169 HD
HETATM   11  C7  UNL     1      -2.127  -0.167   0.080  1.00  0.00     0.109 A 
ENDROOT
BRANCH   3  12
HETATM   12  C4  UNL     1       1.568  -0.531   0.102  1.00  0.00     0.286 C 
HETATM   13  O1  UNL     1       1.818  -1.712   0.428  1.00  0.00    -0.264 OA
HETATM   14  N1  UNL     1       2.715   0.294  -0.154  1.00  0.00    -0.271 N 
ATOM     15  H1  UNL     1       2.561   1.266  -0.423  1.00  0.00     0.189 HD
BRANCH  14  16
HETATM   16  N2  UNL     1       4.021  -0.162  -0.054  1.00  0.00    -0.342 N 
ATOM     17  H22 UNL     1       4.156  -1.136   0.216  1.00  0.00     0.176 HD
ATOM     18  H21 UNL     1       4.836   0.424  -0.236  1.00  0.00     0.176 HD
ENDBRANCH  14  16
ENDBRANCH   3  12
BRANCH  11  19
HETATM   19  N6  UNL     1      -3.237  -0.776   0.275  1.00  0.00    -0.385 N 
ATOM     20  H62 UNL     1      -3.181  -1.756   0.551  1.00  0.00     0.157 HD
ATOM     21  H61 UNL     1      -4.158  -0.348   0.175  1.00  0.00     0.157 HD
ENDBRANCH  11  19
TORSDOF 3
