REMARK  1 active torsions:
REMARK  status: ('A' for Active; 'I' for Inactive)
REMARK       I    between atoms: N1_1  and  C1_4 
REMARK       I    between atoms: C1_4  and  N3_6 
REMARK       I    between atoms: N3_6  and  C2_8 
REMARK    1  A    between atoms: C2_8  and  C3_10 
ROOT
HETATM    1  C3  UNL     1       0.852   0.395   0.108  1.00  0.00     0.179 A 
HETATM    2  N4  UNL     1       1.550  -0.731   0.328  1.00  0.00    -0.334 N 
ATOM      3  H4  UNL     1       1.052  -1.604   0.503  1.00  0.00     0.168 HD
HETATM    4  C4  UNL     1       2.899  -0.727   0.322  1.00  0.00     0.186 A 
HETATM    5  N5  UNL     1       3.605   0.397   0.096  1.00  0.00    -0.305 N 
ATOM      6  H5  UNL     1       4.625   0.394   0.091  1.00  0.00     0.171 HD
HETATM    7  C5  UNL     1       2.904   1.527  -0.124  1.00  0.00     0.326 A 
HETATM    8  O2  UNL     1       3.539   2.588  -0.337  1.00  0.00    -0.247 OA
HETATM    9  N6  UNL     1       1.552   1.521  -0.118  1.00  0.00    -0.290 N 
ATOM     10  H6  UNL     1       1.050   2.392  -0.289  1.00  0.00     0.172 HD
ENDROOT
BRANCH   1  11
HETATM   11  C2  UNL     1      -0.620   0.402   0.113  1.00  0.00     0.292 C 
HETATM   12  N3  UNL     1      -1.290  -0.817   0.357  1.00  0.00    -0.295 N 
HETATM   13  C1  UNL     1      -2.708  -0.852   0.369  1.00  0.00     0.188 C 
ATOM     14  H3  UNL     1      -0.756  -1.670   0.524  1.00  0.00     0.171 HD
HETATM   15  N1  UNL     1      -3.268  -1.997   0.598  1.00  0.00    -0.373 N 
HETATM   16  N2  UNL     1      -3.433   0.327   0.139  1.00  0.00    -0.064 NA
ATOM     17  H12 UNL     1      -4.288  -2.022   0.607  1.00  0.00     0.158 HD
ATOM     18  H11 UNL     1      -2.741  -2.854   0.765  1.00  0.00     0.158 HD
HETATM   19  O1  UNL     1      -1.262   1.464  -0.095  1.00  0.00    -0.264 OA
ENDBRANCH   1  11
TORSDOF 1
