REMARK  10 active torsions:
REMARK  status: ('A' for Active; 'I' for Inactive)
REMARK    1  A    between atoms: C2_2  and  S1_3 
REMARK    2  A    between atoms: C2_2  and  C14_33 
REMARK    3  A    between atoms: S1_3  and  C3_4 
REMARK    4  A    between atoms: C3_4  and  C4_5 
REMARK    5  A    between atoms: C4_5  and  N1_6 
REMARK    6  A    between atoms: C4_5  and  C5_10 
REMARK       I    between atoms: C5_10  and  N2_12 
REMARK    7  A    between atoms: C9_19  and  N3_20 
REMARK       I    between atoms: N3_20  and  C10_22 
REMARK    8  A    between atoms: C10_22  and  C11_24 
REMARK    9  A    between atoms: C13_27  and  N4_28 
REMARK   10  A    between atoms: N7_35  and  O5_37 
ROOT
HETATM    1  C5  UNL     1       0.342  -0.140  -1.099  1.00  0.00     0.253 C 
HETATM    2  O1  UNL     1       0.069  -0.253  -2.309  1.00  0.00    -0.271 OA
HETATM    3  N2  UNL     1      -0.573  -0.376  -0.068  1.00  0.00    -0.328 N 
ATOM      4  H2  UNL     1      -0.645  -1.324   0.302  1.00  0.00     0.168 HD
HETATM    5  C6  UNL     1      -1.319   0.518   0.435  1.00  0.00     0.046 C 
HETATM    6  C7  UNL     1      -1.398   1.962   0.071  1.00  0.00     0.234 C 
HETATM    7  O2  UNL     1      -1.837   2.602   1.280  1.00  0.00    -0.314 OA
HETATM    8  C8  UNL     1      -2.146   1.653   2.243  1.00  0.00     0.287 C 
HETATM    9  O3  UNL     1      -2.232   1.934   3.466  1.00  0.00    -0.262 OA
HETATM   10  C9  UNL     1      -2.325   0.379   1.534  1.00  0.00     0.232 C 
ENDROOT
BRANCH  10  11
HETATM   11  N3  UNL     1      -3.646   0.132   1.063  1.00  0.00    -0.337 N 
HETATM   12  C10 UNL     1      -4.380  -1.057   1.321  1.00  0.00     0.269 C 
HETATM   13  O4  UNL     1      -3.793  -1.921   2.013  1.00  0.00    -0.266 OA
ATOM     14  H3  UNL     1      -4.095   0.857   0.503  1.00  0.00     0.164 HD
BRANCH  12  15
HETATM   15  C11 UNL     1      -5.760  -1.262   0.802  1.00  0.00     0.109 A 
HETATM   16  C12 UNL     1      -6.422  -2.430   1.101  1.00  0.00     0.088 A 
HETATM   17  S2  UNL     1      -7.920  -2.208   0.307  1.00  0.00    -0.064 SA
HETATM   18  C13 UNL     1      -7.621  -0.668  -0.348  1.00  0.00     0.142 A 
HETATM   19  N5  UNL     1      -6.391  -0.390   0.068  1.00  0.00    -0.332 N 
ATOM     20  H5  UNL     1      -5.947   0.493  -0.183  1.00  0.00     0.168 HD
BRANCH  18  21
HETATM   21  N4  UNL     1      -8.418   0.062  -1.085  1.00  0.00    -0.380 N 
ATOM     22  H42 UNL     1      -9.363  -0.152  -1.405  1.00  0.00     0.158 HD
ATOM     23  H41 UNL     1      -8.239   0.986  -1.478  1.00  0.00     0.158 HD
ENDBRANCH  18  21
ENDBRANCH  12  15
ENDBRANCH  10  11
BRANCH   1  24
HETATM   24  C4  UNL     1       1.748   0.275  -0.754  1.00  0.00     0.284 C 
BRANCH  24  25
HETATM   25  C3  UNL     1       2.345  -0.742   0.184  1.00  0.00     0.122 C 
BRANCH  25  26
HETATM   26  S1  UNL     1       3.968  -0.350   0.789  1.00  0.00    -0.125 SA
BRANCH  26  27
HETATM   27  C2  UNL     1       5.281  -0.573  -0.381  1.00  0.00     0.034 C 
HETATM   28  C1  UNL     1       5.125  -1.384  -1.408  1.00  0.00     0.034 C 
BRANCH  27  29
HETATM   29  C14 UNL     1       6.594   0.086  -0.168  1.00  0.00     0.151 C 
HETATM   30  N6  UNL     1       7.644  -0.177  -1.077  1.00  0.00    -0.080 NA
HETATM   31  N7  UNL     1       6.708   0.862   0.830  1.00  0.00    -0.254 N 
ATOM     32  H7  UNL     1       5.886   0.982   1.422  1.00  0.00     0.195 HD
BRANCH  31  33
HETATM   33  O5  UNL     1       7.825   1.544   1.177  1.00  0.00    -0.288 OA
ATOM     34  H5  UNL     1       7.910   2.125   1.924  1.00  0.00     0.244 HD
ENDBRANCH  31  33
ENDBRANCH  27  29
ENDBRANCH  26  27
ENDBRANCH  25  26
ENDBRANCH  24  25
BRANCH  24  35
HETATM   35  N1  UNL     1       2.554   0.452  -1.905  1.00  0.00    -0.066 N 
ATOM     36  H13 UNL     1       3.514   0.691  -1.656  1.00  0.00     0.275 HD
ATOM     37  H12 UNL     1       2.730  -0.434  -2.378  1.00  0.00     0.275 HD
ATOM     38  H11 UNL     1       2.150   1.140  -2.540  1.00  0.00     0.275 HD
ENDBRANCH  24  35
ENDBRANCH   1  24
TORSDOF 10
