REMARK  5 active torsions:
REMARK  status: ('A' for Active; 'I' for Inactive)
REMARK    1  A    between atoms: C4_6  and  C5_7 
REMARK    2  A    between atoms: C9_12  and  O1_13 
REMARK    3  A    between atoms: N3_20  and  C13_22 
REMARK    4  A    between atoms: C13_22  and  C14_23 
REMARK    5  A    between atoms: C14_23  and  N4_24 
ROOT
HETATM    1  C1  UNL     1       0.108   1.950   1.921  1.00  0.00     0.047 C 
HETATM    2  C2  UNL     1       0.005   1.292   0.767  1.00  0.00     0.078 A 
HETATM    3  N1  UNL     1      -1.199   0.969   0.267  1.00  0.00    -0.340 N 
ATOM      4  H1  UNL     1      -2.047   1.228   0.771  1.00  0.00     0.167 HD
HETATM    5  C3  UNL     1      -1.284   0.304  -0.898  1.00  0.00     0.108 A 
HETATM    6  C4  UNL     1      -2.502   0.002  -1.362  1.00  0.00     0.060 C 
HETATM    7  N2  UNL     1      -0.177  -0.030  -1.549  1.00  0.00    -0.325 N 
ATOM      8  H2  UNL     1      -0.275  -0.534  -2.430  1.00  0.00     0.169 HD
HETATM    9  C12 UNL     1       1.088   0.258  -1.114  1.00  0.00     0.160 A 
HETATM   10  N3  UNL     1       2.105  -0.092  -1.787  1.00  0.00    -0.351 N 
ATOM     11  H3  UNL     1       1.875  -0.589  -2.647  1.00  0.00     0.166 HD
HETATM   12  C17 UNL     1       1.173   0.935   0.074  1.00  0.00     0.241 A 
HETATM   13  O2  UNL     1       2.275   1.265   0.593  1.00  0.00    -0.282 OA
ENDROOT
BRANCH   6  14
HETATM   14  C5  UNL     1      -3.692   0.378  -0.633  1.00  0.00    -0.023 A 
HETATM   15  C6  UNL     1      -4.161   1.667  -0.800  1.00  0.00     0.031 A 
HETATM   16  C7  UNL     1      -5.307   2.007  -0.089  1.00  0.00     0.014 A 
HETATM   17 BR1  UNL     1      -6.015   3.759  -0.264  1.00  0.00    -0.051 Br
HETATM   18  C8  UNL     1      -5.933   1.093   0.736  1.00  0.00     0.056 A 
HETATM   19  C9  UNL     1      -5.430  -0.184   0.874  1.00  0.00     0.073 A 
HETATM   20  C10 UNL     1      -4.299  -0.551   0.184  1.00  0.00    -0.018 A 
HETATM   21  C11 UNL     1      -3.739  -1.942   0.325  1.00  0.00     0.052 C 
BRANCH  19  22
HETATM   22  O1  UNL     1      -6.047  -1.105   1.695  1.00  0.00    -0.360 OA
ATOM     23  H1  UNL     1      -5.701  -1.984   1.790  1.00  0.00     0.217 HD
ENDBRANCH  19  22
ENDBRANCH   6  14
BRANCH  10  24
HETATM   24  C13 UNL     1       3.483   0.069  -1.583  1.00  0.00     0.092 C 
BRANCH  24  25
HETATM   25  C14 UNL     1       4.024  -1.118  -0.823  1.00  0.00     0.315 C 
BRANCH  25  26
HETATM   26  N4  UNL     1       5.416  -1.054  -0.559  1.00  0.00     0.084 N 
HETATM   27  C15 UNL     1       5.855  -2.227   0.172  1.00  0.00     0.309 C 
HETATM   28  C16 UNL     1       5.867   0.143   0.070  1.00  0.00     0.309 C 
ENDBRANCH  25  26
ENDBRANCH  24  25
ENDBRANCH  10  24
TORSDOF 5
