REMARK  3 active torsions:
REMARK  status: ('A' for Active; 'I' for Inactive)
REMARK    1  A    between atoms: N1_2  and  C2_4 
REMARK    2  A    between atoms: C2_4  and  N2_6 
REMARK    3  A    between atoms: N2_6  and  N3_8 
ROOT
HETATM    1  N2  UNL     1       0.137   0.261  -1.013  1.00  0.00    -0.277 N 
ATOM      2  H2  UNL     1       0.317  -0.172  -1.919  1.00  0.00     0.189 HD
ENDROOT
BRANCH   1   3
HETATM    3  C2  UNL     1       1.217   0.413  -0.124  1.00  0.00     0.186 C 
HETATM    4  S1  UNL     1       0.972   1.096   1.325  1.00  0.00    -0.040 SA
BRANCH   3   5
HETATM    5  N1  UNL     1       2.505  -0.021  -0.478  1.00  0.00    -0.370 N 
HETATM    6  C1  UNL     1       3.652   0.104   0.381  1.00  0.00     0.148 C 
ATOM      7  H1  UNL     1       2.634  -0.449  -1.395  1.00  0.00     0.161 HD
ENDBRANCH   3   5
ENDBRANCH   1   3
BRANCH   1   8
HETATM    8  N3  UNL     1      -1.168   0.669  -0.726  1.00  0.00    -0.307 N 
HETATM    9  C3  UNL     1      -1.932   0.088   0.113  1.00  0.00    -0.004 C 
HETATM   10  C4  UNL     1      -1.550  -1.109   0.911  1.00  0.00     0.064 C 
HETATM   11  C5  UNL     1      -3.300   0.649   0.305  1.00  0.00     0.064 C 
ATOM     12  H3  UNL     1      -1.533   1.484  -1.219  1.00  0.00     0.186 HD
ENDBRANCH   1   8
TORSDOF 3
