REMARK  2 active torsions:
REMARK  status: ('A' for Active; 'I' for Inactive)
REMARK    1  A    between atoms: N1_1  and  S1_4 
REMARK    2  A    between atoms: S1_4  and  C1_7 
ROOT
HETATM    1  S1  UNL     1      -1.667  -0.143  -0.360  1.00  0.00     0.279 S 
HETATM    2  O1  UNL     1      -2.200  -1.557  -0.417  1.00  0.00    -0.199 OA
HETATM    3  O2  UNL     1      -2.030   0.640  -1.578  1.00  0.00    -0.199 OA
ENDROOT
BRANCH   1   4
HETATM    4  N1  UNL     1      -2.321   0.608   1.022  1.00  0.00    -0.323 N 
ATOM      5  H12 UNL     1      -2.959   0.168   1.685  1.00  0.00     0.169 HD
ATOM      6  H11 UNL     1      -1.961   1.562   1.060  1.00  0.00     0.169 HD
ENDBRANCH   1   4
BRANCH   1   7
HETATM    7  C1  UNL     1       0.089  -0.180  -0.175  1.00  0.00     0.189 A 
HETATM    8  C2  UNL     1       1.026   0.407  -1.020  1.00  0.00     0.053 A 
HETATM    9  C3  UNL     1       2.269   0.136  -0.508  1.00  0.00     0.028 A 
HETATM   10  C4  UNL     1       2.049  -0.608   0.632  1.00  0.00     0.143 A 
HETATM   11  O3  UNL     1       0.756  -0.757   0.770  1.00  0.00    -0.310 OA
ENDBRANCH   1   7
TORSDOF 2
