REMARK  4 active torsions:
REMARK  status: ('A' for Active; 'I' for Inactive)
REMARK    1  A    between atoms: N1_1  and  N2_4 
REMARK       I    between atoms: N2_4  and  C1_6 
REMARK    2  A    between atoms: C1_6  and  C2_8 
REMARK    3  A    between atoms: C3_9  and  C4_10 
REMARK       I    between atoms: N4_14  and  C6_15 
REMARK       I    between atoms: C6_15  and  N5_17 
REMARK    4  A    between atoms: N5_17  and  N6_19 
ROOT
HETATM    1  C2  UNL     1      -0.390   0.192   0.460  1.00  0.00     0.197 C 
HETATM    2  C3  UNL     1      -0.837  -0.947  -0.423  1.00  0.00     0.125 C 
HETATM    3  C5  UNL     1       0.624  -1.289  -0.457  1.00  0.00     0.145 C 
HETATM    4  N4  UNL     1       0.984  -0.031   0.147  1.00  0.00    -0.318 N 
HETATM    5  C6  UNL     1       2.219   0.633   0.315  1.00  0.00     0.337 C 
HETATM    6  O3  UNL     1       2.286   1.770   0.898  1.00  0.00    -0.245 OA
HETATM    7  N5  UNL     1       3.446   0.089  -0.145  1.00  0.00    -0.258 N 
ATOM      8  H5  UNL     1       3.437  -0.816  -0.616  1.00  0.00     0.191 HD
ENDROOT
BRANCH   1   9
HETATM    9  C1  UNL     1      -0.981   1.463  -0.021  1.00  0.00     0.259 C 
HETATM   10  N2  UNL     1      -2.333   1.737   0.259  1.00  0.00    -0.275 N 
ATOM     11  H2  UNL     1      -2.898   1.071   0.785  1.00  0.00     0.189 HD
HETATM   12  O1  UNL     1      -0.274   2.272  -0.667  1.00  0.00    -0.269 OA
BRANCH  10  13
HETATM   13  N1  UNL     1      -2.894   2.948  -0.200  1.00  0.00    -0.343 N 
ATOM     14  H12 UNL     1      -2.315   3.604  -0.725  1.00  0.00     0.176 HD
ATOM     15  H11 UNL     1      -3.874   3.147   0.003  1.00  0.00     0.176 HD
ENDBRANCH  10  13
ENDBRANCH   1   9
BRANCH   2  16
HETATM   16  C4  UNL     1      -1.707  -1.885   0.289  1.00  0.00     0.239 C 
HETATM   17  N3  UNL     1      -2.268  -3.043  -0.304  1.00  0.00    -0.062 NA
HETATM   18  O2  UNL     1      -1.999  -1.688   1.503  1.00  0.00    -0.276 OA
ENDBRANCH   2  16
BRANCH   7  19
HETATM   19  N6  UNL     1       4.642   0.736   0.021  1.00  0.00    -0.341 N 
ATOM     20  H62 UNL     1       4.633   1.640   0.494  1.00  0.00     0.177 HD
ATOM     21  H61 UNL     1       5.524   0.345  -0.310  1.00  0.00     0.177 HD
ENDBRANCH   7  19
TORSDOF 4
