REMARK  16 active torsions:
REMARK  status: ('A' for Active; 'I' for Inactive)
REMARK    1  A    between atoms: O1_2  and  C2_3 
REMARK    2  A    between atoms: C2_3  and  C3_5 
REMARK    3  A    between atoms: C9_13  and  C10_14 
REMARK    4  A    between atoms: C10_14  and  C11_15 
REMARK    5  A    between atoms: C10_14  and  C12_19 
REMARK    6  A    between atoms: C11_15  and  N2_16 
REMARK    7  A    between atoms: C12_19  and  O3_20 
REMARK    8  A    between atoms: C12_19  and  N3_22 
REMARK    9  A    between atoms: N3_22  and  N4_23 
REMARK   10  A    between atoms: N4_23  and  C13_25 
REMARK   11  A    between atoms: C13_25  and  O4_26 
REMARK   12  A    between atoms: C13_25  and  N5_28 
REMARK   13  A    between atoms: N5_28  and  N6_29 
REMARK       I    between atoms: N6_29  and  C14_31 
REMARK   14  A    between atoms: C14_31  and  C15_33 
REMARK   15  A    between atoms: C15_33  and  N7_34 
REMARK   16  A    between atoms: C20_47  and  O7_48 
ROOT
HETATM    1  C3  UNL     1       6.773  -0.448   0.324  1.00  0.00     0.091 C 
HETATM    2  C4  UNL     1       5.537  -0.929   0.697  1.00  0.00     0.037 C 
HETATM    3  C5  UNL     1       4.368  -0.942  -0.010  1.00  0.00     0.010 C 
HETATM    4  C6  UNL     1       3.665  -1.990   0.540  1.00  0.00     0.102 C 
HETATM    5  N1  UNL     1       2.357  -2.258   0.322  1.00  0.00    -0.363 N 
ATOM      6  H1  UNL     1       2.067  -3.234   0.381  1.00  0.00     0.165 HD
HETATM    7  C7  UNL     1       1.372  -1.322   0.024  1.00  0.00     0.059 A 
HETATM    8  C8  UNL     1       0.134  -1.194   0.535  1.00  0.00     0.039 A 
HETATM    9  C9  UNL     1      -0.484  -0.050  -0.069  1.00  0.00    -0.041 A 
HETATM   10  C16 UNL     1       0.417   0.462  -0.918  1.00  0.00     0.039 A 
HETATM   11  C17 UNL     1       1.594  -0.264  -0.923  1.00  0.00     0.060 A 
HETATM   12  N8  UNL     1       2.738  -0.015  -1.637  1.00  0.00    -0.351 N 
ATOM     13  H8  UNL     1       2.668   0.237  -2.623  1.00  0.00     0.166 HD
HETATM   14  C18 UNL     1       4.008  -0.101  -1.033  1.00  0.00     0.082 C 
HETATM   15  C19 UNL     1       4.758   0.800  -1.721  1.00  0.00     0.145 A 
HETATM   16  O6  UNL     1       4.354   1.553  -2.676  1.00  0.00    -0.232 OA
HETATM   17  N9  UNL     1       5.321   2.305  -3.123  1.00  0.00    -0.238 N 
ATOM     18  H9  UNL     1       5.232   2.984  -3.879  1.00  0.00     0.197 HD
HETATM   19  C20 UNL     1       6.442   2.056  -2.448  1.00  0.00     0.177 A 
HETATM   20  C21 UNL     1       6.115   1.063  -1.507  1.00  0.00     0.106 A 
HETATM   21  C22 UNL     1       7.020   0.545  -0.606  1.00  0.00     0.205 C 
HETATM   22  O8  UNL     1       8.142   1.051  -0.665  1.00  0.00    -0.286 OA
ENDROOT
BRANCH   9  23
HETATM   23  C10 UNL     1      -1.835   0.345   0.448  1.00  0.00     0.103 C 
BRANCH  23  24
HETATM   24  C11 UNL     1      -1.308   1.693   1.225  1.00  0.00     0.066 C 
BRANCH  24  25
HETATM   25  N2  UNL     1      -2.282   2.389   1.898  1.00  0.00    -0.410 N 
ATOM     26  H22 UNL     1      -3.254   2.079   1.905  1.00  0.00     0.155 HD
ATOM     27  H21 UNL     1      -1.955   3.226   2.380  1.00  0.00     0.155 HD
ENDBRANCH  24  25
ENDBRANCH  23  24
BRANCH  23  28
HETATM   28  C12 UNL     1      -2.836   0.847  -0.488  1.00  0.00     0.244 C 
BRANCH  28  29
HETATM   29  O3  UNL     1      -3.028   0.238  -1.652  1.00  0.00    -0.377 OA
ATOM     30  H3  UNL     1      -3.680   0.565  -2.261  1.00  0.00     0.211 HD
ENDBRANCH  28  29
BRANCH  28  31
HETATM   31  N3  UNL     1      -3.663   1.939  -0.101  1.00  0.00    -0.104 NA
BRANCH  31  32
HETATM   32  N4  UNL     1      -4.816   1.336   0.580  1.00  0.00    -0.253 N 
ATOM     33  H4  UNL     1      -4.797   1.117   1.576  1.00  0.00     0.187 HD
BRANCH  32  34
HETATM   34  C13 UNL     1      -5.944   1.078  -0.211  1.00  0.00     0.330 C 
BRANCH  34  35
HETATM   35  O4  UNL     1      -5.758   1.483  -1.471  1.00  0.00    -0.319 OA
ATOM     36  H4  UNL     1      -6.523   1.308  -2.007  1.00  0.00     0.222 HD
ENDBRANCH  34  35
BRANCH  34  37
HETATM   37  N5  UNL     1      -7.104   0.489   0.174  1.00  0.00    -0.276 NA
BRANCH  37  38
HETATM   38  N6  UNL     1      -8.246  -0.088   0.542  1.00  0.00    -0.197 N 
HETATM   39  C14 UNL     1      -8.805  -1.120  -0.274  1.00  0.00     0.271 C 
HETATM   40  O5  UNL     1      -8.073  -1.487  -1.267  1.00  0.00    -0.269 OA
ATOM     41  H6  UNL     1      -8.718   0.204   1.398  1.00  0.00     0.205 HD
BRANCH  39  42
HETATM   42  C15 UNL     1     -10.100  -1.783  -0.125  1.00  0.00     0.334 C 
BRANCH  42  43
HETATM   43  N7  UNL     1     -10.904  -1.352   0.970  1.00  0.00    -0.071 N 
ATOM     44  H73 UNL     1     -10.375  -1.429   1.838  1.00  0.00     0.274 HD
ATOM     45  H72 UNL     1     -11.037  -0.342   0.924  1.00  0.00     0.274 HD
ATOM     46  H71 UNL     1     -11.807  -1.814   1.074  1.00  0.00     0.274 HD
ENDBRANCH  42  43
ENDBRANCH  39  42
ENDBRANCH  37  38
ENDBRANCH  34  37
ENDBRANCH  32  34
ENDBRANCH  31  32
ENDBRANCH  28  31
ENDBRANCH  23  28
ENDBRANCH   9  23
BRANCH   1  47
HETATM   47  C2  UNL     1       7.934  -1.085   0.896  1.00  0.00     0.297 C 
HETATM   48  O2  UNL     1       8.186  -1.350   2.057  1.00  0.00    -0.259 OA
BRANCH  47  49
HETATM   49  O1  UNL     1       8.928  -1.453  -0.067  1.00  0.00    -0.322 OA
HETATM   50  C1  UNL     1      10.119  -2.121   0.429  1.00  0.00     0.213 C 
ENDBRANCH  47  49
ENDBRANCH   1  47
BRANCH  19  51
HETATM   51  O7  UNL     1       7.689   2.649  -2.624  1.00  0.00    -0.344 OA
ATOM     52  H7  UNL     1       8.489   2.471  -2.143  1.00  0.00     0.219 HD
ENDBRANCH  19  51
TORSDOF 16
