REMARK  4 active torsions:
REMARK  status: ('A' for Active; 'I' for Inactive)
REMARK    1  A    between atoms: N1_1  and  C1_4 
REMARK    2  A    between atoms: C2_7  and  N3_8 
REMARK    3  A    between atoms: C6_12  and  N4_13 
REMARK    4  A    between atoms: C8_20  and  N6_21 
ROOT
HETATM    1  C1  UNL     1      -2.871   0.845   0.598  1.00  0.00     0.705 A 
HETATM    2  N2  UNL     1      -1.565   1.072   0.368  1.00  0.00    -0.021 N 
ATOM      3  H2  UNL     1      -1.162   1.991   0.553  1.00  0.00     0.203 HD
HETATM    4  C2  UNL     1      -0.799   0.081  -0.106  1.00  0.00     0.720 A 
HETATM    5  N5  UNL     1      -1.363  -1.112  -0.336  1.00  0.00    -0.021 N 
ATOM      6  H5  UNL     1      -0.781  -1.868  -0.696  1.00  0.00     0.203 HD
HETATM    7  C8  UNL     1      -2.671  -1.353  -0.110  1.00  0.00     0.705 A 
HETATM    8  N7  UNL     1      -3.447  -0.371   0.364  1.00  0.00    -0.022 N 
ATOM      9  H7  UNL     1      -4.439  -0.526   0.545  1.00  0.00     0.203 HD
ENDROOT
BRANCH   4  10
HETATM   10  N3  UNL     1       0.584   0.259  -0.368  1.00  0.00    -0.119 N 
HETATM   11  C3  UNL     1       0.999   0.744  -1.566  1.00  0.00     0.119 A 
HETATM   12  C4  UNL     1       2.336   0.926  -1.845  1.00  0.00     0.021 A 
HETATM   13  C5  UNL     1       3.307   0.610  -0.888  1.00  0.00     0.043 A 
HETATM   14  C6  UNL     1       2.880   0.115   0.334  1.00  0.00     0.171 A 
HETATM   15  C7  UNL     1       1.527  -0.043   0.550  1.00  0.00     0.299 A 
HETATM   16  O3  UNL     1       1.087  -0.495   1.660  1.00  0.00    -0.264 OA
BRANCH  14  17
HETATM   17  N4  UNL     1       3.817  -0.224   1.348  1.00  0.00    -0.110 N 
HETATM   18  O1  UNL     1       3.584  -0.125   2.569  1.00  0.00    -0.532 OA
HETATM   19  O2  UNL     1       5.056  -0.690   0.989  1.00  0.00    -0.532 OA
ENDBRANCH  14  17
ENDBRANCH   4  10
BRANCH   1  20
HETATM   20  N1  UNL     1      -3.671   1.751   1.054  1.00  0.00    -0.234 N 
ATOM     21  H12 UNL     1      -3.241   2.659   1.229  1.00  0.00     0.174 HD
ATOM     22  H11 UNL     1      -4.661   1.579   1.228  1.00  0.00     0.174 HD
ENDBRANCH   1  20
BRANCH   7  23
HETATM   23  N6  UNL     1      -3.181  -2.535  -0.350  1.00  0.00    -0.234 N 
ATOM     24  H62 UNL     1      -2.590  -3.283  -0.711  1.00  0.00     0.174 HD
ATOM     25  H61 UNL     1      -4.170  -2.717  -0.179  1.00  0.00     0.174 HD
ENDBRANCH   7  23
TORSDOF 4
