REMARK  9 active torsions:
REMARK  status: ('A' for Active; 'I' for Inactive)
REMARK    1  A    between atoms: C2_2  and  C3_3 
REMARK    2  A    between atoms: C3_3  and  S1_4 
REMARK    3  A    between atoms: S1_4  and  C4_5 
REMARK    4  A    between atoms: N4_16  and  C9_17 
REMARK    5  A    between atoms: C11_19  and  N5_20 
REMARK       I    between atoms: N5_20  and  C12_22 
REMARK    6  A    between atoms: C12_22  and  C13_24 
REMARK    7  A    between atoms: C13_24  and  C14_27 
REMARK    8  A    between atoms: C18_31  and  C19_32 
REMARK    9  A    between atoms: C19_32  and  O2_33 
ROOT
HETATM    1  C9  UNL     1       0.701   0.514  -1.346  1.00  0.00     0.233 C 
HETATM    2  C10 UNL     1      -0.332   0.621  -0.267  1.00  0.00     0.082 C 
HETATM    3  C11 UNL     1      -1.559   0.116  -1.045  1.00  0.00     0.119 C 
HETATM    4  C18 UNL     1      -0.936  -0.772  -2.064  1.00  0.00     0.170 C 
HETATM    5  O3  UNL     1       0.446  -0.763  -1.844  1.00  0.00    -0.357 OA
ENDROOT
BRANCH   1   6
HETATM    6  N4  UNL     1       2.040   0.645  -0.864  1.00  0.00    -0.300 N 
HETATM    7  C6  UNL     1       3.059  -0.200  -1.111  1.00  0.00     0.141 A 
HETATM    8  N2  UNL     1       3.135  -1.333  -1.826  1.00  0.00    -0.336 N 
HETATM    9  C7  UNL     1       4.215   0.241  -0.481  1.00  0.00     0.112 A 
HETATM   10  C5  UNL     1       4.289  -2.012  -1.925  1.00  0.00     0.183 A 
ATOM     11  H2  UNL     1       2.303  -1.684  -2.301  1.00  0.00     0.168 HD
HETATM   12  N1  UNL     1       5.421  -1.567  -1.300  1.00  0.00    -0.345 N 
HETATM   13  C4  UNL     1       5.406  -0.440  -0.571  1.00  0.00     0.101 A 
ATOM     14  H1  UNL     1       6.287  -2.098  -1.389  1.00  0.00     0.167 HD
HETATM   15  N3  UNL     1       3.859   1.377   0.153  1.00  0.00    -0.347 N 
HETATM   16  C8  UNL     1       2.542   1.607  -0.089  1.00  0.00     0.188 A 
ATOM     17  H3  UNL     1       4.474   1.963   0.718  1.00  0.00     0.167 HD
BRANCH  13  18
HETATM   18  S1  UNL     1       6.871   0.144   0.244  1.00  0.00    -0.110 SA
BRANCH  18  19
HETATM   19  C3  UNL     1       7.041  -0.522   1.915  1.00  0.00     0.080 C 
BRANCH  19  20
HETATM   20  C2  UNL     1       8.327   0.054   2.495  1.00  0.00     0.006 C 
HETATM   21  C1  UNL     1       8.155   1.576   2.496  1.00  0.00     0.006 C 
ENDBRANCH  19  20
ENDBRANCH  18  19
ENDBRANCH  13  18
ENDBRANCH   1   6
BRANCH   3  22
HETATM   22  N5  UNL     1      -2.514  -0.494  -0.178  1.00  0.00    -0.351 N 
HETATM   23  C12 UNL     1      -3.779   0.116   0.007  1.00  0.00     0.258 C 
HETATM   24  O1  UNL     1      -4.008   1.192  -0.616  1.00  0.00    -0.270 OA
ATOM     25  H5  UNL     1      -2.287  -1.363   0.305  1.00  0.00     0.163 HD
BRANCH  23  26
HETATM   26  C13 UNL     1      -4.822  -0.467   0.900  1.00  0.00     0.199 C 
HETATM   27 CL1  UNL     1      -4.143  -0.559   2.534  1.00  0.00    -0.090 Cl
HETATM   28 CL2  UNL     1      -5.408  -2.042   0.325  1.00  0.00    -0.090 Cl
BRANCH  26  29
HETATM   29  C14 UNL     1      -6.025   0.456   0.966  1.00  0.00    -0.007 C 
HETATM   30  C15 UNL     1      -6.617   0.648  -0.406  1.00  0.00     0.018 C 
HETATM   31  C16 UNL     1      -5.721   1.750   1.668  1.00  0.00     0.018 C 
HETATM   32  C17 UNL     1      -7.075  -0.291   1.799  1.00  0.00     0.018 C 
ENDBRANCH  26  29
ENDBRANCH  23  26
ENDBRANCH   3  22
BRANCH   4  33
HETATM   33  C19 UNL     1      -1.384  -2.215  -1.968  1.00  0.00     0.198 C 
BRANCH  33  34
HETATM   34  O2  UNL     1      -2.760  -2.233  -2.192  1.00  0.00    -0.398 OA
ATOM     35  H2  UNL     1      -3.041  -3.138  -2.132  1.00  0.00     0.209 HD
ENDBRANCH  33  34
ENDBRANCH   4  33
TORSDOF 9
