REMARK  6 active torsions:
REMARK  status: ('A' for Active; 'I' for Inactive)
REMARK    1  A    between atoms: N2_5  and  C4_6 
REMARK    2  A    between atoms: C7_9  and  N3_10 
REMARK    3  A    between atoms: N3_10  and  C8_11 
REMARK    4  A    between atoms: C10_15  and  C11_16 
REMARK    5  A    between atoms: C13_20  and  N6_21 
REMARK    6  A    between atoms: N6_21  and  C14_23 
ROOT
HETATM    1  C8  UNL     1      -2.189   2.675   0.973  1.00  0.00     0.261 A 
HETATM    2  N4  UNL     1      -0.863   2.494   1.010  1.00  0.00    -0.315 N 
ATOM      3  H4  UNL     1      -0.502   1.543   0.938  1.00  0.00     0.170 HD
HETATM    4  C9  UNL     1       0.012   3.499   1.137  1.00  0.00     0.058 A 
HETATM    5  C10 UNL     1       1.372   3.275   1.178  1.00  0.00     0.004 A 
HETATM    6  C25 UNL     1       2.225   4.369   1.319  1.00  0.00     0.014 A 
HETATM    7  C26 UNL     1       1.815   5.667   1.420  1.00  0.00     0.002 A 
HETATM    8  C27 UNL     1       0.432   5.845   1.373  1.00  0.00     0.015 A 
HETATM    9  C28 UNL     1      -0.435   4.813   1.239  1.00  0.00     0.007 A 
HETATM   10  C29 UNL     1      -1.798   5.027   1.204  1.00  0.00     0.106 A 
HETATM   11  N9  UNL     1      -2.605   4.016   1.079  1.00  0.00    -0.325 N 
ATOM     12  H9  UNL     1      -3.607   4.207   1.056  1.00  0.00     0.169 HD
ENDROOT
BRANCH   5  13
HETATM   13  C11 UNL     1       1.958   1.943   1.082  1.00  0.00     0.008 A 
HETATM   14  C12 UNL     1       3.183   1.820   0.399  1.00  0.00     0.120 A 
HETATM   15  N5  UNL     1       3.793   0.628   0.341  1.00  0.00    -0.201 N 
HETATM   16  C13 UNL     1       3.311  -0.494   0.899  1.00  0.00     0.682 A 
ATOM     17  H5  UNL     1       4.680   0.570  -0.159  1.00  0.00     0.183 HD
HETATM   18  N8  UNL     1       2.139  -0.397   1.551  1.00  0.00    -0.201 N 
HETATM   19  C24 UNL     1       1.472   0.801   1.642  1.00  0.00     0.120 A 
ATOM     20  H8  UNL     1       1.738  -1.228   1.986  1.00  0.00     0.183 HD
BRANCH  16  21
HETATM   21  N6  UNL     1       3.969  -1.597   0.913  1.00  0.00    -0.192 N 
ATOM     22  H6  UNL     1       3.508  -2.391   1.358  1.00  0.00     0.184 HD
BRANCH  21  23
HETATM   23  C14 UNL     1       5.256  -1.840   0.385  1.00  0.00     0.049 A 
HETATM   24  C15 UNL     1       5.566  -3.006  -0.252  1.00  0.00     0.030 A 
HETATM   25  C16 UNL     1       6.834  -3.323  -0.765  1.00  0.00     0.012 A 
HETATM   26  C17 UNL     1       7.829  -2.344  -0.592  1.00  0.00    -0.024 A 
HETATM   27  C18 UNL     1       7.557  -1.173   0.036  1.00  0.00    -0.046 A 
HETATM   28  C23 UNL     1       9.211  -2.610  -1.061  1.00  0.00     0.311 C 
HETATM   29  C19 UNL     1       6.273  -0.909   0.529  1.00  0.00     0.037 A 
HETATM   30  C20 UNL     1       8.631  -0.160   0.156  1.00  0.00     0.069 C 
HETATM   31  C21 UNL     1       9.362  -0.199  -1.191  1.00  0.00     0.277 C 
HETATM   32  N7  UNL     1       9.940  -1.466  -1.480  1.00  0.00     0.088 N 
HETATM   33  C22 UNL     1      10.244  -1.606  -2.888  1.00  0.00     0.310 C 
ENDBRANCH  21  23
ENDBRANCH  16  21
ENDBRANCH   5  13
BRANCH   1  34
HETATM   34  N3  UNL     1      -3.069   1.875   0.824  1.00  0.00    -0.352 NA
BRANCH  34  35
HETATM   35  C7  UNL     1      -4.027   0.994   0.660  1.00  0.00     0.182 A 
HETATM   36  C6  UNL     1      -5.373   1.480   0.480  1.00  0.00     0.066 A 
HETATM   37  C5  UNL     1      -6.436   0.698   0.281  1.00  0.00     0.035 A 
HETATM   38  C4  UNL     1      -6.265  -0.667   0.240  1.00  0.00     0.046 A 
HETATM   39  C30 UNL     1      -4.986  -1.164   0.414  1.00  0.00     0.120 A 
HETATM   40  N10 UNL     1      -3.932  -0.359   0.611  1.00  0.00    -0.339 N 
ATOM     41  H10 UNL     1      -3.013  -0.785   0.730  1.00  0.00     0.168 HD
BRANCH  38  42
HETATM   42  N2  UNL     1      -7.394  -1.487  -0.035  1.00  0.00    -0.376 N 
HETATM   43  C3  UNL     1      -7.411  -2.898   0.239  1.00  0.00     0.153 C 
HETATM   44  C2  UNL     1      -8.739  -3.552   0.220  1.00  0.00     0.291 C 
HETATM   45  N1  UNL     1      -9.757  -2.928  -0.570  1.00  0.00     0.087 N 
HETATM   46  C1  UNL     1     -10.803  -2.320   0.228  1.00  0.00     0.310 C 
HETATM   47  C32 UNL     1      -9.214  -1.943  -1.493  1.00  0.00     0.291 C 
HETATM   48  C31 UNL     1      -8.549  -0.861  -0.647  1.00  0.00     0.153 C 
ENDBRANCH  38  42
ENDBRANCH  34  35
ENDBRANCH   1  34
TORSDOF 6
