REMARK  3 active torsions:
REMARK  status: ('A' for Active; 'I' for Inactive)
REMARK    1  A    between atoms: O1_1  and  C1_3 
REMARK    2  A    between atoms: C4_6  and  O2_7 
REMARK    3  A    between atoms: N1_9  and  C5_10 
ROOT
HETATM    1  C1  UNL     1       0.137  -0.763   0.988  1.00  0.00     0.153 A 
HETATM    2  C2  UNL     1      -1.103  -0.374   0.534  1.00  0.00     0.008 A 
HETATM    3  C3  UNL     1      -0.910   0.347  -0.634  1.00  0.00     0.008 A 
HETATM    4  C4  UNL     1       0.431   0.392  -0.884  1.00  0.00     0.153 A 
HETATM    5  N1  UNL     1       1.039  -0.285   0.111  1.00  0.00    -0.280 N 
HETATM    6  C9  UNL     1      -2.176   0.840  -1.250  1.00  0.00     0.024 C 
HETATM    7  C10 UNL     1      -2.865   1.667  -0.174  1.00  0.00     0.010 C 
HETATM    8  C11 UNL     1      -3.148   0.867   1.050  1.00  0.00     0.010 C 
HETATM    9  C12 UNL     1      -2.512  -0.528   0.965  1.00  0.00     0.024 C 
HETATM   10  C13 UNL     1      -3.231  -1.188  -0.221  1.00  0.00     0.010 C 
HETATM   11  C14 UNL     1      -3.038  -0.400  -1.473  1.00  0.00     0.010 C 
ENDROOT
BRANCH   5  12
HETATM   12  C5  UNL     1       2.470  -0.466   0.208  1.00  0.00     0.232 C 
HETATM   13  C6  UNL     1       3.210   0.853   0.333  1.00  0.00     0.056 C 
HETATM   14  C7  UNL     1       4.619   0.439  -0.067  1.00  0.00     0.031 C 
HETATM   15  C8  UNL     1       4.399  -0.954  -0.623  1.00  0.00     0.170 C 
HETATM   16  O3  UNL     1       3.027  -0.988  -0.953  1.00  0.00    -0.366 OA
ENDBRANCH   5  12
BRANCH   1  17
HETATM   17  O1  UNL     1       0.397  -1.508   2.135  1.00  0.00    -0.345 OA
ATOM     18  H1  UNL     1       1.253  -1.776   2.448  1.00  0.00     0.219 HD
ENDBRANCH   1  17
BRANCH   4  19
HETATM   19  O2  UNL     1       1.002   1.031  -1.972  1.00  0.00    -0.345 OA
ATOM     20  H2  UNL     1       1.935   1.062  -2.146  1.00  0.00     0.219 HD
ENDBRANCH   4  19
TORSDOF 3
