REMARK  6 active torsions:
REMARK  status: ('A' for Active; 'I' for Inactive)
REMARK    1  A    between atoms: N1_1  and  N2_4 
REMARK    2  A    between atoms: N2_4  and  C1_6 
REMARK    3  A    between atoms: C1_6  and  N3_7 
REMARK       I    between atoms: N3_7  and  C2_9 
REMARK       I    between atoms: C2_9  and  N5_11 
REMARK    4  A    between atoms: N5_11  and  N6_13 
REMARK    5  A    between atoms: N6_13  and  C3_15 
REMARK    6  A    between atoms: C3_15  and  C4_16 
ROOT
HETATM    1  N3  UNL     1       2.962   0.336   0.857  1.00  0.00    -0.324 N 
ATOM      2  H3  UNL     1       3.021   1.312   1.146  1.00  0.00     0.169 HD
HETATM    3  C2  UNL     1       1.708  -0.242   0.580  1.00  0.00     0.208 C 
HETATM    4  N4  UNL     1       1.635  -1.595   0.195  1.00  0.00    -0.062 NA
HETATM    5  N5  UNL     1       0.652   0.482   0.686  1.00  0.00    -0.274 N 
ATOM      6  H5  UNL     1       0.735   1.459   0.968  1.00  0.00     0.189 HD
ENDROOT
BRANCH   5   7
HETATM    7  N6  UNL     1      -0.591  -0.048   0.423  1.00  0.00    -0.307 N 
ATOM      8  H6  UNL     1      -0.680  -1.064   0.416  1.00  0.00     0.186 HD
BRANCH   7   9
HETATM    9  C3  UNL     1      -1.644   0.643   0.186  1.00  0.00     0.140 C 
BRANCH   9  10
HETATM   10  C4  UNL     1      -2.902  -0.037  -0.078  1.00  0.00     0.091 A 
HETATM   11  N7  UNL     1      -3.142  -1.339  -0.112  1.00  0.00    -0.348 N 
HETATM   12  C5  UNL     1      -4.427  -1.603  -0.387  1.00  0.00     0.182 A 
ATOM     13  H7  UNL     1      -2.434  -2.055   0.051  1.00  0.00     0.167 HD
HETATM   14  N8  UNL     1      -5.018  -0.405  -0.531  1.00  0.00    -0.339 N 
HETATM   15  C6  UNL     1      -4.121   0.576  -0.350  1.00  0.00     0.145 A 
ATOM     16  H8  UNL     1      -6.005  -0.262  -0.746  1.00  0.00     0.167 HD
HETATM   17  N9  UNL     1      -4.343   1.980  -0.417  1.00  0.00    -0.080 NA
ENDBRANCH   9  10
ENDBRANCH   7   9
ENDBRANCH   5   7
BRANCH   1  18
HETATM   18  C1  UNL     1       4.029  -0.365   0.746  1.00  0.00     0.199 C 
BRANCH  18  19
HETATM   19  N2  UNL     1       5.278   0.274   1.040  1.00  0.00    -0.303 N 
ATOM     20  H2  UNL     1       5.542   0.514   1.996  1.00  0.00     0.187 HD
BRANCH  19  21
HETATM   21  N1  UNL     1       6.115   0.553  -0.036  1.00  0.00    -0.344 N 
ATOM     22  H12 UNL     1       5.837   0.307  -0.986  1.00  0.00     0.176 HD
ATOM     23  H11 UNL     1       7.004   1.008   0.173  1.00  0.00     0.176 HD
ENDBRANCH  19  21
ENDBRANCH  18  19
ENDBRANCH   1  18
TORSDOF 6
