REMARK  5 active torsions:
REMARK  status: ('A' for Active; 'I' for Inactive)
REMARK    1  A    between atoms: N4_10  and  C4_11 
REMARK    2  A    between atoms: C4_11  and  O1_12 
REMARK    3  A    between atoms: C4_11  and  C5_14 
REMARK    4  A    between atoms: C5_14  and  N5_15 
REMARK    5  A    between atoms: N5_15  and  N6_16 
REMARK       I    between atoms: N6_16  and  C6_18 
ROOT
HETATM    1  C1  UNL     1      -4.320   2.013   0.819  1.00  0.00     0.158 C 
HETATM    2  N1  UNL     1      -3.454   1.004   0.282  1.00  0.00    -0.330 N 
HETATM    3  C2  UNL     1      -2.124   0.986   0.462  1.00  0.00     0.141 A 
HETATM    4  N2  UNL     1      -1.226   1.748   1.139  1.00  0.00    -0.175 N 
ATOM      5  H2  UNL     1      -1.560   2.578   1.629  1.00  0.00     0.186 HD
HETATM    6  C3  UNL     1       0.074   1.456   1.190  1.00  0.00     0.688 A 
HETATM    7  N3  UNL     1       0.852   2.223   1.843  1.00  0.00    -0.234 N 
ATOM      8  H31 UNL     1       1.846   2.000   1.882  1.00  0.00     0.174 HD
ATOM      9  H32 UNL     1       0.490   3.049   2.320  1.00  0.00     0.174 HD
HETATM   10  N4  UNL     1       0.571   0.321   0.535  1.00  0.00    -0.092 N 
HETATM   11  C7  UNL     1      -0.319  -0.414  -0.131  1.00  0.00     0.284 A 
HETATM   12  O2  UNL     1       0.073  -1.451  -0.769  1.00  0.00    -0.266 OA
HETATM   13  C8  UNL     1      -1.648  -0.130  -0.192  1.00  0.00     0.107 A 
HETATM   14  C9  UNL     1      -2.730  -0.788  -0.772  1.00  0.00     0.085 A 
HETATM   15  N9  UNL     1      -2.879  -1.915  -1.493  1.00  0.00    -0.349 N 
ATOM     16  H9  UNL     1      -2.049  -2.460  -1.728  1.00  0.00     0.166 HD
HETATM   17  C10 UNL     1      -4.093  -2.356  -1.920  1.00  0.00     0.184 A 
HETATM   18  N10 UNL     1      -5.228  -1.649  -1.630  1.00  0.00    -0.318 N 
ATOM     19  H10 UNL     1      -6.145  -1.966  -1.945  1.00  0.00     0.169 HD
HETATM   20  C11 UNL     1      -5.088  -0.520  -0.914  1.00  0.00     0.275 A 
HETATM   21  O3  UNL     1      -6.115   0.154  -0.629  1.00  0.00    -0.266 OA
HETATM   22  C12 UNL     1      -3.855  -0.054  -0.461  1.00  0.00     0.132 A 
ENDROOT
BRANCH  10  23
HETATM   23  C4  UNL     1       1.939   0.055   0.689  1.00  0.00     0.159 C 
BRANCH  23  24
HETATM   24  O1  UNL     1       2.585   0.855   1.524  1.00  0.00    -0.347 OA
ATOM     25  H1  UNL     1       3.512   0.675   1.628  1.00  0.00     0.219 HD
ENDBRANCH  23  24
BRANCH  23  26
HETATM   26  C5  UNL     1       2.806  -0.939   0.101  1.00  0.00     0.220 C 
BRANCH  26  27
HETATM   27  N5  UNL     1       3.801  -1.380   1.061  1.00  0.00    -0.131 NA
BRANCH  27  28
HETATM   28  N6  UNL     1       5.111  -1.280   0.596  1.00  0.00    -0.277 N 
HETATM   29  C6  UNL     1       5.649  -0.189  -0.116  1.00  0.00     0.197 C 
HETATM   30  N7  UNL     1       6.127   0.777   0.531  1.00  0.00    -0.373 N 
HETATM   31  N8  UNL     1       5.688  -0.132  -1.542  1.00  0.00    -0.063 NA
ATOM     32  H72 UNL     1       6.099   0.736   1.550  1.00  0.00     0.158 HD
ATOM     33  H71 UNL     1       6.516   1.567   0.016  1.00  0.00     0.158 HD
ATOM     34  H6  UNL     1       5.734  -2.064   0.788  1.00  0.00     0.185 HD
ENDBRANCH  27  28
ENDBRANCH  26  27
ENDBRANCH  23  26
ENDBRANCH  10  23
TORSDOF 5
