REMARK  6 active torsions:
REMARK  status: ('A' for Active; 'I' for Inactive)
REMARK    1  A    between atoms: N1_2  and  N2_4 
REMARK    2  A    between atoms: N2_4  and  C2_6 
REMARK    3  A    between atoms: C5_13  and  N5_14 
REMARK    4  A    between atoms: N5_14  and  C6_16 
REMARK    5  A    between atoms: C6_16  and  N6_17 
REMARK    6  A    between atoms: C7_24  and  N10_25 
ROOT
HETATM    1  C2  UNL     1       2.244  -0.176  -0.053  1.00  0.00     0.712 A 
HETATM    2  N3  UNL     1       2.278  -1.518  -0.045  1.00  0.00    -0.178 N 
ATOM      3  H3  UNL     1       3.168  -2.012  -0.110  1.00  0.00     0.185 HD
HETATM    4  C3  UNL     1       1.123  -2.203   0.050  1.00  0.00     0.109 A 
HETATM    5  C4  UNL     1       1.119  -3.690   0.062  1.00  0.00     0.090 C 
HETATM    6  N4  UNL     1      -0.038  -1.520   0.136  1.00  0.00    -0.180 N 
ATOM      7  H4  UNL     1      -0.907  -2.049   0.208  1.00  0.00     0.185 HD
HETATM    8  C5  UNL     1      -0.107  -0.177   0.132  1.00  0.00     0.695 A 
HETATM    9  N11 UNL     1       1.080   0.485   0.034  1.00  0.00    -0.021 N 
ATOM     10  H11 UNL     1       1.083   1.505   0.027  1.00  0.00     0.203 HD
ENDROOT
BRANCH   8  11
HETATM   11  N5  UNL     1      -1.219   0.478   0.214  1.00  0.00    -0.207 N 
ATOM     12  H5  UNL     1      -1.238   1.498   0.207  1.00  0.00     0.179 HD
BRANCH  11  13
HETATM   13  C6  UNL     1      -2.439  -0.303   0.316  1.00  0.00     0.309 C 
BRANCH  13  14
HETATM   14  N6  UNL     1      -3.586   0.399  -0.169  1.00  0.00    -0.088 N 
HETATM   15  N7  UNL     1      -4.017   0.370  -1.417  1.00  0.00    -0.209 N 
HETATM   16  N8  UNL     1      -5.086   1.140  -1.452  1.00  0.00    -0.213 N 
ATOM     17  H7  UNL     1      -3.606  -0.144  -2.196  1.00  0.00     0.210 HD
HETATM   18  N9  UNL     1      -5.328   1.645  -0.255  1.00  0.00    -0.115 N 
ATOM     19  H8  UNL     1      -5.647   1.321  -2.285  1.00  0.00     0.210 HD
HETATM   20  C7  UNL     1      -4.388   1.190   0.576  1.00  0.00     0.711 A 
ATOM     21  H9  UNL     1      -6.096   2.270  -0.010  1.00  0.00     0.207 HD
BRANCH  20  22
HETATM   22  N10 UNL     1      -4.216   1.410   1.833  1.00  0.00    -0.232 N 
ATOM     23 2H10 UNL     1      -3.498   1.062   2.468  1.00  0.00     0.174 HD
ATOM     24 1H10 UNL     1      -4.822   2.007   2.396  1.00  0.00     0.174 HD
ENDBRANCH  20  22
ENDBRANCH  13  14
ENDBRANCH  11  13
ENDBRANCH   8  11
BRANCH   1  25
HETATM   25  N2  UNL     1       3.351   0.470  -0.144  1.00  0.00    -0.136 N 
ATOM     26  H2  UNL     1       4.212  -0.073  -0.207  1.00  0.00     0.205 HD
BRANCH  25  27
HETATM   27  N1  UNL     1       3.458   1.847  -0.163  1.00  0.00    -0.327 N 
HETATM   28  C1  UNL     1       4.526   2.506   0.534  1.00  0.00     0.168 C 
ATOM     29  H1  UNL     1       2.772   2.400  -0.677  1.00  0.00     0.180 HD
ENDBRANCH  25  27
ENDBRANCH   1  25
TORSDOF 6
