REMARK  2 active torsions:
REMARK  status: ('A' for Active; 'I' for Inactive)
REMARK    1  A    between atoms: C8_11  and  O1_12 
REMARK    2  A    between atoms: O1_12  and  N3_13 
ROOT
HETATM    1  C1  UNL     1      -0.249   1.467   1.463  1.00  0.00     0.044 C 
HETATM    2  C2  UNL     1      -1.069   0.825   0.667  1.00  0.00     0.040 A 
HETATM    3  N1  UNL     1      -2.357   1.165   0.457  1.00  0.00    -0.354 N 
ATOM      4  H1  UNL     1      -2.826   1.957   0.897  1.00  0.00     0.166 HD
HETATM    5  C3  UNL     1      -2.935   0.325  -0.404  1.00  0.00     0.072 A 
HETATM    6  C4  UNL     1      -4.183   0.355  -0.838  1.00  0.00     0.125 C 
HETATM    7  C5  UNL     1      -5.108   1.358  -0.403  1.00  0.00     0.090 C 
HETATM    8  N2  UNL     1      -5.865   2.178  -0.057  1.00  0.00    -0.192 NA
HETATM    9  C6  UNL     1      -1.946  -0.591  -0.748  1.00  0.00     0.093 A 
HETATM   10  C7  UNL     1      -0.767  -0.304  -0.094  1.00  0.00     0.075 A 
HETATM   11  C8  UNL     1       0.324  -1.036  -0.259  1.00  0.00     0.201 A 
HETATM   12  N6  UNL     1       0.254  -2.146  -1.142  1.00  0.00    -0.263 N 
ATOM     13  H6  UNL     1       1.067  -2.740  -1.303  1.00  0.00     0.190 HD
HETATM   14  N7  UNL     1      -0.955  -2.400  -1.781  1.00  0.00    -0.240 N 
ATOM     15  H7  UNL     1      -1.025  -3.193  -2.419  1.00  0.00     0.208 HD
HETATM   16  N8  UNL     1      -2.068  -1.598  -1.570  1.00  0.00    -0.283 N 
ATOM     17  H8  UNL     1      -2.952  -1.789  -2.042  1.00  0.00     0.188 HD
ENDROOT
BRANCH  11  18
HETATM   18  O1  UNL     1       1.486  -0.707   0.421  1.00  0.00    -0.215 OA
BRANCH  18  19
HETATM   19  N3  UNL     1       2.611  -0.283  -0.276  1.00  0.00    -0.233 N 
HETATM   20  C9  UNL     1       3.645   0.086   0.375  1.00  0.00     0.221 C 
HETATM   21  N4  UNL     1       3.670   0.073   1.782  1.00  0.00    -0.065 NA
HETATM   22  N5  UNL     1       4.795   0.520  -0.340  1.00  0.00    -0.065 NA
ATOM     23  H3  UNL     1       2.610  -0.267  -1.296  1.00  0.00     0.197 HD
ENDBRANCH  18  19
ENDBRANCH  11  18
TORSDOF 2
