REMARK  2 active torsions:
REMARK  status: ('A' for Active; 'I' for Inactive)
REMARK    1  A    between atoms: C2_10  and  N3_11 
REMARK    2  A    between atoms: N3_11  and  C3_13 
ROOT
HETATM    1  N1  UNL     1      -3.684   1.130   0.595  1.00  0.00    -0.370 N 
ATOM      2  H11 UNL     1      -3.606   2.120   0.363  1.00  0.00     0.159 HD
ATOM      3  H12 UNL     1      -4.540   0.853   1.076  1.00  0.00     0.159 HD
HETATM    4  C1  UNL     1      -2.710   0.303   0.268  1.00  0.00     0.189 A 
HETATM    5  N2  UNL     1      -2.819  -1.075   0.591  1.00  0.00    -0.249 N 
ATOM      6  H2  UNL     1      -3.584  -1.553   1.067  1.00  0.00     0.182 HD
HETATM    7  S1  UNL     1      -1.345  -1.751  -0.014  1.00  0.00     0.298 S 
HETATM    8  O1  UNL     1      -0.577  -2.260   1.159  1.00  0.00    -0.197 OA
HETATM    9  O2  UNL     1      -1.570  -2.765  -1.071  1.00  0.00    -0.197 OA
HETATM   10  C2  UNL     1      -0.703  -0.247  -0.628  1.00  0.00     0.241 A 
HETATM   11  N6  UNL     1      -1.544   0.680  -0.388  1.00  0.00    -0.302 N 
ATOM     12  H6  UNL     1      -1.371   1.647  -0.663  1.00  0.00     0.171 HD
ENDROOT
BRANCH  10  13
HETATM   13  N3  UNL     1       0.538  -0.116  -1.274  1.00  0.00    -0.164 N 
ATOM     14  H3  UNL     1       0.630  -0.275  -2.277  1.00  0.00     0.186 HD
BRANCH  13  15
HETATM   15  C3  UNL     1       1.574   0.218  -0.542  1.00  0.00     0.684 A 
HETATM   16  N4  UNL     1       1.556   0.447   0.782  1.00  0.00    -0.200 N 
HETATM   17  C4  UNL     1       2.789   0.766   1.206  1.00  0.00     0.123 A 
ATOM     18  H4  UNL     1       0.729   0.387   1.376  1.00  0.00     0.183 HD
HETATM   19  C5  UNL     1       3.573   0.722   0.076  1.00  0.00     0.123 A 
HETATM   20  N5  UNL     1       2.827   0.388  -0.982  1.00  0.00    -0.200 N 
ATOM     21  H5  UNL     1       3.151   0.283  -1.943  1.00  0.00     0.183 HD
ENDBRANCH  13  15
ENDBRANCH  10  13
TORSDOF 2
