REMARK  1 active torsions:
REMARK  status: ('A' for Active; 'I' for Inactive)
REMARK    1  A    between atoms: C1_2  and  C2_3 
ROOT
HETATM    1  C2  UNL     1      -2.313  -0.156   0.084  1.00  0.00     0.120 A 
HETATM    2  N2  UNL     1      -1.307   0.717   0.249  1.00  0.00    -0.326 N 
ATOM      3  H2  UNL     1      -1.422   1.700   0.497  1.00  0.00     0.169 HD
HETATM    4  C3  UNL     1      -0.109   0.101   0.038  1.00  0.00     0.139 A 
HETATM    5  N3  UNL     1       1.168   0.540   0.083  1.00  0.00    -0.336 N 
ATOM      6  H3  UNL     1       1.335   1.519   0.315  1.00  0.00     0.168 HD
HETATM    7  C4  UNL     1       2.233  -0.248  -0.163  1.00  0.00     0.102 A 
HETATM    8  C5  UNL     1       3.474   0.201  -0.113  1.00  0.00     0.133 C 
HETATM    9  N4  UNL     1       3.758   1.539   0.202  1.00  0.00    -0.113 NA
HETATM   10  C6  UNL     1       1.980  -1.579  -0.478  1.00  0.00     0.251 A 
HETATM   11  O1  UNL     1       2.958  -2.349  -0.715  1.00  0.00    -0.281 OA
HETATM   12  C7  UNL     1       0.671  -2.004  -0.518  1.00  0.00     0.254 A 
HETATM   13  O2  UNL     1       0.403  -3.199  -0.799  1.00  0.00    -0.281 OA
HETATM   14  C8  UNL     1      -0.388  -1.158  -0.258  1.00  0.00     0.133 A 
HETATM   15  N5  UNL     1      -1.722  -1.327  -0.233  1.00  0.00    -0.335 N 
ATOM     16  H5  UNL     1      -2.210  -2.202  -0.424  1.00  0.00     0.168 HD
ENDROOT
BRANCH   1  17
HETATM   17  C1  UNL     1      -3.619   0.056   0.200  1.00  0.00     0.148 C 
HETATM   18  N1  UNL     1      -4.073   1.357   0.543  1.00  0.00    -0.111 NA
ENDBRANCH   1  17
TORSDOF 1
