REMARK  13 active torsions:
REMARK  status: ('A' for Active; 'I' for Inactive)
REMARK    1  A    between atoms: N1_1  and  N2_4 
REMARK    2  A    between atoms: N2_4  and  N3_5 
REMARK    3  A    between atoms: N3_5  and  C1_7 
REMARK    4  A    between atoms: C4_10  and  C5_11 
REMARK    5  A    between atoms: C5_11  and  N4_12 
REMARK    6  A    between atoms: C6_17  and  O2_18 
REMARK    7  A    between atoms: O2_18  and  C7_19 
REMARK    8  A    between atoms: C7_19  and  C8_20 
REMARK    9  A    between atoms: C9_22  and  C10_23 
REMARK   10  A    between atoms: C10_23  and  O4_24 
REMARK   11  A    between atoms: C11_26  and  C12_27 
REMARK   12  A    between atoms: C12_27  and  O5_28 
REMARK   13  A    between atoms: C13_33  and  N6_34 
ROOT
HETATM    1  C7  UNL     1       0.437  -0.793  -0.822  1.00  0.00     0.207 C 
ENDROOT
BRANCH   1   2
HETATM    2  O2  UNL     1      -0.733  -0.838  -0.068  1.00  0.00    -0.356 OA
BRANCH   2   3
HETATM    3  C6  UNL     1      -1.840  -0.408  -0.797  1.00  0.00     0.285 C 
HETATM    4  C1  UNL     1      -2.844  -1.501  -0.996  1.00  0.00     0.169 C 
HETATM    5  C2  UNL     1      -4.224  -1.136  -0.512  1.00  0.00     0.035 C 
HETATM    6  C3  UNL     1      -4.074  -0.529   0.842  1.00  0.00     0.036 C 
HETATM    7  C4  UNL     1      -3.214   0.673   0.752  1.00  0.00     0.150 C 
HETATM    8  O1  UNL     1      -2.306   0.737  -0.232  1.00  0.00    -0.352 OA
BRANCH   4   9
HETATM    9  N3  UNL     1      -2.981  -1.901  -2.384  1.00  0.00    -0.243 N 
ATOM     10  H3  UNL     1      -3.072  -2.887  -2.628  1.00  0.00     0.197 HD
BRANCH   9  11
HETATM   11  N2  UNL     1      -2.986  -1.039  -3.267  1.00  0.00    -0.248 NA
BRANCH  11  12
HETATM   12  N1  UNL     1      -2.861  -0.210  -4.156  1.00  0.00    -0.261 N 
ATOM     13  H12 UNL     1      -1.890  -0.521  -4.135  1.00  0.00     0.193 HD
ATOM     14  H11 UNL     1      -2.865   0.503  -4.886  1.00  0.00     0.193 HD
ENDBRANCH  11  12
ENDBRANCH   9  11
ENDBRANCH   4   9
BRANCH   7  15
HETATM   15  C5  UNL     1      -4.064   1.952   0.686  1.00  0.00     0.261 C 
BRANCH  15  16
HETATM   16  N4  UNL     1      -4.742   2.086  -0.566  1.00  0.00    -0.077 N 
ATOM     17  H43 UNL     1      -4.088   2.037  -1.347  1.00  0.00     0.274 HD
ATOM     18  H42 UNL     1      -5.303   1.259  -0.772  1.00  0.00     0.274 HD
ATOM     19  H41 UNL     1      -5.306   2.935  -0.610  1.00  0.00     0.274 HD
ENDBRANCH  15  16
ENDBRANCH   7  15
ENDBRANCH   2   3
ENDBRANCH   1   2
BRANCH   1  20
HETATM   20  C8  UNL     1       1.634  -1.262  -0.020  1.00  0.00     0.204 C 
HETATM   21  O3  UNL     1       2.757  -1.212  -0.767  1.00  0.00    -0.370 OA
HETATM   22  C9  UNL     1       3.712  -0.308  -0.511  1.00  0.00     0.178 C 
HETATM   23  C11 UNL     1       3.735   0.322   0.832  1.00  0.00     0.242 C 
HETATM   24  N5  UNL     1       3.094  -0.619   1.764  1.00  0.00    -0.035 N 
HETATM   25  C13 UNL     1       1.704  -0.654   1.342  1.00  0.00     0.411 C 
ATOM     26  H52 UNL     1       3.541  -1.535   1.805  1.00  0.00     0.280 HD
ATOM     27  H51 UNL     1       3.225  -0.386   2.748  1.00  0.00     0.280 HD
BRANCH  22  28
HETATM   28  C10 UNL     1       3.684   0.770  -1.603  1.00  0.00     0.198 C 
BRANCH  28  29
HETATM   29  O4  UNL     1       3.915   0.187  -2.848  1.00  0.00    -0.398 OA
ATOM     30  H4  UNL     1       3.898   0.854  -3.524  1.00  0.00     0.209 HD
ENDBRANCH  28  29
ENDBRANCH  22  28
BRANCH  23  31
HETATM   31  C12 UNL     1       5.126   0.659   1.322  1.00  0.00     0.199 C 
BRANCH  31  32
HETATM   32  O5  UNL     1       4.985   1.238   2.584  1.00  0.00    -0.399 OA
ATOM     33  H5  UNL     1       5.859   1.450   2.892  1.00  0.00     0.209 HD
ENDBRANCH  31  32
ENDBRANCH  23  31
BRANCH  25  34
HETATM   34  N6  UNL     1       1.178   0.665   1.450  1.00  0.00    -0.048 N 
ATOM     35  H63 UNL     1       1.628   1.278   0.770  1.00  0.00     0.276 HD
ATOM     36  H62 UNL     1       0.218   0.688   1.106  1.00  0.00     0.276 HD
ATOM     37  H61 UNL     1       1.226   1.080   2.380  1.00  0.00     0.276 HD
ENDBRANCH  25  34
ENDBRANCH   1  20
TORSDOF 13
