REMARK  10 active torsions:
REMARK  status: ('A' for Active; 'I' for Inactive)
REMARK    1  A    between atoms: N2_4  and  N3_6 
REMARK    2  A    between atoms: N3_6  and  C1_8 
REMARK    3  A    between atoms: C1_8  and  C2_9 
REMARK    4  A    between atoms: C2_9  and  C3_10 
REMARK    5  A    between atoms: C3_10  and  C4_11 
REMARK    6  A    between atoms: C4_11  and  C5_12 
REMARK    7  A    between atoms: C6_13  and  C7_14 
REMARK    8  A    between atoms: N6_22  and  C11_23 
REMARK    9  A    between atoms: N9_29  and  N10_30 
REMARK   10  A    between atoms: C13_33  and  N11_34 
ROOT
HETATM    1  C7  UNL     1      -0.214  -0.544   1.283  1.00  0.00     0.164 A 
HETATM    2  N4  UNL     1      -1.274  -0.772   0.490  1.00  0.00    -0.319 N 
ATOM      3  H4  UNL     1      -1.194  -1.347  -0.349  1.00  0.00     0.169 HD
HETATM    4  C8  UNL     1      -2.455  -0.208   0.847  1.00  0.00     0.144 A 
HETATM    5  C9  UNL     1      -2.601   0.574   1.971  1.00  0.00     0.122 A 
HETATM    6  N5  UNL     1      -3.880   0.964   2.023  1.00  0.00    -0.346 N 
ATOM      7  H5  UNL     1      -4.290   1.555   2.746  1.00  0.00     0.167 HD
HETATM    8  C10 UNL     1      -4.542   0.448   0.962  1.00  0.00     0.188 A 
HETATM    9  N6  UNL     1      -3.668  -0.271   0.239  1.00  0.00    -0.289 N 
HETATM   10  C13 UNL     1      -1.492   0.795   2.775  1.00  0.00     0.132 A 
HETATM   11  N12 UNL     1      -0.338   0.215   2.383  1.00  0.00    -0.320 N 
ATOM     12  H12 UNL     1       0.491   0.363   2.958  1.00  0.00     0.169 HD
ENDROOT
BRANCH   1  13
HETATM   13  C6  UNL     1       1.060  -1.142   0.915  1.00  0.00    -0.030 C 
HETATM   14  C5  UNL     1       2.107  -1.654   0.606  1.00  0.00    -0.098 C 
BRANCH  14  15
HETATM   15  C4  UNL     1       3.368  -2.299   0.236  1.00  0.00     0.094 C 
BRANCH  15  16
HETATM   16  C3  UNL     1       3.783  -1.709  -1.088  1.00  0.00     0.014 C 
BRANCH  16  17
HETATM   17  C2  UNL     1       3.986  -0.233  -1.034  1.00  0.00     0.022 C 
BRANCH  17  18
HETATM   18  C1  UNL     1       5.053   0.193  -0.054  1.00  0.00     0.141 C 
BRANCH  18  19
HETATM   19  N3  UNL     1       5.139   1.633  -0.109  1.00  0.00    -0.323 N 
ATOM     20  H3  UNL     1       4.957   2.160   0.745  1.00  0.00     0.181 HD
BRANCH  19  21
HETATM   21  N2  UNL     1       5.456   2.341  -1.262  1.00  0.00    -0.254 N 
HETATM   22  N1  UNL     1       4.690   3.262  -1.672  1.00  0.00    -0.331 N 
ATOM     23  H12 UNL     1       3.843   3.472  -1.144  1.00  0.00     0.178 HD
ATOM     24  H11 UNL     1       4.923   3.782  -2.518  1.00  0.00     0.178 HD
ATOM     25  H2  UNL     1       6.307   2.118  -1.779  1.00  0.00     0.207 HD
ENDBRANCH  19  21
ENDBRANCH  18  19
ENDBRANCH  17  18
ENDBRANCH  16  17
ENDBRANCH  15  16
ENDBRANCH  14  15
ENDBRANCH   1  13
BRANCH  10  26
HETATM   26  N11 UNL     1      -1.578   1.518   3.836  1.00  0.00    -0.383 N 
ATOM     27 2H11 UNL     1      -2.450   1.956   4.132  1.00  0.00     0.157 HD
ATOM     28 1H11 UNL     1      -0.763   1.680   4.427  1.00  0.00     0.157 HD
ENDBRANCH  10  26
BRANCH   9  29
HETATM   29  C11 UNL     1      -3.916  -1.012  -0.989  1.00  0.00     0.312 C 
HETATM   30  N7  UNL     1      -5.257  -1.559  -0.938  1.00  0.00    -0.349 N 
HETATM   31  C12 UNL     1      -6.064  -0.757  -1.548  1.00  0.00     0.192 C 
ATOM     32  H7  UNL     1      -5.521  -2.437  -0.492  1.00  0.00     0.163 HD
HETATM   33  N8  UNL     1      -5.308   0.353  -2.030  1.00  0.00    -0.294 N 
HETATM   34  N9  UNL     1      -3.999  -0.130  -2.135  1.00  0.00    -0.101 NA
ATOM     35  H8  UNL     1      -5.646   1.290  -2.249  1.00  0.00     0.183 HD
BRANCH  34  36
HETATM   36  N10 UNL     1      -3.040   0.868  -2.113  1.00  0.00    -0.342 NA
ATOM     37 2H10 UNL     1      -2.086   0.516  -2.190  1.00  0.00     0.172 HD
ATOM     38 1H10 UNL     1      -3.098   1.489  -2.920  1.00  0.00     0.172 HD
ENDBRANCH  34  36
ENDBRANCH   9  29
TORSDOF 10
