REMARK  9 active torsions:
REMARK  status: ('A' for Active; 'I' for Inactive)
REMARK    1  A    between atoms: C2_2  and  N1_3 
REMARK    2  A    between atoms: C2_2  and  C3_7 
REMARK       I    between atoms: C3_7  and  N2_9 
REMARK    3  A    between atoms: N2_9  and  C4_11 
REMARK    4  A    between atoms: C4_11  and  C5_12 
REMARK    5  A    between atoms: C4_11  and  C6_14 
REMARK    6  A    between atoms: C6_14  and  C7_15 
REMARK    7  A    between atoms: C7_15  and  C8_16 
REMARK    8  A    between atoms: C7_15  and  C13_26 
REMARK    9  A    between atoms: C11_19  and  N3_20 
ROOT
HETATM    1  C7  UNL     1      -1.051  -0.763   0.117  1.00  0.00     0.097 C 
ENDROOT
BRANCH   1   2
HETATM    2  C6  UNL     1      -0.129  -0.882  -1.064  1.00  0.00     0.050 C 
BRANCH   2   3
HETATM    3  C4  UNL     1       0.891   0.199  -1.135  1.00  0.00     0.147 C 
BRANCH   3   4
HETATM    4  N2  UNL     1       1.780   0.290  -0.016  1.00  0.00    -0.348 N 
HETATM    5  C3  UNL     1       2.961  -0.487   0.170  1.00  0.00     0.248 C 
HETATM    6  O1  UNL     1       3.260  -1.336  -0.699  1.00  0.00    -0.271 OA
ATOM      7  H2  UNL     1       1.549   0.968   0.710  1.00  0.00     0.163 HD
BRANCH   5   8
HETATM    8  C2  UNL     1       3.826  -0.297   1.371  1.00  0.00     0.270 C 
HETATM    9  C1  UNL     1       4.314   1.108   1.512  1.00  0.00     0.050 C 
BRANCH   8  10
HETATM   10  N1  UNL     1       4.946  -1.190   1.272  1.00  0.00    -0.067 N 
ATOM     11  H13 UNL     1       5.582  -0.927   0.519  1.00  0.00     0.275 HD
ATOM     12  H12 UNL     1       5.592  -1.084   2.054  1.00  0.00     0.275 HD
ATOM     13  H11 UNL     1       4.613  -2.149   1.176  1.00  0.00     0.275 HD
ENDBRANCH   8  10
ENDBRANCH   5   8
ENDBRANCH   3   4
BRANCH   3  14
HETATM   14  C5  UNL     1       1.687   0.021  -2.407  1.00  0.00     0.256 C 
HETATM   15  O2  UNL     1       2.737   0.611  -2.534  1.00  0.00    -0.305 OA
ENDBRANCH   3  14
ENDBRANCH   2   3
ENDBRANCH   1   2
BRANCH   1  16
HETATM   16  C8  UNL     1      -1.828   0.501   0.135  1.00  0.00    -0.031 A 
HETATM   17  C9  UNL     1      -2.071   1.112   1.344  1.00  0.00     0.013 A 
HETATM   18  C10 UNL     1      -2.795   2.273   1.336  1.00  0.00     0.048 A 
HETATM   19  C11 UNL     1      -3.279   2.829   0.136  1.00  0.00     0.098 A 
HETATM   20  N4  UNL     1      -2.998   2.164  -1.034  1.00  0.00    -0.352 N 
HETATM   21  C12 UNL     1      -2.297   1.038  -1.044  1.00  0.00     0.097 A 
ATOM     22  H4  UNL     1      -3.337   2.546  -1.917  1.00  0.00     0.166 HD
BRANCH  19  23
HETATM   23  N3  UNL     1      -3.914   3.845   0.146  1.00  0.00    -0.385 N 
ATOM     24  H32 UNL     1      -4.122   4.338   1.014  1.00  0.00     0.157 HD
ATOM     25  H31 UNL     1      -4.265   4.248  -0.723  1.00  0.00     0.157 HD
ENDBRANCH  19  23
ENDBRANCH   1  16
BRANCH   1  26
HETATM   26  C13 UNL     1      -2.023  -1.883   0.083  1.00  0.00     0.131 A 
HETATM   27  N5  UNL     1      -2.530  -2.554   1.119  1.00  0.00    -0.348 N 
HETATM   28  C14 UNL     1      -3.372  -3.488   0.664  1.00  0.00     0.114 A 
ATOM     29  H5  UNL     1      -2.311  -2.382   2.100  1.00  0.00     0.167 HD
HETATM   30  C15 UNL     1      -3.375  -3.378  -0.702  1.00  0.00     0.161 A 
HETATM   31  O3  UNL     1      -2.551  -2.403  -0.999  1.00  0.00    -0.308 OA
ENDBRANCH   1  26
TORSDOF 9
