REMARK  8 active torsions:
REMARK  status: ('A' for Active; 'I' for Inactive)
REMARK    1  A    between atoms: C2_2  and  O2_4 
REMARK    2  A    between atoms: O2_4  and  C3_5 
REMARK    3  A    between atoms: C6_8  and  C7_9 
REMARK    4  A    between atoms: C7_9  and  N1_10 
REMARK    5  A    between atoms: N1_10  and  C8_12 
REMARK    6  A    between atoms: C8_12  and  C10_14 
REMARK       I    between atoms: C10_14  and  N2_16 
REMARK    7  A    between atoms: N2_16  and  C11_18 
REMARK    8  A    between atoms: C11_18  and  N3_21 
REMARK       I    between atoms: N3_21  and  C14_23 
ROOT
HETATM    1  C8  UNL     1      -0.757  -1.809  -0.862  1.00  0.00     0.165 C 
HETATM    2  C9  UNL     1      -0.893  -3.251  -0.344  1.00  0.00     0.042 C 
ENDROOT
BRANCH   1   3
HETATM    3  N1  UNL     1       0.560  -1.380  -0.522  1.00  0.00    -0.406 N 
ATOM      4  H1  UNL     1       1.187  -1.958   0.038  1.00  0.00     0.154 HD
BRANCH   3   5
HETATM    5  C7  UNL     1       0.952  -0.099  -1.008  1.00  0.00     0.153 C 
BRANCH   5   6
HETATM    6  C6  UNL     1       2.357   0.142  -0.539  1.00  0.00    -0.041 A 
HETATM    7  C5  UNL     1       2.640   0.753   0.664  1.00  0.00     0.011 A 
HETATM    8  C4  UNL     1       3.964   0.951   1.049  1.00  0.00     0.038 A 
HETATM    9  C3  UNL     1       5.023   0.553   0.257  1.00  0.00     0.079 A 
HETATM   10  C16 UNL     1       4.716  -0.059  -0.950  1.00  0.00     0.038 A 
HETATM   11  C15 UNL     1       3.413  -0.265  -1.351  1.00  0.00     0.011 A 
BRANCH   9  12
HETATM   12  O2  UNL     1       6.349   0.755   0.650  1.00  0.00    -0.279 OA
BRANCH  12  13
HETATM   13  C2  UNL     1       6.947   1.947   0.271  1.00  0.00     0.260 C 
HETATM   14  C1  UNL     1       8.360   2.263   0.640  1.00  0.00     0.126 C 
HETATM   15  O1  UNL     1       6.289   2.798  -0.405  1.00  0.00    -0.265 OA
ENDBRANCH  12  13
ENDBRANCH   9  12
ENDBRANCH   5   6
ENDBRANCH   3   5
ENDBRANCH   1   3
BRANCH   1  16
HETATM   16  C10 UNL     1      -1.828  -1.049  -0.214  1.00  0.00     0.241 C 
HETATM   17  O3  UNL     1      -1.551  -0.112   0.573  1.00  0.00    -0.271 OA
HETATM   18  N2  UNL     1      -3.202  -1.332  -0.441  1.00  0.00    -0.333 N 
ATOM     19  H2  UNL     1      -3.449  -2.090  -1.077  1.00  0.00     0.165 HD
BRANCH  18  20
HETATM   20  C11 UNL     1      -4.263  -0.583   0.197  1.00  0.00     0.102 C 
HETATM   21  C12 UNL     1      -4.213  -0.662   1.698  1.00  0.00     0.062 C 
HETATM   22  C13 UNL     1      -5.594  -1.153  -0.247  1.00  0.00     0.062 C 
BRANCH  20  23
HETATM   23  N3  UNL     1      -4.237   0.810  -0.207  1.00  0.00    -0.319 N 
HETATM   24  C14 UNL     1      -5.286   1.652   0.249  1.00  0.00     0.330 C 
HETATM   25  N4  UNL     1      -5.304   3.021  -0.120  1.00  0.00    -0.040 NA
HETATM   26  O4  UNL     1      -6.216   1.228   0.977  1.00  0.00    -0.251 OA
ATOM     27  H3  UNL     1      -3.490   1.173  -0.799  1.00  0.00     0.166 HD
ENDBRANCH  20  23
ENDBRANCH  18  20
ENDBRANCH   1  16
TORSDOF 8
