REMARK  16 active torsions:
REMARK  status: ('A' for Active; 'I' for Inactive)
REMARK       I    between atoms: N1_2  and  C3_4 
REMARK    1  A    between atoms: C3_4  and  C4_6 
REMARK    2  A    between atoms: C4_6  and  C5_7 
REMARK    3  A    between atoms: C5_7  and  C6_8 
REMARK    4  A    between atoms: C6_8  and  C7_9 
REMARK    5  A    between atoms: C7_9  and  C8_10 
REMARK    6  A    between atoms: C8_10  and  C9_11 
REMARK    7  A    between atoms: C9_11  and  C10_12 
REMARK    8  A    between atoms: C10_12  and  C11_13 
REMARK    9  A    between atoms: C11_13  and  C12_14 
REMARK   10  A    between atoms: C12_14  and  N2_15 
REMARK   11  A    between atoms: N2_15  and  C13_17 
REMARK   12  A    between atoms: C13_17  and  O2_18 
REMARK   13  A    between atoms: C13_17  and  O3_20 
REMARK   14  A    between atoms: O3_20  and  C14_21 
REMARK   15  A    between atoms: C14_21  and  C17_24 
REMARK   16  A    between atoms: C18_27  and  O4_28 
ROOT
HETATM    1  C14 UNL     1      -3.232   0.319  -0.075  1.00  0.00     0.093 C 
HETATM    2  C15 UNL     1      -3.220   1.551  -0.951  1.00  0.00     0.049 C 
HETATM    3  C16 UNL     1      -3.980   0.652   1.151  1.00  0.00     0.049 C 
ENDROOT
BRANCH   1   4
HETATM    4  O3  UNL     1      -1.855  -0.018   0.117  1.00  0.00    -0.304 OA
BRANCH   4   5
HETATM    5  C13 UNL     1      -0.975   0.843   0.672  1.00  0.00     0.258 C 
BRANCH   5   6
HETATM    6  N2  UNL     1       0.392   0.639   0.920  1.00  0.00    -0.350 N 
ATOM      7  H2  UNL     1       0.775  -0.276   0.682  1.00  0.00     0.163 HD
BRANCH   6   8
HETATM    8  C12 UNL     1       1.303   1.604   1.480  1.00  0.00     0.123 C 
BRANCH   8   9
HETATM    9  C11 UNL     1       1.402   2.780   0.573  1.00  0.00     0.020 C 
BRANCH   9  10
HETATM   10  C10 UNL     1       2.431   3.806   0.878  1.00  0.00     0.002 C 
BRANCH  10  11
HETATM   11  C9  UNL     1       3.844   3.502   0.599  1.00  0.00     0.000 C 
BRANCH  11  12
HETATM   12  C8  UNL     1       4.443   2.310   1.216  1.00  0.00     0.000 C 
BRANCH  12  13
HETATM   13  C7  UNL     1       5.929   2.209   0.822  1.00  0.00     0.000 C 
BRANCH  13  14
HETATM   14  C6  UNL     1       6.737   3.357   1.285  1.00  0.00     0.000 C 
BRANCH  14  15
HETATM   15  C5  UNL     1       8.207   3.187   0.836  1.00  0.00     0.009 C 
BRANCH  15  16
HETATM   16  C4  UNL     1       8.781   1.932   1.404  1.00  0.00     0.103 C 
BRANCH  16  17
HETATM   17  C3  UNL     1      10.187   1.793   0.945  1.00  0.00     0.218 C 
HETATM   18  N1  UNL     1      10.938   0.680   1.395  1.00  0.00    -0.361 N 
HETATM   19  C1  UNL     1      12.303   0.547   0.915  1.00  0.00     0.152 C 
HETATM   20  C2  UNL     1      10.379  -0.292   2.311  1.00  0.00     0.152 C 
HETATM   21  O1  UNL     1      10.685   2.662   0.162  1.00  0.00    -0.273 OA
ENDBRANCH  16  17
ENDBRANCH  15  16
ENDBRANCH  14  15
ENDBRANCH  13  14
ENDBRANCH  12  13
ENDBRANCH  11  12
ENDBRANCH  10  11
ENDBRANCH   9  10
ENDBRANCH   8   9
ENDBRANCH   6   8
ENDBRANCH   5   6
BRANCH   5  22
HETATM   22  O2  UNL     1      -1.486   1.995   1.007  1.00  0.00    -0.327 OA
ATOM     23  H2  UNL     1      -2.411   2.133   0.839  1.00  0.00     0.221 HD
ENDBRANCH   5  22
ENDBRANCH   4   5
ENDBRANCH   1   4
BRANCH   1  24
HETATM   24  C17 UNL     1      -3.908  -0.778  -0.907  1.00  0.00     0.211 C 
HETATM   25  N3  UNL     1      -5.272  -0.432  -1.052  1.00  0.00    -0.340 N 
HETATM   26  C18 UNL     1      -6.008   0.021  -2.171  1.00  0.00     0.220 C 
ATOM     27  H3  UNL     1      -5.822  -0.526  -0.198  1.00  0.00     0.164 HD
HETATM   28  N4  UNL     1      -5.955  -0.408  -3.509  1.00  0.00    -0.293 N 
HETATM   29  C19 UNL     1      -6.073  -1.699  -4.055  1.00  0.00     0.224 C 
ATOM     30  H4  UNL     1      -5.808   0.335  -4.192  1.00  0.00     0.172 HD
HETATM   31  O5  UNL     1      -5.945  -1.904  -5.315  1.00  0.00    -0.273 OA
HETATM   32  C20 UNL     1      -6.344  -2.907  -3.269  1.00  0.00     0.103 C 
HETATM   33  C21 UNL     1      -7.767  -3.271  -3.049  1.00  0.00     0.009 C 
HETATM   34  C22 UNL     1      -8.265  -3.226  -1.660  1.00  0.00     0.000 C 
HETATM   35  C23 UNL     1      -7.968  -4.299  -0.713  1.00  0.00     0.000 C 
HETATM   36  C24 UNL     1      -6.694  -5.033  -0.748  1.00  0.00     0.002 C 
HETATM   37  C25 UNL     1      -5.757  -4.780   0.425  1.00  0.00     0.020 C 
HETATM   38  C26 UNL     1      -5.552  -3.331   0.754  1.00  0.00     0.122 C 
HETATM   39  N5  UNL     1      -4.203  -2.865   0.612  1.00  0.00    -0.359 N 
HETATM   40  C27 UNL     1      -3.589  -2.111  -0.379  1.00  0.00     0.243 C 
ATOM     41  H5  UNL     1      -3.584  -3.136   1.376  1.00  0.00     0.162 HD
HETATM   42  O6  UNL     1      -2.564  -2.677  -0.930  1.00  0.00    -0.271 OA
BRANCH  26  43
HETATM   43  O4  UNL     1      -6.846   0.982  -1.859  1.00  0.00    -0.332 OA
ATOM     44  H4  UNL     1      -7.341   1.286  -2.611  1.00  0.00     0.220 HD
ENDBRANCH  26  43
ENDBRANCH   1  24
TORSDOF 16
