REMARK  11 active torsions:
REMARK  status: ('A' for Active; 'I' for Inactive)
REMARK       I    between atoms: C2_2  and  N1_4 
REMARK    1  A    between atoms: N1_4  and  C3_6 
REMARK    2  A    between atoms: C16_20  and  N2_21 
REMARK    3  A    between atoms: C17_24  and  O5_25 
REMARK    4  A    between atoms: O5_25  and  C18_26 
REMARK    5  A    between atoms: C19_27  and  C20_28 
REMARK    6  A    between atoms: C20_28  and  C21_29 
REMARK    7  A    between atoms: C21_29  and  C22_30 
REMARK    8  A    between atoms: C22_30  and  C23_31 
REMARK    9  A    between atoms: C23_31  and  C26_34 
REMARK   10  A    between atoms: C28_38  and  O8_39 
REMARK   11  A    between atoms: C29_41  and  O9_42 
ROOT
HETATM    1  C3  UNL     1      -2.910  -2.740  -0.493  1.00  0.00     0.116 C 
HETATM    2  C4  UNL     1      -3.370  -1.920   0.637  1.00  0.00     0.032 C 
HETATM    3  C5  UNL     1      -3.681  -0.465   0.327  1.00  0.00    -0.011 C 
HETATM    4  C6  UNL     1      -4.388  -0.033   1.637  1.00  0.00     0.010 C 
HETATM    5  C7  UNL     1      -2.397   0.249   0.240  1.00  0.00     0.008 C 
HETATM    6  C8  UNL     1      -2.435   1.746   0.075  1.00  0.00     0.043 C 
HETATM    7  C9  UNL     1      -3.434   2.581   0.669  1.00  0.00     0.014 C 
HETATM    8  C10 UNL     1      -3.147   4.059   0.391  1.00  0.00     0.041 C 
HETATM    9  C11 UNL     1      -2.482   4.285  -0.918  1.00  0.00     0.084 A 
HETATM   10  C12 UNL     1      -3.333   4.069  -2.129  1.00  0.00     0.049 C 
HETATM   11  O2  UNL     1      -1.699   5.410  -1.189  1.00  0.00    -0.370 OA
HETATM   12  C13 UNL     1      -1.071   4.300  -0.766  1.00  0.00     0.157 A 
HETATM   13  C14 UNL     1      -0.367   3.253  -1.500  1.00  0.00     0.048 C 
HETATM   14  C15 UNL     1      -0.100   2.041  -0.626  1.00  0.00     0.071 C 
HETATM   15  C16 UNL     1      -1.060   2.088   0.497  1.00  0.00     0.069 C 
HETATM   16  C17 UNL     1      -0.531   0.843  -1.414  1.00  0.00     0.144 C 
HETATM   17  C27 UNL     1      -1.373  -0.211  -0.728  1.00  0.00     0.052 C 
HETATM   18  C28 UNL     1      -1.789  -1.076  -1.869  1.00  0.00     0.155 C 
HETATM   19  C29 UNL     1      -2.966  -1.940  -1.760  1.00  0.00     0.170 C 
ENDROOT
BRANCH  16  20
HETATM   20  O5  UNL     1       0.665   0.190  -1.847  1.00  0.00    -0.357 OA
BRANCH  20  21
HETATM   21  C18 UNL     1       1.629  -0.308  -1.011  1.00  0.00     0.131 C 
HETATM   22  C19 UNL     1       2.838   0.207  -0.912  1.00  0.00    -0.003 C 
BRANCH  22  23
HETATM   23  C20 UNL     1       3.842  -0.391   0.025  1.00  0.00     0.029 C 
BRANCH  23  24
HETATM   24  C21 UNL     1       4.298   0.584   1.045  1.00  0.00     0.005 C 
BRANCH  24  25
HETATM   25  C22 UNL     1       5.253   0.048   2.027  1.00  0.00     0.020 C 
BRANCH  25  26
HETATM   26  C23 UNL     1       6.560  -0.480   1.583  1.00  0.00     0.041 C 
HETATM   27  C24 UNL     1       7.393   0.561   0.844  1.00  0.00     0.026 C 
HETATM   28  C25 UNL     1       7.367  -0.734   2.897  1.00  0.00     0.026 C 
BRANCH  26  29
HETATM   29  C26 UNL     1       6.548  -1.760   0.857  1.00  0.00     0.181 C 
HETATM   30  O6  UNL     1       7.195  -1.879  -0.230  1.00  0.00    -0.647 OA
HETATM   31  O7  UNL     1       5.857  -2.871   1.303  1.00  0.00    -0.647 OA
ENDBRANCH  26  29
ENDBRANCH  25  26
ENDBRANCH  24  25
ENDBRANCH  23  24
ENDBRANCH  22  23
ENDBRANCH  20  21
ENDBRANCH  16  20
BRANCH  15  32
HETATM   32  N2  UNL     1      -0.694   2.349   1.670  1.00  0.00    -0.123 N 
HETATM   33  O3  UNL     1      -1.505   2.368   2.789  1.00  0.00    -0.532 OA
HETATM   34  O4  UNL     1       0.640   2.645   1.995  1.00  0.00    -0.532 OA
ENDBRANCH  15  32
BRANCH  18  35
HETATM   35  O8  UNL     1      -0.721  -1.886  -2.278  1.00  0.00    -0.392 OA
ATOM     36  H8  UNL     1      -0.986  -2.437  -3.005  1.00  0.00     0.210 HD
ENDBRANCH  18  35
BRANCH  19  37
HETATM   37  O9  UNL     1      -2.843  -2.921  -2.788  1.00  0.00    -0.391 OA
ATOM     38  H9  UNL     1      -2.878  -2.414  -3.591  1.00  0.00     0.210 HD
ENDBRANCH  19  37
BRANCH   1  39
HETATM   39  N1  UNL     1      -3.545  -4.016  -0.591  1.00  0.00    -0.354 N 
HETATM   40  C2  UNL     1      -2.794  -5.201  -0.461  1.00  0.00     0.214 C 
HETATM   41  C1  UNL     1      -3.393  -6.562  -0.553  1.00  0.00     0.117 C 
HETATM   42  O1  UNL     1      -1.554  -5.150  -0.256  1.00  0.00    -0.274 OA
ATOM     43  H1  UNL     1      -4.550  -4.070  -0.756  1.00  0.00     0.162 HD
ENDBRANCH   1  39
TORSDOF 11
