REMARK  1 active torsions:
REMARK  status: ('A' for Active; 'I' for Inactive)
REMARK    1  A    between atoms: C3_3  and  C4_4 
ROOT
HETATM    1  C1  UNL     1       0.081  -1.052  -1.583  1.00  0.00     0.045 C 
HETATM    2  C2  UNL     1       0.141  -0.771  -0.136  1.00  0.00     0.249 C 
HETATM    3  C3  UNL     1      -0.440   0.477   0.386  1.00  0.00     0.222 C 
HETATM    4  N1  UNL     1       0.041   1.591  -0.392  1.00  0.00    -0.067 N 
ATOM      5  H11 UNL     1      -0.435   2.463  -0.159  1.00  0.00     0.277 HD
ATOM      6  H12 UNL     1      -0.241   1.533  -1.371  1.00  0.00     0.277 HD
HETATM    7  C7  UNL     1       1.462   1.686  -0.237  1.00  0.00     0.263 C 
HETATM    8  C8  UNL     1       2.226   0.420  -0.322  1.00  0.00     0.300 C 
HETATM    9  N2  UNL     1       1.578  -0.737   0.200  1.00  0.00     0.092 N 
HETATM   10  C9  UNL     1       1.817  -1.005   1.579  1.00  0.00     0.310 C 
ENDROOT
BRANCH   3  11
HETATM   11  C4  UNL     1      -1.895   0.521   0.676  1.00  0.00     0.018 A 
HETATM   12  C5  UNL     1      -2.783   0.288  -0.547  1.00  0.00     0.007 A 
HETATM   13  C6  UNL     1      -2.783  -0.652   0.618  1.00  0.00     0.007 A 
ENDBRANCH   3  11
TORSDOF 1
