REMARK  2 active torsions:
REMARK  status: ('A' for Active; 'I' for Inactive)
REMARK    1  A    between atoms: C4_5  and  O1_6 
REMARK    2  A    between atoms: C7_10  and  C8_11 
ROOT
HETATM    1  C1  UNL     1       2.402   0.267   0.474  1.00  0.00     0.310 C 
HETATM    2  N1  UNL     1       1.248  -0.398  -0.032  1.00  0.00     0.089 N 
HETATM    3  C2  UNL     1       0.704   0.260  -1.224  1.00  0.00     0.280 C 
HETATM    4  C3  UNL     1      -0.800   0.307  -1.028  1.00  0.00     0.050 C 
HETATM    5  C4  UNL     1      -1.070   1.454  -0.083  1.00  0.00     0.126 C 
HETATM    6  C5  UNL     1      -0.374   0.978   1.189  1.00  0.00     0.068 C 
HETATM    7  C6  UNL     1       0.139  -0.428   0.883  1.00  0.00     0.230 C 
HETATM    8  C7  UNL     1      -0.977  -0.874  -0.083  1.00  0.00     0.041 C 
ENDROOT
BRANCH   5   9
HETATM    9  O1  UNL     1      -2.449   1.535   0.085  1.00  0.00    -0.395 OA
ATOM     10  H1  UNL     1      -2.619   2.256   0.679  1.00  0.00     0.210 HD
ENDBRANCH   5   9
BRANCH   8  11
HETATM   11  C8  UNL     1      -0.533  -2.163  -0.701  1.00  0.00     0.121 C 
HETATM   12 CL1  UNL     1      -0.724  -3.546   0.366  1.00  0.00    -0.130 Cl
ENDBRANCH   8  11
TORSDOF 2
