REMARK  1 active torsions:
REMARK  status: ('A' for Active; 'I' for Inactive)
REMARK    1  A    between atoms: C2_7  and  C3_8 
ROOT
HETATM    1  N1  UNL     1       1.969  -2.729   1.868  1.00  0.00    -0.380 N 
ATOM      2  H11 UNL     1       2.800  -3.033   2.375  1.00  0.00     0.158 HD
ATOM      3  H12 UNL     1       1.010  -3.059   1.977  1.00  0.00     0.158 HD
HETATM    4  C1  UNL     1       2.104  -1.816   0.973  1.00  0.00     0.136 C 
HETATM    5  N2  UNL     1       0.926  -1.385   0.254  1.00  0.00    -0.344 N 
ATOM      6  H2  UNL     1       0.184  -2.070   0.113  1.00  0.00     0.164 HD
HETATM    7  C2  UNL     1       0.717  -0.050  -0.284  1.00  0.00     0.118 C 
HETATM    8  C9  UNL     1       1.471  -0.008  -1.628  1.00  0.00     0.056 C 
HETATM    9  C10 UNL     1       2.905  -0.325  -1.548  1.00  0.00     0.026 C 
HETATM   10  C11 UNL     1       3.633   0.219  -0.347  1.00  0.00     0.105 C 
HETATM   11  S3  UNL     1       3.793  -1.235   0.781  1.00  0.00    -0.084 SA
HETATM   12  C12 UNL     1       2.685   1.107   0.436  1.00  0.00     0.028 A 
HETATM   13  C13 UNL     1       3.074   2.172   1.224  1.00  0.00     0.028 A 
HETATM   14  C14 UNL     1       1.944   2.704   1.741  1.00  0.00     0.019 A 
HETATM   15  C15 UNL     1       0.897   1.957   1.259  1.00  0.00     0.094 A 
HETATM   16  N4  UNL     1       1.364   0.987   0.466  1.00  0.00    -0.332 N 
ENDROOT
BRANCH   7  17
HETATM   17  C3  UNL     1      -0.717   0.048  -0.583  1.00  0.00     0.078 C 
HETATM   18  C4  UNL     1      -1.219   1.336  -1.168  1.00  0.00     0.086 C 
HETATM   19  S1  UNL     1      -2.640   0.890  -2.223  1.00  0.00    -0.139 SA
HETATM   20  C5  UNL     1      -3.586  -0.273  -1.204  1.00  0.00     0.347 C 
HETATM   21  N3  UNL     1      -2.748  -1.207  -0.523  1.00  0.00     0.112 N 
HETATM   22  C6  UNL     1      -3.566  -2.022   0.340  1.00  0.00     0.348 C 
HETATM   23  C8  UNL     1      -1.728  -0.560   0.303  1.00  0.00     0.243 C 
HETATM   24  S2  UNL     1      -3.848  -0.822   1.706  1.00  0.00    -0.137 SA
HETATM   25  C7  UNL     1      -2.482   0.334   1.246  1.00  0.00     0.112 C 
ENDBRANCH   7  17
TORSDOF 1
