REMARK  7 active torsions:
REMARK  status: ('A' for Active; 'I' for Inactive)
REMARK       I    between atoms: C1_2  and  N1_3 
REMARK    1  A    between atoms: C1_2  and  C11_22 
REMARK    2  A    between atoms: N1_3  and  C2_5 
REMARK    3  A    between atoms: C7_10  and  S1_11 
REMARK    4  A    between atoms: S1_11  and  N2_14 
REMARK    5  A    between atoms: N2_14  and  C8_16 
REMARK    6  A    between atoms: C14_25  and  O4_26 
REMARK    7  A    between atoms: O4_26  and  C15_27 
ROOT
HETATM    1  C2  UNL     1      -1.164  -2.538  -0.228  1.00  0.00     0.058 A 
HETATM    2  C3  UNL     1      -0.904  -3.854  -0.554  1.00  0.00     0.031 A 
HETATM    3  C4  UNL     1      -1.964  -4.773  -0.584  1.00  0.00     0.002 A 
HETATM    4  C5  UNL     1      -3.245  -4.403  -0.300  1.00  0.00     0.002 A 
HETATM    5  C6  UNL     1      -3.464  -3.081   0.021  1.00  0.00     0.027 A 
HETATM    6  C7  UNL     1      -2.473  -2.140   0.066  1.00  0.00     0.106 A 
ENDROOT
BRANCH   1   7
HETATM    7  N1  UNL     1      -0.166  -1.570  -0.158  1.00  0.00    -0.322 N 
HETATM    8  C1  UNL     1       1.199  -1.673  -0.450  1.00  0.00     0.256 C 
HETATM    9  O1  UNL     1       1.690  -2.761  -0.846  1.00  0.00    -0.267 OA
ATOM     10  H1  UNL     1      -0.475  -0.649   0.152  1.00  0.00     0.169 HD
BRANCH   8  11
HETATM   11  C11 UNL     1       2.117  -0.521  -0.309  1.00  0.00     0.032 A 
HETATM   12  C12 UNL     1       3.367  -0.621  -0.871  1.00  0.00     0.020 A 
HETATM   13  C13 UNL     1       4.302   0.397  -0.792  1.00  0.00     0.038 A 
HETATM   14  C14 UNL     1       3.978   1.564  -0.124  1.00  0.00     0.078 A 
HETATM   15  C16 UNL     1       2.725   1.661   0.437  1.00  0.00     0.038 A 
HETATM   16  C17 UNL     1       1.794   0.624   0.348  1.00  0.00     0.020 A 
BRANCH  14  17
HETATM   17  O4  UNL     1       4.876   2.623  -0.012  1.00  0.00    -0.255 OA
BRANCH  17  18
HETATM   18  C15 UNL     1       5.759   2.656   1.109  1.00  0.00     0.530 C 
HETATM   19  F1  UNL     1       6.577   3.741   1.091  1.00  0.00    -0.144 F 
HETATM   20  F2  UNL     1       6.542   1.496   1.148  1.00  0.00    -0.144 F 
HETATM   21  F3  UNL     1       4.983   2.668   2.244  1.00  0.00    -0.144 F 
ENDBRANCH  17  18
ENDBRANCH  14  17
ENDBRANCH   8  11
ENDBRANCH   1   7
BRANCH   6  22
HETATM   22  S1  UNL     1      -2.828  -0.507   0.457  1.00  0.00     0.266 S 
HETATM   23  O2  UNL     1      -2.218  -0.064   1.759  1.00  0.00    -0.200 OA
HETATM   24  O3  UNL     1      -4.337  -0.395   0.682  1.00  0.00    -0.200 OA
BRANCH  22  25
HETATM   25  N2  UNL     1      -2.463   0.591  -0.803  1.00  0.00    -0.260 N 
ATOM     26  H2  UNL     1      -2.018   0.275  -1.665  1.00  0.00     0.181 HD
BRANCH  25  27
HETATM   27  C8  UNL     1      -2.773   1.850  -0.626  1.00  0.00     0.158 A 
HETATM   28  N3  UNL     1      -3.347   2.458   0.405  1.00  0.00    -0.345 N 
HETATM   29  C9  UNL     1      -3.558   3.739   0.354  1.00  0.00     0.097 A 
ATOM     30  H3  UNL     1      -3.620   1.924   1.230  1.00  0.00     0.167 HD
HETATM   31  C10 UNL     1      -3.171   4.407  -0.781  1.00  0.00     0.070 A 
HETATM   32  S2  UNL     1      -2.516   3.146  -1.725  1.00  0.00    -0.064 SA
ENDBRANCH  25  27
ENDBRANCH  22  25
ENDBRANCH   6  22
TORSDOF 7
