REMARK  7 active torsions:
REMARK  status: ('A' for Active; 'I' for Inactive)
REMARK    1  A    between atoms: C2_2  and  O1_3 
REMARK    2  A    between atoms: C2_2  and  C3_5 
REMARK    3  A    between atoms: C2_2  and  C10_14 
REMARK    4  A    between atoms: C3_5  and  C4_6 
REMARK    5  A    between atoms: C4_6  and  C5_7 
REMARK    6  A    between atoms: C5_7  and  N1_8 
REMARK    7  A    between atoms: C10_14  and  N2_15 
ROOT
HETATM    1  C1  UNL     1      -0.873  -1.556  -0.848  1.00  0.00     0.047 C 
HETATM    2  C2  UNL     1      -1.173  -0.472   0.104  1.00  0.00     0.078 C 
ENDROOT
BRANCH   2   3
HETATM    3  O1  UNL     1      -1.570  -0.986   1.338  1.00  0.00    -0.389 OA
ATOM      4  H1  UNL     1      -1.763  -0.287   1.952  1.00  0.00     0.210 HD
ENDBRANCH   2   3
BRANCH   2   5
HETATM    5  C3  UNL     1       0.191   0.211   0.418  1.00  0.00     0.041 C 
BRANCH   5   6
HETATM    6  C4  UNL     1       1.139  -0.743   1.009  1.00  0.00     0.031 C 
BRANCH   6   7
HETATM    7  C5  UNL     1       2.483  -0.299   1.398  1.00  0.00     0.240 C 
BRANCH   7   8
HETATM    8  N1  UNL     1       3.322   0.144   0.405  1.00  0.00    -0.041 N 
HETATM    9  C6  UNL     1       2.980   0.788  -0.791  1.00  0.00     0.405 C 
HETATM   10  O2  UNL     1       4.252   1.009  -1.394  1.00  0.00    -0.355 OA
HETATM   11  C7  UNL     1       5.071   0.503  -0.440  1.00  0.00     0.176 C 
HETATM   12  C8  UNL     1       4.475   0.983   0.843  1.00  0.00     0.273 C 
HETATM   13  C9  UNL     1       4.372  -0.780  -0.051  1.00  0.00     0.273 C 
ENDBRANCH   7   8
ENDBRANCH   6   7
ENDBRANCH   5   6
ENDBRANCH   2   5
BRANCH   2  14
HETATM   14  C10 UNL     1      -2.030   0.635  -0.381  1.00  0.00     0.273 C 
BRANCH  14  15
HETATM   15  N2  UNL     1      -3.403   0.389  -0.594  1.00  0.00    -0.076 N 
HETATM   16  C11 UNL     1      -3.718  -0.133  -1.911  1.00  0.00     0.271 C 
HETATM   17  C12 UNL     1      -4.053  -0.397   0.426  1.00  0.00     0.271 C 
HETATM   18  C13 UNL     1      -4.066   1.704  -0.543  1.00  0.00     0.271 C 
ENDBRANCH  14  15
ENDBRANCH   2  14
TORSDOF 7
