REMARK  14 active torsions:
REMARK  status: ('A' for Active; 'I' for Inactive)
REMARK    1  A    between atoms: C3_3  and  O1_4 
REMARK    2  A    between atoms: C6_9  and  O3_10 
REMARK    3  A    between atoms: C6_9  and  O4_12 
REMARK    4  A    between atoms: C7_14  and  O5_15 
REMARK    5  A    between atoms: C8_17  and  O6_18 
REMARK    6  A    between atoms: C9_20  and  C10_21 
REMARK    7  A    between atoms: C10_21  and  O7_22 
REMARK    8  A    between atoms: O7_22  and  C11_23 
REMARK    9  A    between atoms: C11_23  and  C12_25 
REMARK   10  A    between atoms: C13_26  and  C14_28 
REMARK   11  A    between atoms: N2_29  and  C15_31 
REMARK   12  A    between atoms: C15_31  and  N3_32 
REMARK   13  A    between atoms: C15_31  and  O9_36 
REMARK   14  A    between atoms: C16_39  and  O11_41 
ROOT
HETATM    1  C1  UNL     1      -4.408  -0.593  -1.689  1.00  0.00     0.020 C 
HETATM    2  C2  UNL     1      -3.074  -1.261  -1.647  1.00  0.00     0.098 C 
HETATM    3  C3  UNL     1      -2.977  -2.385  -0.651  1.00  0.00     0.265 C 
HETATM    4  O2  UNL     1      -2.260  -2.045   0.481  1.00  0.00    -0.360 OA
HETATM    5  C4  UNL     1      -2.946  -1.509   1.514  1.00  0.00     0.184 C 
HETATM    6  C5  UNL     1      -2.298  -0.211   1.903  1.00  0.00     0.114 C 
HETATM    7  C6  UNL     1      -3.267   0.874   2.249  1.00  0.00     0.197 C 
HETATM    8  C7  UNL     1      -2.652   2.099   1.629  1.00  0.00     0.212 C 
HETATM    9  C8  UNL     1      -1.198   1.749   1.373  1.00  0.00     0.189 C 
HETATM   10  C9  UNL     1      -1.382   0.314   0.813  1.00  0.00     0.125 C 
HETATM   11  O10 UNL     1      -1.988   0.437  -0.322  1.00  0.00    -0.339 OA
HETATM   12  C16 UNL     1      -1.941  -0.243  -1.427  1.00  0.00     0.167 C 
HETATM   13  C17 UNL     1      -2.101   0.730  -2.598  1.00  0.00     0.079 C 
ENDROOT
BRANCH  10  14
HETATM   14  C10 UNL     1      -0.057  -0.321   0.968  1.00  0.00     0.220 C 
BRANCH  14  15
HETATM   15  O7  UNL     1       0.905   0.411   0.187  1.00  0.00    -0.315 OA
BRANCH  15  16
HETATM   16  C11 UNL     1       2.247   0.025   0.152  1.00  0.00     0.284 C 
HETATM   17  O8  UNL     1       2.527  -0.980   0.836  1.00  0.00    -0.260 OA
BRANCH  16  18
HETATM   18  C12 UNL     1       3.251   0.713  -0.606  1.00  0.00     0.110 C 
HETATM   19  C13 UNL     1       4.514   0.295  -0.599  1.00  0.00     0.067 C 
HETATM   20  N1  UNL     1       4.826  -0.841   0.176  1.00  0.00    -0.101 NA
BRANCH  19  21
HETATM   21  C14 UNL     1       5.463   1.054  -1.395  1.00  0.00     0.113 C 
HETATM   22  N2  UNL     1       6.674   0.895  -1.570  1.00  0.00    -0.350 N 
ATOM     23  H2  UNL     1       7.094   1.588  -2.189  1.00  0.00     0.163 HD
BRANCH  22  24
HETATM   24  C15 UNL     1       7.580  -0.049  -1.085  1.00  0.00     0.423 C 
BRANCH  24  25
HETATM   25  N3  UNL     1       7.400  -1.371  -1.675  1.00  0.00    -0.035 N 
ATOM     26  H33 UNL     1       6.440  -1.694  -1.556  1.00  0.00     0.279 HD
ATOM     27  H32 UNL     1       7.436  -1.323  -2.693  1.00  0.00     0.279 HD
ATOM     28  H31 UNL     1       8.062  -2.061  -1.320  1.00  0.00     0.279 HD
ENDBRANCH  24  25
BRANCH  24  29
HETATM   29  O9  UNL     1       7.705  -0.130   0.306  1.00  0.00    -0.355 OA
ATOM     30  H9  UNL     1       8.322  -0.773   0.636  1.00  0.00     0.213 HD
ENDBRANCH  24  29
ENDBRANCH  22  24
ENDBRANCH  19  21
ENDBRANCH  16  18
ENDBRANCH  15  16
ENDBRANCH  14  15
ENDBRANCH  10  14
BRANCH   9  31
HETATM   31  O6  UNL     1      -0.651   2.525   0.365  1.00  0.00    -0.390 OA
ATOM     32  H6  UNL     1       0.259   2.306   0.205  1.00  0.00     0.210 HD
ENDBRANCH   9  31
BRANCH   7  33
HETATM   33  O3  UNL     1      -3.327   1.062   3.627  1.00  0.00    -0.363 OA
ATOM     34  H3  UNL     1      -3.943   1.751   3.847  1.00  0.00     0.213 HD
ENDBRANCH   7  33
BRANCH   7  35
HETATM   35  O4  UNL     1      -4.559   0.639   1.812  1.00  0.00    -0.363 OA
ATOM     36  H4  UNL     1      -5.175   1.328   2.032  1.00  0.00     0.213 HD
ENDBRANCH   7  35
BRANCH   8  37
HETATM   37  O5  UNL     1      -2.708   3.214   2.454  1.00  0.00    -0.387 OA
ATOM     38  H5  UNL     1      -2.320   3.988   2.062  1.00  0.00     0.210 HD
ENDBRANCH   8  37
BRANCH  12  39
HETATM   39  O11 UNL     1      -0.768  -0.929  -1.746  1.00  0.00    -0.365 OA
ATOM     40  H11 UNL     1      -0.069  -0.301  -1.610  1.00  0.00     0.213 HD
ENDBRANCH  12  39
BRANCH   3  41
HETATM   41  O1  UNL     1      -4.162  -3.028  -0.423  1.00  0.00    -0.371 OA
ATOM     42  H1  UNL     1      -4.101  -3.738   0.206  1.00  0.00     0.212 HD
ENDBRANCH   3  41
TORSDOF 14
