REMARK  2 active torsions:
REMARK  status: ('A' for Active; 'I' for Inactive)
REMARK    1  A    between atoms: N2_5  and  C4_6 
REMARK    2  A    between atoms: C4_6  and  N3_8 
ROOT
HETATM    1  C1  UNL     1      -1.489  -2.076  -0.847  1.00  0.00     0.312 C 
HETATM    2  N1  UNL     1      -0.943  -0.904  -0.203  1.00  0.00     0.114 N 
HETATM    3  C2  UNL     1      -0.415  -1.294   1.086  1.00  0.00     0.294 C 
HETATM    4  C3  UNL     1       1.086  -1.330   0.887  1.00  0.00     0.155 C 
HETATM    5  N2  UNL     1       1.515   0.032   0.679  1.00  0.00    -0.354 N 
HETATM    6  C5  UNL     1       0.879   1.323   0.814  1.00  0.00     0.155 C 
HETATM    7  C6  UNL     1      -0.036   1.636  -0.338  1.00  0.00     0.294 C 
HETATM    8  N4  UNL     1      -1.438   1.449   0.001  1.00  0.00     0.114 N 
HETATM    9  C7  UNL     1      -2.188   2.301  -0.907  1.00  0.00     0.312 C 
HETATM   10  C8  UNL     1      -1.912   0.121  -0.169  1.00  0.00     0.541 C 
ENDROOT
BRANCH   5  11
HETATM   11  C4  UNL     1       2.888   0.107   0.242  1.00  0.00     0.184 C 
HETATM   12  S1  UNL     1       3.560   1.560  -0.050  1.00  0.00    -0.040 SA
BRANCH  11  13
HETATM   13  N3  UNL     1       3.653  -1.058   0.065  1.00  0.00    -0.275 N 
HETATM   14 CL1  UNL     1       5.296  -0.947  -0.460  1.00  0.00     0.013 Cl
ATOM     15  H3  UNL     1       3.238  -1.972   0.247  1.00  0.00     0.183 HD
ENDBRANCH  11  13
ENDBRANCH   5  11
TORSDOF 2
