REMARK  3 active torsions:
REMARK  status: ('A' for Active; 'I' for Inactive)
REMARK    1  A    between atoms: C2_2  and  N1_4 
REMARK    2  A    between atoms: N1_4  and  S1_6 
REMARK    3  A    between atoms: S1_6  and  N2_8 
REMARK       I    between atoms: N3_11  and  C6_12 
ROOT
HETATM    1  N2  UNL     1       0.154  -0.692  -0.212  1.00  0.00    -0.213 NA
HETATM    2  C4  UNL     1       0.895   0.165  -1.080  1.00  0.00     0.126 C 
HETATM    3  C5  UNL     1       2.382   0.008  -0.965  1.00  0.00     0.141 C 
HETATM    4  N3  UNL     1       2.843   0.066   0.406  1.00  0.00    -0.354 N 
HETATM    5  C6  UNL     1       4.137   0.569   0.707  1.00  0.00     0.184 C 
HETATM    6  N4  UNL     1       4.410   1.033   1.869  1.00  0.00    -0.374 N 
ATOM      7  H41 UNL     1       5.339   1.394   2.085  1.00  0.00     0.158 HD
ATOM      8  H42 UNL     1       3.681   1.038   2.582  1.00  0.00     0.158 HD
HETATM    9  N5  UNL     1       5.150   0.562  -0.283  1.00  0.00    -0.064 NA
HETATM   10  C7  UNL     1       1.942  -0.403   1.438  1.00  0.00     0.141 C 
HETATM   11  C8  UNL     1       0.965  -1.351   0.770  1.00  0.00     0.126 C 
ENDROOT
BRANCH   1  12
HETATM   12  S1  UNL     1      -1.232   0.108   0.476  1.00  0.00     0.193 S 
HETATM   13  O1  UNL     1      -1.345   1.502  -0.158  1.00  0.00    -0.218 OA
BRANCH  12  14
HETATM   14  N1  UNL     1      -2.695  -0.790   0.263  1.00  0.00    -0.324 N 
ATOM     15  H1  UNL     1      -2.889  -1.673   0.735  1.00  0.00     0.171 HD
BRANCH  14  16
HETATM   16  C2  UNL     1      -3.617  -0.153  -0.659  1.00  0.00     0.083 C 
HETATM   17  C1  UNL     1      -4.030   1.221  -0.200  1.00  0.00     0.032 C 
HETATM   18  C3  UNL     1      -4.858  -1.051  -0.713  1.00  0.00     0.032 C 
ENDBRANCH  14  16
ENDBRANCH  12  14
ENDBRANCH   1  12
TORSDOF 3
