REMARK  3 active torsions:
REMARK  status: ('A' for Active; 'I' for Inactive)
REMARK    1  A    between atoms: C2_2  and  C3_3 
REMARK    2  A    between atoms: C5_5  and  C6_6 
REMARK    3  A    between atoms: C7_7  and  C8_8 
ROOT
HETATM    1  C8  UNL     1      -0.084  -1.349   1.390  1.00  0.00     0.056 C 
HETATM    2  C9  UNL     1      -0.547  -1.922   2.787  1.00  0.00     0.033 C 
HETATM    3  C10 UNL     1      -0.740  -2.254   0.408  1.00  0.00    -0.004 C 
HETATM    4  C11 UNL     1      -0.421  -2.218  -1.004  1.00  0.00     0.024 C 
HETATM    5  C12 UNL     1      -1.148  -1.830  -2.050  1.00  0.00     0.175 C 
HETATM    6  O1  UNL     1      -2.437  -1.349  -1.974  1.00  0.00    -0.209 OA
HETATM    7  O2  UNL     1      -3.135  -0.670  -1.170  1.00  0.00    -0.225 OA
HETATM    8  C13 UNL     1      -3.206   0.686  -1.124  1.00  0.00     0.100 A 
HETATM    9  C14 UNL     1      -2.668   1.270   0.248  1.00  0.00     0.072 C 
HETATM   10  C15 UNL     1      -1.599   0.323   0.478  1.00  0.00     0.028 C 
HETATM   11  C16 UNL     1      -0.649   0.059   1.482  1.00  0.00     0.161 C 
HETATM   12  O3  UNL     1      -0.220   0.732   2.374  1.00  0.00    -0.292 OA
HETATM   13  C17 UNL     1      -3.431   1.593  -2.239  1.00  0.00     0.044 A 
HETATM   14  C18 UNL     1      -4.616   1.237  -1.434  1.00  0.00     0.044 A 
ENDROOT
BRANCH   1  15
HETATM   15  C7  UNL     1       1.340  -1.478   1.385  1.00  0.00    -0.005 C 
HETATM   16  C6  UNL     1       2.318  -0.768   0.915  1.00  0.00    -0.002 C 
BRANCH  16  17
HETATM   17  C5  UNL     1       2.240   0.462   0.198  1.00  0.00     0.006 C 
HETATM   18  C3  UNL     1       3.378   1.061  -0.214  1.00  0.00    -0.063 C 
HETATM   19  C4  UNL     1       4.678   0.443   0.076  1.00  0.00     0.048 C 
BRANCH  18  20
HETATM   20  C2  UNL     1       3.277   2.288  -0.927  1.00  0.00    -0.004 C 
HETATM   21  C1  UNL     1       4.327   2.936  -1.364  1.00  0.00     0.012 C 
ENDBRANCH  18  20
ENDBRANCH  16  17
ENDBRANCH   1  15
TORSDOF 3
