REMARK  6 active torsions:
REMARK  status: ('A' for Active; 'I' for Inactive)
REMARK    1  A    between atoms: C2_2  and  N1_3 
REMARK    2  A    between atoms: C4_5  and  C5_6 
REMARK    3  A    between atoms: C6_7  and  C7_8 
REMARK    4  A    between atoms: C7_8  and  C8_9 
REMARK    5  A    between atoms: C8_9  and  O1_11 
REMARK    6  A    between atoms: C8_9  and  C10_13 
ROOT
HETATM    1  N1  UNL     1       3.710   1.017  -0.259  1.00  0.00    -0.342 N 
HETATM    2  C3  UNL     1       2.403   1.185  -0.049  1.00  0.00     0.113 A 
HETATM    3  C4  UNL     1       1.497   0.149   0.054  1.00  0.00     0.034 A 
HETATM    4  C14 UNL     1       2.005  -1.128  -0.074  1.00  0.00     0.033 A 
HETATM    5  C15 UNL     1       3.347  -1.345  -0.292  1.00  0.00    -0.011 A 
HETATM    6  C16 UNL     1       4.176  -0.238  -0.379  1.00  0.00     0.109 A 
HETATM    7  N2  UNL     1       5.500  -0.707  -0.604  1.00  0.00    -0.375 N 
ATOM      8  H2  UNL     1       6.273  -0.140  -0.952  1.00  0.00     0.161 HD
HETATM    9  C17 UNL     1       5.583  -2.105  -0.265  1.00  0.00     0.126 C 
HETATM   10  C18 UNL     1       4.157  -2.571  -0.464  1.00  0.00     0.062 C 
ENDROOT
BRANCH   3  11
HETATM   11  C5  UNL     1       0.089   0.392   0.283  1.00  0.00    -0.066 C 
HETATM   12  C6  UNL     1      -1.086   0.607   0.457  1.00  0.00    -0.098 C 
BRANCH  12  13
HETATM   13  C7  UNL     1      -2.529   0.863   0.646  1.00  0.00     0.132 C 
BRANCH  13  14
HETATM   14  C8  UNL     1      -3.257  -0.193  -0.147  1.00  0.00     0.071 C 
HETATM   15  C9  UNL     1      -2.948  -1.586   0.291  1.00  0.00     0.047 C 
BRANCH  14  16
HETATM   16  O1  UNL     1      -2.933  -0.012  -1.506  1.00  0.00    -0.389 OA
ATOM     17  H1  UNL     1      -3.392  -0.677  -2.006  1.00  0.00     0.210 HD
ENDBRANCH  14  16
BRANCH  14  18
HETATM   18  C10 UNL     1      -4.743   0.130  -0.031  1.00  0.00    -0.020 C 
HETATM   19  C11 UNL     1      -5.511  -0.908  -0.813  1.00  0.00     0.017 C 
HETATM   20  C12 UNL     1      -5.026   1.470  -0.636  1.00  0.00     0.017 C 
HETATM   21  C13 UNL     1      -5.107   0.138   1.427  1.00  0.00     0.017 C 
ENDBRANCH  14  18
ENDBRANCH  13  14
ENDBRANCH  12  13
ENDBRANCH   3  11
BRANCH   1  22
HETATM   22  C2  UNL     1       4.641   2.124  -0.363  1.00  0.00     0.125 C 
HETATM   23  C1  UNL     1       5.199   2.473   1.007  1.00  0.00     0.027 C 
ENDBRANCH   1  22
TORSDOF 6
