REMARK  11 active torsions:
REMARK  status: ('A' for Active; 'I' for Inactive)
REMARK    1  A    between atoms: C2_2  and  C5_5 
REMARK    2  A    between atoms: C5_5  and  C6_6 
REMARK    3  A    between atoms: N1_8  and  C8_9 
REMARK    4  A    between atoms: C9_12  and  N3_13 
REMARK    5  A    between atoms: N3_13  and  O1_15 
REMARK    6  A    between atoms: O1_15  and  C10_16 
REMARK    7  A    between atoms: C10_16  and  C11_17 
REMARK    8  A    between atoms: C11_17  and  O2_18 
REMARK    9  A    between atoms: O2_18  and  N4_19 
REMARK   10  A    between atoms: C12_24  and  N6_25 
REMARK   11  A    between atoms: N6_25  and  O3_27 
ROOT
HETATM    1  C8  UNL     1       0.596  -0.176  -0.693  1.00  0.00     0.721 A 
HETATM    2  N2  UNL     1       1.593   0.635  -0.294  1.00  0.00    -0.019 N 
ATOM      3  H2  UNL     1       1.387   1.606  -0.061  1.00  0.00     0.203 HD
HETATM    4  C9  UNL     1       2.858   0.185  -0.198  1.00  0.00     0.731 A 
HETATM    5  N5  UNL     1       3.180  -1.087  -0.494  1.00  0.00    -0.018 N 
ATOM      6  H5  UNL     1       4.142  -1.419  -0.418  1.00  0.00     0.203 HD
HETATM    7  C12 UNL     1       2.192  -1.907  -0.894  1.00  0.00     0.731 A 
HETATM    8  N7  UNL     1       0.931  -1.450  -0.987  1.00  0.00    -0.019 N 
ATOM      9  H7  UNL     1       0.199  -2.091  -1.292  1.00  0.00     0.203 HD
ENDROOT
BRANCH   1  10
HETATM   10  N1  UNL     1      -0.756   0.266  -0.806  1.00  0.00    -0.105 N 
HETATM   11  C7  UNL     1      -1.732  -0.182  -0.033  1.00  0.00     0.137 A 
HETATM   12  C6  UNL     1      -3.085   0.249  -0.134  1.00  0.00     0.046 A 
HETATM   13  C14 UNL     1      -3.371   1.173  -1.083  1.00  0.00     0.260 A 
HETATM   14  N8  UNL     1      -2.343   1.623  -1.873  1.00  0.00    -0.274 N 
HETATM   15  O5  UNL     1      -4.501   1.677  -1.328  1.00  0.00    -0.267 OA
HETATM   16  C13 UNL     1      -1.088   1.182  -1.733  1.00  0.00     0.347 A 
ATOM     17  H8  UNL     1      -2.543   2.318  -2.592  1.00  0.00     0.173 HD
HETATM   18  O4  UNL     1      -0.139   1.608  -2.474  1.00  0.00    -0.245 OA
BRANCH  12  19
HETATM   19  C5  UNL     1      -4.013  -0.354   0.800  1.00  0.00     0.000 C 
BRANCH  19  20
HETATM   20  C2  UNL     1      -5.434  -0.029   0.870  1.00  0.00    -0.033 C 
HETATM   21  C1  UNL     1      -5.994  -0.946   2.039  1.00  0.00     0.018 C 
HETATM   22  C3  UNL     1      -6.286  -0.462  -0.301  1.00  0.00     0.018 C 
HETATM   23  C4  UNL     1      -5.801   1.351   1.340  1.00  0.00     0.018 C 
ENDBRANCH  19  20
ENDBRANCH  12  19
ENDBRANCH   1  10
BRANCH   4  24
HETATM   24  N3  UNL     1       3.827   0.964   0.186  1.00  0.00    -0.095 N 
ATOM     25  H3  UNL     1       3.617   1.935   0.418  1.00  0.00     0.213 HD
BRANCH  24  26
HETATM   26  O1  UNL     1       5.119   0.523   0.289  1.00  0.00    -0.264 OA
BRANCH  26  27
HETATM   27  C10 UNL     1       6.200   1.217  -0.318  1.00  0.00     0.230 C 
BRANCH  27  28
HETATM   28  C11 UNL     1       7.488   0.476  -0.018  1.00  0.00     0.229 C 
BRANCH  28  29
HETATM   29  O2  UNL     1       7.624   0.450   1.371  1.00  0.00    -0.285 OA
BRANCH  29  30
HETATM   30  N4  UNL     1       8.746  -0.190   1.756  1.00  0.00    -0.311 N 
ATOM     31  H42 UNL     1       9.408  -0.601   1.098  1.00  0.00     0.184 HD
ATOM     32  H41 UNL     1       8.845  -0.209   2.771  1.00  0.00     0.184 HD
ENDBRANCH  29  30
ENDBRANCH  28  29
ENDBRANCH  27  28
ENDBRANCH  26  27
ENDBRANCH  24  26
ENDBRANCH   4  24
BRANCH   7  33
HETATM   33  N6  UNL     1       2.488  -3.147  -1.185  1.00  0.00    -0.098 N 
ATOM     34  H6  UNL     1       1.754  -3.786  -1.489  1.00  0.00     0.213 HD
BRANCH  33  35
HETATM   35  O3  UNL     1       3.780  -3.592  -1.083  1.00  0.00    -0.276 OA
ATOM     36  H3  UNL     1       3.995  -4.493  -1.294  1.00  0.00     0.245 HD
ENDBRANCH  33  35
ENDBRANCH   7  33
TORSDOF 11
