REMARK  8 active torsions:
REMARK  status: ('A' for Active; 'I' for Inactive)
REMARK    1  A    between atoms: C3_10  and  N4_11 
REMARK    2  A    between atoms: N4_11  and  N5_13 
REMARK    3  A    between atoms: C4_15  and  C5_16 
REMARK    4  A    between atoms: C8_19  and  O1_20 
REMARK    5  A    between atoms: N6_22  and  C9_23 
REMARK    6  A    between atoms: C9_23  and  C10_24 
REMARK    7  A    between atoms: C10_24  and  C11_25 
REMARK    8  A    between atoms: C11_25  and  N7_26 
ROOT
HETATM    1  C5  UNL     1       1.773  -0.590   0.618  1.00  0.00     0.049 A 
HETATM    2  C6  UNL     1       1.989  -1.179   1.866  1.00  0.00     0.023 A 
HETATM    3  C7  UNL     1       1.039  -1.018   2.850  1.00  0.00     0.057 A 
HETATM    4  C8  UNL     1      -0.124  -0.300   2.664  1.00  0.00     0.144 A 
HETATM    5  N6  UNL     1      -0.318   0.266   1.445  1.00  0.00    -0.294 N 
HETATM    6  C16 UNL     1       0.595   0.122   0.471  1.00  0.00     0.261 A 
HETATM    7  O2  UNL     1       0.401   0.656  -0.663  1.00  0.00    -0.267 OA
ENDROOT
BRANCH   1   8
HETATM    8  C4  UNL     1       2.744  -0.730  -0.442  1.00  0.00     0.124 C 
HETATM    9  N5  UNL     1       3.808  -1.404  -0.237  1.00  0.00    -0.309 N 
ATOM     10  H5  UNL     1       3.925  -1.821   0.686  1.00  0.00     0.186 HD
BRANCH   9  11
HETATM   11  N4  UNL     1       4.826  -1.619  -1.170  1.00  0.00    -0.282 N 
ATOM     12  H4  UNL     1       4.717  -2.307  -1.916  1.00  0.00     0.188 HD
BRANCH  11  13
HETATM   13  C3  UNL     1       6.006  -0.860  -1.052  1.00  0.00     0.176 A 
HETATM   14  N3  UNL     1       6.457  -0.545   0.100  1.00  0.00    -0.334 N 
HETATM   15  C2  UNL     1       7.625   0.210   0.377  1.00  0.00     0.183 A 
ATOM     16  H3  UNL     1       5.922  -0.870   0.905  1.00  0.00     0.168 HD
HETATM   17  N2  UNL     1       8.369   0.669  -0.771  1.00  0.00    -0.336 N 
HETATM   18  C1  UNL     1       7.916   0.349  -2.074  1.00  0.00     0.154 A 
ATOM     19  H2  UNL     1       9.217   1.221  -0.645  1.00  0.00     0.168 HD
HETATM   20  N1  UNL     1       8.611   0.776  -3.078  1.00  0.00    -0.382 N 
HETATM   21  C17 UNL     1       6.704  -0.436  -2.251  1.00  0.00     0.260 A 
ATOM     22  H12 UNL     1       9.461   1.326  -2.954  1.00  0.00     0.157 HD
ATOM     23  H11 UNL     1       8.285   0.546  -4.017  1.00  0.00     0.157 HD
HETATM   24  O3  UNL     1       6.296  -0.724  -3.407  1.00  0.00    -0.280 OA
ENDBRANCH  11  13
ENDBRANCH   9  11
ENDBRANCH   1   8
BRANCH   5  25
HETATM   25  C9  UNL     1      -1.536   1.024   1.238  1.00  0.00     0.136 C 
BRANCH  25  26
HETATM   26  C10 UNL     1      -2.651   0.133   0.721  1.00  0.00     0.040 C 
BRANCH  26  27
HETATM   27  C11 UNL     1      -3.910   0.940   0.518  1.00  0.00     0.118 C 
BRANCH  27  28
HETATM   28  N7  UNL     1      -4.952   0.109   0.038  1.00  0.00    -0.409 N 
HETATM   29  C12 UNL     1      -4.846  -0.405  -1.276  1.00  0.00     0.144 C 
HETATM   30  C13 UNL     1      -5.627   0.402  -2.300  1.00  0.00     0.251 C 
HETATM   31  N8  UNL     1      -6.841   0.961  -1.794  1.00  0.00    -0.072 N 
HETATM   32  C14 UNL     1      -7.309   0.251  -0.635  1.00  0.00     0.251 C 
ATOM     33  H82 UNL     1      -6.741   1.958  -1.604  1.00  0.00     0.277 HD
ATOM     34  H81 UNL     1      -7.559   1.008  -2.517  1.00  0.00     0.277 HD
HETATM   35  C15 UNL     1      -6.277   0.431   0.462  1.00  0.00     0.144 C 
ENDBRANCH  27  28
ENDBRANCH  26  27
ENDBRANCH  25  26
ENDBRANCH   5  25
BRANCH   4  36
HETATM   36  O1  UNL     1      -1.083  -0.133   3.647  1.00  0.00    -0.346 OA
ATOM     37  H1  UNL     1      -1.884   0.361   3.519  1.00  0.00     0.219 HD
ENDBRANCH   4  36
TORSDOF 8
