REMARK  11 active torsions:
REMARK  status: ('A' for Active; 'I' for Inactive)
REMARK    1  A    between atoms: C3_5  and  N2_6 
REMARK    2  A    between atoms: N2_6  and  O1_8 
REMARK    3  A    between atoms: O1_8  and  C4_9 
REMARK    4  A    between atoms: C4_9  and  O2_10 
REMARK    5  A    between atoms: C5_14  and  N4_15 
REMARK    6  A    between atoms: N4_15  and  C6_17 
REMARK    7  A    between atoms: C6_17  and  C7_18 
REMARK    8  A    between atoms: C6_17  and  C8_26 
REMARK    9  A    between atoms: C7_18  and  O3_19 
REMARK   10  A    between atoms: O3_19  and  S1_20 
REMARK   11  A    between atoms: S1_20  and  N5_21 
ROOT
HETATM    1  N4  UNL     1      -0.206   0.036  -0.361  1.00  0.00    -0.363 N 
ATOM      2  H4  UNL     1      -0.076  -0.975  -0.385  1.00  0.00     0.162 HD
ENDROOT
BRANCH   1   3
HETATM    3  C5  UNL     1       0.887   0.550  -0.212  1.00  0.00     0.144 A 
HETATM    4  N3  UNL     1       1.975  -0.274  -0.116  1.00  0.00    -0.173 N 
HETATM    5  C3  UNL     1       3.212   0.223   0.049  1.00  0.00     0.704 A 
ATOM      6  H3  UNL     1       1.844  -1.284  -0.171  1.00  0.00     0.186 HD
HETATM    7  N1  UNL     1       3.477   1.530   0.132  1.00  0.00    -0.192 N 
HETATM    8  C2  UNL     1       2.448   2.380   0.044  1.00  0.00     0.050 A 
ATOM      9  H1  UNL     1       4.431   1.868   0.258  1.00  0.00     0.184 HD
HETATM   10  C1  UNL     1       2.610   3.866   0.121  1.00  0.00     0.071 C 
HETATM   11  C13 UNL     1       1.148   1.884  -0.129  1.00  0.00     0.113 A 
HETATM   12  N6  UNL     1       0.072   2.802  -0.220  1.00  0.00    -0.096 NA
BRANCH   5  13
HETATM   13  N2  UNL     1       4.221  -0.595   0.136  1.00  0.00    -0.094 N 
ATOM     14  H2  UNL     1       5.152  -0.197   0.261  1.00  0.00     0.213 HD
BRANCH  13  15
HETATM   15  O1  UNL     1       4.107  -1.943   0.070  1.00  0.00    -0.240 OA
BRANCH  15  16
HETATM   16  C4  UNL     1       4.635  -2.835   1.036  1.00  0.00     0.367 C 
BRANCH  16  17
HETATM   17  O2  UNL     1       6.016  -2.659   1.099  1.00  0.00    -0.375 OA
ATOM     18  H2  UNL     1       6.370  -3.257   1.747  1.00  0.00     0.212 HD
ENDBRANCH  16  17
ENDBRANCH  15  16
ENDBRANCH  13  15
ENDBRANCH   5  13
ENDBRANCH   1   3
BRANCH   1  19
HETATM   19  C6  UNL     1      -1.554   0.294  -0.510  1.00  0.00     0.145 C 
BRANCH  19  20
HETATM   20  C7  UNL     1      -2.250  -0.140   0.797  1.00  0.00     0.222 C 
BRANCH  20  21
HETATM   21  O3  UNL     1      -1.732   0.582   1.871  1.00  0.00    -0.257 OA
BRANCH  21  22
HETATM   22  S1  UNL     1      -2.424   0.179   3.317  1.00  0.00     0.355 S 
HETATM   23  O4  UNL     1      -2.602   1.404   4.165  1.00  0.00    -0.176 OA
HETATM   24  O5  UNL     1      -1.533  -0.775   4.036  1.00  0.00    -0.176 OA
BRANCH  22  25
HETATM   25  N5  UNL     1      -3.945  -0.588   2.991  1.00  0.00    -0.306 N 
ATOM     26  H52 UNL     1      -4.332  -0.754   2.062  1.00  0.00     0.171 HD
ATOM     27  H51 UNL     1      -4.372  -0.837   3.883  1.00  0.00     0.171 HD
ENDBRANCH  22  25
ENDBRANCH  21  22
ENDBRANCH  20  21
ENDBRANCH  19  20
BRANCH  19  28
HETATM   28  C8  UNL     1      -2.145  -0.525  -1.632  1.00  0.00     0.009 C 
HETATM   29  C9  UNL     1      -1.441  -1.322  -2.392  1.00  0.00    -0.013 C 
HETATM   30  C10 UNL     1      -2.326  -1.985  -3.406  1.00  0.00     0.035 C 
HETATM   31  C11 UNL     1      -3.725  -1.760  -2.865  1.00  0.00     0.087 C 
HETATM   32  C12 UNL     1      -3.543  -0.553  -2.030  1.00  0.00     0.157 C 
HETATM   33  O6  UNL     1      -4.451   0.293  -1.725  1.00  0.00    -0.293 OA
ENDBRANCH  19  28
ENDBRANCH   1  19
TORSDOF 11
