REMARK  5 active torsions:
REMARK  status: ('A' for Active; 'I' for Inactive)
REMARK    1  A    between atoms: C11_13  and  N2_14 
REMARK    2  A    between atoms: C12_16  and  C13_17 
REMARK    3  A    between atoms: C13_17  and  S1_18 
REMARK    4  A    between atoms: S1_18  and  C14_19 
REMARK    5  A    between atoms: N3_25  and  N4_26 
REMARK       I    between atoms: N4_26  and  C17_28 
REMARK       I    between atoms: C17_28  and  N5_30 
ROOT
HETATM    1  C1  UNL     1      -2.736   4.825   0.948  1.00  0.00     0.010 C 
HETATM    2  C2  UNL     1      -2.229   4.548  -0.472  1.00  0.00    -0.018 C 
HETATM    3  C3  UNL     1      -0.707   4.581  -0.400  1.00  0.00     0.008 C 
HETATM    4  C4  UNL     1      -0.314   3.299   0.344  1.00  0.00     0.056 C 
HETATM    5  C5  UNL     1      -0.316   2.203  -0.703  1.00  0.00     0.126 C 
HETATM    6  C6  UNL     1      -1.499   2.410  -1.585  1.00  0.00     0.056 C 
HETATM    7  C7  UNL     1      -2.626   3.157  -0.877  1.00  0.00     0.008 C 
HETATM    8  N1  UNL     1       0.961   2.297  -1.385  1.00  0.00    -0.360 N 
ATOM      9  H1  UNL     1       1.141   2.797  -2.255  1.00  0.00     0.162 HD
HETATM   10  C8  UNL     1       1.916   1.569  -0.626  1.00  0.00     0.059 A 
HETATM   11  C9  UNL     1       3.302   1.604  -0.568  1.00  0.00     0.034 A 
HETATM   12  C10 UNL     1       3.977   0.757   0.286  1.00  0.00     0.032 A 
HETATM   13  C11 UNL     1       3.237  -0.110   1.068  1.00  0.00     0.034 A 
HETATM   14  C15 UNL     1       1.845  -0.142   1.006  1.00  0.00     0.063 A 
HETATM   15  C16 UNL     1       1.167   0.695   0.161  1.00  0.00     0.082 A 
HETATM   16  N3  UNL     1      -0.220   0.892  -0.118  1.00  0.00    -0.257 N 
ENDROOT
BRANCH  16  17
HETATM   17  N4  UNL     1      -1.267  -0.004   0.125  1.00  0.00    -0.246 N 
HETATM   18  C17 UNL     1      -1.193  -1.376  -0.206  1.00  0.00     0.337 C 
HETATM   19  O1  UNL     1      -0.133  -1.788  -0.740  1.00  0.00    -0.245 OA
HETATM   20  N5  UNL     1      -2.232  -2.284   0.030  1.00  0.00    -0.333 N 
HETATM   21  C18 UNL     1      -3.504  -1.963   0.628  1.00  0.00     0.127 C 
HETATM   22  C22 UNL     1      -2.074  -3.704  -0.337  1.00  0.00     0.127 C 
HETATM   23  C19 UNL     1      -4.618  -2.582  -0.194  1.00  0.00     0.020 C 
HETATM   24  C20 UNL     1      -4.542  -4.091  -0.207  1.00  0.00     0.003 C 
HETATM   25  C21 UNL     1      -3.185  -4.538   0.279  1.00  0.00     0.020 C 
ATOM     26  H4  UNL     1      -2.120   0.348   0.560  1.00  0.00     0.192 HD
ENDBRANCH  16  17
BRANCH  13  27
HETATM   27  N2  UNL     1       3.913  -0.972   1.941  1.00  0.00    -0.369 N 
HETATM   28  C12 UNL     1       4.636  -1.969   1.625  1.00  0.00     0.071 C 
ATOM     29  H2  UNL     1       3.815  -0.779   2.938  1.00  0.00     0.165 HD
BRANCH  28  30
HETATM   30  C13 UNL     1       4.906  -2.420   0.233  1.00  0.00     0.127 C 
BRANCH  30  31
HETATM   31  S1  UNL     1       6.163  -3.712   0.182  1.00  0.00    -0.051 SA
BRANCH  31  32
HETATM   32  C14 UNL     1       7.776  -3.042   0.715  1.00  0.00     0.443 C 
HETATM   33  F1  UNL     1       8.751  -3.991   0.691  1.00  0.00    -0.160 F 
HETATM   34  F2  UNL     1       7.666  -2.531   1.994  1.00  0.00    -0.160 F 
HETATM   35  F3  UNL     1       8.131  -2.008  -0.157  1.00  0.00    -0.160 F 
ENDBRANCH  31  32
ENDBRANCH  30  31
ENDBRANCH  28  30
ENDBRANCH  13  27
TORSDOF 5
