REMARK  6 active torsions:
REMARK  status: ('A' for Active; 'I' for Inactive)
REMARK    1  A    between atoms: C3_3  and  C4_4 
REMARK       I    between atoms: C4_4  and  N1_6 
REMARK       I    between atoms: N1_6  and  C5_8 
REMARK       I    between atoms: C5_8  and  N2_9 
REMARK       I    between atoms: C5_8  and  N3_13 
REMARK    2  A    between atoms: C8_21  and  C9_22 
REMARK    3  A    between atoms: C9_22  and  C10_23 
REMARK    4  A    between atoms: C10_23  and  C11_24 
REMARK    5  A    between atoms: C14_32  and  N7_33 
REMARK    6  A    between atoms: N7_33  and  C15_35 
ROOT
HETATM    1  C15 UNL     1       6.205   0.501  -0.945  1.00  0.00     0.262 C 
HETATM    2  C16 UNL     1       6.822  -0.060   0.280  1.00  0.00     0.079 C 
HETATM    3  N8  UNL     1       7.317  -0.514   1.228  1.00  0.00    -0.196 NA
ENDROOT
BRANCH   1   4
HETATM    4  N7  UNL     1       5.176  -0.369  -1.449  1.00  0.00    -0.214 N 
ATOM      5  H7  UNL     1       5.297  -0.866  -2.332  1.00  0.00     0.178 HD
BRANCH   4   6
HETATM    6  C14 UNL     1       3.983  -0.519  -0.684  1.00  0.00     0.678 C 
HETATM    7  N6  UNL     1       2.639  -0.460  -1.136  1.00  0.00    -0.202 N 
HETATM    8  C12 UNL     1       1.826  -1.003  -0.077  1.00  0.00     0.176 C 
ATOM      9  H6  UNL     1       2.312  -0.103  -2.034  1.00  0.00     0.179 HD
HETATM   10  C7  UNL     1       0.480  -0.451   0.002  1.00  0.00     0.032 A 
HETATM   11  C13 UNL     1       1.677  -2.489  -0.338  1.00  0.00     0.168 C 
HETATM   12  C17 UNL     1       2.667  -0.846   1.109  1.00  0.00     0.271 C 
HETATM   13  C6  UNL     1      -0.391  -1.547   0.022  1.00  0.00     0.111 A 
HETATM   14  C8  UNL     1      -0.036   0.825   0.038  1.00  0.00    -0.036 A 
HETATM   15  N4  UNL     1      -1.705  -1.384   0.073  1.00  0.00    -0.337 N 
HETATM   16  N5  UNL     1       0.330  -2.772  -0.006  1.00  0.00    -0.372 N 
HETATM   17  C3  UNL     1      -2.255  -0.162   0.108  1.00  0.00     0.108 A 
ATOM     18  H4  UNL     1      -2.310  -2.205   0.086  1.00  0.00     0.167 HD
HETATM   19  C2  UNL     1      -1.411   0.944   0.089  1.00  0.00    -0.023 A 
HETATM   20  C1  UNL     1      -2.014   2.279   0.095  1.00  0.00     0.051 C 
ATOM     21  H5  UNL     1      -0.057  -3.697   0.181  1.00  0.00     0.161 HD
HETATM   22  N9  UNL     1       4.007  -0.741   0.608  1.00  0.00    -0.158 N 
HETATM   23  O3  UNL     1       2.380  -0.800   2.344  1.00  0.00    -0.269 OA
ATOM     24  H9  UNL     1       4.852  -0.826   1.173  1.00  0.00     0.187 HD
BRANCH  17  25
HETATM   25  C4  UNL     1      -3.702  -0.100   0.171  1.00  0.00     0.271 C 
HETATM   26  O1  UNL     1      -4.314   0.970   0.254  1.00  0.00    -0.266 OA
HETATM   27  N1  UNL     1      -4.460  -1.296   0.136  1.00  0.00    -0.306 N 
HETATM   28  C5  UNL     1      -5.900  -1.335   0.193  1.00  0.00     0.483 C 
ATOM     29  H1  UNL     1      -3.958  -2.181   0.066  1.00  0.00     0.166 HD
HETATM   30  N2  UNL     1      -6.358  -1.873  -1.083  1.00  0.00    -0.033 N 
HETATM   31  N3  UNL     1      -6.441  -2.145   1.229  1.00  0.00    -0.033 N 
ATOM     32  H23 UNL     1      -6.001  -1.358  -1.888  1.00  0.00     0.278 HD
ATOM     33  H22 UNL     1      -5.940  -2.775  -1.312  1.00  0.00     0.278 HD
ATOM     34  H21 UNL     1      -7.377  -1.901  -1.043  1.00  0.00     0.278 HD
ATOM     35  H33 UNL     1      -6.066  -3.092   1.167  1.00  0.00     0.278 HD
ATOM     36  H32 UNL     1      -6.061  -1.861   2.132  1.00  0.00     0.278 HD
ATOM     37  H31 UNL     1      -7.460  -2.173   1.269  1.00  0.00     0.278 HD
ENDBRANCH  17  25
BRANCH  14  38
HETATM   38  C9  UNL     1       0.815   1.992   0.049  1.00  0.00     0.047 C 
BRANCH  38  39
HETATM   39  C10 UNL     1       1.019   2.651   1.394  1.00  0.00     0.074 C 
BRANCH  39  40
HETATM   40  C11 UNL     1       1.910   3.856   1.240  1.00  0.00     0.231 C 
HETATM   41  O2  UNL     1       2.157   4.472   2.262  1.00  0.00    -0.307 OA
ENDBRANCH  39  40
ENDBRANCH  38  39
ENDBRANCH  14  38
ENDBRANCH   4   6
ENDBRANCH   1   4
TORSDOF 6
