REMARK  7 active torsions:
REMARK  status: ('A' for Active; 'I' for Inactive)
REMARK    1  A    between atoms: C3_3  and  N1_4 
REMARK    2  A    between atoms: N1_4  and  C4_5 
REMARK    3  A    between atoms: N1_4  and  C12_13 
REMARK    4  A    between atoms: C4_5  and  C5_6 
REMARK    5  A    between atoms: C12_13  and  C13_14 
REMARK    6  A    between atoms: N2_16  and  C15_17 
REMARK    7  A    between atoms: C15_17  and  C16_18 
ROOT
HETATM    1  C1  UNL     1       1.419   4.278  -1.113  1.00  0.00     0.014 C 
HETATM    2  C2  UNL     1       1.294   3.073  -0.999  1.00  0.00    -0.098 C 
HETATM    3  C3  UNL     1       1.153   1.616  -0.845  1.00  0.00     0.215 C 
ENDROOT
BRANCH   3   4
HETATM    4  N1  UNL     1       1.179   1.291   0.529  1.00  0.00    -0.373 N 
BRANCH   4   5
HETATM    5  C4  UNL     1       2.410   1.463   1.218  1.00  0.00     0.161 C 
BRANCH   5   6
HETATM    6  C5  UNL     1       3.535   0.654   0.758  1.00  0.00    -0.040 A 
HETATM    7  C6  UNL     1       4.369   1.088  -0.238  1.00  0.00     0.009 A 
HETATM    8  C7  UNL     1       5.448   0.338  -0.694  1.00  0.00     0.007 A 
HETATM    9  C8  UNL     1       5.683  -0.900  -0.110  1.00  0.00    -0.062 A 
HETATM   10  C9  UNL     1       6.831  -1.712  -0.586  1.00  0.00     0.048 C 
HETATM   11  C10 UNL     1       4.865  -1.372   0.897  1.00  0.00     0.007 A 
HETATM   12  C11 UNL     1       3.806  -0.597   1.320  1.00  0.00     0.009 A 
ENDBRANCH   5   6
ENDBRANCH   4   5
BRANCH   4  13
HETATM   13  C12 UNL     1       0.336   0.262   0.996  1.00  0.00     0.119 C 
BRANCH  13  14
HETATM   14  C13 UNL     1      -1.084   0.612   0.774  1.00  0.00     0.081 A 
HETATM   15  C14 UNL     1      -1.931   0.203  -0.231  1.00  0.00     0.144 A 
HETATM   16  N2  UNL     1      -3.148   0.758  -0.050  1.00  0.00    -0.283 N 
HETATM   17  N4  UNL     1      -3.078   1.494   1.030  1.00  0.00    -0.240 N 
HETATM   18  N5  UNL     1      -1.862   1.429   1.546  1.00  0.00    -0.284 N 
ATOM     19  H4  UNL     1      -3.849   2.038   1.417  1.00  0.00     0.208 HD
ATOM     20  H5  UNL     1      -1.553   1.913   2.389  1.00  0.00     0.188 HD
BRANCH  16  21
HETATM   21  C15 UNL     1      -4.321   0.569  -0.912  1.00  0.00     0.189 C 
BRANCH  21  22
HETATM   22  C16 UNL     1      -5.121  -0.592  -0.466  1.00  0.00    -0.023 A 
HETATM   23  C17 UNL     1      -6.118  -0.470   0.475  1.00  0.00     0.015 A 
HETATM   24  C18 UNL     1      -6.845  -1.570   0.867  1.00  0.00     0.075 A 
HETATM   25  C19 UNL     1      -6.567  -2.800   0.311  1.00  0.00     0.245 A 
HETATM   26  O1  UNL     1      -7.235  -3.812   0.672  1.00  0.00    -0.268 OA
HETATM   27  N3  UNL     1      -5.585  -2.920  -0.615  1.00  0.00    -0.333 N 
HETATM   28  C20 UNL     1      -4.880  -1.843  -0.993  1.00  0.00     0.100 A 
ATOM     29  H3  UNL     1      -5.381  -3.831  -1.026  1.00  0.00     0.168 HD
ENDBRANCH  21  22
ENDBRANCH  16  21
ENDBRANCH  13  14
ENDBRANCH   4  13
ENDBRANCH   3   4
TORSDOF 7
