REMARK  7 active torsions:
REMARK  status: ('A' for Active; 'I' for Inactive)
REMARK    1  A    between atoms: S1_2  and  N1_4 
REMARK    2  A    between atoms: S1_2  and  C9_17 
REMARK    3  A    between atoms: N1_4  and  C1_6 
REMARK    4  A    between atoms: C1_6  and  C2_7 
REMARK    5  A    between atoms: C2_7  and  O3_8 
REMARK    6  A    between atoms: O3_8  and  C3_9 
REMARK    7  A    between atoms: C3_9  and  C4_10 
ROOT
HETATM    1  O1  UNL     1      -0.346   3.176  -0.129  1.00  0.00    -0.201 OA
HETATM    2  S1  UNL     1      -1.002   2.242  -1.076  1.00  0.00     0.258 S 
HETATM    3  O2  UNL     1      -1.643   3.018  -2.193  1.00  0.00    -0.201 OA
ENDROOT
BRANCH   2   4
HETATM    4  N1  UNL     1       0.155   1.173  -1.796  1.00  0.00    -0.313 N 
ATOM      5  H1  UNL     1       0.348   1.123  -2.796  1.00  0.00     0.172 HD
BRANCH   4   6
HETATM    6  C1  UNL     1       0.815   0.358  -0.793  1.00  0.00     0.158 C 
BRANCH   6   7
HETATM    7  C2  UNL     1       1.791  -0.525  -1.523  1.00  0.00     0.188 C 
BRANCH   7   8
HETATM    8  O3  UNL     1       2.716   0.211  -2.208  1.00  0.00    -0.384 OA
BRANCH   8   9
HETATM    9  C3  UNL     1       3.518   0.974  -1.383  1.00  0.00     0.224 C 
BRANCH   9  10
HETATM   10  C4  UNL     1       4.309   0.110  -0.450  1.00  0.00     0.033 A 
HETATM   11  C5  UNL     1       4.020  -0.063   0.881  1.00  0.00     0.027 A 
HETATM   12  C6  UNL     1       4.780  -0.875   1.703  1.00  0.00     0.003 A 
HETATM   13  C7  UNL     1       5.861  -1.528   1.155  1.00  0.00     0.017 A 
HETATM   14  C8  UNL     1       6.149  -1.348  -0.199  1.00  0.00     0.088 A 
HETATM   15  N2  UNL     1       5.374  -0.547  -0.944  1.00  0.00    -0.367 N 
ATOM     16  H2  UNL     1       5.602  -0.430  -1.931  1.00  0.00     0.165 HD
ENDBRANCH   9  10
ENDBRANCH   8   9
ENDBRANCH   7   8
ENDBRANCH   6   7
ENDBRANCH   4   6
ENDBRANCH   2   4
BRANCH   2  17
HETATM   17  C9  UNL     1      -2.232   1.251  -0.274  1.00  0.00     0.081 A 
HETATM   18  C10 UNL     1      -2.051   0.892   1.047  1.00  0.00     0.026 A 
HETATM   19  C11 UNL     1      -3.030   0.115   1.653  1.00  0.00     0.015 A 
HETATM   20  C12 UNL     1      -4.162  -0.300   0.973  1.00  0.00    -0.009 A 
HETATM   21  C13 UNL     1      -5.141  -1.074   1.569  1.00  0.00     0.015 A 
HETATM   22  C16 UNL     1      -4.342   0.060  -0.349  1.00  0.00     0.043 A 
HETATM   23  C14 UNL     1      -6.277  -1.485   0.874  1.00  0.00     0.018 A 
HETATM   24  C15 UNL     1      -6.404  -1.096  -0.445  1.00  0.00     0.088 A 
HETATM   25  N3  UNL     1      -5.442  -0.342  -1.012  1.00  0.00    -0.365 N 
ATOM     26  H3  UNL     1      -5.552  -0.064  -1.987  1.00  0.00     0.165 HD
HETATM   27  C17 UNL     1      -3.361   0.838  -0.952  1.00  0.00     0.055 A 
ENDBRANCH   2  17
TORSDOF 7
