REMARK  3 active torsions:
REMARK  status: ('A' for Active; 'I' for Inactive)
REMARK    1  A    between atoms: N1_1  and  N2_4 
REMARK       I    between atoms: C1_6  and  N3_7 
REMARK       I    between atoms: C1_6  and  N6_12 
REMARK    2  A    between atoms: N6_12  and  S1_14 
REMARK    3  A    between atoms: S1_14  and  N7_15 
ROOT
HETATM    1  N2  UNL     1       0.190  -1.883  -0.081  1.00  0.00    -0.138 N 
ATOM      2  H2  UNL     1      -0.344  -2.672   0.282  1.00  0.00     0.205 HD
HETATM    3  C1  UNL     1      -0.117  -0.682   0.250  1.00  0.00     0.709 C 
HETATM    4  N3  UNL     1      -1.213  -0.420   1.134  1.00  0.00    -0.164 N 
ATOM      5  H3  UNL     1      -1.144  -0.717   2.107  1.00  0.00     0.186 HD
HETATM    6  C2  UNL     1      -2.278   0.176   0.741  1.00  0.00     0.215 C 
HETATM    7  N4  UNL     1      -2.363   0.586  -0.618  1.00  0.00    -0.066 NA
HETATM    8  N5  UNL     1      -3.316   0.398   1.673  1.00  0.00    -0.066 NA
HETATM    9  N6  UNL     1       0.660   0.371  -0.284  1.00  0.00    -0.098 N 
ATOM     10  H6  UNL     1       0.481   0.656  -1.247  1.00  0.00     0.199 HD
ENDROOT
BRANCH   1  11
HETATM   11  N1  UNL     1       1.261  -2.093  -0.942  1.00  0.00    -0.331 N 
ATOM     12  H12 UNL     1       1.785  -1.293  -1.297  1.00  0.00     0.177 HD
ATOM     13  H11 UNL     1       1.505  -3.048  -1.205  1.00  0.00     0.177 HD
ENDBRANCH   1  11
BRANCH   9  14
HETATM   14  S1  UNL     1       1.892   1.205   0.589  1.00  0.00     0.330 S 
HETATM   15  O1  UNL     1       1.994   2.591   0.072  1.00  0.00    -0.182 OA
HETATM   16  O2  UNL     1       1.661   1.159   2.068  1.00  0.00    -0.182 OA
BRANCH  14  17
HETATM   17  N7  UNL     1       3.366   0.318   0.274  1.00  0.00    -0.311 N 
ATOM     18  H72 UNL     1       3.461  -0.515  -0.306  1.00  0.00     0.170 HD
ATOM     19  H71 UNL     1       4.095   0.811   0.790  1.00  0.00     0.170 HD
ENDBRANCH  14  17
ENDBRANCH   9  14
TORSDOF 3
