REMARK  6 active torsions:
REMARK  status: ('A' for Active; 'I' for Inactive)
REMARK    1  A    between atoms: N1_1  and  S1_4 
REMARK    2  A    between atoms: S1_4  and  N2_6 
REMARK    3  A    between atoms: S1_4  and  N7_17 
REMARK    4  A    between atoms: N2_6  and  C1_8 
REMARK       I    between atoms: N7_17  and  C2_19 
REMARK       I    between atoms: C2_19  and  N9_24 
REMARK    5  A    between atoms: N8_20  and  O2_22 
REMARK    6  A    between atoms: N9_24  and  O3_26 
ROOT
HETATM    1  S1  UNL     1      -0.059  -0.129  -0.066  1.00  0.00     0.224 S 
HETATM    2  O1  UNL     1      -0.597   0.391  -1.359  1.00  0.00    -0.205 OA
ENDROOT
BRANCH   1   3
HETATM    3  N1  UNL     1       0.088  -1.860  -0.236  1.00  0.00    -0.327 N 
ATOM      4  H12 UNL     1      -0.152  -2.400  -1.067  1.00  0.00     0.169 HD
ATOM      5  H11 UNL     1       0.455  -2.215   0.647  1.00  0.00     0.169 HD
ENDBRANCH   1   3
BRANCH   1   6
HETATM    6  N2  UNL     1       1.491   0.479   0.312  1.00  0.00    -0.114 N 
ATOM      7  H2  UNL     1       1.555   1.299   0.915  1.00  0.00     0.197 HD
BRANCH   6   8
HETATM    8  C1  UNL     1       2.591  -0.047  -0.128  1.00  0.00     0.723 A 
HETATM    9  N3  UNL     1       2.774  -1.112  -0.925  1.00  0.00    -0.114 N 
HETATM   10  N4  UNL     1       4.079  -1.254  -1.090  1.00  0.00    -0.213 N 
ATOM     11  H3  UNL     1       2.045  -1.701  -1.327  1.00  0.00     0.207 HD
HETATM   12  N5  UNL     1       4.726  -0.315  -0.426  1.00  0.00    -0.213 N 
ATOM     13  H4  UNL     1       4.521  -1.984  -1.649  1.00  0.00     0.210 HD
HETATM   14  N6  UNL     1       3.815   0.422   0.162  1.00  0.00    -0.114 N 
ATOM     15  H5  UNL     1       5.737  -0.188  -0.379  1.00  0.00     0.210 HD
ATOM     16  H6  UNL     1       4.008   1.231   0.752  1.00  0.00     0.207 HD
ENDBRANCH   6   8
ENDBRANCH   1   6
BRANCH   1  17
HETATM   17  N7  UNL     1      -1.106   0.155   1.060  1.00  0.00    -0.113 N 
HETATM   18  C2  UNL     1      -2.455   0.319   0.681  1.00  0.00     0.731 C 
HETATM   19  N8  UNL     1      -3.220  -0.697   0.560  1.00  0.00    -0.096 N 
HETATM   20  N9  UNL     1      -2.960   1.612   0.435  1.00  0.00    -0.096 N 
ATOM     21  H8  UNL     1      -2.812  -1.613   0.748  1.00  0.00     0.213 HD
ATOM     22  H9  UNL     1      -3.662   1.715  -0.298  1.00  0.00     0.213 HD
ATOM     23  H7  UNL     1      -0.823   0.220   2.038  1.00  0.00     0.197 HD
BRANCH  19  24
HETATM   24  O2  UNL     1      -4.526  -0.663   0.204  1.00  0.00    -0.276 OA
ATOM     25  H2  UNL     1      -5.095  -1.419   0.114  1.00  0.00     0.245 HD
ENDBRANCH  19  24
BRANCH  20  26
HETATM   26  O3  UNL     1      -2.580   2.723   1.101  1.00  0.00    -0.276 OA
ATOM     27  H3  UNL     1      -2.920   3.594   0.935  1.00  0.00     0.245 HD
ENDBRANCH  20  26
ENDBRANCH   1  17
TORSDOF 6
