REMARK  10 active torsions:
REMARK  status: ('A' for Active; 'I' for Inactive)
REMARK    1  A    between atoms: C4_7  and  O2_8 
REMARK    2  A    between atoms: C6_14  and  N3_15 
REMARK    3  A    between atoms: N3_15  and  C7_17 
REMARK    4  A    between atoms: C7_17  and  C8_18 
REMARK    5  A    between atoms: N6_23  and  C9_24 
REMARK    6  A    between atoms: C9_24  and  C10_25 
REMARK    7  A    between atoms: C10_25  and  C11_27 
REMARK    8  A    between atoms: C11_27  and  O5_28 
REMARK    9  A    between atoms: C11_27  and  O6_30 
REMARK   10  A    between atoms: C12_32  and  O7_33 
ROOT
HETATM    1  C8  UNL     1      -0.699   0.364   0.633  1.00  0.00     0.116 A 
HETATM    2  N4  UNL     1      -1.082   1.547   1.093  1.00  0.00    -0.281 N 
ATOM      3  H4  UNL     1      -0.451   2.291   1.391  1.00  0.00     0.188 HD
HETATM    4  N5  UNL     1      -2.405   1.621   1.109  1.00  0.00    -0.238 N 
ATOM      5  H5  UNL     1      -2.956   2.422   1.417  1.00  0.00     0.208 HD
HETATM    6  N6  UNL     1      -2.881   0.488   0.661  1.00  0.00    -0.247 N 
HETATM    7  C12 UNL     1      -1.839  -0.331   0.351  1.00  0.00     0.189 A 
ENDROOT
BRANCH   1   8
HETATM    8  C7  UNL     1       0.710  -0.127   0.454  1.00  0.00     0.119 C 
BRANCH   8   9
HETATM    9  N3  UNL     1       1.673   0.783   0.818  1.00  0.00    -0.384 N 
ATOM     10  H3  UNL     1       1.316   1.676   1.157  1.00  0.00     0.159 HD
BRANCH   9  11
HETATM   11  C6  UNL     1       3.028   0.676   0.796  1.00  0.00     0.183 C 
HETATM   12  C2  UNL     1       3.575   0.496  -0.611  1.00  0.00     0.129 C 
HETATM   13  C1  UNL     1       3.175   1.527  -1.566  1.00  0.00     0.066 C 
HETATM   14  N1  UNL     1       3.188  -0.856  -0.900  1.00  0.00    -0.330 N 
HETATM   15  N2  UNL     1       4.993   0.462  -0.293  1.00  0.00    -0.330 N 
HETATM   16  C3  UNL     1       3.290  -1.577   0.324  1.00  0.00     0.266 C 
ATOM     17  H1  UNL     1       2.897  -1.227  -1.804  1.00  0.00     0.165 HD
HETATM   18  O1  UNL     1       3.051  -2.815   0.385  1.00  0.00    -0.269 OA
HETATM   19  C4  UNL     1       3.692  -0.597   1.325  1.00  0.00     0.244 C 
HETATM   20  C5  UNL     1       5.118  -0.215   0.964  1.00  0.00     0.266 C 
HETATM   21  O3  UNL     1       6.160  -0.439   1.613  1.00  0.00    -0.269 OA
ATOM     22  H2  UNL     1       5.752   0.846  -0.856  1.00  0.00     0.165 HD
BRANCH  19  23
HETATM   23  O2  UNL     1       3.488  -0.877   2.610  1.00  0.00    -0.370 OA
ATOM     24  H2  UNL     1       3.750  -0.238   3.262  1.00  0.00     0.212 HD
ENDBRANCH  19  23
ENDBRANCH   9  11
ENDBRANCH   8   9
ENDBRANCH   1   8
BRANCH   7  25
HETATM   25  O7  UNL     1      -1.885  -1.620  -0.154  1.00  0.00    -0.343 OA
ATOM     26  H7  UNL     1      -2.679  -2.104  -0.350  1.00  0.00     0.219 HD
ENDBRANCH   7  25
BRANCH   6  27
HETATM   27  C9  UNL     1      -4.272   0.055   0.475  1.00  0.00     0.236 C 
BRANCH  27  28
HETATM   28  C10 UNL     1      -4.744   0.402  -0.871  1.00  0.00     0.200 C 
HETATM   29  O4  UNL     1      -4.041   0.985  -1.697  1.00  0.00    -0.291 OA
BRANCH  28  30
HETATM   30  C11 UNL     1      -6.125   0.054  -1.299  1.00  0.00     0.327 C 
BRANCH  30  31
HETATM   31  O5  UNL     1      -6.385   0.469  -2.613  1.00  0.00    -0.365 OA
ATOM     32  H5  UNL     1      -7.267   0.247  -2.886  1.00  0.00     0.213 HD
ENDBRANCH  30  31
BRANCH  30  33
HETATM   33  O6  UNL     1      -6.384  -1.307  -1.200  1.00  0.00    -0.365 OA
ATOM     34  H6  UNL     1      -7.266  -1.529  -1.473  1.00  0.00     0.213 HD
ENDBRANCH  30  33
ENDBRANCH  28  30
ENDBRANCH  27  28
ENDBRANCH   6  27
TORSDOF 10
