REMARK  8 active torsions:
REMARK  status: ('A' for Active; 'I' for Inactive)
REMARK    1  A    between atoms: C2_2  and  C3_3 
REMARK    2  A    between atoms: C2_2  and  N1_9 
REMARK    3  A    between atoms: C4_4  and  C5_5 
REMARK       I    between atoms: N1_9  and  C7_11 
REMARK    4  A    between atoms: C7_11  and  C8_13 
REMARK    5  A    between atoms: N2_18  and  C13_19 
REMARK    6  A    between atoms: C13_19  and  O2_20 
REMARK    7  A    between atoms: C14_22  and  N3_23 
REMARK    8  A    between atoms: C14_22  and  C20_33 
REMARK       I    between atoms: N3_23  and  C15_25 
REMARK       I    between atoms: C15_25  and  N4_27 
ROOT
HETATM    1  C8  UNL     1       0.650  -0.144   3.009  1.00  0.00     0.179 C 
HETATM    2  C9  UNL     1       0.926  -1.067   4.144  1.00  0.00     0.042 C 
HETATM    3  C10 UNL     1       1.519  -2.264   3.409  1.00  0.00     0.013 A 
HETATM    4  C11 UNL     1       0.572  -3.330   3.102  1.00  0.00     0.032 A 
HETATM    5  C12 UNL     1       0.826  -2.255   2.082  1.00  0.00     0.092 A 
HETATM    6  N2  UNL     1       0.069  -1.057   1.978  1.00  0.00    -0.342 N 
ENDROOT
BRANCH   6   7
HETATM    7  C13 UNL     1      -0.992  -0.724   1.131  1.00  0.00     0.163 C 
HETATM    8  C14 UNL     1      -1.711  -1.286   0.037  1.00  0.00     0.072 C 
BRANCH   7   9
HETATM    9  O2  UNL     1      -1.441   0.507   1.481  1.00  0.00    -0.345 OA
ATOM     10  H2  UNL     1      -2.162   0.733   0.905  1.00  0.00     0.219 HD
ENDBRANCH   7   9
BRANCH   8  11
HETATM   11  N3  UNL     1      -2.820  -0.400  -0.409  1.00  0.00    -0.308 N 
HETATM   12  C15 UNL     1      -2.679   0.406  -1.564  1.00  0.00     0.322 C 
HETATM   13  O3  UNL     1      -1.567   0.338  -2.194  1.00  0.00    -0.247 OA
HETATM   14  N4  UNL     1      -3.679   1.263  -2.050  1.00  0.00    -0.330 N 
HETATM   15  C16 UNL     1      -4.963   1.395  -1.393  1.00  0.00     0.153 C 
HETATM   16  C19 UNL     1      -3.441   2.046  -3.240  1.00  0.00     0.153 C 
HETATM   17  C17 UNL     1      -5.616   2.721  -1.623  1.00  0.00     0.187 C 
HETATM   18  O4  UNL     1      -4.665   3.666  -2.011  1.00  0.00    -0.388 OA
HETATM   19  C18 UNL     1      -4.243   3.313  -3.293  1.00  0.00     0.187 C 
ATOM     20  H3  UNL     1      -3.690  -0.373   0.123  1.00  0.00     0.170 HD
ENDBRANCH   8  11
BRANCH   8  21
HETATM   21  C20 UNL     1      -2.182  -2.655  -0.108  1.00  0.00    -0.004 C 
HETATM   22  C21 UNL     1      -1.178  -3.761  -0.173  1.00  0.00     0.021 C 
HETATM   23  C22 UNL     1      -3.304  -3.008   0.884  1.00  0.00     0.021 C 
HETATM   24  C23 UNL     1      -2.924  -2.725  -1.465  1.00  0.00     0.021 C 
ENDBRANCH   8  21
ENDBRANCH   6   7
BRANCH   1  25
HETATM   25  C7  UNL     1       1.870   0.489   2.496  1.00  0.00     0.241 C 
HETATM   26  N1  UNL     1       2.421   0.292   1.232  1.00  0.00    -0.352 N 
ATOM     27  H1  UNL     1       1.955  -0.345   0.585  1.00  0.00     0.163 HD
HETATM   28  O1  UNL     1       2.471   1.291   3.285  1.00  0.00    -0.271 OA
BRANCH  26  29
HETATM   29  C2  UNL     1       3.653   0.972   0.798  1.00  0.00     0.103 C 
HETATM   30  C1  UNL     1       4.762  -0.011   0.609  1.00  0.00     0.036 C 
BRANCH  29  31
HETATM   31  C3  UNL     1       3.399   1.834  -0.353  1.00  0.00    -0.001 C 
HETATM   32  C4  UNL     1       4.254   2.827  -0.940  1.00  0.00     0.048 C 
BRANCH  32  33
HETATM   33  C5  UNL     1       5.587   2.700  -1.502  1.00  0.00     0.258 C 
HETATM   34  C6  UNL     1       6.745   2.310  -0.652  1.00  0.00     0.095 C 
HETATM   35  F1  UNL     1       5.978   3.928  -2.118  1.00  0.00    -0.202 F 
HETATM   36  F2  UNL     1       5.605   1.824  -2.618  1.00  0.00    -0.202 F 
ENDBRANCH  32  33
ENDBRANCH  29  31
ENDBRANCH  26  29
ENDBRANCH   1  25
TORSDOF 8
