REMARK  7 active torsions:
REMARK  status: ('A' for Active; 'I' for Inactive)
REMARK    1  A    between atoms: C2_2  and  C3_4 
REMARK    2  A    between atoms: C3_4  and  C4_6 
REMARK    3  A    between atoms: C4_6  and  O3_7 
REMARK    4  A    between atoms: C4_6  and  C5_9 
REMARK    5  A    between atoms: C6_14  and  C7_15 
REMARK    6  A    between atoms: N3_18  and  N4_19 
REMARK    7  A    between atoms: N4_19  and  C8_21 
ROOT
HETATM    1  C8  UNL     1      -0.130   0.298   0.564  1.00  0.00     0.699 C 
HETATM    2  N5  UNL     1      -1.136   0.322   1.339  1.00  0.00    -0.199 N 
ATOM      3  H5  UNL     1      -0.934   0.032   2.296  1.00  0.00     0.183 HD
HETATM    4  C9  UNL     1      -2.476   0.676   1.116  1.00  0.00     0.143 C 
HETATM    5  C10 UNL     1      -2.848   0.898  -0.311  1.00  0.00     0.238 A 
HETATM    6  N6  UNL     1      -3.395  -0.310  -0.832  1.00  0.00    -0.325 N 
ATOM      7  H6  UNL     1      -2.792  -1.130  -0.759  1.00  0.00     0.165 HD
HETATM    8  C11 UNL     1      -4.522  -0.512  -1.373  1.00  0.00     0.205 A 
HETATM    9  N7  UNL     1      -4.934  -1.776  -1.848  1.00  0.00    -0.063 NA
HETATM   10  N8  UNL     1      -5.419   0.594  -1.510  1.00  0.00    -0.164 N 
ATOM     11  H8  UNL     1      -6.336   0.473  -1.940  1.00  0.00     0.187 HD
HETATM   12  C12 UNL     1      -5.002   1.865  -1.032  1.00  0.00     0.676 A 
HETATM   13  N9  UNL     1      -5.855   2.839  -1.180  1.00  0.00    -0.235 N 
ATOM     14  H91 UNL     1      -5.556   3.752  -0.837  1.00  0.00     0.174 HD
ATOM     15  H92 UNL     1      -6.769   2.703  -1.612  1.00  0.00     0.174 HD
HETATM   16  N10 UNL     1      -3.738   2.053  -0.434  1.00  0.00    -0.185 N 
ATOM     17  H10 UNL     1      -3.452   2.972  -0.096  1.00  0.00     0.181 HD
HETATM   18  C13 UNL     1      -1.659   1.232  -1.124  1.00  0.00     0.291 C 
HETATM   19  O6  UNL     1      -1.815   1.938  -2.150  1.00  0.00    -0.267 OA
HETATM   20  N11 UNL     1      -0.374   0.782  -0.779  1.00  0.00    -0.154 N 
ATOM     21  H11 UNL     1       0.379   0.796  -1.467  1.00  0.00     0.187 HD
ENDROOT
BRANCH   1  22
HETATM   22  N4  UNL     1       1.176  -0.078   0.904  1.00  0.00    -0.122 N 
ATOM     23  H4  UNL     1       1.730   0.718   1.220  1.00  0.00     0.206 HD
BRANCH  22  24
HETATM   24  N3  UNL     1       1.899  -1.238   0.921  1.00  0.00    -0.201 N 
HETATM   25  C5  UNL     1       3.212  -1.246   1.383  1.00  0.00     0.157 A 
HETATM   26  N1  UNL     1       3.623  -2.515   1.246  1.00  0.00    -0.283 N 
HETATM   27  N2  UNL     1       2.681  -3.242   0.752  1.00  0.00    -0.277 N 
ATOM     28  H1  UNL     1       4.551  -2.857   1.497  1.00  0.00     0.188 HD
HETATM   29  C6  UNL     1       1.551  -2.468   0.526  1.00  0.00     0.222 A 
ATOM     30  H2  UNL     1       2.755  -4.240   0.556  1.00  0.00     0.189 HD
BRANCH  25  31
HETATM   31  C4  UNL     1       4.007  -0.109   1.914  1.00  0.00     0.266 C 
BRANCH  31  32
HETATM   32  C3  UNL     1       4.481   0.811   0.825  1.00  0.00     0.230 C 
HETATM   33  O2  UNL     1       4.290   2.062   0.913  1.00  0.00    -0.286 OA
BRANCH  32  34
HETATM   34  C2  UNL     1       5.164   0.318  -0.350  1.00  0.00     0.194 C 
HETATM   35  C1  UNL     1       5.615   1.260  -1.410  1.00  0.00     0.100 C 
HETATM   36  O1  UNL     1       5.411  -0.904  -0.543  1.00  0.00    -0.290 OA
ENDBRANCH  32  34
ENDBRANCH  31  32
BRANCH  31  37
HETATM   37  O3  UNL     1       3.368   0.597   2.901  1.00  0.00    -0.380 OA
ATOM     38  H3  UNL     1       3.068   0.015   3.590  1.00  0.00     0.211 HD
ENDBRANCH  31  37
ENDBRANCH  25  31
BRANCH  29  39
HETATM   39  C7  UNL     1       0.342  -3.037  -0.032  1.00  0.00     0.248 C 
HETATM   40  O4  UNL     1      -0.737  -2.535  -0.308  1.00  0.00    -0.642 OA
HETATM   41  O5  UNL     1       0.401  -4.437  -0.319  1.00  0.00    -0.642 OA
ENDBRANCH  29  39
ENDBRANCH  22  24
ENDBRANCH   1  22
TORSDOF 7
