REMARK  2 active torsions:
REMARK  status: ('A' for Active; 'I' for Inactive)
REMARK    1  A    between atoms: C1_2  and  C2_4 
REMARK    2  A    between atoms: N5_12  and  O2_13 
ROOT
HETATM    1  C2  UNL     1      -1.347  -0.678   0.190  1.00  0.00     0.136 A 
HETATM    2  N2  UNL     1      -0.529  -1.715  -0.042  1.00  0.00    -0.337 N 
ATOM      3  H2  UNL     1      -0.821  -2.687  -0.146  1.00  0.00     0.167 HD
HETATM    4  C3  UNL     1       0.750  -1.266  -0.116  1.00  0.00     0.133 A 
HETATM    5  N3  UNL     1       1.930  -1.997  -0.344  1.00  0.00    -0.082 NA
HETATM    6  C4  UNL     1       0.753   0.112   0.075  1.00  0.00     0.089 A 
HETATM    7  C5  UNL     1       1.517   1.262   0.154  1.00  0.00     0.186 A 
HETATM    8  N4  UNL     1       2.931   1.318   0.011  1.00  0.00    -0.077 NA
HETATM    9  N5  UNL     1       0.632   2.247   0.385  1.00  0.00    -0.106 N 
HETATM   10  O3  UNL     1      -0.581   1.764   0.448  1.00  0.00    -0.205 OA
HETATM   11  C6  UNL     1      -0.565   0.457   0.264  1.00  0.00     0.150 A 
ENDROOT
BRANCH   1  12
HETATM   12  C1  UNL     1      -2.795  -0.743   0.335  1.00  0.00     0.284 C 
HETATM   13  N1  UNL     1      -3.562   0.422   0.579  1.00  0.00    -0.056 NA
HETATM   14  O1  UNL     1      -3.390  -1.841   0.246  1.00  0.00    -0.269 OA
ENDBRANCH   1  12
BRANCH   9  15
HETATM   15  O2  UNL     1       1.011   3.566   0.529  1.00  0.00    -0.261 OA
ATOM     16  H2  UNL     1       0.386   4.262   0.692  1.00  0.00     0.247 HD
ENDBRANCH   9  15
TORSDOF 2
