REMARK  3 active torsions:
REMARK  status: ('A' for Active; 'I' for Inactive)
REMARK    1  A    between atoms: C2_5  and  N3_6 
REMARK    2  A    between atoms: C2_5  and  C4_11 
REMARK    3  A    between atoms: N7_13  and  N8_15 
ROOT
HETATM    1  N1  UNL     1       0.386   1.750   3.437  1.00  0.00    -0.172 NA
HETATM    2  C1  UNL     1      -0.036   0.996   2.636  1.00  0.00     0.183 C 
HETATM    3  N2  UNL     1      -0.557   0.117   1.728  1.00  0.00    -0.276 N 
ATOM      4  H2  UNL     1      -1.468  -0.285   1.947  1.00  0.00     0.179 HD
HETATM    5  C2  UNL     1      -0.022  -0.243   0.651  1.00  0.00     0.159 C 
ENDROOT
BRANCH   5   6
HETATM    6  N3  UNL     1      -0.695  -1.192  -0.223  1.00  0.00    -0.316 N 
HETATM    7  C3  UNL     1      -1.905  -1.015  -0.580  1.00  0.00     0.202 C 
HETATM    8  N4  UNL     1      -2.527  -1.958  -1.430  1.00  0.00    -0.066 NA
HETATM    9  N5  UNL     1      -2.609   0.123  -0.120  1.00  0.00    -0.066 NA
ATOM     10  H3  UNL     1      -0.189  -2.013  -0.556  1.00  0.00     0.169 HD
ENDBRANCH   5   6
BRANCH   5  11
HETATM   11  C4  UNL     1       1.269   0.228   0.184  1.00  0.00     0.177 C 
HETATM   12  N6  UNL     1       2.018   1.151   0.944  1.00  0.00    -0.077 NA
HETATM   13  N7  UNL     1       1.692  -0.233  -0.949  1.00  0.00    -0.271 N 
ATOM     14  H7  UNL     1       1.091  -0.897  -1.437  1.00  0.00     0.190 HD
BRANCH  13  15
HETATM   15  N8  UNL     1       2.880   0.096  -1.547  1.00  0.00    -0.248 N 
HETATM   16  N9  UNL     1       3.008   0.957  -2.491  1.00  0.00    -0.331 N 
ATOM     17  H92 UNL     1       2.155   1.419  -2.806  1.00  0.00     0.178 HD
ATOM     18  H91 UNL     1       3.892   1.202  -2.936  1.00  0.00     0.178 HD
ATOM     19  H8  UNL     1       3.722  -0.376  -1.219  1.00  0.00     0.207 HD
ENDBRANCH  13  15
ENDBRANCH   5  11
TORSDOF 3
