REMARK  4 active torsions:
REMARK  status: ('A' for Active; 'I' for Inactive)
REMARK       I    between atoms: C2_2  and  N1_4 
REMARK    1  A    between atoms: N1_4  and  C3_6 
REMARK    2  A    between atoms: C4_11  and  C5_12 
REMARK    3  A    between atoms: C5_12  and  O2_16 
REMARK    4  A    between atoms: N5_18  and  N6_19 
ROOT
HETATM    1  C3  UNL     1       0.245  -1.097   0.397  1.00  0.00     0.722 A 
HETATM    2  N2  UNL     1      -0.732  -1.831   0.960  1.00  0.00    -0.128 N 
ATOM      3  H2  UNL     1      -0.573  -2.656   1.539  1.00  0.00     0.205 HD
HETATM    4  N3  UNL     1      -1.925  -1.343   0.665  1.00  0.00    -0.266 N 
ATOM      5  H3  UNL     1      -2.823  -1.718   0.971  1.00  0.00     0.189 HD
HETATM    6  C4  UNL     1      -1.736  -0.251  -0.119  1.00  0.00     0.210 A 
HETATM    7  N5  UNL     1      -0.401  -0.113  -0.274  1.00  0.00    -0.069 N 
ENDROOT
BRANCH   6   8
HETATM    8  C5  UNL     1      -2.793   0.587  -0.669  1.00  0.00     0.182 C 
HETATM    9  N4  UNL     1      -2.472   1.592  -1.396  1.00  0.00    -0.377 N 
ATOM     10  H42 UNL     1      -1.488   1.788  -1.578  1.00  0.00     0.158 HD
ATOM     11  H41 UNL     1      -3.212   2.179  -1.781  1.00  0.00     0.158 HD
BRANCH   8  12
HETATM   12  O2  UNL     1      -4.127   0.322  -0.423  1.00  0.00    -0.344 OA
ATOM     13  H2  UNL     1      -4.816   0.869  -0.782  1.00  0.00     0.219 HD
ENDBRANCH   8  12
ENDBRANCH   6   8
BRANCH   7  14
HETATM   14  N6  UNL     1       0.219   0.892  -1.015  1.00  0.00    -0.322 N 
ATOM     15  H62 UNL     1       1.227   0.996  -1.132  1.00  0.00     0.178 HD
ATOM     16  H61 UNL     1      -0.267   1.633  -1.520  1.00  0.00     0.178 HD
ENDBRANCH   7  14
BRANCH   1  17
HETATM   17  N1  UNL     1       1.515  -1.315   0.497  1.00  0.00    -0.157 N 
HETATM   18  C2  UNL     1       2.490  -0.517  -0.112  1.00  0.00     0.232 C 
HETATM   19  C1  UNL     1       3.037   0.675   0.581  1.00  0.00     0.118 C 
HETATM   20  O1  UNL     1       2.908  -0.816  -1.266  1.00  0.00    -0.273 OA
ATOM     21  H1  UNL     1       1.824  -2.114   1.051  1.00  0.00     0.187 HD
ENDBRANCH   1  17
TORSDOF 4
