REMARK  4 active torsions:
REMARK  status: ('A' for Active; 'I' for Inactive)
REMARK    1  A    between atoms: C5_5  and  N1_6 
REMARK    2  A    between atoms: N1_6  and  C6_8 
REMARK    3  A    between atoms: C6_8  and  N2_10 
REMARK    4  A    between atoms: N2_10  and  C7_12 
ROOT
HETATM    1  N1  UNL     1      -0.726   0.461   0.074  1.00  0.00    -0.363 N 
ATOM      2  H1  UNL     1      -1.123  -0.333   0.577  1.00  0.00     0.162 HD
ENDROOT
BRANCH   1   3
HETATM    3  C5  UNL     1       0.703   0.681   0.096  1.00  0.00     0.084 C 
HETATM    4  C4  UNL     1       1.331   0.601  -1.253  1.00  0.00     0.025 C 
HETATM    5  C3  UNL     1       2.313  -0.516  -1.415  1.00  0.00     0.006 C 
HETATM    6  C2  UNL     1       3.280  -0.718  -0.300  1.00  0.00    -0.015 C 
HETATM    7  C1  UNL     1       4.705  -0.380  -0.690  1.00  0.00     0.010 C 
HETATM    8  C12 UNL     1       2.869   0.055   0.909  1.00  0.00    -0.013 C 
HETATM    9  C11 UNL     1       1.371  -0.227   1.099  1.00  0.00     0.029 C 
HETATM   10  C13 UNL     1       3.597  -0.346   2.161  1.00  0.00     0.010 C 
ENDBRANCH   1   3
BRANCH   1  11
HETATM   11  C6  UNL     1      -1.580   1.337  -0.639  1.00  0.00     0.168 C 
HETATM   12  S1  UNL     1      -0.907   2.616  -1.436  1.00  0.00    -0.041 SA
BRANCH  11  13
HETATM   13  N2  UNL     1      -2.962   1.135  -0.670  1.00  0.00    -0.359 N 
ATOM     14  H2  UNL     1      -3.509   1.810  -1.205  1.00  0.00     0.162 HD
BRANCH  13  15
HETATM   15  C7  UNL     1      -3.694   0.082  -0.031  1.00  0.00     0.021 C 
HETATM   16  C8  UNL     1      -3.286  -1.299  -0.499  1.00  0.00     0.037 C 
HETATM   17  C9  UNL     1      -3.513   0.200   1.465  1.00  0.00     0.037 C 
HETATM   18  C10 UNL     1      -5.183   0.290  -0.317  1.00  0.00     0.037 C 
ENDBRANCH  13  15
ENDBRANCH  11  13
ENDBRANCH   1  11
TORSDOF 4
