REMARK  8 active torsions:
REMARK  status: ('A' for Active; 'I' for Inactive)
REMARK    1  A    between atoms: C7_7  and  N1_8 
REMARK       I    between atoms: N1_8  and  C8_10 
REMARK    2  A    between atoms: C8_10  and  C9_12 
REMARK    3  A    between atoms: C15_18  and  C16_19 
REMARK    4  A    between atoms: C16_19  and  C17_20 
REMARK    5  A    between atoms: C17_20  and  C18_21 
REMARK    6  A    between atoms: C18_21  and  C19_22 
REMARK    7  A    between atoms: C19_22  and  C20_23 
REMARK    8  A    between atoms: C20_23  and  C21_24 
ROOT
HETATM    1  C1  UNL     1       2.432  -2.233   1.632  1.00  0.00     0.011 C 
HETATM    2  C2  UNL     1       1.935  -2.612   0.214  1.00  0.00    -0.009 C 
HETATM    3  C3  UNL     1       1.235  -3.902   0.358  1.00  0.00    -0.010 C 
HETATM    4  C4  UNL     1       0.173  -3.685   1.456  1.00  0.00     0.011 C 
HETATM    5  C5  UNL     1      -0.688  -3.163   0.344  1.00  0.00     0.009 C 
HETATM    6  C6  UNL     1       0.067  -4.138  -0.557  1.00  0.00     0.011 C 
HETATM    7  C7  UNL     1      -0.363  -1.777  -0.122  1.00  0.00     0.093 C 
HETATM    8  C15 UNL     1       1.073  -1.454  -0.289  1.00  0.00     0.013 C 
ENDROOT
BRANCH   7   9
HETATM    9  N1  UNL     1      -1.085  -0.780   0.660  1.00  0.00    -0.355 N 
HETATM   10  C8  UNL     1      -2.460  -0.588   0.716  1.00  0.00     0.222 C 
HETATM   11  O1  UNL     1      -3.222  -1.340   0.051  1.00  0.00    -0.273 OA
ATOM     12  H1  UNL     1      -0.517  -0.153   1.230  1.00  0.00     0.162 HD
BRANCH  10  13
HETATM   13  C9  UNL     1      -3.098   0.488   1.528  1.00  0.00     0.078 C 
HETATM   14  C10 UNL     1      -3.299   1.735   0.656  1.00  0.00     0.014 C 
HETATM   15  C11 UNL     1      -4.126   2.706   1.462  1.00  0.00     0.001 C 
HETATM   16  C12 UNL     1      -3.333   3.148   2.654  1.00  0.00     0.000 C 
HETATM   17  C13 UNL     1      -2.068   2.352   2.845  1.00  0.00     0.001 C 
HETATM   18  C14 UNL     1      -2.332   0.862   2.766  1.00  0.00     0.014 C 
ENDBRANCH  10  13
ENDBRANCH   7   9
BRANCH   8  19
HETATM   19  C16 UNL     1       1.513  -1.104  -1.688  1.00  0.00     0.007 C 
BRANCH  19  20
HETATM   20  C17 UNL     1       0.794   0.098  -2.266  1.00  0.00     0.000 C 
BRANCH  20  21
HETATM   21  C18 UNL     1       1.081   1.333  -1.414  1.00  0.00     0.000 C 
BRANCH  21  22
HETATM   22  C19 UNL     1       2.575   1.591  -1.338  1.00  0.00     0.009 C 
BRANCH  22  23
HETATM   23  C20 UNL     1       3.207   1.864  -2.647  1.00  0.00     0.099 C 
BRANCH  23  24
HETATM   24  C21 UNL     1       2.709   3.097  -3.274  1.00  0.00     0.231 C 
HETATM   25  N2  UNL     1       3.009   3.328  -4.659  1.00  0.00    -0.062 NA
HETATM   26  O2  UNL     1       2.040   3.959  -2.662  1.00  0.00    -0.277 OA
ENDBRANCH  23  24
ENDBRANCH  22  23
ENDBRANCH  21  22
ENDBRANCH  20  21
ENDBRANCH  19  20
ENDBRANCH   8  19
TORSDOF 8
