REMARK  8 active torsions:
REMARK  status: ('A' for Active; 'I' for Inactive)
REMARK    1  A    between atoms: C2_2  and  C3_3 
REMARK    2  A    between atoms: C3_3  and  C4_4 
REMARK       I    between atoms: C4_4  and  N1_6 
REMARK    3  A    between atoms: C8_10  and  C9_11 
REMARK    4  A    between atoms: C9_11  and  C10_12 
REMARK    5  A    between atoms: C10_12  and  C11_13 
REMARK    6  A    between atoms: C11_13  and  C12_14 
REMARK    7  A    between atoms: C12_14  and  N2_15 
REMARK       I    between atoms: N2_15  and  C13_17 
REMARK       I    between atoms: C13_17  and  N3_19 
REMARK    8  A    between atoms: N3_19  and  C14_21 
ROOT
HETATM    1  C11 UNL     1       0.391  -0.281   0.129  1.00  0.00     0.020 C 
ENDROOT
BRANCH   1   2
HETATM    2  C10 UNL     1      -0.914  -0.405  -0.636  1.00  0.00     0.002 C 
BRANCH   2   3
HETATM    3  C9  UNL     1      -1.886  -1.173   0.187  1.00  0.00     0.006 C 
BRANCH   3   4
HETATM    4  C8  UNL     1      -3.236  -1.364  -0.428  1.00  0.00     0.004 C 
HETATM    5  C7  UNL     1      -3.145  -2.107  -1.727  1.00  0.00     0.008 C 
HETATM    6  C6  UNL     1      -4.496  -2.082  -2.438  1.00  0.00     0.020 C 
HETATM    7  C5  UNL     1      -5.554  -1.782  -1.427  1.00  0.00     0.126 C 
HETATM    8  N1  UNL     1      -5.375  -0.454  -0.861  1.00  0.00    -0.352 N 
HETATM    9  C4  UNL     1      -6.459   0.374  -0.507  1.00  0.00     0.223 C 
HETATM   10  C20 UNL     1      -3.967  -0.057  -0.690  1.00  0.00     0.130 C 
HETATM   11  O1  UNL     1      -7.621  -0.075  -0.698  1.00  0.00    -0.273 OA
BRANCH   9  12
HETATM   12  C3  UNL     1      -6.311   1.718   0.066  1.00  0.00     0.129 C 
BRANCH  12  13
HETATM   13  C2  UNL     1      -7.623   2.334   0.341  1.00  0.00    -0.028 C 
HETATM   14  C1  UNL     1      -8.018   3.481  -0.224  1.00  0.00     0.007 C 
ENDBRANCH  12  13
ENDBRANCH   9  12
ENDBRANCH   3   4
ENDBRANCH   2   3
ENDBRANCH   1   2
BRANCH   1  15
HETATM   15  C12 UNL     1       1.031  -1.585   0.462  1.00  0.00     0.124 C 
BRANCH  15  16
HETATM   16  N2  UNL     1       2.251  -1.378   1.173  1.00  0.00    -0.343 N 
HETATM   17  C13 UNL     1       3.343  -0.684   0.591  1.00  0.00     0.316 C 
HETATM   18  O2  UNL     1       3.333  -0.217  -0.573  1.00  0.00    -0.247 OA
HETATM   19  N3  UNL     1       4.554  -0.483   1.348  1.00  0.00    -0.339 N 
ATOM     20  H3  UNL     1       4.626  -0.838   2.301  1.00  0.00     0.164 HD
ATOM     21  H2  UNL     1       2.340  -1.738   2.123  1.00  0.00     0.164 HD
BRANCH  19  22
HETATM   22  C14 UNL     1       5.648   0.213   0.760  1.00  0.00     0.086 C 
HETATM   23  C15 UNL     1       6.939  -0.581   0.794  1.00  0.00     0.025 C 
HETATM   24  C16 UNL     1       7.945   0.168  -0.055  1.00  0.00     0.002 C 
HETATM   25  C17 UNL     1       8.117   1.598   0.386  1.00  0.00     0.000 C 
HETATM   26  C18 UNL     1       6.812   2.336   0.522  1.00  0.00     0.002 C 
HETATM   27  C19 UNL     1       5.950   1.528   1.493  1.00  0.00     0.025 C 
ENDBRANCH  19  22
ENDBRANCH  15  16
ENDBRANCH   1  15
TORSDOF 8
