REMARK  6 active torsions:
REMARK  status: ('A' for Active; 'I' for Inactive)
REMARK       I    between atoms: C1_2  and  N1_3 
REMARK    1  A    between atoms: C1_2  and  C4_9 
REMARK    2  A    between atoms: N1_3  and  C2_5 
REMARK    3  A    between atoms: C2_5  and  C3_6 
REMARK    4  A    between atoms: C3_6  and  O2_7 
REMARK    5  A    between atoms: C6_16  and  C7_17 
REMARK    6  A    between atoms: N5_23  and  O3_24 
ROOT
HETATM    1  C4  UNL     1      -1.652  -0.575  -0.233  1.00  0.00     0.130 A 
HETATM    2  N2  UNL     1      -0.661  -1.564  -0.255  1.00  0.00    -0.181 N 
ATOM      3  H2  UNL     1      -0.941  -2.542  -0.325  1.00  0.00     0.184 HD
HETATM    4  C5  UNL     1       0.632  -1.269  -0.188  1.00  0.00     0.733 A 
HETATM    5  N3  UNL     1       1.111  -0.020  -0.092  1.00  0.00    -0.081 N 
HETATM    6  N4  UNL     1       2.395  -0.053  -0.099  1.00  0.00    -0.261 N 
ATOM      7  H4  UNL     1       3.004   0.763  -0.040  1.00  0.00     0.190 HD
HETATM    8  C6  UNL     1       2.816  -1.333  -0.196  1.00  0.00     0.177 A 
HETATM    9  N5  UNL     1       1.728  -2.091  -0.250  1.00  0.00    -0.031 N 
HETATM   10  C13 UNL     1       0.233   0.966  -0.057  1.00  0.00     0.101 A 
HETATM   11  C14 UNL     1      -1.182   0.670  -0.123  1.00  0.00     0.040 A 
HETATM   12  C15 UNL     1      -2.216   1.661   0.028  1.00  0.00     0.006 A 
HETATM   13  C16 UNL     1      -3.231   1.181   0.803  1.00  0.00     0.014 A 
HETATM   14  C17 UNL     1      -4.326   2.006   0.953  1.00  0.00     0.001 A 
HETATM   15  C18 UNL     1      -4.360   3.270   0.327  1.00  0.00     0.002 A 
HETATM   16  C19 UNL     1      -3.301   3.699  -0.436  1.00  0.00     0.030 A 
HETATM   17  C20 UNL     1      -2.213   2.906  -0.594  1.00  0.00     0.043 A 
HETATM   18  N6  UNL     1      -1.089   3.564  -1.224  1.00  0.00    -0.355 N 
ATOM     19  H6  UNL     1      -1.253   4.171  -2.027  1.00  0.00     0.166 HD
HETATM   20  C21 UNL     1       0.261   3.380  -0.741  1.00  0.00     0.045 A 
HETATM   21  C22 UNL     1       1.015   4.522  -0.822  1.00  0.00     0.030 A 
HETATM   22  C23 UNL     1       2.275   4.571  -0.270  1.00  0.00     0.002 A 
HETATM   23  C24 UNL     1       2.794   3.440   0.384  1.00  0.00     0.001 A 
HETATM   24  C25 UNL     1       2.055   2.259   0.484  1.00  0.00     0.016 A 
HETATM   25  C26 UNL     1       0.828   2.280  -0.087  1.00  0.00     0.021 A 
ENDROOT
BRANCH   1  26
HETATM   26  C1  UNL     1      -2.980  -0.961  -0.545  1.00  0.00     0.269 C 
HETATM   27  O1  UNL     1      -3.862  -0.452  -1.237  1.00  0.00    -0.266 OA
HETATM   28  N1  UNL     1      -3.434  -2.204   0.041  1.00  0.00    -0.354 N 
ATOM     29  H1  UNL     1      -2.788  -2.721   0.638  1.00  0.00     0.162 HD
BRANCH  28  30
HETATM   30  C2  UNL     1      -4.754  -2.750  -0.175  1.00  0.00     0.149 C 
BRANCH  30  31
HETATM   31  C3  UNL     1      -4.880  -4.046   0.584  1.00  0.00     0.183 C 
BRANCH  31  32
HETATM   32  O2  UNL     1      -3.910  -4.935   0.115  1.00  0.00    -0.399 OA
ATOM     33  H2  UNL     1      -3.989  -5.752   0.593  1.00  0.00     0.209 HD
ENDBRANCH  31  32
ENDBRANCH  30  31
ENDBRANCH  28  30
ENDBRANCH   1  26
BRANCH   9  34
HETATM   34  O3  UNL     1       1.603  -3.477  -0.353  1.00  0.00    -0.268 OA
ATOM     35  H3  UNL     1       2.362  -4.046  -0.396  1.00  0.00     0.246 HD
ENDBRANCH   9  34
BRANCH   8  36
HETATM   36  C7  UNL     1       4.216  -1.770  -0.232  1.00  0.00     0.012 A 
HETATM   37  C8  UNL     1       5.241  -0.841  -0.182  1.00  0.00     0.015 A 
HETATM   38  C9  UNL     1       6.556  -1.193  -0.209  1.00  0.00     0.001 A 
HETATM   39  C10 UNL     1       6.927  -2.512  -0.290  1.00  0.00     0.000 A 
HETATM   40  C11 UNL     1       5.924  -3.450  -0.341  1.00  0.00     0.001 A 
HETATM   41  C12 UNL     1       4.577  -3.080  -0.312  1.00  0.00     0.015 A 
ENDBRANCH   8  36
TORSDOF 6
