REMARK  7 active torsions:
REMARK  status: ('A' for Active; 'I' for Inactive)
REMARK    1  A    between atoms: C2_2  and  C3_3 
REMARK    2  A    between atoms: C3_3  and  N1_4 
REMARK    3  A    between atoms: N1_4  and  C4_6 
REMARK    4  A    between atoms: C4_6  and  N2_8 
REMARK    5  A    between atoms: N2_8  and  C5_10 
REMARK    6  A    between atoms: C7_14  and  N4_15 
REMARK    7  A    between atoms: N4_15  and  O1_17 
ROOT
HETATM    1  C5  UNL     1      -1.895  -0.617   0.698  1.00  0.00     0.232 A 
HETATM    2  N3  UNL     1      -1.637   0.169  -0.367  1.00  0.00    -0.328 N 
ATOM      3  H3  UNL     1      -0.761   0.179  -0.889  1.00  0.00     0.169 HD
HETATM    4  C6  UNL     1      -2.707   0.937  -0.638  1.00  0.00     0.149 A 
HETATM    5  C7  UNL     1      -3.647   0.595   0.309  1.00  0.00     0.186 A 
HETATM    6  O2  UNL     1      -3.114  -0.318   1.060  1.00  0.00    -0.259 OA
ENDROOT
BRANCH   1   7
HETATM    7  N2  UNL     1      -1.082  -1.488   1.238  1.00  0.00    -0.299 N 
ATOM      8  H2  UNL     1      -1.370  -2.039   2.047  1.00  0.00     0.171 HD
BRANCH   7   9
HETATM    9  C4  UNL     1       0.211  -1.649   0.673  1.00  0.00     0.174 C 
HETATM   10  S1  UNL     1       0.670  -3.093   0.022  1.00  0.00    -0.041 SA
BRANCH   9  11
HETATM   11  N1  UNL     1       1.140  -0.570   0.655  1.00  0.00    -0.364 N 
ATOM     12  H1  UNL     1       0.871   0.330   1.053  1.00  0.00     0.162 HD
BRANCH  11  13
HETATM   13  C3  UNL     1       2.461  -0.727   0.081  1.00  0.00     0.148 C 
BRANCH  13  14
HETATM   14  C2  UNL     1       3.202   0.554   0.203  1.00  0.00    -0.018 C 
HETATM   15  C1  UNL     1       3.629   1.161  -0.890  1.00  0.00     0.008 C 
ENDBRANCH  13  14
ENDBRANCH  11  13
ENDBRANCH   9  11
ENDBRANCH   7   9
ENDBRANCH   1   7
BRANCH   5  16
HETATM   16  N4  UNL     1      -4.979   1.132   0.458  1.00  0.00    -0.246 N 
ATOM     17  H4  UNL     1      -5.238   1.893   1.085  1.00  0.00     0.196 HD
BRANCH  16  18
HETATM   18  O1  UNL     1      -5.822   0.480  -0.351  1.00  0.00    -0.288 OA
ATOM     19  H1  UNL     1      -6.698   0.833  -0.253  1.00  0.00     0.244 HD
ENDBRANCH  16  18
ENDBRANCH   5  16
TORSDOF 7
