REMARK  14 active torsions:
REMARK  status: ('A' for Active; 'I' for Inactive)
REMARK    1  A    between atoms: C2_2  and  C4_4 
REMARK    2  A    between atoms: C4_4  and  C5_5 
REMARK       I    between atoms: C5_5  and  N1_7 
REMARK    3  A    between atoms: N1_7  and  C6_9 
REMARK    4  A    between atoms: C6_9  and  C7_10 
REMARK    5  A    between atoms: C7_10  and  C8_11 
REMARK    6  A    between atoms: C8_11  and  C9_12 
REMARK    7  A    between atoms: C9_12  and  C10_13 
REMARK    8  A    between atoms: C10_13  and  C11_14 
REMARK    9  A    between atoms: C11_14  and  C12_15 
REMARK   10  A    between atoms: C12_15  and  N2_16 
REMARK       I    between atoms: N2_16  and  C13_18 
REMARK       I    between atoms: C13_18  and  N4_22 
REMARK   11  A    between atoms: N4_22  and  C14_24 
REMARK   12  A    between atoms: C15_25  and  N5_26 
REMARK   13  A    between atoms: N5_26  and  C16_27 
REMARK   14  A    between atoms: C17_28  and  C18_29 
ROOT
HETATM    1  N2  UNL     1       0.048  -2.611   1.151  1.00  0.00    -0.227 N 
ATOM      2  H2  UNL     1      -0.189  -3.447   1.685  1.00  0.00     0.177 HD
HETATM    3  C13 UNL     1      -0.810  -1.488   1.260  1.00  0.00     0.671 C 
HETATM    4  N3  UNL     1      -0.613  -0.439   0.601  1.00  0.00    -0.235 N 
ATOM      5  H31 UNL     1      -1.230   0.369   0.679  1.00  0.00     0.174 HD
ATOM      6  H32 UNL     1       0.160  -0.331  -0.056  1.00  0.00     0.174 HD
HETATM    7  N4  UNL     1      -1.898  -1.640   2.185  1.00  0.00    -0.201 N 
ATOM      8  H4  UNL     1      -1.778  -1.238   3.115  1.00  0.00     0.183 HD
ENDROOT
BRANCH   1   9
HETATM    9  C12 UNL     1       1.248  -2.646   0.324  1.00  0.00     0.138 C 
BRANCH   9  10
HETATM   10  C11 UNL     1       2.265  -1.682   0.856  1.00  0.00     0.020 C 
BRANCH  10  11
HETATM   11  C10 UNL     1       3.555  -1.771   0.023  1.00  0.00     0.002 C 
BRANCH  11  12
HETATM   12  C9  UNL     1       3.307  -1.575  -1.424  1.00  0.00     0.000 C 
BRANCH  12  13
HETATM   13  C8  UNL     1       4.449  -1.568  -2.356  1.00  0.00     0.002 C 
BRANCH  13  14
HETATM   14  C7  UNL     1       5.406  -0.451  -2.409  1.00  0.00     0.020 C 
BRANCH  14  15
HETATM   15  C6  UNL     1       6.091  -0.114  -1.147  1.00  0.00     0.122 C 
BRANCH  15  16
HETATM   16  N1  UNL     1       7.081   0.951  -1.328  1.00  0.00    -0.361 N 
HETATM   17  C5  UNL     1       8.225   0.720  -2.184  1.00  0.00     0.217 C 
HETATM   18  O1  UNL     1       8.418  -0.333  -2.760  1.00  0.00    -0.274 OA
ATOM     19  H1  UNL     1       6.965   1.847  -0.855  1.00  0.00     0.162 HD
BRANCH  17  20
HETATM   20  C4  UNL     1       9.159   1.876  -2.307  1.00  0.00     0.106 C 
BRANCH  20  21
HETATM   21  C2  UNL     1      10.358   1.463  -3.099  1.00  0.00    -0.014 C 
HETATM   22  C1  UNL     1      11.072   0.332  -2.390  1.00  0.00     0.010 C 
HETATM   23  C3  UNL     1      11.298   2.645  -3.292  1.00  0.00     0.010 C 
ENDBRANCH  20  21
ENDBRANCH  17  20
ENDBRANCH  15  16
ENDBRANCH  14  15
ENDBRANCH  13  14
ENDBRANCH  12  13
ENDBRANCH  11  12
ENDBRANCH  10  11
ENDBRANCH   9  10
ENDBRANCH   1   9
BRANCH   7  24
HETATM   24  C14 UNL     1      -3.121  -2.298   1.919  1.00  0.00     0.131 C 
HETATM   25  C15 UNL     1      -4.155  -1.757   1.070  1.00  0.00     0.225 C 
BRANCH  25  26
HETATM   26  N5  UNL     1      -4.928  -0.599   1.376  1.00  0.00    -0.022 N 
HETATM   27  C19 UNL     1      -5.584  -0.245   0.116  1.00  0.00     0.276 C 
HETATM   28  C20 UNL     1      -6.247   1.085   0.083  1.00  0.00     0.266 C 
HETATM   29  N7  UNL     1      -5.382   2.184   0.377  1.00  0.00    -0.064 N 
HETATM   30  C21 UNL     1      -5.351   3.176  -0.684  1.00  0.00     0.237 C 
HETATM   31  C24 UNL     1      -5.778   2.937   1.554  1.00  0.00     0.237 C 
HETATM   32  C25 UNL     1      -4.057   1.618   0.592  1.00  0.00     0.266 C 
HETATM   33  C22 UNL     1      -6.629   3.959  -0.398  1.00  0.00     0.029 C 
HETATM   34  C23 UNL     1      -6.474   4.186   1.100  1.00  0.00     0.029 C 
HETATM   35  C26 UNL     1      -4.131   0.598   1.691  1.00  0.00     0.276 C 
BRANCH  26  36
HETATM   36  C16 UNL     1      -5.864  -0.702   2.432  1.00  0.00     0.213 C 
HETATM   37  C17 UNL     1      -6.460  -1.892   2.979  1.00  0.00     0.096 C 
BRANCH  37  38
HETATM   38  C18 UNL     1      -7.338  -2.793   2.299  1.00  0.00     0.256 C 
HETATM   39  N6  UNL     1      -7.993  -3.893   3.015  1.00  0.00    -0.058 NA
HETATM   40  O2  UNL     1      -7.639  -2.760   1.103  1.00  0.00    -0.272 OA
ENDBRANCH  37  38
ENDBRANCH  26  36
ENDBRANCH  25  26
ENDBRANCH   7  24
TORSDOF 14
