REMARK  15 active torsions:
REMARK  status: ('A' for Active; 'I' for Inactive)
REMARK    1  A    between atoms: N1_2  and  C4_5 
REMARK    2  A    between atoms: C4_5  and  C5_6 
REMARK    3  A    between atoms: C5_6  and  C6_7 
REMARK    4  A    between atoms: C6_7  and  C7_8 
REMARK    5  A    between atoms: C7_8  and  C8_9 
REMARK    6  A    between atoms: C8_9  and  C9_10 
REMARK       I    between atoms: C9_10  and  N2_12 
REMARK       I    between atoms: C10_14  and  N3_15 
REMARK       I    between atoms: C10_14  and  N7_26 
REMARK    7  A    between atoms: N3_15  and  C11_17 
REMARK    8  A    between atoms: C11_17  and  C12_18 
REMARK    9  A    between atoms: C12_18  and  C13_19 
REMARK   10  A    between atoms: C13_19  and  C14_20 
REMARK   11  A    between atoms: C14_20  and  N4_21 
REMARK   12  A    between atoms: N7_26  and  C16_28 
REMARK   13  A    between atoms: C16_28  and  C17_29 
REMARK   14  A    between atoms: C17_29  and  N8_30 
REMARK       I    between atoms: N8_30  and  C18_32 
REMARK   15  A    between atoms: C18_32  and  C19_34 
ROOT
HETATM    1  C9  UNL     1      -2.082   0.381   0.007  1.00  0.00     0.235 C 
HETATM    2  O1  UNL     1      -1.690  -0.478   0.829  1.00  0.00    -0.273 OA
HETATM    3  N2  UNL     1      -1.160   1.033  -0.814  1.00  0.00    -0.160 N 
ATOM      4  H2  UNL     1      -1.504   1.306  -1.735  1.00  0.00     0.187 HD
HETATM    5  C10 UNL     1       0.048   1.332  -0.569  1.00  0.00     0.676 C 
HETATM    6  N3  UNL     1       0.769   2.008  -1.607  1.00  0.00    -0.226 N 
ATOM      7  H3  UNL     1       1.474   1.509  -2.150  1.00  0.00     0.177 HD
HETATM    8  N7  UNL     1       0.643   1.010   0.666  1.00  0.00    -0.225 N 
ATOM      9  H7  UNL     1       0.104   1.043   1.531  1.00  0.00     0.177 HD
ENDROOT
BRANCH   6  10
HETATM   10  C11 UNL     1       0.495   3.389  -1.878  1.00  0.00     0.138 C 
BRANCH  10  11
HETATM   11  C12 UNL     1       0.966   4.220  -0.715  1.00  0.00     0.022 C 
BRANCH  11  12
HETATM   12  C13 UNL     1       0.686   5.668  -0.999  1.00  0.00     0.021 C 
BRANCH  12  13
HETATM   13  C14 UNL     1       1.127   6.586   0.102  1.00  0.00     0.122 C 
BRANCH  13  14
HETATM   14  N4  UNL     1       0.453   6.274   1.336  1.00  0.00    -0.367 N 
HETATM   15  C15 UNL     1      -0.128   7.205   1.990  1.00  0.00     0.196 C 
HETATM   16  N5  UNL     1      -0.121   8.554   1.518  1.00  0.00    -0.067 NA
HETATM   17  N6  UNL     1      -0.789   6.875   3.211  1.00  0.00    -0.067 NA
ATOM     18  H4  UNL     1       0.440   5.316   1.686  1.00  0.00     0.161 HD
ENDBRANCH  13  14
ENDBRANCH  12  13
ENDBRANCH  11  12
ENDBRANCH  10  11
ENDBRANCH   6  10
BRANCH   8  19
HETATM   19  C16 UNL     1       2.033   0.633   0.675  1.00  0.00     0.157 C 
BRANCH  19  20
HETATM   20  C17 UNL     1       2.165  -0.703  -0.021  1.00  0.00     0.143 C 
BRANCH  20  21
HETATM   21  N8  UNL     1       3.557  -1.084  -0.025  1.00  0.00    -0.359 N 
HETATM   22  C18 UNL     1       3.962  -2.319  -0.631  1.00  0.00     0.221 C 
HETATM   23  O2  UNL     1       3.064  -3.026  -1.140  1.00  0.00    -0.273 OA
ATOM     24  H8  UNL     1       4.253  -0.474   0.404  1.00  0.00     0.162 HD
BRANCH  22  25
HETATM   25  C19 UNL     1       5.402  -2.731  -0.648  1.00  0.00     0.078 C 
HETATM   26  C20 UNL     1       5.902  -2.851   0.759  1.00  0.00     0.018 C 
HETATM   27  C21 UNL     1       7.110  -3.745   0.885  1.00  0.00    -0.013 C 
HETATM   28  C22 UNL     1       8.126  -3.284  -0.130  1.00  0.00     0.005 C 
HETATM   29  C25 UNL     1       6.703  -5.115   0.394  1.00  0.00     0.009 C 
HETATM   30  C23 UNL     1       8.036  -4.228  -1.304  1.00  0.00     0.005 C 
HETATM   31  C24 UNL     1       6.674  -4.862  -1.096  1.00  0.00    -0.013 C 
HETATM   32  C26 UNL     1       5.631  -3.894  -1.519  1.00  0.00     0.018 C 
ENDBRANCH  22  25
ENDBRANCH  20  21
ENDBRANCH  19  20
ENDBRANCH   8  19
BRANCH   1  33
HETATM   33  C8  UNL     1      -3.512   0.707  -0.099  1.00  0.00     0.103 C 
BRANCH  33  34
HETATM   34  C7  UNL     1      -4.269  -0.151   0.912  1.00  0.00     0.009 C 
BRANCH  34  35
HETATM   35  C6  UNL     1      -5.745   0.112   0.892  1.00  0.00     0.002 C 
BRANCH  35  36
HETATM   36  C5  UNL     1      -6.416  -0.159  -0.412  1.00  0.00     0.028 C 
BRANCH  36  37
HETATM   37  C4  UNL     1      -6.395  -1.557  -0.895  1.00  0.00     0.236 C 
BRANCH  37  38
HETATM   38  N1  UNL     1      -7.067  -2.544  -0.113  1.00  0.00    -0.079 N 
HETATM   39  C1  UNL     1      -8.202  -2.071   0.636  1.00  0.00     0.271 C 
HETATM   40  C2  UNL     1      -7.604  -3.572  -1.038  1.00  0.00     0.271 C 
HETATM   41  C3  UNL     1      -6.217  -3.258   0.788  1.00  0.00     0.271 C 
ENDBRANCH  37  38
ENDBRANCH  36  37
ENDBRANCH  35  36
ENDBRANCH  34  35
ENDBRANCH  33  34
ENDBRANCH   1  33
TORSDOF 15
