REMARK  9 active torsions:
REMARK  status: ('A' for Active; 'I' for Inactive)
REMARK    1  A    between atoms: C2_2  and  C4_4 
REMARK    2  A    between atoms: C5_5  and  C6_6 
REMARK    3  A    between atoms: C6_6  and  O1_10 
REMARK    4  A    between atoms: O1_10  and  C7_11 
REMARK    5  A    between atoms: C7_11  and  C8_12 
REMARK    6  A    between atoms: C7_11  and  C9_15 
REMARK    7  A    between atoms: C8_12  and  O2_13 
REMARK    8  A    between atoms: C9_15  and  N2_16 
REMARK    9  A    between atoms: N3_21  and  N4_23 
ROOT
HETATM    1  C7  UNL     1      -0.067  -2.101   1.194  1.00  0.00     0.172 C 
ENDROOT
BRANCH   1   2
HETATM    2  O1  UNL     1       0.716  -0.923   1.162  1.00  0.00    -0.320 OA
BRANCH   2   3
HETATM    3  C6  UNL     1       2.075  -0.934   1.430  1.00  0.00     0.193 C 
HETATM    4  N1  UNL     1       2.442  -1.736   2.388  1.00  0.00    -0.373 N 
ATOM      5  H12 UNL     1       3.443  -1.744   2.585  1.00  0.00     0.158 HD
ATOM      6  H11 UNL     1       1.769  -2.309   2.897  1.00  0.00     0.158 HD
BRANCH   3   7
HETATM    7  C5  UNL     1       3.026  -0.125   0.711  1.00  0.00    -0.023 C 
HETATM    8  C4  UNL     1       3.824   0.536   0.096  1.00  0.00    -0.093 C 
BRANCH   8   9
HETATM    9  C2  UNL     1       4.787   1.309  -0.657  1.00  0.00     0.057 C 
HETATM   10  C1  UNL     1       4.312   2.721  -0.807  1.00  0.00     0.023 C 
HETATM   11  C3  UNL     1       6.143   1.292   0.040  1.00  0.00     0.023 C 
ENDBRANCH   8   9
ENDBRANCH   3   7
ENDBRANCH   2   3
ENDBRANCH   1   2
BRANCH   1  12
HETATM   12  C8  UNL     1       0.436  -3.092   0.206  1.00  0.00     0.198 C 
BRANCH  12  13
HETATM   13  O2  UNL     1      -0.361  -4.258   0.255  1.00  0.00    -0.398 OA
ATOM     14  H2  UNL     1      -0.040  -4.891  -0.376  1.00  0.00     0.209 HD
ENDBRANCH  12  13
ENDBRANCH   1  12
BRANCH   1  15
HETATM   15  C9  UNL     1      -1.534  -1.812   1.132  1.00  0.00     0.161 C 
BRANCH  15  16
HETATM   16  N2  UNL     1      -1.981  -1.114  -0.029  1.00  0.00    -0.342 N 
HETATM   17  C10 UNL     1      -2.018  -1.595  -1.392  1.00  0.00     0.153 C 
HETATM   18  C11 UNL     1      -3.119  -0.760  -2.011  1.00  0.00     0.199 C 
HETATM   19  O3  UNL     1      -2.907   0.500  -1.354  1.00  0.00    -0.319 OA
HETATM   20  C12 UNL     1      -2.484   0.213  -0.053  1.00  0.00     0.236 C 
HETATM   21  N3  UNL     1      -2.576   1.076   0.900  1.00  0.00    -0.263 N 
ATOM     22  H3  UNL     1      -2.249   0.803   1.827  1.00  0.00     0.190 HD
BRANCH  21  23
HETATM   23  N4  UNL     1      -3.090   2.348   0.742  1.00  0.00    -0.273 N 
HETATM   24  C13 UNL     1      -4.299   2.616   0.424  1.00  0.00     0.215 C 
HETATM   25  N5  UNL     1      -4.769   3.948   0.277  1.00  0.00    -0.065 NA
HETATM   26  N6  UNL     1      -5.261   1.574   0.195  1.00  0.00    -0.065 NA
ATOM     27  H4  UNL     1      -2.457   3.134   0.890  1.00  0.00     0.189 HD
ENDBRANCH  21  23
ENDBRANCH  15  16
ENDBRANCH   1  15
TORSDOF 9
