REMARK  5 active torsions:
REMARK  status: ('A' for Active; 'I' for Inactive)
REMARK    1  A    between atoms: C5_8  and  N2_9 
REMARK    2  A    between atoms: N2_9  and  C6_12 
REMARK    3  A    between atoms: C6_12  and  C7_13 
REMARK    4  A    between atoms: C7_13  and  N3_16 
REMARK    5  A    between atoms: N3_16  and  C10_18 
ROOT
HETATM    1  C7  UNL     1       0.949   1.427   0.097  1.00  0.00     0.048 C 
HETATM    2  C8  UNL     1       0.983   2.864   0.552  1.00  0.00     0.039 C 
HETATM    3  C9  UNL     1       1.030   1.405  -1.396  1.00  0.00     0.039 C 
ENDROOT
BRANCH   1   4
HETATM    4  C6  UNL     1      -0.319   0.778   0.617  1.00  0.00     0.263 C 
BRANCH   4   5
HETATM    5  N2  UNL     1      -1.541   1.326   0.232  1.00  0.00    -0.065 N 
ATOM      6  H22 UNL     1      -1.505   1.633  -0.740  1.00  0.00     0.277 HD
ATOM      7  H21 UNL     1      -1.691   2.224   0.691  1.00  0.00     0.277 HD
BRANCH   5   8
HETATM    8  C5  UNL     1      -2.684   0.443   0.449  1.00  0.00     0.235 C 
HETATM    9  C4  UNL     1      -2.576  -0.708  -0.487  1.00  0.00     0.267 C 
HETATM   10  N1  UNL     1      -3.381  -1.863  -0.158  1.00  0.00    -0.071 N 
HETATM   11  C3  UNL     1      -4.704  -1.632  -0.707  1.00  0.00     0.263 C 
ATOM     12  H12 UNL     1      -3.393  -2.071   0.841  1.00  0.00     0.277 HD
ATOM     13  H11 UNL     1      -2.966  -2.741  -0.470  1.00  0.00     0.277 HD
HETATM   14  C2  UNL     1      -5.346  -0.600   0.227  1.00  0.00     0.143 C 
HETATM   15  C1  UNL     1      -6.826  -0.892   0.266  1.00  0.00     0.041 C 
HETATM   16  O1  UNL     1      -5.004   0.636  -0.250  1.00  0.00    -0.382 OA
HETATM   17  C16 UNL     1      -3.933   1.242   0.398  1.00  0.00     0.203 C 
ENDBRANCH   5   8
ENDBRANCH   4   5
ENDBRANCH   1   4
BRANCH   1  18
HETATM   18  N3  UNL     1       2.003   0.638   0.720  1.00  0.00    -0.370 N 
ATOM     19  H3  UNL     1       1.860   0.394   1.700  1.00  0.00     0.161 HD
BRANCH  18  20
HETATM   20  C10 UNL     1       3.174   0.179   0.144  1.00  0.00     0.073 C 
HETATM   21  N4  UNL     1       3.048  -0.642  -0.871  1.00  0.00    -0.378 N 
HETATM   22  C11 UNL     1       4.035  -1.312  -1.704  1.00  0.00     0.156 C 
ATOM     23  H4  UNL     1       2.081  -0.849  -1.122  1.00  0.00     0.160 HD
HETATM   24  C12 UNL     1       5.273  -1.436  -0.855  1.00  0.00     0.234 A 
HETATM   25  N5  UNL     1       5.632  -2.588  -0.133  1.00  0.00    -0.061 N 
HETATM   26  C13 UNL     1       4.759  -1.729   0.557  1.00  0.00     0.219 A 
ATOM     27  H52 UNL     1       5.566  -3.580  -0.362  1.00  0.00     0.278 HD
ATOM     28  H51 UNL     1       6.542  -2.974   0.118  1.00  0.00     0.278 HD
HETATM   29  C14 UNL     1       5.187  -0.552   1.389  1.00  0.00     0.042 C 
HETATM   30  C15 UNL     1       4.448   0.641   0.741  1.00  0.00     0.078 C 
ENDBRANCH  18  20
ENDBRANCH   1  18
TORSDOF 5
