REMARK  1 active torsions:
REMARK  status: ('A' for Active; 'I' for Inactive)
REMARK    1  A    between atoms: C2_3  and  C3_4 
ROOT
HETATM    1  N1  UNL     1       0.214  -3.428   0.593  1.00  0.00    -0.194 NA
HETATM    2  C1  UNL     1       0.373  -2.305   0.390  1.00  0.00     0.103 C 
HETATM    3  C2  UNL     1       0.561  -0.900   0.154  1.00  0.00     0.233 C 
HETATM    4  S1  UNL     1      -0.337  -0.439  -1.350  1.00  0.00    -0.121 SA
HETATM    5  C4  UNL     1      -1.598   0.710  -0.893  1.00  0.00     0.087 C 
HETATM    6  C5  UNL     1      -1.472   1.123   0.508  1.00  0.00     0.087 C 
HETATM    7  S2  UNL     1      -0.283   0.142   1.371  1.00  0.00    -0.121 SA
ENDROOT
BRANCH   3   8
HETATM    8  C3  UNL     1       1.987  -0.533   0.018  1.00  0.00     0.218 C 
HETATM    9  O1  UNL     1       2.833  -1.458   0.122  1.00  0.00    -0.645 OA
HETATM   10  O2  UNL     1       2.439   0.743  -0.212  1.00  0.00    -0.645 OA
ENDBRANCH   3   8
TORSDOF 1
