REMARK  1 active torsions:
REMARK  status: ('A' for Active; 'I' for Inactive)
REMARK    1  A    between atoms: N1_1  and  C1_4 
ROOT
HETATM    1  C1  UNL     1      -0.955  -0.951   0.023  1.00  0.00     0.172 C 
HETATM    2  N2  UNL     1       0.331  -1.347   0.077  1.00  0.00    -0.290 N 
ATOM      3  H2  UNL     1       0.485  -2.346   0.212  1.00  0.00     0.172 HD
HETATM    4  C2  UNL     1       1.455  -0.577  -0.026  1.00  0.00     0.329 C 
HETATM    5  O1  UNL     1       2.524  -1.209  -0.238  1.00  0.00    -0.246 OA
HETATM    6  N3  UNL     1       1.548   0.774   0.074  1.00  0.00    -0.260 N 
ATOM      7  H3  UNL     1       2.500   1.139   0.115  1.00  0.00     0.175 HD
HETATM    8  C3  UNL     1       0.575   1.708   0.128  1.00  0.00     0.331 C 
HETATM    9  O2  UNL     1       0.868   2.856   0.556  1.00  0.00    -0.246 OA
HETATM   10  N4  UNL     1      -0.706   1.504  -0.244  1.00  0.00    -0.272 N 
ATOM     11  H4  UNL     1      -1.225   2.335  -0.528  1.00  0.00     0.174 HD
HETATM   12  C4  UNL     1      -1.394   0.326  -0.288  1.00  0.00     0.293 C 
HETATM   13  O3  UNL     1      -2.586   0.369  -0.654  1.00  0.00    -0.264 OA
ENDROOT
BRANCH   1  14
HETATM   14  N1  UNL     1      -1.864  -1.830   0.280  1.00  0.00    -0.381 N 
ATOM     15  H12 UNL     1      -1.541  -2.770   0.509  1.00  0.00     0.157 HD
ATOM     16  H11 UNL     1      -2.838  -1.530   0.239  1.00  0.00     0.157 HD
ENDBRANCH   1  14
TORSDOF 1
