REMARK  2 active torsions:
REMARK  status: ('A' for Active; 'I' for Inactive)
REMARK    1  A    between atoms: C2_2  and  C3_3 
REMARK    2  A    between atoms: C3_3  and  N1_4 
REMARK       I    between atoms: N3_12  and  C9_13 
REMARK       I    between atoms: C9_13  and  N4_15 
ROOT
HETATM    1  N1  UNL     1      -3.149  -1.197  -0.168  1.00  0.00    -0.387 N 
HETATM    2  C4  UNL     1      -2.267  -1.617   0.813  1.00  0.00     0.141 C 
HETATM    3  C5  UNL     1      -1.287  -2.707   0.336  1.00  0.00     0.133 C 
HETATM    4  N2  UNL     1      -0.320  -2.051  -0.484  1.00  0.00    -0.420 N 
ATOM      5  H2  UNL     1      -0.504  -1.155  -0.935  1.00  0.00     0.153 HD
HETATM    6  C6  UNL     1       0.929  -2.741  -0.629  1.00  0.00     0.115 C 
HETATM    7  C7  UNL     1       1.731  -2.863   0.617  1.00  0.00     0.039 C 
HETATM    8  C8  UNL     1       2.461  -1.640   1.033  1.00  0.00     0.129 C 
HETATM    9  N3  UNL     1       3.345  -1.152   0.006  1.00  0.00    -0.334 N 
HETATM   10  C9  UNL     1       4.570  -1.737  -0.369  1.00  0.00     0.317 C 
HETATM   11  O1  UNL     1       5.223  -1.222  -1.313  1.00  0.00    -0.247 OA
HETATM   12  N4  UNL     1       5.099  -2.874   0.269  1.00  0.00    -0.347 N 
ATOM     13  H4  UNL     1       4.585  -3.300   1.040  1.00  0.00     0.163 HD
HETATM   14  C10 UNL     1       6.386  -3.461  -0.159  1.00  0.00     0.151 C 
HETATM   15  C11 UNL     1       2.916   0.088  -0.672  1.00  0.00     0.129 C 
HETATM   16  C12 UNL     1       3.261   1.289   0.208  1.00  0.00     0.047 C 
HETATM   17  C13 UNL     1       2.657   2.509  -0.449  1.00  0.00     0.234 C 
HETATM   18  N5  UNL     1       2.185   3.423   0.588  1.00  0.00    -0.073 N 
ATOM     19  H51 UNL     1       2.952   3.812   1.137  1.00  0.00     0.277 HD
ATOM     20  H52 UNL     1       1.700   2.934   1.341  1.00  0.00     0.277 HD
HETATM   21  C14 UNL     1       1.366   4.452  -0.011  1.00  0.00     0.259 C 
HETATM   22  C15 UNL     1      -0.045   4.283   0.503  1.00  0.00     0.259 C 
HETATM   23  N6  UNL     1      -0.978   4.225  -0.606  1.00  0.00    -0.072 N 
ATOM     24  H61 UNL     1      -0.853   3.377  -1.159  1.00  0.00     0.277 HD
ATOM     25  H62 UNL     1      -0.752   4.913  -1.325  1.00  0.00     0.277 HD
HETATM   26  C16 UNL     1      -2.340   4.365  -0.144  1.00  0.00     0.259 C 
HETATM   27  C17 UNL     1      -3.068   3.041  -0.275  1.00  0.00     0.259 C 
HETATM   28  N7  UNL     1      -2.615   2.189   0.812  1.00  0.00    -0.072 N 
ATOM     29  H71 UNL     1      -2.622   2.666   1.714  1.00  0.00     0.277 HD
ATOM     30  H72 UNL     1      -1.615   1.993   0.767  1.00  0.00     0.277 HD
HETATM   31  C18 UNL     1      -3.428   0.971   0.812  1.00  0.00     0.252 C 
HETATM   32  C19 UNL     1      -3.223   0.190  -0.471  1.00  0.00     0.149 C 
ENDROOT
BRANCH   1  33
HETATM   33  C3  UNL     1      -3.938  -2.072  -0.896  1.00  0.00     0.084 C 
BRANCH  33  34
HETATM   34  C2  UNL     1      -5.043  -2.662  -0.136  1.00  0.00     0.007 C 
HETATM   35  C1  UNL     1      -5.386  -2.406   1.091  1.00  0.00     0.012 C 
ENDBRANCH  33  34
ENDBRANCH   1  33
TORSDOF 2
