REMARK  7 active torsions:
REMARK  status: ('A' for Active; 'I' for Inactive)
REMARK    1  A    between atoms: C2_2  and  C3_3 
REMARK    2  A    between atoms: C3_3  and  C4_4 
REMARK    3  A    between atoms: C6_6  and  C7_7 
REMARK    4  A    between atoms: C7_7  and  N1_8 
REMARK    5  A    between atoms: N1_8  and  C8_10 
REMARK    6  A    between atoms: C8_10  and  N2_12 
REMARK    7  A    between atoms: C10_17  and  C11_18 
ROOT
HETATM    1  N1  UNL     1      -0.058  -0.091   0.178  1.00  0.00    -0.363 N 
ATOM      2  H1  UNL     1       0.486   0.478  -0.470  1.00  0.00     0.162 HD
ENDROOT
BRANCH   1   3
HETATM    3  C7  UNL     1       0.616  -0.805   1.293  1.00  0.00     0.166 C 
BRANCH   3   4
HETATM    4  C6  UNL     1       1.986  -1.053   0.716  1.00  0.00     0.028 A 
HETATM    5  C5  UNL     1       2.766  -0.035   0.286  1.00  0.00     0.023 A 
HETATM    6  C4  UNL     1       4.029  -0.241  -0.239  1.00  0.00    -0.035 A 
HETATM    7  C15 UNL     1       4.465  -1.581  -0.300  1.00  0.00     0.015 A 
HETATM    8  N5  UNL     1       3.674  -2.581   0.136  1.00  0.00    -0.327 N 
HETATM    9  C16 UNL     1       5.761  -1.931  -0.986  1.00  0.00     0.068 C 
HETATM   10  C14 UNL     1       2.449  -2.332   0.636  1.00  0.00     0.253 A 
ATOM     11  H5  UNL     1       4.009  -3.543   0.086  1.00  0.00     0.169 HD
HETATM   12  O2  UNL     1       1.676  -3.293   1.037  1.00  0.00    -0.268 OA
BRANCH   6  13
HETATM   13  C3  UNL     1       4.914   0.840  -0.690  1.00  0.00     0.040 C 
BRANCH  13  14
HETATM   14  C2  UNL     1       4.332   2.187  -0.768  1.00  0.00     0.000 C 
HETATM   15  C1  UNL     1       3.995   2.969   0.418  1.00  0.00     0.005 C 
ENDBRANCH  13  14
ENDBRANCH   6  13
ENDBRANCH   3   4
ENDBRANCH   1   3
BRANCH   1  16
HETATM   16  C8  UNL     1      -1.448  -0.205   0.023  1.00  0.00     0.174 C 
HETATM   17  S1  UNL     1      -2.267   0.304  -1.310  1.00  0.00    -0.041 SA
BRANCH  16  18
HETATM   18  N2  UNL     1      -2.150  -0.937   1.049  1.00  0.00    -0.303 N 
HETATM   19  C9  UNL     1      -3.425  -0.872   1.110  1.00  0.00     0.208 A 
HETATM   20  N3  UNL     1      -4.184  -0.159   0.273  1.00  0.00    -0.308 N 
HETATM   21  N4  UNL     1      -4.341  -1.474   1.993  1.00  0.00    -0.228 N 
HETATM   22  C10 UNL     1      -5.442  -0.240   0.524  1.00  0.00     0.153 A 
ATOM     23  H3  UNL     1      -3.802   0.397  -0.492  1.00  0.00     0.170 HD
HETATM   24  O1  UNL     1      -5.475  -1.063   1.599  1.00  0.00    -0.221 OA
ATOM     25  H4  UNL     1      -4.139  -2.099   2.773  1.00  0.00     0.198 HD
ATOM     26  H2  UNL     1      -1.632  -1.503   1.721  1.00  0.00     0.171 HD
BRANCH  22  27
HETATM   27  C11 UNL     1      -6.629   0.366  -0.133  1.00  0.00     0.055 C 
HETATM   28  C12 UNL     1      -6.320   1.873  -0.105  1.00  0.00     0.018 C 
HETATM   29  C13 UNL     1      -6.549  -0.075  -1.598  1.00  0.00     0.018 C 
ENDBRANCH  22  27
ENDBRANCH  16  18
ENDBRANCH   1  16
TORSDOF 7
