REMARK  3 active torsions:
REMARK  status: ('A' for Active; 'I' for Inactive)
REMARK    1  A    between atoms: C2_2  and  C3_3 
REMARK    2  A    between atoms: C3_3  and  O1_4 
REMARK    3  A    between atoms: C15_19  and  C17_21 
ROOT
HETATM    1  C3  UNL     1      -2.820  -0.392  -0.100  1.00  0.00     0.079 C 
HETATM    2  C4  UNL     1      -2.070   0.318  -1.164  1.00  0.00     0.052 C 
HETATM    3  C5  UNL     1      -0.651  -0.006  -1.371  1.00  0.00    -0.029 A 
HETATM    4  C6  UNL     1      -0.188   0.377  -2.798  1.00  0.00     0.016 C 
HETATM    5  C7  UNL     1       0.020  -1.213  -0.862  1.00  0.00     0.023 A 
HETATM    6  C8  UNL     1       0.321   0.197  -0.335  1.00  0.00     0.004 A 
HETATM    7  C9  UNL     1      -0.050   0.414   1.058  1.00  0.00     0.170 C 
HETATM    8  C10 UNL     1      -1.398   0.999   1.338  1.00  0.00     0.043 C 
HETATM    9  C11 UNL     1      -2.393  -0.134   1.292  1.00  0.00     0.022 C 
HETATM   10  C12 UNL     1      -3.554   0.114   2.248  1.00  0.00     0.013 C 
HETATM   11  O2  UNL     1       0.877   1.220   1.763  1.00  0.00    -0.234 OA
HETATM   12  O3  UNL     1       0.941   2.337   1.029  1.00  0.00    -0.235 OA
HETATM   13  C13 UNL     1       1.918   2.047   0.059  1.00  0.00     0.166 C 
HETATM   14  C14 UNL     1       3.082   1.366   0.753  1.00  0.00     0.045 C 
HETATM   15  C15 UNL     1       2.900   0.214  -0.223  1.00  0.00    -0.035 C 
HETATM   16  C16 UNL     1       4.046   0.295  -1.248  1.00  0.00     0.016 C 
HETATM   17  C19 UNL     1       1.653   0.792  -0.695  1.00  0.00     0.038 C 
ENDROOT
BRANCH   1  18
HETATM   18  C2  UNL     1      -4.249   0.099  -0.199  1.00  0.00     0.001 C 
HETATM   19  C1  UNL     1      -5.272  -0.713  -0.152  1.00  0.00     0.010 C 
ENDBRANCH   1  18
BRANCH   1  20
HETATM   20  O1  UNL     1      -2.878  -1.745  -0.426  1.00  0.00    -0.385 OA
ATOM     21  H1  UNL     1      -1.981  -2.053  -0.364  1.00  0.00     0.211 HD
ENDBRANCH   1  20
BRANCH  15  22
HETATM   22  C17 UNL     1       2.960  -1.084   0.475  1.00  0.00     0.005 C 
HETATM   23  C18 UNL     1       4.320  -1.249   1.171  1.00  0.00     0.006 C 
ENDBRANCH  15  22
TORSDOF 3
