REMARK  11 active torsions:
REMARK  status: ('A' for Active; 'I' for Inactive)
REMARK    1  A    between atoms: C2_2  and  O1_4 
REMARK    2  A    between atoms: O1_4  and  C4_5 
REMARK    3  A    between atoms: C5_7  and  C6_8 
REMARK    4  A    between atoms: C6_8  and  O3_9 
REMARK    5  A    between atoms: O3_9  and  C7_10 
REMARK    6  A    between atoms: C7_10  and  C8_12 
REMARK    7  A    between atoms: C9_13  and  C10_14 
REMARK    8  A    between atoms: C15_19  and  C16_20 
REMARK    9  A    between atoms: C20_27  and  C21_28 
REMARK   10  A    between atoms: C21_28  and  O8_29 
REMARK   11  A    between atoms: C22_31  and  O9_32 
ROOT
HETATM    1  O3  UNL     1      -0.596   2.185  -1.029  1.00  0.00    -0.313 OA
ENDROOT
BRANCH   1   2
HETATM    2  C6  UNL     1      -1.870   1.717  -1.222  1.00  0.00     0.240 C 
BRANCH   2   3
HETATM    3  C5  UNL     1      -2.361   0.810  -0.139  1.00  0.00     0.288 C 
HETATM    4  O2  UNL     1      -3.693   0.433  -0.496  1.00  0.00    -0.327 OA
HETATM    5  C4  UNL     1      -4.275  -0.011   0.682  1.00  0.00     0.294 C 
HETATM    6  C22 UNL     1      -3.607  -1.320   1.031  1.00  0.00     0.204 C 
HETATM    7  C20 UNL     1      -2.236  -1.447   0.424  1.00  0.00     0.181 C 
HETATM    8  O7  UNL     1      -1.612  -0.254   0.190  1.00  0.00    -0.349 OA
BRANCH   5   9
HETATM    9  O1  UNL     1      -5.654  -0.163   0.578  1.00  0.00    -0.354 OA
BRANCH   9  10
HETATM   10  C2  UNL     1      -6.331   0.562   1.525  1.00  0.00     0.116 C 
HETATM   11  C1  UNL     1      -7.151  -0.301   2.456  1.00  0.00     0.039 C 
HETATM   12  C3  UNL     1      -7.237   1.551   0.851  1.00  0.00     0.039 C 
ENDBRANCH   9  10
ENDBRANCH   5   9
BRANCH   6  13
HETATM   13  O9  UNL     1      -3.573  -1.489   2.422  1.00  0.00    -0.388 OA
ATOM     14  H9  UNL     1      -3.153  -2.312   2.642  1.00  0.00     0.210 HD
ENDBRANCH   6  13
BRANCH   7  15
HETATM   15  C21 UNL     1      -2.300  -2.298  -0.850  1.00  0.00     0.199 C 
BRANCH  15  16
HETATM   16  O8  UNL     1      -2.933  -3.505  -0.616  1.00  0.00    -0.398 OA
ATOM     17  H8  UNL     1      -2.973  -4.032  -1.405  1.00  0.00     0.209 HD
ENDBRANCH  15  16
ENDBRANCH   7  15
ENDBRANCH   2   3
ENDBRANCH   1   2
BRANCH   1  18
HETATM   18  C7  UNL     1       0.608   1.437  -1.114  1.00  0.00     0.283 C 
HETATM   19  O4  UNL     1       0.415   0.247  -1.417  1.00  0.00    -0.260 OA
BRANCH  18  20
HETATM   20  C8  UNL     1       1.863   2.098  -0.856  1.00  0.00     0.083 C 
HETATM   21  C9  UNL     1       3.068   1.757  -0.869  1.00  0.00     0.018 C 
BRANCH  21  22
HETATM   22  C10 UNL     1       3.910   0.615  -1.126  1.00  0.00    -0.026 A 
HETATM   23  C11 UNL     1       3.483  -0.481  -1.819  1.00  0.00     0.051 A 
HETATM   24  C12 UNL     1       4.268  -1.637  -2.018  1.00  0.00     0.105 A 
HETATM   25  C13 UNL     1       5.533  -1.651  -1.484  1.00  0.00     0.105 A 
HETATM   26  O6  UNL     1       4.033  -2.847  -2.678  1.00  0.00    -0.323 OA
HETATM   27  C14 UNL     1       5.965  -0.551  -0.789  1.00  0.00     0.048 A 
HETATM   28  O5  UNL     1       6.062  -2.902  -1.837  1.00  0.00    -0.323 OA
HETATM   29  C15 UNL     1       5.213   0.578  -0.587  1.00  0.00    -0.042 A 
HETATM   30  C19 UNL     1       4.979  -3.780  -2.135  1.00  0.00     0.352 C 
BRANCH  29  31
HETATM   31  C16 UNL     1       5.757   1.719   0.198  1.00  0.00     0.011 C 
HETATM   32  C17 UNL     1       7.242   1.493   0.488  1.00  0.00     0.015 C 
HETATM   33  C18 UNL     1       4.988   1.843   1.501  1.00  0.00     0.015 C 
ENDBRANCH  29  31
ENDBRANCH  21  22
ENDBRANCH  18  20
ENDBRANCH   1  18
TORSDOF 11
