REMARK  7 active torsions:
REMARK  status: ('A' for Active; 'I' for Inactive)
REMARK    1  A    between atoms: N1_2  and  C2_3 
REMARK    2  A    between atoms: N1_2  and  C6_7 
REMARK    3  A    between atoms: C2_3  and  C3_4 
REMARK    4  A    between atoms: C7_10  and  N3_11 
REMARK    5  A    between atoms: C10_14  and  C11_15 
REMARK    6  A    between atoms: C11_15  and  O1_16 
REMARK    7  A    between atoms: C15_22  and  N4_23 
ROOT
HETATM    1  C6  UNL     1       2.043  -1.263   0.283  1.00  0.00     0.683 A 
HETATM    2  N2  UNL     1       0.813  -0.678   0.226  1.00  0.00    -0.175 N 
ATOM      3  H2  UNL     1       0.730   0.306   0.482  1.00  0.00     0.186 HD
HETATM    4  C7  UNL     1      -0.302  -1.340  -0.154  1.00  0.00     0.144 A 
HETATM    5  C14 UNL     1      -0.135  -2.661  -0.487  1.00  0.00     0.122 A 
HETATM    6 CL1  UNL     1      -1.483  -3.619  -0.998  1.00  0.00    -0.076 Cl
HETATM    7  C15 UNL     1       1.122  -3.266  -0.431  1.00  0.00     0.140 A 
HETATM    8  N5  UNL     1       2.205  -2.571  -0.048  1.00  0.00    -0.175 N 
ATOM      9  H5  UNL     1       3.124  -3.012  -0.007  1.00  0.00     0.186 HD
ENDROOT
BRANCH   4  10
HETATM   10  N3  UNL     1      -1.576  -0.741  -0.206  1.00  0.00    -0.365 N 
HETATM   11  C8  UNL     1      -2.703  -1.105   0.619  1.00  0.00     0.125 C 
HETATM   12  C9  UNL     1      -4.016  -0.704  -0.013  1.00  0.00     0.026 C 
HETATM   13  C10 UNL     1      -4.071   0.738  -0.402  1.00  0.00     0.012 C 
HETATM   14  C12 UNL     1      -2.694   1.331  -0.461  1.00  0.00     0.026 C 
HETATM   15  C13 UNL     1      -1.801   0.327  -1.160  1.00  0.00     0.125 C 
BRANCH  13  16
HETATM   16  C11 UNL     1      -5.007   1.542   0.474  1.00  0.00     0.168 C 
BRANCH  16  17
HETATM   17  O1  UNL     1      -5.003   2.865   0.053  1.00  0.00    -0.400 OA
ATOM     18  H1  UNL     1      -5.591   3.370   0.603  1.00  0.00     0.209 HD
ENDBRANCH  16  17
ENDBRANCH  13  16
ENDBRANCH   4  10
BRANCH   1  19
HETATM   19  N1  UNL     1       3.184  -0.537   0.694  1.00  0.00    -0.222 N 
HETATM   20  C1  UNL     1       3.571  -0.526   2.076  1.00  0.00     0.168 C 
BRANCH  19  21
HETATM   21  C2  UNL     1       3.956   0.192  -0.272  1.00  0.00     0.145 C 
BRANCH  21  22
HETATM   22  C3  UNL     1       3.820   1.698  -0.044  1.00  0.00     0.004 A 
HETATM   23  C4  UNL     1       4.544   2.627  -0.940  1.00  0.00     0.007 A 
HETATM   24  C5  UNL     1       3.057   2.471  -1.124  1.00  0.00     0.007 A 
ENDBRANCH  21  22
ENDBRANCH  19  21
ENDBRANCH   1  19
BRANCH   7  25
HETATM   25  N4  UNL     1       1.226  -4.520  -0.757  1.00  0.00    -0.384 N 
ATOM     26  H42 UNL     1       0.403  -5.048  -1.048  1.00  0.00     0.157 HD
ATOM     27  H41 UNL     1       2.144  -4.962  -0.716  1.00  0.00     0.157 HD
ENDBRANCH   7  25
TORSDOF 7
