REMARK  6 active torsions:
REMARK  status: ('A' for Active; 'I' for Inactive)
REMARK    1  A    between atoms: N1_1  and  C1_4 
REMARK    2  A    between atoms: C2_9  and  S1_10 
REMARK    3  A    between atoms: S1_10  and  C3_11 
REMARK    4  A    between atoms: C3_11  and  C4_12 
REMARK    5  A    between atoms: C4_12  and  N4_13 
REMARK    6  A    between atoms: N4_13  and  C5_16 
ROOT
HETATM    1  C3  UNL     1       1.400  -0.159   0.947  1.00  0.00     0.109 C 
ENDROOT
BRANCH   1   2
HETATM    2  S1  UNL     1       2.036  -1.116  -0.467  1.00  0.00    -0.102 SA
BRANCH   2   3
HETATM    3  C2  UNL     1       3.745  -0.592  -0.705  1.00  0.00     0.130 A 
HETATM    4  N3  UNL     1       4.852  -1.079  -0.175  1.00  0.00    -0.286 N 
HETATM    5  N2  UNL     1       5.982  -0.578  -0.460  1.00  0.00    -0.279 N 
ATOM      6  H3  UNL     1       4.798  -1.867   0.471  1.00  0.00     0.188 HD
HETATM    7  C1  UNL     1       6.033   0.454  -1.307  1.00  0.00     0.159 A 
ATOM      8  H2  UNL     1       6.836  -0.956  -0.050  1.00  0.00     0.189 HD
HETATM    9  S2  UNL     1       4.380   0.678  -1.683  1.00  0.00    -0.027 SA
BRANCH   7  10
HETATM   10  N1  UNL     1       7.089   1.102  -1.721  1.00  0.00    -0.379 N 
ATOM     11  H12 UNL     1       8.075   0.968  -1.497  1.00  0.00     0.158 HD
ATOM     12  H11 UNL     1       7.128   1.890  -2.368  1.00  0.00     0.158 HD
ENDBRANCH   7  10
ENDBRANCH   2   3
ENDBRANCH   1   2
BRANCH   1  13
HETATM   13  C4  UNL     1      -0.048  -0.542   1.228  1.00  0.00     0.243 C 
BRANCH  13  14
HETATM   14  N4  UNL     1      -0.865  -0.267   0.064  1.00  0.00    -0.069 N 
ATOM     15  H42 UNL     1      -0.766   0.704  -0.233  1.00  0.00     0.277 HD
ATOM     16  H41 UNL     1      -0.491  -0.731  -0.764  1.00  0.00     0.277 HD
BRANCH  14  17
HETATM   17  C5  UNL     1      -2.243  -0.606   0.267  1.00  0.00     0.204 C 
HETATM   18  C6  UNL     1      -3.034  -0.424  -0.995  1.00  0.00     0.018 C 
HETATM   19  C7  UNL     1      -3.190   1.058  -1.151  1.00  0.00     0.012 C 
HETATM   20  C9  UNL     1      -4.455  -0.383  -0.407  1.00  0.00     0.012 C 
HETATM   21  C8  UNL     1      -3.954   0.946   0.171  1.00  0.00     0.003 C 
HETATM   22  C10 UNL     1      -2.915   0.480   1.135  1.00  0.00     0.093 C 
HETATM   23 BR1  UNL     1      -3.767  -0.382   2.630  1.00  0.00    -0.089 Br
ENDBRANCH  14  17
ENDBRANCH  13  14
ENDBRANCH   1  13
TORSDOF 6
