REMARK  3 active torsions:
REMARK  status: ('A' for Active; 'I' for Inactive)
REMARK    1  A    between atoms: C2_2  and  C3_3 
REMARK    2  A    between atoms: C3_3  and  N1_4 
REMARK       I    between atoms: N1_4  and  C4_6 
REMARK       I    between atoms: C4_6  and  N2_8 
REMARK    3  A    between atoms: N2_8  and  C5_10 
ROOT
HETATM    1  N1  UNL     1       1.300   0.535  -0.171  1.00  0.00    -0.334 N 
ATOM      2  H1  UNL     1       1.190   1.170  -0.962  1.00  0.00     0.165 HD
HETATM    3  C4  UNL     1       0.152  -0.102   0.346  1.00  0.00     0.317 C 
HETATM    4  O1  UNL     1       0.275  -0.883   1.318  1.00  0.00    -0.247 OA
HETATM    5  N2  UNL     1      -1.114   0.146  -0.234  1.00  0.00    -0.338 N 
ATOM      6  H2  UNL     1      -1.191   0.786  -1.025  1.00  0.00     0.164 HD
ENDROOT
BRANCH   1   7
HETATM    7  C3  UNL     1       2.634   0.328   0.372  1.00  0.00     0.034 C 
HETATM    8  C10 UNL     1       3.583   1.358  -0.209  1.00  0.00     0.031 C 
HETATM    9  C11 UNL     1       3.080   2.298   0.895  1.00  0.00     0.005 C 
HETATM   10  C12 UNL     1       2.846   1.022   1.718  1.00  0.00     0.031 C 
BRANCH   7  11
HETATM   11  C2  UNL     1       3.155  -1.079   0.328  1.00  0.00     0.026 C 
HETATM   12  C1  UNL     1       3.236  -1.614  -1.069  1.00  0.00     0.007 C 
ENDBRANCH   7  11
ENDBRANCH   1   7
BRANCH   5  13
HETATM   13  C5  UNL     1      -2.304  -0.502   0.286  1.00  0.00     0.090 C 
HETATM   14  C6  UNL     1      -3.211   0.580   0.825  1.00  0.00     0.051 C 
HETATM   15  C7  UNL     1      -4.592   0.067   1.133  1.00  0.00     0.169 C 
HETATM   16  O2  UNL     1      -4.961  -1.026   0.385  1.00  0.00    -0.391 OA
HETATM   17  C8  UNL     1      -4.431  -0.925  -0.881  1.00  0.00     0.169 C 
HETATM   18  C9  UNL     1      -2.969  -1.310  -0.805  1.00  0.00     0.051 C 
ENDBRANCH   5  13
TORSDOF 3
