REMARK  2 active torsions:
REMARK  status: ('A' for Active; 'I' for Inactive)
REMARK    1  A    between atoms: N1_1  and  C1_4 
REMARK    2  A    between atoms: C2_7  and  N3_8 
ROOT
HETATM    1  C1  UNL     1       3.370  -0.292   0.148  1.00  0.00     0.705 A 
HETATM    2  N2  UNL     1       2.242   0.262   0.612  1.00  0.00    -0.018 N 
ATOM      3  H2  UNL     1       2.205   0.933   1.380  1.00  0.00     0.203 HD
HETATM    4  C2  UNL     1       1.166  -0.177  -0.061  1.00  0.00     0.729 A 
HETATM    5  N6  UNL     1       1.678  -1.043  -0.981  1.00  0.00    -0.116 N 
ATOM      6  H6  UNL     1       1.130  -1.563  -1.667  1.00  0.00     0.206 HD
HETATM    7  N7  UNL     1       2.990  -1.107  -0.850  1.00  0.00    -0.117 N 
ATOM      8  H7  UNL     1       3.614  -1.682  -1.415  1.00  0.00     0.206 HD
ENDROOT
BRANCH   4   9
HETATM    9  N3  UNL     1      -0.216   0.178   0.134  1.00  0.00    -0.110 N 
HETATM   10  C3  UNL     1      -1.162  -0.433  -0.718  1.00  0.00     0.189 C 
HETATM   11  C4  UNL     1      -2.572  -0.433  -0.377  1.00  0.00     0.156 C 
HETATM   12  N4  UNL     1      -3.054   0.420   0.650  1.00  0.00    -0.300 N 
HETATM   13  S1  UNL     1      -2.023   1.803   0.746  1.00  0.00     0.333 S 
ATOM     14  H4  UNL     1      -3.872   0.246   1.234  1.00  0.00     0.173 HD
HETATM   15  O1  UNL     1      -1.941   2.401  -0.616  1.00  0.00    -0.181 OA
HETATM   16  O2  UNL     1      -2.463   2.772   1.790  1.00  0.00    -0.181 OA
HETATM   17  N5  UNL     1      -0.475   1.097   1.152  1.00  0.00    -0.193 N 
ATOM     18  H5  UNL     1       0.112   1.311   1.959  1.00  0.00     0.202 HD
ENDBRANCH   4   9
BRANCH   1  19
HETATM   19  N1  UNL     1       4.597  -0.115   0.544  1.00  0.00    -0.233 N 
ATOM     20  H12 UNL     1       4.886   0.504   1.302  1.00  0.00     0.174 HD
ATOM     21  H11 UNL     1       5.456  -0.537   0.191  1.00  0.00     0.174 HD
ENDBRANCH   1  19
TORSDOF 2
