REMARK  5 active torsions:
REMARK  status: ('A' for Active; 'I' for Inactive)
REMARK       I    between atoms: C2_5  and  N3_6 
REMARK       I    between atoms: C2_5  and  N5_11 
REMARK    1  A    between atoms: N3_6  and  N4_8 
REMARK    2  A    between atoms: N5_11  and  C3_13 
REMARK    3  A    between atoms: C3_13  and  C4_14 
REMARK    4  A    between atoms: C4_14  and  C5_15 
REMARK    5  A    between atoms: C5_15  and  N6_16 
ROOT
HETATM    1  N1  UNL     1       3.702   3.313   1.096  1.00  0.00    -0.171 NA
HETATM    2  C1  UNL     1       4.010   2.243   0.741  1.00  0.00     0.196 C 
HETATM    3  N2  UNL     1       4.401   1.013   0.325  1.00  0.00    -0.125 N 
ATOM      4  H2  UNL     1       5.401   0.906   0.154  1.00  0.00     0.197 HD
HETATM    5  C2  UNL     1       3.709  -0.007   0.122  1.00  0.00     0.701 C 
HETATM    6  N3  UNL     1       4.385  -1.209  -0.325  1.00  0.00    -0.138 N 
ATOM      7  H3  UNL     1       4.683  -1.309  -1.295  1.00  0.00     0.205 HD
HETATM    8  N5  UNL     1       2.290  -0.154   0.276  1.00  0.00    -0.224 N 
ATOM      9  H5  UNL     1       1.961  -0.995   0.750  1.00  0.00     0.177 HD
ENDROOT
BRANCH   6  10
HETATM   10  N4  UNL     1       4.615  -2.209   0.584  1.00  0.00    -0.331 N 
ATOM     11  H42 UNL     1       4.311  -2.094   1.551  1.00  0.00     0.177 HD
ATOM     12  H41 UNL     1       5.091  -3.055   0.269  1.00  0.00     0.177 HD
ENDBRANCH   6  10
BRANCH   8  13
HETATM   13  C3  UNL     1       1.301   0.763  -0.171  1.00  0.00     0.139 C 
BRANCH  13  14
HETATM   14  C4  UNL     1      -0.089   0.156   0.077  1.00  0.00     0.040 C 
BRANCH  14  15
HETATM   15  C5  UNL     1      -1.172   1.092  -0.358  1.00  0.00     0.129 C 
BRANCH  15  16
HETATM   16  N6  UNL     1      -2.455   0.448  -0.127  1.00  0.00    -0.366 N 
HETATM   17  C6  UNL     1      -2.989  -0.282  -1.131  1.00  0.00     0.090 A 
HETATM   18  C7  UNL     1      -4.185  -0.921  -1.029  1.00  0.00     0.017 A 
HETATM   19  C8  UNL     1      -4.905  -0.829   0.161  1.00  0.00     0.003 A 
HETATM   20  C9  UNL     1      -4.363  -0.087   1.182  1.00  0.00     0.017 A 
HETATM   21  C10 UNL     1      -3.147   0.534   1.012  1.00  0.00     0.090 A 
ENDBRANCH  15  16
ENDBRANCH  14  15
ENDBRANCH  13  14
ENDBRANCH   8  13
TORSDOF 5
