REMARK  2 active torsions:
REMARK  status: ('A' for Active; 'I' for Inactive)
REMARK    1  A    between atoms: C2_2  and  C3_3 
REMARK    2  A    between atoms: C7_7  and  O1_8 
ROOT
HETATM    1  C3  UNL     1      -0.512  -0.236  -0.059  1.00  0.00     0.021 C 
HETATM    2  C4  UNL     1      -1.179   0.407  -1.253  1.00  0.00     0.015 C 
HETATM    3  C5  UNL     1      -1.902   1.537  -0.555  1.00  0.00     0.004 C 
HETATM    4  C6  UNL     1      -1.099   1.907   0.626  1.00  0.00     0.038 C 
HETATM    5  C7  UNL     1       0.076   0.904   0.746  1.00  0.00     0.068 C 
HETATM    6  C8  UNL     1       1.247   1.641   0.410  1.00  0.00     0.039 C 
HETATM    7  C9  UNL     1       2.674   1.260   0.650  1.00  0.00     0.014 C 
HETATM    8  C10 UNL     1       3.041  -0.096  -0.049  1.00  0.00     0.082 C 
HETATM    9  C11 UNL     1       1.811  -0.734  -0.289  1.00  0.00    -0.157 C 
HETATM   10  C12 UNL     1       0.526  -1.289  -0.477  1.00  0.00     0.107 C 
HETATM   11  C13 UNL     1       0.331  -1.733  -1.931  1.00  0.00     0.045 C 
HETATM   12  C14 UNL     1       0.307  -2.539   0.295  1.00  0.00     0.082 C 
HETATM   13  N1  UNL     1       0.159  -3.532   0.910  1.00  0.00    -0.195 NA
ENDROOT
BRANCH   1  14
HETATM   14  C2  UNL     1      -1.582  -0.804   0.829  1.00  0.00     0.011 C 
HETATM   15  C1  UNL     1      -2.480  -1.813   0.263  1.00  0.00     0.006 C 
ENDBRANCH   1  14
BRANCH   5  16
HETATM   16  O1  UNL     1       0.060   0.622   2.142  1.00  0.00    -0.389 OA
ATOM     17  H1  UNL     1       0.429   1.337   2.647  1.00  0.00     0.210 HD
ENDBRANCH   5  16
TORSDOF 2
