REMARK  2 active torsions:
REMARK  status: ('A' for Active; 'I' for Inactive)
REMARK       I    between atoms: C1_4  and  N3_6 
REMARK    1  A    between atoms: N4_10  and  C5_11 
REMARK    2  A    between atoms: C5_11  and  N5_13 
ROOT
HETATM    1  C5  UNL     1       0.727   0.871   0.972  1.00  0.00     0.172 C 
HETATM    2  S1  UNL     1       1.166   2.440   1.482  1.00  0.00    -0.041 SA
ENDROOT
BRANCH   1   3
HETATM    3  N4  UNL     1       1.749  -0.048   1.181  1.00  0.00    -0.357 N 
HETATM    4  C4  UNL     1       1.677  -1.450   0.866  1.00  0.00     0.127 C 
HETATM    5  C3  UNL     1       2.348  -1.778  -0.456  1.00  0.00     0.040 C 
HETATM    6  C2  UNL     1       2.887  -0.558  -1.148  1.00  0.00     0.127 C 
HETATM    7  N3  UNL     1       3.981   0.009  -0.392  1.00  0.00    -0.354 N 
HETATM    8  C1  UNL     1       5.266  -0.453  -0.714  1.00  0.00     0.184 C 
HETATM    9  C16 UNL     1       3.864   1.002   0.655  1.00  0.00     0.145 C 
HETATM   10  N1  UNL     1       5.635  -1.686  -0.612  1.00  0.00    -0.374 N 
HETATM   11  N2  UNL     1       6.220   0.491  -1.180  1.00  0.00    -0.064 NA
ATOM     12  H12 UNL     1       6.569  -2.022  -0.846  1.00  0.00     0.158 HD
ATOM     13  H11 UNL     1       4.950  -2.364  -0.277  1.00  0.00     0.158 HD
HETATM   14  C15 UNL     1       3.005   0.504   1.780  1.00  0.00     0.145 C 
ENDBRANCH   1   3
BRANCH   1  15
HETATM   15  N5  UNL     1      -0.552   0.809   0.463  1.00  0.00    -0.356 N 
HETATM   16  C6  UNL     1      -1.259   2.120   0.441  1.00  0.00     0.127 C 
HETATM   17  C7  UNL     1      -2.204   2.117   1.619  1.00  0.00     0.039 C 
HETATM   18  C8  UNL     1      -3.060   0.849   1.467  1.00  0.00     0.119 C 
HETATM   19  N6  UNL     1      -3.334   0.686   0.086  1.00  0.00    -0.406 N 
HETATM   20  C9  UNL     1      -4.699   0.749  -0.302  1.00  0.00     0.117 C 
HETATM   21  C13 UNL     1      -2.502  -0.135  -0.688  1.00  0.00     0.097 C 
HETATM   22  C10 UNL     1      -5.343  -0.563  -0.592  1.00  0.00     0.019 C 
HETATM   23  C11 UNL     1      -4.497  -1.472  -1.440  1.00  0.00     0.004 C 
HETATM   24  C12 UNL     1      -3.053  -1.459  -1.100  1.00  0.00     0.026 C 
HETATM   25  C14 UNL     1      -1.166  -0.405   0.008  1.00  0.00     0.150 C 
ENDBRANCH   1  15
TORSDOF 2
