REMARK  8 active torsions:
REMARK  status: ('A' for Active; 'I' for Inactive)
REMARK    1  A    between atoms: C4_4  and  O1_5 
REMARK    2  A    between atoms: C20_22  and  N1_23 
REMARK    3  A    between atoms: C23_26  and  C24_27 
REMARK    4  A    between atoms: C24_27  and  C25_28 
REMARK       I    between atoms: C25_28  and  N2_30 
REMARK    5  A    between atoms: N2_30  and  C26_32 
REMARK    6  A    between atoms: C26_32  and  O3_33 
REMARK    7  A    between atoms: C26_32  and  N3_35 
REMARK    8  A    between atoms: C30_40  and  O5_41 
ROOT
HETATM    1  C1  UNL     1      -6.872   0.561   2.274  1.00  0.00     0.018 C 
HETATM    2  C2  UNL     1      -6.814   0.650   0.745  1.00  0.00    -0.018 C 
HETATM    3  C3  UNL     1      -8.064  -0.107   0.276  1.00  0.00     0.018 C 
HETATM    4  C4  UNL     1      -6.886   2.023   0.333  1.00  0.00     0.126 C 
HETATM    5  C5  UNL     1      -6.238   2.404  -0.987  1.00  0.00     0.033 C 
HETATM    6  C6  UNL     1      -4.763   2.426  -0.856  1.00  0.00     0.012 C 
HETATM    7  C7  UNL     1      -3.984   1.226  -1.330  1.00  0.00    -0.036 C 
HETATM    8  C8  UNL     1      -3.131   1.810  -2.462  1.00  0.00     0.016 C 
HETATM    9  C9  UNL     1      -4.818   0.215  -2.067  1.00  0.00     0.010 C 
HETATM   10  C10 UNL     1      -5.647  -0.534  -1.129  1.00  0.00     0.007 C 
HETATM   11  C11 UNL     1      -5.578  -0.156   0.308  1.00  0.00     0.001 C 
HETATM   12  C12 UNL     1      -4.327   0.381   0.854  1.00  0.00    -0.000 C 
HETATM   13  C13 UNL     1      -3.741  -0.688   1.791  1.00  0.00     0.006 C 
HETATM   14  C14 UNL     1      -3.138  -1.590   0.793  1.00  0.00     0.007 C 
HETATM   15  C15 UNL     1      -2.545  -0.646  -0.264  1.00  0.00     0.004 C 
HETATM   16  C16 UNL     1      -1.068  -0.744  -0.314  1.00  0.00    -0.032 C 
HETATM   17  C17 UNL     1      -0.664  -0.897  -1.787  1.00  0.00     0.016 C 
HETATM   18  C18 UNL     1      -0.475  -1.999   0.331  1.00  0.00     0.016 C 
HETATM   19  C19 UNL     1       0.950  -2.207  -0.089  1.00  0.00     0.053 C 
HETATM   20  C20 UNL     1       1.762  -1.020  -0.435  1.00  0.00    -0.013 C 
HETATM   21  C31 UNL     1       1.174   0.308  -0.205  1.00  0.00     0.062 C 
HETATM   22  C32 UNL     1      -0.257   0.338   0.308  1.00  0.00    -0.031 C 
HETATM   23  C33 UNL     1      -0.203   0.463   1.772  1.00  0.00     0.016 C 
HETATM   24  C34 UNL     1      -0.885   1.644  -0.197  1.00  0.00     0.011 C 
HETATM   25  C35 UNL     1      -2.295   1.776   0.264  1.00  0.00     0.012 C 
HETATM   26  C36 UNL     1      -3.209   0.657  -0.170  1.00  0.00    -0.025 C 
ENDROOT
BRANCH  20  27
HETATM   27  N1  UNL     1       3.169  -1.163  -0.042  1.00  0.00    -0.361 N 
HETATM   28  C21 UNL     1       3.783  -2.258  -0.736  1.00  0.00     0.125 C 
HETATM   29  C22 UNL     1       5.298  -2.111  -0.649  1.00  0.00     0.025 C 
HETATM   30  C23 UNL     1       5.694  -1.946   0.780  1.00  0.00    -0.000 C 
HETATM   31  C29 UNL     1       5.069  -0.653   1.285  1.00  0.00     0.059 C 
HETATM   32  C30 UNL     1       3.543  -0.915   1.260  1.00  0.00     0.220 C 
BRANCH  30  33
HETATM   33  C24 UNL     1       7.128  -2.066   1.103  1.00  0.00     0.108 C 
BRANCH  33  34
HETATM   34  C25 UNL     1       8.027  -1.088   0.427  1.00  0.00     0.225 C 
HETATM   35  O2  UNL     1       7.519  -0.265  -0.347  1.00  0.00    -0.273 OA
HETATM   36  N2  UNL     1       9.414  -1.104   0.665  1.00  0.00    -0.291 N 
ATOM     37  H2  UNL     1       9.746  -1.812   1.320  1.00  0.00     0.172 HD
BRANCH  36  38
HETATM   38  C26 UNL     1      10.390  -0.276   0.120  1.00  0.00     0.246 C 
BRANCH  38  39
HETATM   39  O3  UNL     1      11.607  -0.531   0.542  1.00  0.00    -0.331 OA
ATOM     40  H3  UNL     1      12.274   0.034   0.170  1.00  0.00     0.221 HD
ENDBRANCH  38  39
BRANCH  38  41
HETATM   41  N3  UNL     1      10.254   0.768  -0.797  1.00  0.00    -0.219 N 
HETATM   42  C27 UNL     1      11.211   1.707  -1.437  1.00  0.00     0.188 C 
HETATM   43  C28 UNL     1       9.992   2.608  -1.428  1.00  0.00     0.224 C 
HETATM   44  O4  UNL     1       9.296   1.386  -1.491  1.00  0.00    -0.273 OA
ENDBRANCH  38  41
ENDBRANCH  36  38
ENDBRANCH  33  34
ENDBRANCH  30  33
BRANCH  32  45
HETATM   45  O5  UNL     1       3.400  -2.018   2.137  1.00  0.00    -0.377 OA
ATOM     46  H5  UNL     1       3.658  -1.847   3.035  1.00  0.00     0.212 HD
ENDBRANCH  32  45
ENDBRANCH  20  27
BRANCH   4  47
HETATM   47  O1  UNL     1      -8.216   2.445   0.261  1.00  0.00    -0.395 OA
ATOM     48  H1  UNL     1      -8.264   3.354  -0.012  1.00  0.00     0.210 HD
ENDBRANCH   4  47
TORSDOF 8
