REMARK  5 active torsions:
REMARK  status: ('A' for Active; 'I' for Inactive)
REMARK    1  A    between atoms: C13_13  and  O1_14 
REMARK    2  A    between atoms: C16_18  and  O2_19 
REMARK    3  A    between atoms: O2_19  and  C17_20 
REMARK       I    between atoms: C17_20  and  N1_22 
REMARK    4  A    between atoms: C24_29  and  O4_30 
REMARK    5  A    between atoms: C27_34  and  C29_36 
ROOT
HETATM    1  C17 UNL     1      -0.075  -0.657  -0.120  1.00  0.00     0.363 C 
HETATM    2  O3  UNL     1      -0.371  -0.337   1.045  1.00  0.00    -0.238 OA
HETATM    3  N1  UNL     1       1.231  -1.003  -0.552  1.00  0.00    -0.318 N 
HETATM    4  C18 UNL     1       1.567  -1.394  -1.908  1.00  0.00     0.133 C 
HETATM    5  C19 UNL     1       2.682  -2.425  -1.724  1.00  0.00     0.006 C 
HETATM    6  C20 UNL     1       3.929  -1.807  -2.288  1.00  0.00     0.007 C 
HETATM    7  C21 UNL     1       4.538  -0.852  -1.319  1.00  0.00     0.008 C 
HETATM    8  C22 UNL     1       3.523  -0.148  -0.483  1.00  0.00     0.021 C 
HETATM    9  C23 UNL     1       4.128   0.764   0.535  1.00  0.00     0.026 C 
HETATM   10  C24 UNL     1       5.065   1.779  -0.059  1.00  0.00     0.123 C 
HETATM   11  C25 UNL     1       5.237   2.898   0.948  1.00  0.00     0.033 C 
HETATM   12  C26 UNL     1       4.833   2.506   2.324  1.00  0.00     0.023 C 
HETATM   13  C27 UNL     1       5.194   1.077   2.701  1.00  0.00     0.049 C 
HETATM   14  C28 UNL     1       4.596   0.900   4.104  1.00  0.00     0.027 C 
HETATM   15  C30 UNL     1       4.711   0.059   1.726  1.00  0.00     0.011 C 
HETATM   16  C31 UNL     1       3.758  -0.956   2.242  1.00  0.00     0.009 C 
HETATM   17  C32 UNL     1       2.370  -0.865   1.623  1.00  0.00     0.032 C 
HETATM   18  C33 UNL     1       2.493  -1.053   0.153  1.00  0.00     0.042 C 
HETATM   19  C34 UNL     1       2.892  -2.493  -0.206  1.00  0.00     0.038 C 
ENDROOT
BRANCH   1  20
HETATM   20  O2  UNL     1      -1.162  -0.650  -0.998  1.00  0.00    -0.297 OA
BRANCH  20  21
HETATM   21  C16 UNL     1      -2.486  -0.320  -0.641  1.00  0.00     0.150 C 
HETATM   22  C15 UNL     1      -3.406  -1.506  -0.680  1.00  0.00     0.027 C 
HETATM   23  C9  UNL     1      -4.505  -1.471   0.350  1.00  0.00    -0.034 C 
HETATM   24  C14 UNL     1      -3.841  -1.922  -2.049  1.00  0.00     0.039 C 
HETATM   25  C8  UNL     1      -4.793  -0.119   0.897  1.00  0.00    -0.001 A 
HETATM   26  C10 UNL     1      -4.139  -2.316   1.592  1.00  0.00     0.016 C 
HETATM   27  C11 UNL     1      -5.799  -2.071  -0.126  1.00  0.00     0.012 C 
HETATM   28  C6  UNL     1      -5.175   0.773  -0.296  1.00  0.00    -0.000 A 
HETATM   29  C7  UNL     1      -6.041   0.609   0.843  1.00  0.00     0.011 A 
HETATM   30  C4  UNL     1      -4.008   1.679  -0.449  1.00  0.00    -0.026 C 
HETATM   31  C3  UNL     1      -4.265   2.838  -1.411  1.00  0.00     0.022 C 
HETATM   32  C5  UNL     1      -3.468   2.255   0.801  1.00  0.00     0.016 C 
HETATM   33  C35 UNL     1      -3.005   0.902  -1.298  1.00  0.00     0.094 C 
HETATM   34  C2  UNL     1      -2.818   3.216  -1.726  1.00  0.00     0.052 C 
HETATM   35  C1  UNL     1      -2.775   3.717  -3.142  1.00  0.00     0.018 C 
HETATM   36  C36 UNL     1      -2.033   1.963  -1.534  1.00  0.00     0.138 C 
HETATM   37  O7  UNL     1      -0.825   1.937  -1.582  1.00  0.00    -0.297 OA
HETATM   38  C12 UNL     1      -5.471  -3.379  -0.784  1.00  0.00     0.032 C 
HETATM   39  C13 UNL     1      -4.832  -3.017  -2.091  1.00  0.00     0.118 C 
BRANCH  39  40
HETATM   40  O1  UNL     1      -5.894  -2.716  -2.978  1.00  0.00    -0.396 OA
ATOM     41  H1  UNL     1      -5.489  -2.487  -3.806  1.00  0.00     0.210 HD
ENDBRANCH  39  40
ENDBRANCH  20  21
ENDBRANCH   1  20
BRANCH  10  42
HETATM   42  O4  UNL     1       6.318   1.289  -0.348  1.00  0.00    -0.395 OA
ATOM     43  H4  UNL     1       6.910   1.930  -0.723  1.00  0.00     0.210 HD
ENDBRANCH  10  42
BRANCH  13  44
HETATM   44  C29 UNL     1       6.671   1.052   2.907  1.00  0.00     0.181 C 
HETATM   45  O5  UNL     1       7.419   2.033   2.776  1.00  0.00    -0.647 OA
HETATM   46  O6  UNL     1       7.236  -0.172   3.273  1.00  0.00    -0.647 OA
ENDBRANCH  13  44
TORSDOF 5
