REMARK  6 active torsions:
REMARK  status: ('A' for Active; 'I' for Inactive)
REMARK    1  A    between atoms: C1_2  and  C2_3 
REMARK       I    between atoms: C1_2  and  N3_22 
REMARK    2  A    between atoms: C2_3  and  C3_4 
REMARK    3  A    between atoms: C3_4  and  C4_5 
REMARK       I    between atoms: C4_5  and  N1_7 
REMARK       I    between atoms: N2_10  and  C7_11 
REMARK    4  A    between atoms: C7_11  and  C8_13 
REMARK    5  A    between atoms: N3_22  and  N4_24 
REMARK    6  A    between atoms: N5_27  and  C18_28 
ROOT
HETATM    1  C3  UNL     1       0.757   1.103   0.733  1.00  0.00     0.112 C 
ENDROOT
BRANCH   1   2
HETATM    2  C2  UNL     1      -0.232   1.202  -0.417  1.00  0.00     0.113 C 
BRANCH   2   3
HETATM    3  C1  UNL     1      -1.602   0.813  -0.037  1.00  0.00     0.232 C 
HETATM    4  O1  UNL     1      -1.852   0.558   1.189  1.00  0.00    -0.272 OA
HETATM    5  N3  UNL     1      -2.625   0.719  -0.972  1.00  0.00    -0.289 N 
ATOM      6  H3  UNL     1      -2.407   0.929  -1.946  1.00  0.00     0.183 HD
BRANCH   5   7
HETATM    7  N4  UNL     1      -3.904   0.362  -0.663  1.00  0.00    -0.226 NA
HETATM    8  C16 UNL     1      -4.814   1.320  -1.318  1.00  0.00     0.133 C 
HETATM    9  C17 UNL     1      -6.122   1.251  -0.589  1.00  0.00     0.139 C 
HETATM   10  N5  UNL     1      -6.549  -0.121  -0.414  1.00  0.00    -0.378 N 
HETATM   11  C24 UNL     1      -5.717  -1.270  -0.679  1.00  0.00     0.139 C 
HETATM   12  C25 UNL     1      -4.324  -0.937  -1.129  1.00  0.00     0.133 C 
BRANCH  10  13
HETATM   13  C18 UNL     1      -7.891  -0.360   0.064  1.00  0.00     0.030 A 
HETATM   14  C19 UNL     1      -8.649   0.712   0.548  1.00  0.00     0.029 A 
HETATM   15  C20 UNL     1      -9.934   0.568   1.015  1.00  0.00     0.002 A 
HETATM   16  C21 UNL     1     -10.494  -0.705   1.001  1.00  0.00     0.000 A 
HETATM   17  C22 UNL     1      -9.742  -1.745   0.527  1.00  0.00     0.002 A 
HETATM   18  C23 UNL     1      -8.446  -1.626   0.049  1.00  0.00     0.029 A 
ENDBRANCH  10  13
ENDBRANCH   5   7
ENDBRANCH   2   3
ENDBRANCH   1   2
BRANCH   1  19
HETATM   19  C4  UNL     1       2.065   1.561   0.257  1.00  0.00     0.220 C 
HETATM   20  O2  UNL     1       2.158   2.671  -0.276  1.00  0.00    -0.273 OA
HETATM   21  N1  UNL     1       3.219   0.739   0.418  1.00  0.00    -0.349 N 
HETATM   22  C5  UNL     1       4.479   1.392   0.031  1.00  0.00     0.145 C 
HETATM   23  C15 UNL     1       3.215  -0.628   0.824  1.00  0.00     0.145 C 
HETATM   24  C6  UNL     1       5.533   0.354  -0.131  1.00  0.00     0.146 C 
HETATM   25  N2  UNL     1       5.607  -0.614   0.940  1.00  0.00    -0.345 N 
HETATM   26  C7  UNL     1       6.843  -1.249   1.306  1.00  0.00     0.257 C 
HETATM   27  C14 UNL     1       4.418  -0.941   1.676  1.00  0.00     0.146 C 
HETATM   28  O3  UNL     1       6.795  -2.104   2.250  1.00  0.00    -0.267 OA
BRANCH  26  29
HETATM   29  C8  UNL     1       8.084  -0.930   0.637  1.00  0.00     0.070 A 
HETATM   30  C9  UNL     1       8.877   0.112   1.118  1.00  0.00     0.020 A 
HETATM   31  C10 UNL     1      10.068   0.437   0.502  1.00  0.00     0.001 A 
HETATM   32  C11 UNL     1      10.487  -0.266  -0.601  1.00  0.00     0.003 A 
HETATM   33  C12 UNL     1       9.717  -1.290  -1.084  1.00  0.00     0.043 A 
HETATM   34  C13 UNL     1       8.504  -1.625  -0.459  1.00  0.00     0.132 A 
HETATM   35  F1  UNL     1       7.748  -2.635  -0.930  1.00  0.00    -0.205 F 
ENDBRANCH  26  29
ENDBRANCH   1  19
TORSDOF 6
