REMARK  7 active torsions:
REMARK  status: ('A' for Active; 'I' for Inactive)
REMARK       I    between atoms: C1_2  and  N1_3 
REMARK       I    between atoms: C1_2  and  N5_23 
REMARK    1  A    between atoms: N1_3  and  C2_5 
REMARK    2  A    between atoms: C2_5  and  C3_6 
REMARK    3  A    between atoms: C3_6  and  C4_7 
REMARK    4  A    between atoms: C4_7  and  N2_8 
REMARK    5  A    between atoms: N3_11  and  C7_12 
REMARK    6  A    between atoms: C7_12  and  N4_14 
REMARK    7  A    between atoms: N5_23  and  C15_25 
ROOT
HETATM    1  C2  UNL     1      -0.985  -1.145  -0.670  1.00  0.00     0.129 C 
ENDROOT
BRANCH   1   2
HETATM    2  N1  UNL     1      -2.169  -0.637  -1.339  1.00  0.00    -0.343 N 
HETATM    3  C1  UNL     1      -3.336  -0.319  -0.596  1.00  0.00     0.316 C 
HETATM    4  O1  UNL     1      -3.309  -0.493   0.658  1.00  0.00    -0.247 OA
HETATM    5  N5  UNL     1      -4.494   0.178  -1.246  1.00  0.00    -0.333 N 
ATOM      6  H5  UNL     1      -4.444   0.293  -2.258  1.00  0.00     0.165 HD
ATOM      7  H1  UNL     1      -2.162  -0.508  -2.351  1.00  0.00     0.164 HD
BRANCH   5   8
HETATM    8  C15 UNL     1      -5.723   0.532  -0.614  1.00  0.00     0.040 C 
HETATM    9  C16 UNL     1      -6.754   1.032  -1.637  1.00  0.00     0.036 C 
HETATM   10  C17 UNL     1      -7.661   1.835  -0.717  1.00  0.00    -0.010 C 
HETATM   11  C18 UNL     1      -6.610   2.720  -0.034  1.00  0.00     0.012 C 
HETATM   12  C22 UNL     1      -8.309   0.941   0.302  1.00  0.00     0.030 C 
HETATM   13  C19 UNL     1      -5.619   1.630   0.407  1.00  0.00     0.016 C 
HETATM   14  C20 UNL     1      -6.235   1.069   1.685  1.00  0.00     0.033 C 
HETATM   15  C21 UNL     1      -7.297   0.146   1.070  1.00  0.00     0.040 C 
HETATM   16 CL1  UNL     1      -8.047  -0.889   2.266  1.00  0.00    -0.119 Cl
HETATM   17  C23 UNL     1      -6.412  -0.632   0.088  1.00  0.00     0.057 C 
ENDBRANCH   5   8
ENDBRANCH   1   2
BRANCH   1  18
HETATM   18  C3  UNL     1       0.108  -1.399  -1.705  1.00  0.00     0.064 C 
BRANCH  18  19
HETATM   19  C4  UNL     1       1.361  -1.928  -1.065  1.00  0.00     0.060 C 
BRANCH  19  20
HETATM   20  N2  UNL     1       1.954  -1.097  -0.106  1.00  0.00    -0.390 N 
HETATM   21  C5  UNL     1       2.540   0.122  -0.497  1.00  0.00     0.141 C 
HETATM   22  C6  UNL     1       3.410   0.607   0.690  1.00  0.00     0.145 C 
HETATM   23  N3  UNL     1       3.973  -0.568   1.226  1.00  0.00    -0.355 N 
HETATM   24  C13 UNL     1       3.016  -1.325   2.093  1.00  0.00     0.145 C 
HETATM   25  C14 UNL     1       1.741  -1.354   1.265  1.00  0.00     0.141 C 
BRANCH  23  26
HETATM   26  C7  UNL     1       5.222  -1.109   1.047  1.00  0.00     0.172 C 
HETATM   27  S1  UNL     1       5.569  -2.555   1.881  1.00  0.00    -0.041 SA
BRANCH  26  28
HETATM   28  N4  UNL     1       6.271  -0.654   0.269  1.00  0.00    -0.358 N 
HETATM   29  C8  UNL     1       6.337   0.482  -0.583  1.00  0.00     0.128 C 
HETATM   30  C9  UNL     1       7.127   1.553   0.169  1.00  0.00     0.057 C 
HETATM   31  C10 UNL     1       8.229   0.852   0.956  1.00  0.00     0.173 C 
HETATM   32  F1  UNL     1       9.288   1.706   1.053  1.00  0.00    -0.249 F 
HETATM   33  C11 UNL     1       8.669  -0.411   0.234  1.00  0.00     0.057 C 
HETATM   34  C12 UNL     1       7.557  -1.427   0.340  1.00  0.00     0.128 C 
ENDBRANCH  26  28
ENDBRANCH  23  26
ENDBRANCH  19  20
ENDBRANCH  18  19
ENDBRANCH   1  18
TORSDOF 7
