REMARK  6 active torsions:
REMARK  status: ('A' for Active; 'I' for Inactive)
REMARK    1  A    between atoms: C3_3  and  C5_5 
REMARK    2  A    between atoms: C10_12  and  N1_14 
REMARK    3  A    between atoms: C14_17  and  N2_18 
REMARK       I    between atoms: N2_18  and  C15_20 
REMARK    4  A    between atoms: C15_20  and  C16_22 
REMARK    5  A    between atoms: C16_22  and  N3_23 
REMARK    6  A    between atoms: C20_27  and  O2_28 
ROOT
HETATM    1  C1  UNL     1      -3.575   3.334   0.041  1.00  0.00     0.012 C 
HETATM    2  C2  UNL     1      -3.306   1.908   0.304  1.00  0.00     0.002 C 
HETATM    3  C3  UNL     1      -4.343   0.934  -0.207  1.00  0.00    -0.021 C 
HETATM    4  C4  UNL     1      -5.283   0.625   0.938  1.00  0.00     0.020 C 
HETATM    5  C7  UNL     1      -3.579  -0.357  -0.540  1.00  0.00     0.021 C 
HETATM    6  C8  UNL     1      -2.227  -0.121   0.069  1.00  0.00     0.032 C 
HETATM    7  C9  UNL     1      -1.115  -0.946  -0.513  1.00  0.00     0.215 C 
HETATM    8  F1  UNL     1      -1.784  -2.108  -0.942  1.00  0.00    -0.246 F 
HETATM    9  C10 UNL     1      -0.157  -1.389   0.608  1.00  0.00     0.208 C 
HETATM   10  C11 UNL     1      -1.049  -1.861   1.733  1.00  0.00     0.055 C 
HETATM   11  C14 UNL     1       0.665  -0.202   1.043  1.00  0.00     0.154 C 
HETATM   12  C20 UNL     1       0.391   1.080   0.245  1.00  0.00     0.144 C 
HETATM   13  C21 UNL     1      -0.899   1.766   0.638  1.00  0.00     0.044 C 
HETATM   14  C22 UNL     1      -2.034   1.351  -0.275  1.00  0.00    -0.031 C 
HETATM   15  C23 UNL     1      -1.816   1.610  -1.713  1.00  0.00     0.016 C 
ENDROOT
BRANCH  11  16
HETATM   16  N2  UNL     1       2.089  -0.389   1.154  1.00  0.00    -0.347 N 
HETATM   17  C15 UNL     1       3.073  -0.121   0.166  1.00  0.00     0.265 C 
HETATM   18  O1  UNL     1       2.793   0.319  -0.961  1.00  0.00    -0.267 OA
ATOM     19  H2  UNL     1       2.429  -0.755   2.043  1.00  0.00     0.163 HD
BRANCH  17  20
HETATM   20  C16 UNL     1       4.493  -0.359   0.445  1.00  0.00     0.274 C 
BRANCH  20  21
HETATM   21  N3  UNL     1       5.389  -0.061  -0.601  1.00  0.00    -0.053 N 
HETATM   22  C17 UNL     1       6.734  -0.591  -0.313  1.00  0.00     0.277 C 
HETATM   23  C18 UNL     1       5.026  -0.477  -1.904  1.00  0.00     0.277 C 
HETATM   24  C19 UNL     1       5.583   1.399  -0.628  1.00  0.00     0.277 C 
ENDBRANCH  20  21
ENDBRANCH  17  20
ENDBRANCH  11  16
BRANCH   9  25
HETATM   25  N1  UNL     1       0.761  -2.432   0.184  1.00  0.00     0.094 N 
HETATM   26  C12 UNL     1       0.107  -3.619  -0.357  1.00  0.00     0.310 C 
HETATM   27  C13 UNL     1       1.463  -2.985   1.351  1.00  0.00     0.310 C 
ENDBRANCH   9  25
BRANCH  12  28
HETATM   28  O2  UNL     1       1.351   1.999   0.770  1.00  0.00    -0.393 OA
ATOM     29  H2  UNL     1       1.181   2.793   0.276  1.00  0.00     0.210 HD
ENDBRANCH  12  28
BRANCH   3  30
HETATM   30  C5  UNL     1      -5.030   1.481  -1.378  1.00  0.00    -0.010 C 
HETATM   31  C6  UNL     1      -5.868   0.793  -2.116  1.00  0.00     0.052 C 
HETATM   32 BR1  UNL     1      -6.257  -1.016  -1.696  1.00  0.00    -0.064 Br
ENDBRANCH   3  30
TORSDOF 6
