REMARK  5 active torsions:
REMARK  status: ('A' for Active; 'I' for Inactive)
REMARK    1  A    between atoms: C8_10  and  C9_11 
REMARK    2  A    between atoms: C9_11  and  C10_12 
REMARK    3  A    between atoms: C10_12  and  C11_13 
REMARK    4  A    between atoms: C10_12  and  C13_16 
REMARK       I    between atoms: C13_16  and  N1_18 
REMARK    5  A    between atoms: N1_18  and  C14_20 
ROOT
HETATM    1  C1  UNL     1       7.030  -0.639  -0.716  1.00  0.00     0.018 C 
HETATM    2  C2  UNL     1       6.007  -0.249  -0.215  1.00  0.00    -0.074 C 
HETATM    3  C3  UNL     1       4.757   0.203   0.384  1.00  0.00     0.063 A 
HETATM    4  C4  UNL     1       4.753   0.959   1.535  1.00  0.00     0.049 A 
HETATM    5 BR1  UNL     1       6.426   1.406   2.339  1.00  0.00    -0.048 Br
HETATM    6  C5  UNL     1       3.591   1.409   2.138  1.00  0.00     0.030 A 
HETATM    7 BR2  UNL     1       3.650   2.455   3.740  1.00  0.00    -0.050 Br
HETATM    8  C6  UNL     1       2.393   1.074   1.543  1.00  0.00     0.034 A 
HETATM    9  C7  UNL     1       2.370   0.320   0.393  1.00  0.00     0.001 A 
HETATM   10  C8  UNL     1       1.347  -0.174  -0.428  1.00  0.00    -0.029 A 
HETATM   11  C18 UNL     1       1.941  -0.877  -1.454  1.00  0.00     0.096 A 
HETATM   12  N3  UNL     1       3.261  -0.825  -1.284  1.00  0.00    -0.363 N 
ATOM     13  H3  UNL     1       3.951  -1.260  -1.897  1.00  0.00     0.165 HD
HETATM   14  C19 UNL     1       3.544  -0.113  -0.183  1.00  0.00     0.063 A 
ENDROOT
BRANCH  10  15
HETATM   15  C9  UNL     1      -0.064   0.087  -0.113  1.00  0.00     0.062 C 
BRANCH  15  16
HETATM   16  C10 UNL     1      -1.056  -0.383  -1.102  1.00  0.00     0.151 C 
BRANCH  16  17
HETATM   17  C11 UNL     1      -0.976   0.169  -2.444  1.00  0.00     0.136 C 
HETATM   18  C12 UNL     1      -1.920  -0.282  -3.500  1.00  0.00     0.091 C 
HETATM   19  O1  UNL     1      -0.147   1.004  -2.733  1.00  0.00    -0.297 OA
ENDBRANCH  16  17
BRANCH  16  20
HETATM   20  C13 UNL     1      -2.444  -0.145  -0.575  1.00  0.00     0.230 C 
HETATM   21  O2  UNL     1      -3.245   0.584  -1.231  1.00  0.00    -0.273 OA
HETATM   22  N1  UNL     1      -2.888  -0.708   0.634  1.00  0.00    -0.338 N 
ATOM     23  H1  UNL     1      -2.263  -1.297   1.184  1.00  0.00     0.164 HD
BRANCH  22  24
HETATM   24  C14 UNL     1      -4.235  -0.449   1.096  1.00  0.00     0.122 A 
HETATM   25  C15 UNL     1      -5.252  -0.917   0.154  1.00  0.00     0.091 C 
HETATM   26  N2  UNL     1      -6.060  -1.268  -0.598  1.00  0.00    -0.195 NA
HETATM   27  C16 UNL     1      -4.566  -0.261   2.516  1.00  0.00     0.050 A 
HETATM   28  C17 UNL     1      -4.454   0.962   1.654  1.00  0.00     0.050 A 
ENDBRANCH  22  24
ENDBRANCH  16  20
ENDBRANCH  15  16
ENDBRANCH  10  15
TORSDOF 5
