REMARK  6 active torsions:
REMARK  status: ('A' for Active; 'I' for Inactive)
REMARK       I    between atoms: C1_4  and  N3_6 
REMARK    1  A    between atoms: N3_6  and  N4_8 
REMARK    2  A    between atoms: C2_10  and  C3_11 
REMARK    3  A    between atoms: N5_14  and  C6_15 
REMARK    4  A    between atoms: C6_15  and  C7_16 
REMARK    5  A    between atoms: C7_16  and  C8_17 
REMARK    6  A    between atoms: C8_17  and  N6_18 
ROOT
HETATM    1  C3  UNL     1       2.840  -0.051   0.191  1.00  0.00    -0.017 A 
HETATM    2  C4  UNL     1       1.822   0.715   0.718  1.00  0.00     0.030 A 
HETATM    3  C5  UNL     1       0.513   0.487   0.354  1.00  0.00     0.091 A 
HETATM    4  N5  UNL     1       0.168  -0.471  -0.513  1.00  0.00    -0.366 N 
HETATM    5  C14 UNL     1       1.155  -1.227  -1.035  1.00  0.00     0.091 A 
HETATM    6  C15 UNL     1       2.476  -1.035  -0.702  1.00  0.00     0.030 A 
ENDROOT
BRANCH   1   7
HETATM    7  C2  UNL     1       4.230   0.178   0.565  1.00  0.00     0.118 C 
HETATM    8  N4  UNL     1       5.168  -0.546   0.064  1.00  0.00    -0.309 N 
ATOM      9  H4  UNL     1       4.921  -1.281  -0.598  1.00  0.00     0.186 HD
BRANCH   8  10
HETATM   10  N3  UNL     1       6.507  -0.361   0.394  1.00  0.00    -0.274 N 
HETATM   11  C1  UNL     1       7.184   0.884   0.297  1.00  0.00     0.200 C 
HETATM   12  N1  UNL     1       8.113   0.991  -0.599  1.00  0.00    -0.372 N 
HETATM   13  N2  UNL     1       6.882   1.985   1.130  1.00  0.00    -0.062 NA
ATOM     14  H12 UNL     1       8.599   1.885  -0.669  1.00  0.00     0.158 HD
ATOM     15  H11 UNL     1       8.331   0.196  -1.200  1.00  0.00     0.158 HD
ATOM     16  H3  UNL     1       7.035  -1.168   0.726  1.00  0.00     0.189 HD
ENDBRANCH   8  10
ENDBRANCH   1   7
BRANCH   4  17
HETATM   17  C6  UNL     1      -1.227  -0.703  -0.891  1.00  0.00     0.129 C 
BRANCH  17  18
HETATM   18  C7  UNL     1      -1.789  -1.704   0.078  1.00  0.00     0.040 C 
BRANCH  18  19
HETATM   19  C8  UNL     1      -3.228  -2.040  -0.194  1.00  0.00     0.129 C 
BRANCH  19  20
HETATM   20  N6  UNL     1      -4.113  -0.921  -0.126  1.00  0.00    -0.365 N 
HETATM   21  C9  UNL     1      -4.676  -0.635   1.079  1.00  0.00     0.090 A 
HETATM   22  C10 UNL     1      -5.544   0.424   1.253  1.00  0.00     0.019 A 
HETATM   23  C11 UNL     1      -5.851   1.218   0.171  1.00  0.00     0.029 A 
HETATM   24  C12 UNL     1      -5.271   0.915  -1.050  1.00  0.00     0.061 A 
HETATM   25  N7  UNL     1      -5.592   1.743  -2.173  1.00  0.00    -0.101 NA
HETATM   26  C13 UNL     1      -4.411  -0.146  -1.185  1.00  0.00     0.116 A 
ENDBRANCH  19  20
ENDBRANCH  18  19
ENDBRANCH  17  18
ENDBRANCH   4  17
TORSDOF 6
