REMARK  19 active torsions:
REMARK  status: ('A' for Active; 'I' for Inactive)
REMARK    1  A    between atoms: S1_2  and  C2_3 
REMARK    2  A    between atoms: C2_3  and  N4_12 
REMARK    3  A    between atoms: N1_4  and  N2_6 
REMARK    4  A    between atoms: N2_6  and  C3_8 
REMARK    5  A    between atoms: C3_8  and  N3_9 
REMARK    6  A    between atoms: N4_12  and  C4_13 
REMARK    7  A    between atoms: C5_15  and  C6_16 
REMARK    8  A    between atoms: C6_16  and  O2_17 
REMARK    9  A    between atoms: C6_16  and  N5_19 
REMARK   10  A    between atoms: N5_19  and  C7_21 
REMARK   11  A    between atoms: C7_21  and  C8_22 
REMARK   12  A    between atoms: C7_21  and  C10_29 
REMARK   13  A    between atoms: C8_22  and  S2_23 
REMARK   14  A    between atoms: S2_23  and  C9_24 
REMARK   15  A    between atoms: C10_29  and  O3_30 
REMARK   16  A    between atoms: C10_29  and  O4_32 
REMARK   17  A    between atoms: C12_41  and  C13_42 
REMARK   18  A    between atoms: C13_42  and  O5_43 
REMARK   19  A    between atoms: C13_42  and  O6_45 
ROOT
HETATM    1  C4  UNL     1      -1.498  -0.027   0.262  1.00  0.00     0.242 A 
HETATM    2  O1  UNL     1      -0.319   0.634   0.077  1.00  0.00    -0.264 OA
HETATM    3  C5  UNL     1       0.786   0.177   0.541  1.00  0.00     0.177 A 
HETATM    4  N8  UNL     1       0.827  -0.973   1.229  1.00  0.00    -0.321 N 
ATOM      5  H8  UNL     1       1.726  -1.302   1.581  1.00  0.00     0.169 HD
HETATM    6  C11 UNL     1      -0.262  -1.702   1.471  1.00  0.00     0.139 A 
HETATM    7  N9  UNL     1      -0.542  -2.855   2.090  1.00  0.00    -0.284 N 
ATOM      8  H9  UNL     1       0.145  -3.448   2.556  1.00  0.00     0.188 HD
HETATM    9  N10 UNL     1      -1.824  -3.114   2.013  1.00  0.00    -0.297 N 
ATOM     10  H10 UNL     1      -2.279  -3.937   2.409  1.00  0.00     0.187 HD
HETATM   11  C12 UNL     1      -2.467  -2.116   1.321  1.00  0.00     0.099 A 
HETATM   12  C14 UNL     1      -1.475  -1.229   0.981  1.00  0.00     0.104 A 
ENDROOT
BRANCH   3  13
HETATM   13  C6  UNL     1       2.101   0.947   0.316  1.00  0.00     0.290 C 
BRANCH  13  14
HETATM   14  O2  UNL     1       2.058   2.028   1.164  1.00  0.00    -0.369 OA
ATOM     15  H2  UNL     1       2.869   2.503   1.025  1.00  0.00     0.212 HD
ENDBRANCH  13  14
BRANCH  13  16
HETATM   16  N5  UNL     1       3.163   0.052   0.681  1.00  0.00    -0.381 N 
ATOM     17  H5  UNL     1       3.561   0.070   1.620  1.00  0.00     0.156 HD
BRANCH  16  18
HETATM   18  C7  UNL     1       3.641  -0.847  -0.284  1.00  0.00     0.144 C 
BRANCH  18  19
HETATM   19  C8  UNL     1       4.605  -0.355  -1.284  1.00  0.00     0.111 C 
BRANCH  19  20
HETATM   20  S2  UNL     1       4.219   1.024  -2.296  1.00  0.00    -0.096 SA
BRANCH  20  21
HETATM   21  C9  UNL     1       4.528   2.622  -1.558  1.00  0.00     0.147 C 
HETATM   22  N6  UNL     1       4.063   3.665  -2.152  1.00  0.00    -0.382 N 
ATOM     23  H62 UNL     1       3.538   3.580  -3.022  1.00  0.00     0.157 HD
ATOM     24  H61 UNL     1       4.239   4.577  -1.731  1.00  0.00     0.157 HD
HETATM   25  N7  UNL     1       5.255   2.739  -0.353  1.00  0.00    -0.075 NA
ENDBRANCH  20  21
ENDBRANCH  19  20
ENDBRANCH  18  19
BRANCH  18  26
HETATM   26  C10 UNL     1       4.282  -2.095   0.355  1.00  0.00     0.276 C 
BRANCH  26  27
HETATM   27  O3  UNL     1       5.333  -1.745   1.184  1.00  0.00    -0.369 OA
ATOM     28  H3  UNL     1       5.728  -2.514   1.578  1.00  0.00     0.212 HD
ENDBRANCH  26  27
BRANCH  26  29
HETATM   29  O4  UNL     1       4.792  -2.918  -0.671  1.00  0.00    -0.369 OA
ATOM     30  H4  UNL     1       5.187  -3.687  -0.277  1.00  0.00     0.212 HD
ENDBRANCH  26  29
ENDBRANCH  18  26
ENDBRANCH  16  18
ENDBRANCH  13  16
ENDBRANCH   3  13
BRANCH   1  31
HETATM   31  N4  UNL     1      -2.510   0.415  -0.186  1.00  0.00    -0.353 NA
BRANCH  31  32
HETATM   32  C2  UNL     1      -3.651   0.892  -0.678  1.00  0.00     0.235 C 
HETATM   33  N1  UNL     1      -4.462   1.694  -0.027  1.00  0.00    -0.260 N 
ATOM     34  H1  UNL     1      -4.168   1.958   0.913  1.00  0.00     0.191 HD
BRANCH  32  35
HETATM   35  S1  UNL     1      -4.161   0.425  -2.344  1.00  0.00    -0.082 SA
HETATM   36  C1  UNL     1      -5.809   0.966  -2.775  1.00  0.00     0.100 C 
ENDBRANCH  32  35
BRANCH  33  37
HETATM   37  N2  UNL     1      -5.631   2.211  -0.444  1.00  0.00    -0.248 N 
ATOM     38  H2  UNL     1      -6.199   1.669  -1.095  1.00  0.00     0.198 HD
BRANCH  37  39
HETATM   39  C3  UNL     1      -6.063   3.355  -0.060  1.00  0.00     0.061 C 
BRANCH  39  40
HETATM   40  N3  UNL     1      -6.257   4.623   0.006  1.00  0.00    -0.350 N 
ATOM     41  H32 UNL     1      -5.658   4.862  -0.784  1.00  0.00     0.167 HD
ATOM     42  H31 UNL     1      -6.601   5.533   0.312  1.00  0.00     0.167 HD
ENDBRANCH  39  40
ENDBRANCH  37  39
ENDBRANCH  33  37
ENDBRANCH  31  32
ENDBRANCH   1  31
BRANCH  11  43
HETATM   43  C13 UNL     1      -3.900  -2.157   1.124  1.00  0.00     0.307 C 
BRANCH  43  44
HETATM   44  O5  UNL     1      -4.457  -2.629   2.365  1.00  0.00    -0.366 OA
ATOM     45  H5  UNL     1      -5.398  -2.656   2.236  1.00  0.00     0.213 HD
ENDBRANCH  43  44
BRANCH  43  46
HETATM   46  O6  UNL     1      -4.176  -3.187   0.195  1.00  0.00    -0.366 OA
ATOM     47  H6  UNL     1      -5.117  -3.214   0.066  1.00  0.00     0.213 HD
ENDBRANCH  43  46
ENDBRANCH  11  43
TORSDOF 19
