REMARK  14 active torsions:
REMARK  status: ('A' for Active; 'I' for Inactive)
REMARK    1  A    between atoms: C2_2  and  N1_4 
REMARK    2  A    between atoms: N1_4  and  O1_5 
REMARK    3  A    between atoms: N1_4  and  C4_7 
REMARK    4  A    between atoms: C4_7  and  O2_8 
REMARK    5  A    between atoms: C4_7  and  C5_10 
REMARK    6  A    between atoms: C8_15  and  N3_16 
REMARK    7  A    between atoms: N3_16  and  C9_18 
REMARK    8  A    between atoms: C9_18  and  O3_19 
REMARK    9  A    between atoms: C9_18  and  N4_21 
REMARK       I    between atoms: N4_21  and  C10_23 
REMARK       I    between atoms: C10_23  and  N5_25 
REMARK   10  A    between atoms: N5_25  and  S1_27 
REMARK   11  A    between atoms: S1_27  and  O7_30 
REMARK   12  A    between atoms: O7_30  and  C11_31 
REMARK   13  A    between atoms: C12_34  and  N7_35 
REMARK   14  A    between atoms: C13_40  and  N9_41 
ROOT
HETATM    1  N4  UNL     1       1.106  -2.384  -0.069  1.00  0.00    -0.299 N 
ATOM      2  H4  UNL     1       0.944  -3.346   0.228  1.00  0.00     0.168 HD
HETATM    3  C10 UNL     1       2.380  -2.002  -0.560  1.00  0.00     0.334 C 
HETATM    4  O4  UNL     1       2.567  -0.822  -0.923  1.00  0.00    -0.246 OA
HETATM    5  N5  UNL     1       3.419  -2.962  -0.633  1.00  0.00    -0.213 N 
ATOM      6  H5  UNL     1       3.256  -3.925  -0.338  1.00  0.00     0.185 HD
ENDROOT
BRANCH   1   7
HETATM    7  C9  UNL     1       0.022  -1.403   0.013  1.00  0.00     0.330 C 
BRANCH   7   8
HETATM    8  N3  UNL     1      -0.462  -1.324   1.366  1.00  0.00    -0.346 N 
ATOM      9  H3  UNL     1       0.034  -1.847   2.088  1.00  0.00     0.164 HD
BRANCH   8  10
HETATM   10  C8  UNL     1      -1.597  -0.555   1.751  1.00  0.00     0.047 A 
HETATM   11  C7  UNL     1      -2.017  -0.537   3.069  1.00  0.00     0.116 A 
HETATM   12  N2  UNL     1      -3.081   0.164   3.505  1.00  0.00    -0.372 N 
HETATM   13  C6  UNL     1      -3.803   0.899   2.642  1.00  0.00     0.099 A 
ATOM     14  H2  UNL     1      -3.339   0.137   4.491  1.00  0.00     0.164 HD
HETATM   15  C5  UNL     1      -3.416   0.905   1.319  1.00  0.00     0.009 A 
HETATM   16  C14 UNL     1      -2.330   0.197   0.847  1.00  0.00     0.043 A 
BRANCH  15  17
HETATM   17  C4  UNL     1      -4.191   1.722   0.318  1.00  0.00     0.277 C 
BRANCH  17  18
HETATM   18  N1  UNL     1      -5.595   1.574   0.405  1.00  0.00    -0.259 N 
BRANCH  18  19
HETATM   19  C2  UNL     1      -6.205   0.414  -0.102  1.00  0.00     0.103 C 
HETATM   20  C1  UNL     1      -5.989   0.255  -1.618  1.00  0.00     0.034 C 
HETATM   21  C3  UNL     1      -5.904  -0.895   0.522  1.00  0.00     0.034 C 
ENDBRANCH  18  19
BRANCH  18  22
HETATM   22  O1  UNL     1      -6.271   2.707   0.145  1.00  0.00    -0.289 OA
ATOM     23  H1  UNL     1      -5.859   3.491   0.488  1.00  0.00     0.244 HD
ENDBRANCH  18  22
ENDBRANCH  17  18
BRANCH  17  24
HETATM   24  O2  UNL     1      -3.931   3.061   0.758  1.00  0.00    -0.371 OA
ATOM     25  H2  UNL     1      -2.988   3.160   0.700  1.00  0.00     0.212 HD
ENDBRANCH  17  24
ENDBRANCH  15  17
ENDBRANCH   8  10
ENDBRANCH   7   8
BRANCH   7  26
HETATM   26  O3  UNL     1      -1.002  -1.924  -0.806  1.00  0.00    -0.359 OA
ATOM     27  H3  UNL     1      -0.683  -1.976  -1.699  1.00  0.00     0.214 HD
ENDBRANCH   7  26
ENDBRANCH   1   7
BRANCH   5  28
HETATM   28  S1  UNL     1       4.979  -2.475  -1.234  1.00  0.00     0.373 S 
HETATM   29  O5  UNL     1       5.183  -3.301  -2.507  1.00  0.00    -0.175 OA
HETATM   30  O6  UNL     1       5.975  -2.968  -0.257  1.00  0.00    -0.175 OA
BRANCH  28  31
HETATM   31  O7  UNL     1       5.039  -0.886  -1.651  1.00  0.00    -0.180 OA
BRANCH  31  32
HETATM   32  C11 UNL     1       5.892   0.134  -1.378  1.00  0.00     0.270 A 
HETATM   33  N6  UNL     1       5.674   1.384  -1.882  1.00  0.00    -0.153 N 
HETATM   34  C12 UNL     1       6.539   2.352  -1.586  1.00  0.00     0.693 A 
ATOM     35  H6  UNL     1       4.865   1.573  -2.473  1.00  0.00     0.188 HD
HETATM   36  N8  UNL     1       7.623   2.183  -0.819  1.00  0.00    -0.023 N 
HETATM   37  C13 UNL     1       7.818   0.947  -0.335  1.00  0.00     0.693 A 
ATOM     38  H8  UNL     1       8.264   2.950  -0.614  1.00  0.00     0.203 HD
HETATM   39  N10 UNL     1       6.971  -0.055  -0.609  1.00  0.00    -0.153 N 
ATOM     40  H10 UNL     1       7.153  -0.982  -0.223  1.00  0.00     0.188 HD
BRANCH  34  41
HETATM   41  N7  UNL     1       6.345   3.543  -2.058  1.00  0.00    -0.234 N 
ATOM     42  H72 UNL     1       5.519   3.672  -2.642  1.00  0.00     0.174 HD
ATOM     43  H71 UNL     1       7.008   4.285  -1.831  1.00  0.00     0.174 HD
ENDBRANCH  34  41
BRANCH  37  44
HETATM   44  N9  UNL     1       8.839   0.709   0.410  1.00  0.00    -0.234 N 
ATOM     45  H92 UNL     1       9.484   1.472   0.619  1.00  0.00     0.174 HD
ATOM     46  H91 UNL     1       8.987  -0.231   0.778  1.00  0.00     0.174 HD
ENDBRANCH  37  44
ENDBRANCH  31  32
ENDBRANCH  28  31
ENDBRANCH   5  28
TORSDOF 14
