REMARK  6 active torsions:
REMARK  status: ('A' for Active; 'I' for Inactive)
REMARK    1  A    between atoms: N1_1  and  C1_4 
REMARK    2  A    between atoms: C3_8  and  N3_9 
REMARK    3  A    between atoms: C5_13  and  C6_14 
REMARK       I    between atoms: C6_14  and  N4_16 
REMARK    4  A    between atoms: N4_16  and  N5_18 
REMARK    5  A    between atoms: C7_20  and  C8_21 
REMARK       I    between atoms: C8_21  and  N6_23 
REMARK    6  A    between atoms: N6_23  and  C9_25 
ROOT
HETATM    1  C6  UNL     1      -0.636  -0.962  -0.808  1.00  0.00     0.273 C 
HETATM    2  O3  UNL     1       0.032  -2.002  -0.619  1.00  0.00    -0.266 OA
HETATM    3  N4  UNL     1      -0.081   0.099  -1.553  1.00  0.00    -0.266 N 
ATOM      4  H4  UNL     1      -0.620   0.952  -1.706  1.00  0.00     0.190 HD
ENDROOT
BRANCH   3   5
HETATM    5  N5  UNL     1       1.197  -0.017  -2.078  1.00  0.00    -0.304 N 
HETATM    6  C7  UNL     1       2.204   0.500  -1.476  1.00  0.00     0.182 C 
ATOM      7  H5  UNL     1       1.338  -0.520  -2.954  1.00  0.00     0.186 HD
BRANCH   6   8
HETATM    8  C8  UNL     1       2.082   1.226  -0.233  1.00  0.00     0.276 C 
HETATM    9  O4  UNL     1       0.996   1.406   0.348  1.00  0.00    -0.266 OA
HETATM   10  N6  UNL     1       3.277   1.770   0.366  1.00  0.00    -0.152 N 
ATOM     11  H6  UNL     1       3.353   2.762   0.593  1.00  0.00     0.187 HD
BRANCH  10  12
HETATM   12  C9  UNL     1       4.245   0.952   0.603  1.00  0.00     0.716 A 
HETATM   13  N7  UNL     1       4.280  -0.387   0.355  1.00  0.00    -0.115 N 
HETATM   14  N8  UNL     1       5.452  -0.845   0.748  1.00  0.00    -0.213 N 
ATOM     15  H7  UNL     1       3.530  -0.939  -0.062  1.00  0.00     0.207 HD
HETATM   16  N9  UNL     1       6.135   0.168   1.228  1.00  0.00    -0.213 N 
ATOM     17  H8  UNL     1       5.771  -1.812   0.690  1.00  0.00     0.210 HD
HETATM   18  N10 UNL     1       5.424   1.265   1.150  1.00  0.00    -0.115 N 
ATOM     19  H9  UNL     1       7.080   0.109   1.606  1.00  0.00     0.210 HD
ATOM     20  H10 UNL     1       5.718   2.194   1.453  1.00  0.00     0.207 HD
ENDBRANCH  10  12
ENDBRANCH   6   8
ENDBRANCH   3   5
BRANCH   1  21
HETATM   21  C5  UNL     1      -1.970  -0.841  -0.271  1.00  0.00     0.079 A 
HETATM   22  C1  UNL     1      -2.799  -1.940  -0.156  1.00  0.00     0.114 A 
HETATM   23  N2  UNL     1      -4.046  -1.807   0.344  1.00  0.00    -0.349 N 
HETATM   24  C2  UNL     1      -4.531  -0.619   0.747  1.00  0.00     0.125 A 
ATOM     25  H2  UNL     1      -4.639  -2.634   0.418  1.00  0.00     0.166 HD
HETATM   26  C3  UNL     1      -3.748   0.511   0.655  1.00  0.00     0.119 A 
HETATM   27  C4  UNL     1      -2.476   0.366   0.143  1.00  0.00     0.058 A 
BRANCH  22  28
HETATM   28  N1  UNL     1      -2.361  -3.102  -0.536  1.00  0.00    -0.385 N 
ATOM     29  H12 UNL     1      -2.973  -3.913  -0.451  1.00  0.00     0.157 HD
ATOM     30  H11 UNL     1      -1.419  -3.202  -0.914  1.00  0.00     0.157 HD
ENDBRANCH  22  28
BRANCH  26  31
HETATM   31  N3  UNL     1      -4.195   1.785   1.059  1.00  0.00    -0.114 N 
HETATM   32  O1  UNL     1      -3.459   2.772   0.959  1.00  0.00    -0.532 OA
HETATM   33  O2  UNL     1      -5.455   1.919   1.564  1.00  0.00    -0.532 OA
ENDBRANCH  26  31
ENDBRANCH   1  21
TORSDOF 6
