REMARK  3 active torsions:
REMARK  status: ('A' for Active; 'I' for Inactive)
REMARK       I    between atoms: C1_2  and  N2_4 
REMARK    1  A    between atoms: N2_4  and  C2_6 
REMARK    2  A    between atoms: C3_11  and  S1_12 
REMARK    3  A    between atoms: S1_12  and  N5_13 
ROOT
HETATM    1  C2  UNL     1      -1.053  -1.030   0.265  1.00  0.00     0.169 A 
HETATM    2  N3  UNL     1      -0.009  -1.564   0.900  1.00  0.00    -0.278 N 
ATOM      3  H3  UNL     1      -0.103  -2.447   1.402  1.00  0.00     0.189 HD
HETATM    4  N4  UNL     1       1.102  -0.955   0.868  1.00  0.00    -0.281 N 
ATOM      5  H4  UNL     1       1.909  -1.352   1.350  1.00  0.00     0.188 HD
HETATM    6  C3  UNL     1       1.227   0.190   0.216  1.00  0.00     0.208 A 
HETATM    7  S2  UNL     1      -0.356   0.399  -0.386  1.00  0.00    -0.020 SA
ENDROOT
BRANCH   6   8
HETATM    8  S1  UNL     1       2.677   1.164   0.065  1.00  0.00     0.280 S 
HETATM    9  O2  UNL     1       3.524   1.015   1.294  1.00  0.00    -0.199 OA
HETATM   10  O3  UNL     1       2.293   2.611  -0.061  1.00  0.00    -0.199 OA
BRANCH   8  11
HETATM   11  N5  UNL     1       3.566   0.679  -1.331  1.00  0.00    -0.323 N 
ATOM     12  H52 UNL     1       3.278  -0.066  -1.965  1.00  0.00     0.169 HD
ATOM     13  H51 UNL     1       4.410   1.246  -1.419  1.00  0.00     0.169 HD
ENDBRANCH   8  11
ENDBRANCH   6   8
BRANCH   1  14
HETATM   14  N2  UNL     1      -2.277  -1.503   0.181  1.00  0.00    -0.290 N 
HETATM   15  C1  UNL     1      -3.260  -0.785  -0.547  1.00  0.00     0.334 C 
HETATM   16  N1  UNL     1      -3.268   0.632  -0.657  1.00  0.00    -0.040 NA
HETATM   17  O1  UNL     1      -4.169  -1.458  -1.123  1.00  0.00    -0.251 OA
ATOM     18  H2  UNL     1      -2.519  -2.383   0.637  1.00  0.00     0.172 HD
ENDBRANCH   1  14
TORSDOF 3
