REMARK  7 active torsions:
REMARK  status: ('A' for Active; 'I' for Inactive)
REMARK    1  A    between atoms: C3_3  and  C5_5 
REMARK    2  A    between atoms: C5_5  and  O2_7 
REMARK    3  A    between atoms: O2_7  and  C6_8 
REMARK    4  A    between atoms: C17_19  and  O3_20 
REMARK    5  A    between atoms: O3_20  and  C18_21 
REMARK    6  A    between atoms: C20_24  and  O5_25 
REMARK    7  A    between atoms: C20_24  and  C21_27 
ROOT
HETATM    1  C21 UNL     1       0.516   2.086  -0.501  1.00  0.00     0.057 C 
HETATM    2  C22 UNL     1       0.193   2.896   0.647  1.00  0.00     0.098 C 
HETATM    3  N1  UNL     1      -0.064   3.575   1.570  1.00  0.00    -0.192 NA
HETATM    4  C23 UNL     1       1.293   2.711  -1.406  1.00  0.00    -0.010 C 
HETATM    5  C24 UNL     1       1.784   4.077  -1.278  1.00  0.00     0.037 C 
ENDROOT
BRANCH   1   6
HETATM    6  C20 UNL     1       0.051   0.714  -0.677  1.00  0.00     0.148 C 
HETATM    7  C6  UNL     1       0.493  -0.264   0.389  1.00  0.00     0.175 C 
HETATM    8  C7  UNL     1      -0.387  -0.338   1.585  1.00  0.00     0.050 C 
HETATM    9  C8  UNL     1      -1.563  -1.264   1.445  1.00  0.00    -0.014 C 
HETATM   10  C9  UNL     1      -2.766  -0.572   2.119  1.00  0.00     0.020 C 
HETATM   11  C10 UNL     1      -1.952  -1.556   0.068  1.00  0.00    -0.069 C 
HETATM   12  C13 UNL     1      -1.415  -2.570   2.126  1.00  0.00    -0.003 C 
HETATM   13  C11 UNL     1      -2.454  -2.780   0.011  1.00  0.00    -0.022 C 
HETATM   14  C15 UNL     1      -1.893  -0.770  -1.203  1.00  0.00     0.044 C 
HETATM   15  C12 UNL     1      -2.443  -3.410   1.347  1.00  0.00     0.032 C 
HETATM   16  C16 UNL     1      -3.265  -0.677  -1.840  1.00  0.00     0.017 C 
HETATM   17  C17 UNL     1      -1.438   0.653  -0.939  1.00  0.00     0.182 C 
HETATM   18  C14 UNL     1      -0.124  -3.269   2.040  1.00  0.00     0.011 C 
BRANCH   7  19
HETATM   19  O2  UNL     1       1.850  -0.098   0.666  1.00  0.00    -0.309 OA
BRANCH  19  20
HETATM   20  C5  UNL     1       2.824  -1.001   0.334  1.00  0.00     0.289 C 
HETATM   21  O1  UNL     1       2.390  -2.044  -0.273  1.00  0.00    -0.260 OA
BRANCH  20  22
HETATM   22  C3  UNL     1       4.220  -0.825   0.627  1.00  0.00     0.009 C 
HETATM   23  C2  UNL     1       4.709   0.214   1.243  1.00  0.00    -0.018 C 
HETATM   24  C1  UNL     1       3.860   1.335   1.712  1.00  0.00     0.036 C 
HETATM   25  C4  UNL     1       5.171  -1.907   0.192  1.00  0.00     0.054 C 
ENDBRANCH  20  22
ENDBRANCH  19  20
ENDBRANCH   7  19
BRANCH  17  26
HETATM   26  O3  UNL     1      -1.665   1.344  -2.172  1.00  0.00    -0.312 OA
BRANCH  26  27
HETATM   27  C18 UNL     1      -2.513   2.404  -2.308  1.00  0.00     0.255 C 
HETATM   28  C19 UNL     1      -2.648   3.023  -3.653  1.00  0.00     0.126 C 
HETATM   29  O4  UNL     1      -3.137   2.803  -1.291  1.00  0.00    -0.266 OA
ENDBRANCH  26  27
ENDBRANCH  17  26
BRANCH   6  30
HETATM   30  O5  UNL     1       0.667   0.238  -1.867  1.00  0.00    -0.379 OA
ATOM     31  H5  UNL     1       0.389   0.852  -2.536  1.00  0.00     0.211 HD
ENDBRANCH   6  30
ENDBRANCH   1   6
TORSDOF 7
