REMARK  5 active torsions:
REMARK  status: ('A' for Active; 'I' for Inactive)
REMARK    1  A    between atoms: C5_5  and  C6_6 
REMARK    2  A    between atoms: C6_6  and  C7_7 
REMARK    3  A    between atoms: C7_7  and  C8_8 
REMARK    4  A    between atoms: C8_8  and  N1_9 
REMARK    5  A    between atoms: C23_27  and  O4_28 
ROOT
HETATM    1  N1  UNL     1      -0.209   0.446   0.064  1.00  0.00    -0.354 N 
HETATM    2  C9  UNL     1       1.002  -0.186  -0.285  1.00  0.00     0.068 C 
HETATM    3  C10 UNL     1       1.805  -0.546   0.929  1.00  0.00     0.045 C 
HETATM    4  C11 UNL     1       2.264  -1.990   0.904  1.00  0.00     0.007 C 
HETATM    5  C12 UNL     1       3.350  -2.163   1.911  1.00  0.00     0.027 C 
HETATM    6  C13 UNL     1       4.682  -1.598   1.513  1.00  0.00     0.167 C 
HETATM    7  O1  UNL     1       5.311  -2.279   0.501  1.00  0.00    -0.389 OA
HETATM    8  C14 UNL     1       5.452  -1.622  -0.688  1.00  0.00     0.193 C 
HETATM    9  C15 UNL     1       5.886  -0.191  -0.599  1.00  0.00     0.193 C 
HETATM   10  O2  UNL     1       4.827   0.616  -0.995  1.00  0.00    -0.387 OA
HETATM   11  C16 UNL     1       5.126   1.950  -1.113  1.00  0.00     0.193 C 
HETATM   12  C17 UNL     1       3.826   2.726  -1.215  1.00  0.00     0.193 C 
HETATM   13  O3  UNL     1       3.134   2.763  -0.006  1.00  0.00    -0.389 OA
HETATM   14  C18 UNL     1       1.837   3.129  -0.273  1.00  0.00     0.172 C 
HETATM   15  C19 UNL     1       0.819   2.571   0.697  1.00  0.00     0.071 C 
HETATM   16  C20 UNL     1      -0.297   1.848  -0.010  1.00  0.00     0.070 C 
ENDROOT
BRANCH   1  17
HETATM   17  C8  UNL     1      -1.167  -0.273   0.804  1.00  0.00     0.068 C 
BRANCH  17  18
HETATM   18  C7  UNL     1      -1.813  -1.432   0.137  1.00  0.00     0.049 C 
BRANCH  18  19
HETATM   19  C6  UNL     1      -2.612  -1.108  -1.086  1.00  0.00     0.044 C 
BRANCH  19  20
HETATM   20  C5  UNL     1      -3.764  -0.237  -0.892  1.00  0.00    -0.045 A 
HETATM   21  C4  UNL     1      -4.915  -0.733  -0.288  1.00  0.00     0.009 A 
HETATM   22  C3  UNL     1      -5.279  -1.958   0.241  1.00  0.00     0.047 A 
HETATM   23  C24 UNL     1      -6.023   0.094  -0.119  1.00  0.00     0.119 A 
HETATM   24  C2  UNL     1      -6.578  -1.829   0.705  1.00  0.00     0.051 A 
HETATM   25  C1  UNL     1      -7.343  -2.940   1.353  1.00  0.00     0.077 C 
HETATM   26  O5  UNL     1      -6.965  -0.610   0.470  1.00  0.00    -0.312 OA
HETATM   27  C23 UNL     1      -5.985   1.404  -0.547  1.00  0.00     0.100 A 
HETATM   28  C22 UNL     1      -4.869   1.918  -1.143  1.00  0.00     0.040 A 
HETATM   29  C21 UNL     1      -3.779   1.066  -1.298  1.00  0.00     0.011 A 
BRANCH  27  30
HETATM   30  O4  UNL     1      -7.093   2.222  -0.375  1.00  0.00    -0.358 OA
ATOM     31  H4  UNL     1      -7.869   1.864   0.040  1.00  0.00     0.217 HD
ENDBRANCH  27  30
ENDBRANCH  19  20
ENDBRANCH  18  19
ENDBRANCH  17  18
ENDBRANCH   1  17
TORSDOF 5
