REMARK  3 active torsions:
REMARK  status: ('A' for Active; 'I' for Inactive)
REMARK    1  A    between atoms: C5_7  and  C6_8 
REMARK    2  A    between atoms: C6_8  and  N2_9 
REMARK    3  A    between atoms: C13_17  and  C14_18 
ROOT
HETATM    1  C1  UNL     1      -2.633  -1.051   3.745  1.00  0.00     0.232 C 
HETATM    2  N1  UNL     1      -1.806  -0.502   3.141  1.00  0.00    -0.404 NA
HETATM    3  C2  UNL     1      -0.771   0.139   2.470  1.00  0.00     0.227 A 
HETATM    4  O1  UNL     1       0.272   0.629   3.130  1.00  0.00    -0.286 OA
HETATM    5  C3  UNL     1       1.114   1.167   2.336  1.00  0.00     0.061 A 
HETATM    6  C4  UNL     1       2.381   1.825   2.761  1.00  0.00     0.077 C 
HETATM    7  C5  UNL     1       0.616   1.030   1.006  1.00  0.00     0.001 A 
HETATM    8  C13 UNL     1      -0.586   0.391   1.145  1.00  0.00     0.025 A 
ENDROOT
BRANCH   8   9
HETATM    9  C14 UNL     1      -1.525   0.126   0.009  1.00  0.00     0.060 C 
HETATM   10  C15 UNL     1      -1.440   1.363  -0.866  1.00  0.00     0.176 C 
HETATM   11  C16 UNL     1      -1.733   2.467   0.166  1.00  0.00     0.073 C 
HETATM   12  C17 UNL     1      -2.497   1.534  -1.902  1.00  0.00     0.136 C 
HETATM   13  N3  UNL     1      -1.964   3.286   0.971  1.00  0.00    -0.196 NA
HETATM   14  N4  UNL     1      -2.274   1.727  -3.142  1.00  0.00    -0.382 N 
HETATM   15  O3  UNL     1      -3.774   1.471  -1.397  1.00  0.00    -0.301 OA
ATOM     16  H42 UNL     1      -1.326   1.774  -3.517  1.00  0.00     0.158 HD
ATOM     17  H41 UNL     1      -2.998   1.844  -3.851  1.00  0.00     0.158 HD
HETATM   18  C18 UNL     1      -3.993   0.484  -0.494  1.00  0.00     0.056 C 
HETATM   19  C19 UNL     1      -5.284   0.242  -0.312  1.00  0.00     0.006 C 
HETATM   20  C24 UNL     1      -2.893  -0.259   0.234  1.00  0.00     0.053 C 
HETATM   21  C20 UNL     1      -5.905  -0.795   0.613  1.00  0.00     0.029 C 
HETATM   22  C21 UNL     1      -5.648  -2.164  -0.053  1.00  0.00     0.004 C 
HETATM   23  C22 UNL     1      -4.406  -1.959  -0.924  1.00  0.00     0.001 C 
HETATM   24  C23 UNL     1      -3.160  -1.717  -0.135  1.00  0.00     0.012 C 
ENDBRANCH   8   9
BRANCH   7  25
HETATM   25  C6  UNL     1       1.572   1.467  -0.032  1.00  0.00     0.159 C 
BRANCH  25  26
HETATM   26  N2  UNL     1       2.796   0.620   0.041  1.00  0.00    -0.406 N 
HETATM   27  C7  UNL     1       3.829   1.024  -0.832  1.00  0.00     0.117 C 
HETATM   28  C8  UNL     1       4.610  -0.028  -1.542  1.00  0.00     0.021 C 
HETATM   29  C9  UNL     1       5.564  -0.832  -0.745  1.00  0.00     0.028 C 
HETATM   30  C10 UNL     1       5.683  -0.494   0.696  1.00  0.00     0.167 C 
HETATM   31  O2  UNL     1       4.550  -0.585   1.422  1.00  0.00    -0.390 OA
HETATM   32  C11 UNL     1       3.577  -1.451   1.082  1.00  0.00     0.187 C 
HETATM   33  C12 UNL     1       2.568  -0.764   0.145  1.00  0.00     0.143 C 
ENDBRANCH  25  26
ENDBRANCH   7  25
TORSDOF 3
