REMARK  8 active torsions:
REMARK  status: ('A' for Active; 'I' for Inactive)
REMARK    1  A    between atoms: C2_2  and  C3_3 
REMARK    2  A    between atoms: C2_2  and  C6_6 
REMARK    3  A    between atoms: C3_3  and  C4_4 
REMARK    4  A    between atoms: C9_9  and  O1_10 
REMARK    5  A    between atoms: C13_15  and  C14_16 
REMARK    6  A    between atoms: C14_16  and  O2_17 
REMARK    7  A    between atoms: C14_16  and  C15_19 
REMARK    8  A    between atoms: C15_19  and  C16_20 
ROOT
HETATM    1  C6  UNL     1      -1.822   0.075   0.676  1.00  0.00     0.025 C 
HETATM    2  C7  UNL     1      -2.596  -0.633  -0.474  1.00  0.00     0.001 C 
HETATM    3  C8  UNL     1      -3.215  -1.931  -0.106  1.00  0.00     0.037 C 
HETATM    4  C9  UNL     1      -3.096  -2.867  -1.286  1.00  0.00     0.118 C 
HETATM    5  C10 UNL     1      -1.654  -3.195  -1.476  1.00  0.00     0.032 C 
HETATM    6  C11 UNL     1      -0.748  -2.196  -0.727  1.00  0.00     0.008 C 
HETATM    7  C12 UNL     1      -1.190  -0.840  -1.089  1.00  0.00    -0.002 C 
HETATM    8  C13 UNL     1      -0.820   0.369  -0.343  1.00  0.00     0.031 C 
ENDROOT
BRANCH   8   9
HETATM    9  C14 UNL     1       0.592   0.682   0.050  1.00  0.00     0.146 C 
BRANCH   9  10
HETATM   10  O2  UNL     1       1.261   0.877  -1.138  1.00  0.00    -0.391 OA
ATOM     11  H2  UNL     1       2.156   1.075  -0.889  1.00  0.00     0.210 HD
ENDBRANCH   9  10
BRANCH   9  12
HETATM   12  C15 UNL     1       1.211  -0.127   1.070  1.00  0.00     0.007 C 
BRANCH  12  13
HETATM   13  C16 UNL     1       2.568   0.095   1.593  1.00  0.00     0.030 C 
HETATM   14  C17 UNL     1       3.812  -0.006   0.866  1.00  0.00     0.046 C 
HETATM   15  C18 UNL     1       4.119   0.869  -0.295  1.00  0.00     0.065 C 
HETATM   16  O3  UNL     1       4.224  -1.338   0.602  1.00  0.00    -0.355 OA
HETATM   17  C19 UNL     1       5.659   1.034  -0.362  1.00  0.00     0.009 C 
HETATM   18  C20 UNL     1       6.209  -0.368  -0.427  1.00  0.00     0.027 C 
HETATM   19  C21 UNL     1       5.594  -1.335   0.520  1.00  0.00     0.175 C 
ENDBRANCH  12  13
ENDBRANCH   9  12
ENDBRANCH   8   9
BRANCH   1  20
HETATM   20  C2  UNL     1      -2.618   1.092   1.354  1.00  0.00    -0.084 C 
HETATM   21  C1  UNL     1      -2.425   1.223   2.702  1.00  0.00     0.014 C 
BRANCH  20  22
HETATM   22  C3  UNL     1      -3.660   1.956   0.785  1.00  0.00     0.033 C 
BRANCH  22  23
HETATM   23  C4  UNL     1      -3.243   2.930  -0.265  1.00  0.00    -0.000 C 
HETATM   24  C5  UNL     1      -4.465   3.796  -0.686  1.00  0.00     0.005 C 
ENDBRANCH  22  23
ENDBRANCH  20  22
ENDBRANCH   1  20
BRANCH   4  25
HETATM   25  O1  UNL     1      -3.912  -3.985  -1.166  1.00  0.00    -0.396 OA
ATOM     26  H1  UNL     1      -3.837  -4.574  -1.908  1.00  0.00     0.210 HD
ENDBRANCH   4  25
TORSDOF 8
