REMARK  7 active torsions:
REMARK  status: ('A' for Active; 'I' for Inactive)
REMARK    1  A    between atoms: C2_2  and  C5_5 
REMARK    2  A    between atoms: C8_8  and  C9_9 
REMARK    3  A    between atoms: N1_14  and  C12_15 
REMARK    4  A    between atoms: C12_15  and  C13_16 
REMARK    5  A    between atoms: C12_15  and  C14_19 
REMARK    6  A    between atoms: C14_19  and  C15_22 
REMARK    7  A    between atoms: C15_22  and  O4_25 
ROOT
HETATM    1  C9  UNL     1       0.695   1.425   0.080  1.00  0.00     0.036 C 
HETATM    2  C10 UNL     1      -0.303   0.583   0.057  1.00  0.00     0.079 C 
HETATM    3  S1  UNL     1      -0.260  -1.211  -0.208  1.00  0.00    -0.023 SA
HETATM    4  C11 UNL     1      -1.788  -1.488   0.734  1.00  0.00     0.295 C 
HETATM    5  O1  UNL     1      -2.076  -2.536   1.338  1.00  0.00    -0.259 OA
HETATM    6  N1  UNL     1      -2.504  -0.261   0.596  1.00  0.00    -0.253 N 
HETATM    7  C18 UNL     1      -1.748   0.840   0.242  1.00  0.00     0.269 C 
HETATM    8  O5  UNL     1      -2.128   2.061   0.052  1.00  0.00    -0.266 OA
ENDROOT
BRANCH   6   9
HETATM    9  C12 UNL     1      -3.984  -0.273   0.856  1.00  0.00     0.272 C 
BRANCH   9  10
HETATM   10  C13 UNL     1      -4.278   0.557   2.018  1.00  0.00     0.203 C 
HETATM   11  O2  UNL     1      -5.332   0.429   2.684  1.00  0.00    -0.646 OA
HETATM   12  O3  UNL     1      -3.425   1.572   2.510  1.00  0.00    -0.646 OA
ENDBRANCH   9  10
BRANCH   9  13
HETATM   13  C14 UNL     1      -4.711  -0.049  -0.415  1.00  0.00     0.303 C 
HETATM   14  F1  UNL     1      -4.316  -1.089  -1.280  1.00  0.00    -0.200 F 
HETATM   15  F2  UNL     1      -4.527   1.166  -1.021  1.00  0.00    -0.200 F 
BRANCH  13  16
HETATM   16  C15 UNL     1      -6.204  -0.202  -0.247  1.00  0.00     0.118 C 
HETATM   17  C16 UNL     1      -6.774   0.013  -1.687  1.00  0.00     0.052 C 
HETATM   18  C17 UNL     1      -6.649  -1.509   0.295  1.00  0.00     0.052 C 
BRANCH  16  19
HETATM   19  O4  UNL     1      -6.703   0.900   0.460  1.00  0.00    -0.384 OA
ATOM     20  H4  UNL     1      -7.642   0.804   0.566  1.00  0.00     0.210 HD
ENDBRANCH  16  19
ENDBRANCH  13  16
ENDBRANCH   9  13
ENDBRANCH   6   9
BRANCH   1  21
HETATM   21  C8  UNL     1       2.059   1.019  -0.115  1.00  0.00    -0.035 A 
HETATM   22  C7  UNL     1       2.427   0.128  -1.095  1.00  0.00     0.012 A 
HETATM   23  C6  UNL     1       3.755  -0.277  -1.256  1.00  0.00     0.009 A 
HETATM   24  C5  UNL     1       4.750   0.205  -0.432  1.00  0.00    -0.051 A 
HETATM   25  C20 UNL     1       4.397   1.098   0.552  1.00  0.00     0.009 A 
HETATM   26  C19 UNL     1       3.087   1.494   0.707  1.00  0.00     0.012 A 
BRANCH  24  27
HETATM   27  C2  UNL     1       6.155  -0.261  -0.631  1.00  0.00    -0.024 C 
HETATM   28  C1  UNL     1       7.084   0.447   0.328  1.00  0.00     0.019 C 
HETATM   29  C3  UNL     1       6.607  -0.009  -2.043  1.00  0.00     0.019 C 
HETATM   30  C4  UNL     1       6.223  -1.758  -0.348  1.00  0.00     0.019 C 
ENDBRANCH  24  27
ENDBRANCH   1  21
TORSDOF 7
