REMARK  7 active torsions:
REMARK  status: ('A' for Active; 'I' for Inactive)
REMARK    1  A    between atoms: C7_8  and  C8_9 
REMARK    2  A    between atoms: C8_9  and  C9_10 
REMARK    3  A    between atoms: C9_10  and  C10_11 
REMARK    4  A    between atoms: N3_37  and  C29_38 
REMARK    5  A    between atoms: C29_38  and  O4_39 
REMARK    6  A    between atoms: C29_38  and  C30_41 
REMARK    7  A    between atoms: C30_41  and  O5_42 
ROOT
HETATM    1  N1  UNL     1      -4.118   3.822   0.173  1.00  0.00    -0.191 NA
HETATM    2  C1  UNL     1      -2.994   3.549   0.187  1.00  0.00     0.100 C 
HETATM    3  C2  UNL     1      -1.567   3.228   0.189  1.00  0.00     0.051 A 
HETATM    4  C3  UNL     1      -0.646   4.210   0.445  1.00  0.00     0.025 A 
HETATM    5  C4  UNL     1       0.692   3.848   0.425  1.00  0.00     0.032 A 
HETATM    6  C5  UNL     1       1.148   2.556   0.161  1.00  0.00     0.044 A 
HETATM    7  C6  UNL     1       0.223   1.574  -0.094  1.00  0.00    -0.012 A 
HETATM    8  C7  UNL     1      -1.141   1.939  -0.075  1.00  0.00    -0.028 A 
HETATM    9  C20 UNL     1       0.442   0.144  -0.386  1.00  0.00     0.150 C 
HETATM   10  S1  UNL     1       0.747  -0.192  -2.069  1.00  0.00     0.021 S 
HETATM   11  O1  UNL     1       0.356   0.932  -3.154  1.00  0.00    -0.258 OA
HETATM   12  C21 UNL     1       0.994  -1.798  -2.518  1.00  0.00     0.135 C 
HETATM   13  C22 UNL     1       2.459  -2.197  -2.389  1.00  0.00     0.180 C 
HETATM   14  O2  UNL     1       2.709  -2.803  -1.164  1.00  0.00    -0.388 OA
HETATM   15  C23 UNL     1       3.891  -3.560  -1.255  1.00  0.00     0.193 C 
HETATM   16  C24 UNL     1       4.784  -3.362  -0.069  1.00  0.00     0.193 C 
HETATM   17  O3  UNL     1       6.019  -2.803  -0.401  1.00  0.00    -0.387 OA
HETATM   18  C25 UNL     1       6.413  -1.843   0.526  1.00  0.00     0.195 C 
HETATM   19  C26 UNL     1       5.562  -0.619   0.320  1.00  0.00     0.258 C 
HETATM   20  N2  UNL     1       5.088  -0.059   1.553  1.00  0.00    -0.072 N 
ATOM     21  H21 UNL     1       5.789  -0.068   2.294  1.00  0.00     0.277 HD
ATOM     22  H22 UNL     1       4.398  -0.646   2.022  1.00  0.00     0.277 HD
HETATM   23  C27 UNL     1       4.583   1.303   1.241  1.00  0.00     0.252 C 
HETATM   24  C28 UNL     1       3.214   1.245   0.691  1.00  0.00     0.158 C 
HETATM   25  N3  UNL     1       2.599   2.422   0.163  1.00  0.00    -0.327 N 
ENDROOT
BRANCH   8  26
HETATM   26  C8  UNL     1      -2.225   0.959  -0.341  1.00  0.00     0.041 C 
BRANCH  26  27
HETATM   27  C9  UNL     1      -2.868   0.447   0.923  1.00  0.00     0.014 C 
BRANCH  27  28
HETATM   28  C10 UNL     1      -3.954  -0.539   0.618  1.00  0.00    -0.039 C 
HETATM   29  C11 UNL     1      -4.520  -0.983   1.966  1.00  0.00     0.014 C 
HETATM   30  C12 UNL     1      -5.703  -1.887   1.807  1.00  0.00    -0.013 C 
HETATM   31  C13 UNL     1      -6.771  -1.181   0.990  1.00  0.00     0.009 C 
HETATM   32  C17 UNL     1      -5.238  -3.130   1.083  1.00  0.00     0.009 C 
HETATM   33  C14 UNL     1      -6.210  -0.815  -0.357  1.00  0.00    -0.013 C 
HETATM   34  C15 UNL     1      -5.790  -2.096  -1.047  1.00  0.00     0.009 C 
HETATM   35  C19 UNL     1      -5.021   0.121  -0.207  1.00  0.00     0.014 C 
HETATM   36  C16 UNL     1      -4.671  -2.696  -0.252  1.00  0.00    -0.013 C 
HETATM   37  C18 UNL     1      -3.487  -1.770  -0.102  1.00  0.00     0.014 C 
ENDBRANCH  27  28
ENDBRANCH  26  27
ENDBRANCH   8  26
BRANCH  25  38
HETATM   38  C29 UNL     1       3.395   3.504  -0.402  1.00  0.00     0.142 C 
BRANCH  38  39
HETATM   39  O4  UNL     1       2.705   4.235  -1.387  1.00  0.00    -0.348 OA
ATOM     40  H4  UNL     1       3.224   4.940  -1.755  1.00  0.00     0.219 HD
ENDBRANCH  38  39
BRANCH  38  41
HETATM   41  C30 UNL     1       4.196   4.351   0.484  1.00  0.00     0.248 C 
BRANCH  41  42
HETATM   42  O5  UNL     1       4.853   5.337  -0.334  1.00  0.00    -0.393 OA
ATOM     43  H5  UNL     1       5.373   5.887   0.241  1.00  0.00     0.210 HD
ENDBRANCH  41  42
ENDBRANCH  38  41
ENDBRANCH  25  38
TORSDOF 7
