REMARK  10 active torsions:
REMARK  status: ('A' for Active; 'I' for Inactive)
REMARK    1  A    between atoms: C2_2  and  N1_3 
REMARK    2  A    between atoms: C2_2  and  C3_7 
REMARK    3  A    between atoms: C4_8  and  C5_9 
REMARK    4  A    between atoms: C6_10  and  C7_11 
REMARK    5  A    between atoms: C13_19  and  C14_20 
REMARK    6  A    between atoms: C15_21  and  C16_22 
REMARK    7  A    between atoms: C25_37  and  N5_38 
REMARK    8  A    between atoms: N6_41  and  C28_42 
REMARK    9  A    between atoms: C28_42  and  C29_43 
REMARK   10  A    between atoms: C29_43  and  O3_44 
ROOT
HETATM    1  C5  UNL     1      -0.751  -0.043   0.989  1.00  0.00     0.097 A 
HETATM    2  C6  UNL     1      -1.331   0.080  -0.227  1.00  0.00     0.085 A 
HETATM    3  N4  UNL     1      -2.630  -0.320  -0.424  1.00  0.00    -0.339 N 
ATOM      4  H4  UNL     1      -3.039  -0.209  -1.352  1.00  0.00     0.167 HD
HETATM    5  C25 UNL     1      -3.382  -0.849   0.549  1.00  0.00     0.107 A 
HETATM    6  C32 UNL     1      -2.797  -0.985   1.787  1.00  0.00     0.104 A 
HETATM    7  C33 UNL     1      -1.510  -0.601   2.039  1.00  0.00     0.196 A 
HETATM    8  O4  UNL     1      -0.971  -0.724   3.167  1.00  0.00    -0.287 OA
ENDROOT
BRANCH   2   9
HETATM    9  C7  UNL     1      -0.616   0.731  -1.347  1.00  0.00     0.077 A 
HETATM   10  C8  UNL     1      -1.415   1.190  -2.415  1.00  0.00     0.120 A 
HETATM   11  N2  UNL     1      -0.947   1.918  -3.420  1.00  0.00    -0.362 N 
HETATM   12  C9  UNL     1       0.339   2.258  -3.473  1.00  0.00     0.060 A 
ATOM     13  H2  UNL     1      -1.580   2.221  -4.161  1.00  0.00     0.165 HD
HETATM   14  C10 UNL     1       0.868   2.982  -4.500  1.00  0.00     0.032 A 
HETATM   15  C24 UNL     1       1.173   1.813  -2.426  1.00  0.00     0.078 A 
HETATM   16  C11 UNL     1       2.195   3.290  -4.557  1.00  0.00     0.004 A 
HETATM   17  C12 UNL     1       2.993   2.846  -3.545  1.00  0.00     0.023 A 
HETATM   18  C13 UNL     1       2.505   2.096  -2.461  1.00  0.00     0.047 A 
HETATM   19  N3  UNL     1       0.659   1.076  -1.411  1.00  0.00    -0.350 N 
ATOM     20  H3  UNL     1       1.284   0.774  -0.663  1.00  0.00     0.166 HD
BRANCH  18  21
HETATM   21  C14 UNL     1       3.447   1.512  -1.561  1.00  0.00    -0.059 C 
HETATM   22  C15 UNL     1       4.285   0.984  -0.869  1.00  0.00    -0.061 C 
BRANCH  22  23
HETATM   23  C16 UNL     1       5.301   0.340  -0.085  1.00  0.00     0.021 A 
HETATM   24  C17 UNL     1       5.028  -0.888   0.516  1.00  0.00     0.023 A 
HETATM   25  C18 UNL     1       5.962  -1.554   1.280  1.00  0.00     0.041 A 
HETATM   26  C19 UNL     1       7.214  -1.015   1.473  1.00  0.00     0.102 A 
HETATM   27  C20 UNL     1       7.512   0.193   0.893  1.00  0.00     0.103 A 
HETATM   28  O2  UNL     1       8.186  -1.654   2.237  1.00  0.00    -0.346 OA
HETATM   29  C21 UNL     1       6.559   0.845   0.130  1.00  0.00     0.060 A 
HETATM   30  O1  UNL     1       8.784   0.699   1.114  1.00  0.00    -0.346 OA
HETATM   31  C22 UNL     1       9.899  -0.141   1.383  1.00  0.00     0.202 C 
HETATM   32  C23 UNL     1       9.550  -1.375   2.157  1.00  0.00     0.202 C 
ENDBRANCH  22  23
ENDBRANCH  18  21
ENDBRANCH   2   9
BRANCH   1  33
HETATM   33  C4  UNL     1       0.515   0.566   1.385  1.00  0.00    -0.058 C 
HETATM   34  C3  UNL     1       1.492   1.124   1.793  1.00  0.00    -0.068 C 
BRANCH  34  35
HETATM   35  C2  UNL     1       2.645   1.843   2.379  1.00  0.00     0.258 C 
HETATM   36  C1  UNL     1       2.780   3.243   1.867  1.00  0.00     0.053 C 
BRANCH  35  37
HETATM   37  N1  UNL     1       2.318   1.963   3.813  1.00  0.00    -0.065 N 
ATOM     38  H13 UNL     1       2.989   2.525   4.337  1.00  0.00     0.275 HD
ATOM     39  H12 UNL     1       1.500   2.544   3.996  1.00  0.00     0.275 HD
ATOM     40  H11 UNL     1       2.226   1.009   4.162  1.00  0.00     0.275 HD
ENDBRANCH  35  37
ENDBRANCH  34  35
ENDBRANCH   1  33
BRANCH   5  41
HETATM   41  N5  UNL     1      -4.733  -1.268   0.317  1.00  0.00    -0.364 N 
HETATM   42  C26 UNL     1      -5.500  -1.766   1.427  1.00  0.00     0.154 C 
HETATM   43  C27 UNL     1      -6.987  -1.698   1.143  1.00  0.00     0.292 C 
HETATM   44  N6  UNL     1      -7.355  -2.324  -0.092  1.00  0.00     0.093 N 
HETATM   45  C30 UNL     1      -6.367  -2.314  -1.106  1.00  0.00     0.292 C 
HETATM   46  C31 UNL     1      -5.332  -1.211  -0.972  1.00  0.00     0.154 C 
BRANCH  44  47
HETATM   47  C28 UNL     1      -8.676  -1.949  -0.450  1.00  0.00     0.298 C 
BRANCH  47  48
HETATM   48  C29 UNL     1      -9.207  -2.548  -1.713  1.00  0.00     0.194 C 
BRANCH  48  49
HETATM   49  O3  UNL     1      -9.207  -3.945  -1.604  1.00  0.00    -0.399 OA
ATOM     50  H3  UNL     1      -9.544  -4.326  -2.406  1.00  0.00     0.209 HD
ENDBRANCH  48  49
ENDBRANCH  47  48
ENDBRANCH  44  47
ENDBRANCH   5  41
TORSDOF 10
