REMARK  4 active torsions:
REMARK  status: ('A' for Active; 'I' for Inactive)
REMARK    1  A    between atoms: N1_8  and  N2_10 
REMARK    2  A    between atoms: N2_10  and  C7_12 
REMARK    3  A    between atoms: C8_13  and  N3_14 
REMARK    4  A    between atoms: C15_24  and  O3_25 
ROOT
HETATM    1  C7  UNL     1       0.837  -0.502  -1.216  1.00  0.00     0.135 A 
HETATM    2  C8  UNL     1       1.979   0.243  -1.410  1.00  0.00     0.088 A 
HETATM    3  C14 UNL     1       2.474  -0.080  -2.653  1.00  0.00     0.177 A 
HETATM    4  O2  UNL     1       1.674  -0.964  -3.167  1.00  0.00    -0.296 OA
HETATM    5  C15 UNL     1       0.684  -1.254  -2.360  1.00  0.00     0.214 A 
ENDROOT
BRANCH   1   6
HETATM    6  N2  UNL     1      -0.029  -0.518  -0.083  1.00  0.00    -0.294 N 
ATOM      7  H2  UNL     1       0.197   0.089   0.705  1.00  0.00     0.187 HD
BRANCH   6   8
HETATM    8  N1  UNL     1      -1.153  -1.308   0.006  1.00  0.00    -0.307 N 
HETATM    9  C6  UNL     1      -2.290  -0.959   0.453  1.00  0.00     0.022 C 
HETATM   10  C5  UNL     1      -3.409  -1.914   0.490  1.00  0.00     0.129 C 
HETATM   11  C16 UNL     1      -2.504   0.413   0.943  1.00  0.00     0.060 C 
HETATM   12  C4  UNL     1      -4.697  -1.301  -0.021  1.00  0.00     0.026 C 
HETATM   13 CL1  UNL     1      -3.624  -2.439   2.180  1.00  0.00    -0.119 Cl
HETATM   14  C3  UNL     1      -4.966  -0.035   0.740  1.00  0.00     0.006 C 
HETATM   15  C2  UNL     1      -3.858   0.960   0.571  1.00  0.00    -0.013 C 
HETATM   16  C1  UNL     1      -3.791   1.541  -0.811  1.00  0.00     0.010 C 
ATOM     17  H1  UNL     1      -1.064  -2.270  -0.320  1.00  0.00     0.186 HD
ENDBRANCH   6   8
ENDBRANCH   1   6
BRANCH   2  18
HETATM   18  N3  UNL     1       2.497   1.163  -0.451  1.00  0.00    -0.353 N 
HETATM   19  C9  UNL     1       3.668   0.969   0.091  1.00  0.00     0.056 C 
HETATM   20  C10 UNL     1       4.604  -0.164  -0.175  1.00  0.00     0.061 C 
HETATM   21  C13 UNL     1       4.249   1.873   1.075  1.00  0.00     0.171 C 
HETATM   22  C11 UNL     1       5.893   0.327   0.470  1.00  0.00     0.014 C 
HETATM   23  C12 UNL     1       5.468   1.220   1.592  1.00  0.00     0.085 C 
HETATM   24  O1  UNL     1       3.804   3.011   1.433  1.00  0.00    -0.291 OA
ATOM     25  H3  UNL     1       1.947   1.980  -0.186  1.00  0.00     0.166 HD
ENDBRANCH   2  18
BRANCH   5  26
HETATM   26  O3  UNL     1      -0.333  -2.164  -2.632  1.00  0.00    -0.339 OA
ATOM     27  H3  UNL     1      -0.439  -2.683  -3.421  1.00  0.00     0.220 HD
ENDBRANCH   5  26
TORSDOF 4
