REMARK  9 active torsions:
REMARK  status: ('A' for Active; 'I' for Inactive)
REMARK    1  A    between atoms: C2_2  and  S1_4 
REMARK    2  A    between atoms: S1_4  and  C3_5 
REMARK    3  A    between atoms: C3_5  and  C4_6 
REMARK    4  A    between atoms: C4_6  and  S3_8 
REMARK    5  A    between atoms: S3_8  and  S4_9 
REMARK    6  A    between atoms: S4_9  and  C5_10 
REMARK    7  A    between atoms: C5_10  and  N2_14 
REMARK    8  A    between atoms: N2_14  and  C6_16 
REMARK    9  A    between atoms: C6_16  and  C7_17 
ROOT
HETATM    1  C5  UNL     1      -0.172  -0.691   1.044  1.00  0.00     0.145 C 
HETATM    2  N1  UNL     1       0.050  -1.956   0.969  1.00  0.00    -0.379 N 
ATOM      3  H11 UNL     1      -0.671  -2.564   0.580  1.00  0.00     0.158 HD
ATOM      4  H12 UNL     1       0.945  -2.313   1.303  1.00  0.00     0.158 HD
ENDROOT
BRANCH   1   5
HETATM    5  S4  UNL     1       1.088   0.372   1.724  1.00  0.00    -0.016 SA
BRANCH   5   6
HETATM    6  S3  UNL     1       2.805  -0.737   2.307  1.00  0.00    -0.042 SA
BRANCH   6   7
HETATM    7  C4  UNL     1       3.922  -0.830   0.931  1.00  0.00     0.066 C 
HETATM    8  S2  UNL     1       5.140  -1.539   1.099  1.00  0.00    -0.076 SA
BRANCH   7   9
HETATM    9  C3  UNL     1       3.607  -0.201  -0.364  1.00  0.00     0.141 C 
BRANCH   9  10
HETATM   10  S1  UNL     1       4.943  -0.363  -1.573  1.00  0.00    -0.087 SA
BRANCH  10  11
HETATM   11  C2  UNL     1       6.383   0.568  -1.123  1.00  0.00     0.182 C 
HETATM   12  C1  UNL     1       6.427   1.403   0.089  1.00  0.00     0.104 C 
HETATM   13  O1  UNL     1       7.372   0.518  -1.838  1.00  0.00    -0.286 OA
ENDBRANCH  10  11
ENDBRANCH   9  10
ENDBRANCH   7   9
ENDBRANCH   6   7
ENDBRANCH   5   6
ENDBRANCH   1   5
BRANCH   1  14
HETATM   14  N2  UNL     1      -1.412  -0.196   0.581  1.00  0.00    -0.366 N 
ATOM     15  H2  UNL     1      -1.509   0.796   0.363  1.00  0.00     0.161 HD
BRANCH  14  16
HETATM   16  C6  UNL     1      -2.542  -1.077   0.413  1.00  0.00     0.160 C 
BRANCH  16  17
HETATM   17  C7  UNL     1      -3.754  -0.368  -0.066  1.00  0.00    -0.040 A 
HETATM   18  C8  UNL     1      -4.632  -1.005  -0.937  1.00  0.00     0.012 A 
HETATM   19  C9  UNL     1      -5.740  -0.299  -1.344  1.00  0.00     0.043 A 
HETATM   20  C10 UNL     1      -5.982   0.985  -0.914  1.00  0.00     0.116 A 
HETATM   21  F1  UNL     1      -7.082   1.694  -1.314  1.00  0.00    -0.206 F 
HETATM   22  C11 UNL     1      -5.088   1.586  -0.048  1.00  0.00     0.043 A 
HETATM   23  C12 UNL     1      -3.968   0.923   0.386  1.00  0.00     0.012 A 
ENDBRANCH  16  17
ENDBRANCH  14  16
ENDBRANCH   1  14
TORSDOF 9
