REMARK  2 active torsions:
REMARK  status: ('A' for Active; 'I' for Inactive)
REMARK    1  A    between atoms: C2_2  and  C3_3 
REMARK    2  A    between atoms: C5_5  and  N1_6 
REMARK       I    between atoms: N1_6  and  C6_8 
ROOT
HETATM    1  C3  UNL     1       0.247   1.358   0.960  1.00  0.00     0.018 C 
HETATM    2  C4  UNL     1      -0.849   1.053  -0.082  1.00  0.00     0.035 C 
HETATM    3  C5  UNL     1      -0.398  -0.277  -0.695  1.00  0.00     0.089 C 
HETATM    4  C7  UNL     1       1.028  -0.278  -0.329  1.00  0.00     0.018 A 
HETATM    5  C8  UNL     1       1.824  -0.755   0.726  1.00  0.00     0.017 A 
HETATM    6  C9  UNL     1       0.704  -0.004   1.203  1.00  0.00    -0.031 A 
HETATM    7  C10 UNL     1      -0.417  -0.896   1.768  1.00  0.00     0.016 C 
ENDROOT
BRANCH   3   8
HETATM    8  N1  UNL     1      -0.510  -0.126  -2.142  1.00  0.00    -0.360 N 
HETATM    9  C6  UNL     1      -0.141  -1.221  -2.974  1.00  0.00     0.182 C 
HETATM   10  N2  UNL     1       0.970  -1.182  -3.616  1.00  0.00    -0.374 N 
HETATM   11  N3  UNL     1      -0.972  -2.357  -3.110  1.00  0.00    -0.064 NA
ATOM     12  H22 UNL     1       1.569  -0.363  -3.518  1.00  0.00     0.158 HD
ATOM     13  H21 UNL     1       1.234  -1.966  -4.212  1.00  0.00     0.158 HD
ATOM     14  H1  UNL     1      -0.846   0.747  -2.549  1.00  0.00     0.162 HD
ENDBRANCH   3   8
BRANCH   1  15
HETATM   15  C2  UNL     1      -0.172   2.215   2.040  1.00  0.00    -0.031 C 
HETATM   16  C1  UNL     1      -0.223   1.993   3.331  1.00  0.00     0.007 C 
ENDBRANCH   1  15
TORSDOF 2
