REMARK  5 active torsions:
REMARK  status: ('A' for Active; 'I' for Inactive)
REMARK    1  A    between atoms: C4_4  and  C5_5 
REMARK    2  A    between atoms: C7_7  and  C8_8 
REMARK    3  A    between atoms: N1_14  and  C14_15 
REMARK    4  A    between atoms: C14_15  and  C15_16 
REMARK    5  A    between atoms: C14_15  and  C21_22 
ROOT
HETATM    1  C5  UNL     1       2.036  -0.235   0.244  1.00  0.00    -0.008 A 
HETATM    2  C6  UNL     1       1.922   1.072  -0.157  1.00  0.00     0.044 A 
HETATM    3  C7  UNL     1       0.561   1.430  -0.294  1.00  0.00     0.046 A 
HETATM    4  N1  UNL     1      -0.119   0.337   0.028  1.00  0.00    -0.342 N 
HETATM    5  C27 UNL     1       0.750  -0.689   0.357  1.00  0.00     0.104 A 
ENDROOT
BRANCH   4   6
HETATM    6  C14 UNL     1      -1.533   0.133   0.109  1.00  0.00     0.155 C 
BRANCH   6   7
HETATM    7  C15 UNL     1      -2.123  -0.523  -1.086  1.00  0.00    -0.031 A 
HETATM    8  C16 UNL     1      -3.383  -1.077  -1.110  1.00  0.00     0.009 A 
HETATM    9  C17 UNL     1      -3.893  -1.676  -2.241  1.00  0.00     0.001 A 
HETATM   10  C18 UNL     1      -3.143  -1.736  -3.395  1.00  0.00     0.000 A 
HETATM   11  C19 UNL     1      -1.895  -1.196  -3.397  1.00  0.00     0.001 A 
HETATM   12  C20 UNL     1      -1.382  -0.589  -2.246  1.00  0.00     0.009 A 
ENDBRANCH   6   7
BRANCH   6  13
HETATM   13  C21 UNL     1      -1.859  -0.754   1.315  1.00  0.00    -0.031 A 
HETATM   14  C22 UNL     1      -2.083  -0.173   2.545  1.00  0.00     0.009 A 
HETATM   15  C23 UNL     1      -2.393  -0.927   3.653  1.00  0.00     0.001 A 
HETATM   16  C24 UNL     1      -2.478  -2.291   3.517  1.00  0.00     0.000 A 
HETATM   17  C25 UNL     1      -2.261  -2.904   2.307  1.00  0.00     0.001 A 
HETATM   18  C26 UNL     1      -1.949  -2.115   1.204  1.00  0.00     0.009 A 
ENDBRANCH   6  13
ENDBRANCH   4   6
BRANCH   3  19
HETATM   19  C8  UNL     1       0.141   2.768  -0.662  1.00  0.00    -0.009 A 
HETATM   20  C9  UNL     1      -1.092   3.143  -1.070  1.00  0.00     0.014 A 
HETATM   21  C10 UNL     1      -1.386   4.475  -1.321  1.00  0.00     0.001 A 
HETATM   22  C11 UNL     1      -0.437   5.446  -1.164  1.00  0.00     0.000 A 
HETATM   23  C12 UNL     1       0.832   5.119  -0.754  1.00  0.00     0.001 A 
HETATM   24  C13 UNL     1       1.081   3.794  -0.515  1.00  0.00     0.014 A 
ENDBRANCH   3  19
BRANCH   1  25
HETATM   25  C4  UNL     1       3.285  -0.966   0.492  1.00  0.00    -0.025 A 
HETATM   26  C3  UNL     1       4.398  -0.649  -0.248  1.00  0.00     0.012 A 
HETATM   27  C2  UNL     1       5.609  -1.310  -0.059  1.00  0.00     0.001 A 
HETATM   28  C1  UNL     1       5.728  -2.308   0.882  1.00  0.00     0.000 A 
HETATM   29  C29 UNL     1       4.605  -2.627   1.627  1.00  0.00     0.001 A 
HETATM   30  C28 UNL     1       3.390  -1.963   1.436  1.00  0.00     0.012 A 
ENDBRANCH   1  25
TORSDOF 5
