REMARK  6 active torsions:
REMARK  status: ('A' for Active; 'I' for Inactive)
REMARK    1  A    between atoms: N1_1  and  C1_4 
REMARK    2  A    between atoms: C2_9  and  C3_10 
REMARK    3  A    between atoms: C3_10  and  C4_11 
REMARK    4  A    between atoms: C4_11  and  C5_12 
REMARK    5  A    between atoms: C5_12  and  N4_13 
REMARK    6  A    between atoms: N5_17  and  N6_18 
ROOT
HETATM    1  C1  UNL     1      -2.378   0.910  -0.143  1.00  0.00     0.712 A 
HETATM    2  N2  UNL     1      -1.644   1.410   0.875  1.00  0.00    -0.129 N 
ATOM      3  H2  UNL     1      -1.895   2.190   1.483  1.00  0.00     0.205 HD
HETATM    4  N3  UNL     1      -0.543   0.695   0.929  1.00  0.00    -0.273 N 
ATOM      5  H3  UNL     1       0.208   0.841   1.603  1.00  0.00     0.189 HD
HETATM    6  C2  UNL     1      -0.538  -0.247  -0.015  1.00  0.00     0.136 A 
HETATM    7  N5  UNL     1      -1.724  -0.109  -0.708  1.00  0.00    -0.078 N 
ENDROOT
BRANCH   6   8
HETATM    8  C3  UNL     1       0.440  -1.284  -0.372  1.00  0.00     0.082 C 
BRANCH   8   9
HETATM    9  C4  UNL     1       1.731  -1.198   0.325  1.00  0.00     0.035 C 
BRANCH   9  10
HETATM   10  C5  UNL     1       2.640  -0.069   0.083  1.00  0.00     0.230 C 
BRANCH  10  11
HETATM   11  N4  UNL     1       2.225   1.243   0.371  1.00  0.00    -0.079 N 
ATOM     12  H43 UNL     1       1.351   1.421  -0.124  1.00  0.00     0.274 HD
ATOM     13  H42 UNL     1       1.919   1.278   1.343  1.00  0.00     0.274 HD
ATOM     14  H41 UNL     1       2.856   2.027   0.203  1.00  0.00     0.274 HD
ENDBRANCH  10  11
ENDBRANCH   9  10
ENDBRANCH   8   9
ENDBRANCH   6   8
BRANCH   7  15
HETATM   15  N6  UNL     1      -2.160  -0.875  -1.784  1.00  0.00    -0.323 N 
ATOM     16  H62 UNL     1      -3.036  -0.773  -2.296  1.00  0.00     0.178 HD
ATOM     17  H61 UNL     1      -1.661  -1.653  -2.215  1.00  0.00     0.178 HD
ENDBRANCH   7  15
BRANCH   1  18
HETATM   18  N1  UNL     1      -3.544   1.369  -0.499  1.00  0.00    -0.232 N 
ATOM     19  H12 UNL     1      -4.043   2.147  -0.068  1.00  0.00     0.174 HD
ATOM     20  H11 UNL     1      -4.098   0.991  -1.268  1.00  0.00     0.174 HD
ENDBRANCH   1  18
TORSDOF 6
