REMARK  6 active torsions:
REMARK  status: ('A' for Active; 'I' for Inactive)
REMARK    1  A    between atoms: C4_4  and  C5_5 
REMARK    2  A    between atoms: C5_5  and  N1_6 
REMARK    3  A    between atoms: N1_6  and  C6_8 
REMARK    4  A    between atoms: C6_8  and  C7_9 
REMARK    5  A    between atoms: C7_9  and  N2_10 
REMARK    6  A    between atoms: N2_10  and  C8_13 
ROOT
HETATM    1  C6  UNL     1      -0.476  -1.110   0.020  1.00  0.00     0.053 C 
HETATM    2  C11 UNL     1      -0.413  -1.679  -1.324  1.00  0.00     0.033 C 
HETATM    3  C12 UNL     1      -1.224  -2.975  -1.272  1.00  0.00     0.002 C 
HETATM    4  C13 UNL     1      -1.626  -3.166   0.166  1.00  0.00     0.002 C 
HETATM    5  C14 UNL     1      -0.660  -2.342   0.936  1.00  0.00     0.033 C 
ENDROOT
BRANCH   1   6
HETATM    6  N1  UNL     1       0.573  -0.345   0.539  1.00  0.00    -0.388 N 
ATOM      7  H1  UNL     1       0.368   0.397   1.208  1.00  0.00     0.159 HD
BRANCH   6   8
HETATM    8  C5  UNL     1       1.902  -0.579   0.157  1.00  0.00     0.084 C 
BRANCH   8   9
HETATM    9  C4  UNL     1       2.813   0.240   0.996  1.00  0.00     0.019 C 
HETATM   10  C2  UNL     1       3.633   1.145   0.565  1.00  0.00    -0.086 C 
HETATM   11  C1  UNL     1       3.742   1.466  -0.872  1.00  0.00     0.043 C 
HETATM   12  C3  UNL     1       4.508   1.873   1.515  1.00  0.00     0.043 C 
ENDBRANCH   8   9
ENDBRANCH   6   8
ENDBRANCH   1   6
BRANCH   1  13
HETATM   13  C7  UNL     1      -1.775  -0.345   0.161  1.00  0.00     0.263 C 
BRANCH  13  14
HETATM   14  N2  UNL     1      -1.778   0.920  -0.537  1.00  0.00    -0.069 N 
ATOM     15  H22 UNL     1      -1.013   1.540  -0.271  1.00  0.00     0.277 HD
ATOM     16  H21 UNL     1      -1.532   0.847  -1.524  1.00  0.00     0.277 HD
BRANCH  14  17
HETATM   17  C8  UNL     1      -3.114   1.487  -0.297  1.00  0.00     0.186 A 
HETATM   18  C9  UNL     1      -3.447   2.817  -0.911  1.00  0.00     0.035 A 
HETATM   19  C10 UNL     1      -3.291   2.667   0.564  1.00  0.00     0.035 A 
ENDBRANCH  14  17
ENDBRANCH  13  14
ENDBRANCH   1  13
TORSDOF 6
