REMARK  11 active torsions:
REMARK  status: ('A' for Active; 'I' for Inactive)
REMARK    1  A    between atoms: O1_2  and  C2_3 
REMARK    2  A    between atoms: C4_5  and  C5_6 
REMARK    3  A    between atoms: C10_15  and  C11_16 
REMARK    4  A    between atoms: C11_16  and  S1_17 
REMARK    5  A    between atoms: S1_17  and  C12_18 
REMARK    6  A    between atoms: C14_23  and  C15_24 
REMARK    7  A    between atoms: C16_26  and  C17_27 
REMARK    8  A    between atoms: C17_27  and  O4_28 
REMARK    9  A    between atoms: C18_30  and  O5_31 
REMARK   10  A    between atoms: C19_33  and  O6_34 
REMARK   11  A    between atoms: C20_36  and  O7_37 
ROOT
HETATM    1  C12 UNL     1       1.035   1.463   0.333  1.00  0.00     0.075 C 
HETATM    2  C13 UNL     1       2.004   2.564   0.667  1.00  0.00     0.247 C 
HETATM    3  N2  UNL     1       3.338   2.060   0.427  1.00  0.00    -0.067 N 
ATOM      4  H21 UNL     1       3.874   1.904   1.281  1.00  0.00     0.277 HD
ATOM      5  H22 UNL     1       3.965   2.749   0.012  1.00  0.00     0.277 HD
HETATM    6  C14 UNL     1       3.175   0.866  -0.381  1.00  0.00     0.218 C 
HETATM    7  C21 UNL     1       1.940   0.253   0.246  1.00  0.00     0.052 C 
ENDROOT
BRANCH   1   8
HETATM    8  S1  UNL     1      -0.246   1.272   1.584  1.00  0.00    -0.160 SA
BRANCH   8   9
HETATM    9  C11 UNL     1      -1.406  -0.027   1.216  1.00  0.00     0.109 C 
BRANCH   9  10
HETATM   10  C10 UNL     1      -2.275   0.180   0.032  1.00  0.00     0.160 C 
HETATM   11  C2  UNL     1      -3.171   1.382   0.074  1.00  0.00     0.153 C 
HETATM   12  C3  UNL     1      -4.082   1.042  -1.131  1.00  0.00     0.068 C 
HETATM   13  C4  UNL     1      -4.118  -0.443  -1.055  1.00  0.00     0.155 C 
HETATM   14  O2  UNL     1      -3.203  -0.853  -0.095  1.00  0.00    -0.375 OA
BRANCH  11  15
HETATM   15  O1  UNL     1      -2.583   2.578  -0.244  1.00  0.00    -0.388 OA
HETATM   16  C1  UNL     1      -2.983   3.544   0.676  1.00  0.00     0.202 C 
ENDBRANCH  11  15
BRANCH  13  17
HETATM   17  C5  UNL     1      -5.490  -1.026  -0.831  1.00  0.00     0.214 C 
HETATM   18  C6  UNL     1      -5.387  -2.533  -0.890  1.00  0.00     0.036 C 
HETATM   19  C7  UNL     1      -6.454  -3.098   0.024  1.00  0.00     0.004 C 
HETATM   20  C8  UNL     1      -7.716  -2.280  -0.170  1.00  0.00     0.027 C 
HETATM   21  C9  UNL     1      -7.501  -0.867   0.335  1.00  0.00     0.233 C 
HETATM   22  N1  UNL     1      -6.062  -0.667   0.430  1.00  0.00    -0.069 N 
ATOM     23  H12 UNL     1      -5.643  -1.168   1.213  1.00  0.00     0.277 HD
ATOM     24  H11 UNL     1      -5.811   0.277   0.725  1.00  0.00     0.277 HD
ENDBRANCH  13  17
ENDBRANCH   9  10
ENDBRANCH   8   9
ENDBRANCH   1   8
BRANCH   6  25
HETATM   25  C15 UNL     1       4.367  -0.044  -0.308  1.00  0.00     0.184 C 
HETATM   26  O3  UNL     1       4.580  -0.451   0.993  1.00  0.00    -0.371 OA
HETATM   27  C16 UNL     1       5.717  -1.200   1.166  1.00  0.00     0.177 C 
HETATM   28  C18 UNL     1       6.977  -0.529   0.690  1.00  0.00     0.180 C 
HETATM   29  C19 UNL     1       6.624   0.876   0.247  1.00  0.00     0.180 C 
HETATM   30  C20 UNL     1       5.561   0.716  -0.848  1.00  0.00     0.180 C 
BRANCH  27  31
HETATM   31  C17 UNL     1       5.656  -2.566   0.558  1.00  0.00     0.198 C 
BRANCH  31  32
HETATM   32  O4  UNL     1       4.643  -3.358   1.065  1.00  0.00    -0.398 OA
ATOM     33  H4  UNL     1       4.604  -4.225   0.679  1.00  0.00     0.209 HD
ENDBRANCH  31  32
ENDBRANCH  27  31
BRANCH  28  34
HETATM   34  O5  UNL     1       7.990  -0.552   1.635  1.00  0.00    -0.390 OA
ATOM     35  H5  UNL     1       8.785  -0.128   1.334  1.00  0.00     0.210 HD
ENDBRANCH  28  34
BRANCH  29  36
HETATM   36  O6  UNL     1       7.704   1.521  -0.353  1.00  0.00    -0.390 OA
ATOM     37  H6  UNL     1       7.483   2.402  -0.631  1.00  0.00     0.210 HD
ENDBRANCH  29  36
BRANCH  30  38
HETATM   38  O7  UNL     1       6.116   0.085  -1.957  1.00  0.00    -0.390 OA
ATOM     39  H7  UNL     1       6.865   0.562  -2.296  1.00  0.00     0.210 HD
ENDBRANCH  30  38
ENDBRANCH   6  25
TORSDOF 11
