REMARK  2 active torsions:
REMARK  status: ('A' for Active; 'I' for Inactive)
REMARK       I    between atoms: N2_8  and  C5_9 
REMARK       I    between atoms: C5_9  and  N3_11 
REMARK    1  A    between atoms: N3_11  and  C6_13 
REMARK    2  A    between atoms: C8_22  and  N7_23 
ROOT
HETATM    1  C1  UNL     1      -4.024  -0.402  -0.941  1.00  0.00     0.048 C 
HETATM    2  C2  UNL     1      -3.089   0.441  -0.105  1.00  0.00     0.107 C 
HETATM    3  C3  UNL     1      -3.785   1.599   0.555  1.00  0.00     0.048 C 
HETATM    4  N1  UNL     1      -2.462  -0.395   0.922  1.00  0.00    -0.349 N 
ATOM      5  H1  UNL     1      -2.886  -0.686   1.803  1.00  0.00     0.163 HD
HETATM    6  C4  UNL     1      -1.149  -0.730   0.466  1.00  0.00     0.186 C 
HETATM    7  S1  UNL     1      -0.154  -1.879   1.113  1.00  0.00    -0.040 SA
HETATM    8  N2  UNL     1      -0.803   0.076  -0.647  1.00  0.00    -0.206 N 
HETATM    9  C5  UNL     1       0.415   0.040  -1.375  1.00  0.00     0.337 C 
HETATM   10  O1  UNL     1       0.618   0.803  -2.353  1.00  0.00    -0.246 OA
HETATM   11  N3  UNL     1       1.444  -0.865  -1.017  1.00  0.00    -0.290 N 
ATOM     12  H3  UNL     1       1.298  -1.867  -1.137  1.00  0.00     0.172 HD
HETATM   13  C9  UNL     1      -1.935   0.937  -0.889  1.00  0.00     0.262 C 
HETATM   14  O4  UNL     1      -1.890   1.933  -1.654  1.00  0.00    -0.270 OA
ENDROOT
BRANCH  11  15
HETATM   15  C6  UNL     1       2.559  -0.437  -0.543  1.00  0.00     0.164 A 
HETATM   16  N4  UNL     1       2.842   0.855  -0.350  1.00  0.00    -0.315 N 
HETATM   17  C7  UNL     1       4.015   1.288   0.146  1.00  0.00     0.192 A 
ATOM     18  H4  UNL     1       2.133   1.547  -0.591  1.00  0.00     0.170 HD
HETATM   19  S2  UNL     1       4.343   2.881   0.375  1.00  0.00    -0.039 SA
HETATM   20  N5  UNL     1       4.938   0.344   0.457  1.00  0.00    -0.274 N 
HETATM   21  N6  UNL     1       4.699  -0.940   0.282  1.00  0.00    -0.275 N 
ATOM     22  H5  UNL     1       5.839   0.635   0.836  1.00  0.00     0.189 HD
HETATM   23  C8  UNL     1       3.528  -1.392  -0.214  1.00  0.00     0.233 A 
ATOM     24  H6  UNL     1       5.423  -1.615   0.530  1.00  0.00     0.189 HD
BRANCH  23  25
HETATM   25  N7  UNL     1       3.270  -2.772  -0.402  1.00  0.00    -0.092 N 
HETATM   26  O2  UNL     1       3.854  -3.596   0.317  1.00  0.00    -0.530 OA
HETATM   27  O3  UNL     1       2.393  -3.199  -1.359  1.00  0.00    -0.530 OA
ENDBRANCH  23  25
ENDBRANCH  11  15
TORSDOF 2
