REMARK  0 active torsions:
REMARK  status: ('A' for Active; 'I' for Inactive)
ROOT
HETATM    1  C1  UNL     1       0.137  -2.284   0.330  1.00  0.00     0.000 C 
HETATM    2  C2  UNL     1      -1.133  -1.713  -0.303  1.00  0.00     0.000 C 
HETATM    3  C3  UNL     1      -1.904  -0.851   0.641  1.00  0.00     0.001 C 
HETATM    4  C4  UNL     1      -2.607   0.297   0.020  1.00  0.00     0.017 C 
HETATM    5  C5  UNL     1      -1.759   1.449  -0.368  1.00  0.00     0.130 C 
HETATM    6  N1  UNL     1      -0.357   1.199  -0.415  1.00  0.00    -0.149 NA
HETATM    7  N2  UNL     1       0.377   2.306   0.029  1.00  0.00    -0.149 NA
HETATM    8  C6  UNL     1       1.768   2.017   0.203  1.00  0.00     0.130 C 
HETATM    9  C7  UNL     1       2.185   0.671  -0.310  1.00  0.00     0.017 C 
HETATM   10  C8  UNL     1       1.824  -0.452   0.661  1.00  0.00     0.001 C 
HETATM   11  C9  UNL     1       1.374  -1.618  -0.168  1.00  0.00     0.000 C 
ENDROOT
TORSDOF 0
