REMARK  10 active torsions:
REMARK  status: ('A' for Active; 'I' for Inactive)
REMARK    1  A    between atoms: C4_4  and  C5_5 
REMARK    2  A    between atoms: C5_5  and  C7_7 
REMARK    3  A    between atoms: C7_7  and  C8_9 
REMARK    4  A    between atoms: C9_10  and  C10_11 
REMARK    5  A    between atoms: C11_12  and  C12_13 
REMARK    6  A    between atoms: C14_15  and  C15_16 
REMARK    7  A    between atoms: C15_16  and  O2_17 
REMARK    8  A    between atoms: C15_16  and  O3_19 
REMARK    9  A    between atoms: C16_21  and  N1_22 
REMARK   10  A    between atoms: C21_33  and  O4_34 
ROOT
HETATM    1  C8  UNL     1      -0.593  -1.351  -0.111  1.00  0.00     0.057 A 
HETATM    2  C9  UNL     1       0.406  -0.757  -0.931  1.00  0.00     0.011 A 
HETATM    3  C16 UNL     1       0.561  -1.199  -2.245  1.00  0.00     0.086 A 
HETATM    4  C17 UNL     1      -0.262  -2.215  -2.762  1.00  0.00     0.074 A 
HETATM    5  N3  UNL     1      -0.305  -2.812  -3.989  1.00  0.00    -0.363 N 
ATOM      6  H3  UNL     1       0.297  -2.589  -4.782  1.00  0.00     0.165 HD
HETATM    7  C18 UNL     1      -1.274  -3.743  -3.977  1.00  0.00     0.089 A 
HETATM    8  C19 UNL     1      -1.859  -3.738  -2.715  1.00  0.00     0.034 A 
HETATM    9  C20 UNL     1      -1.203  -2.758  -1.953  1.00  0.00     0.028 A 
HETATM   10  C21 UNL     1      -1.379  -2.349  -0.644  1.00  0.00     0.093 A 
ENDROOT
BRANCH   2  11
HETATM   11  C10 UNL     1       1.289   0.183  -0.316  1.00  0.00     0.015 C 
HETATM   12  C11 UNL     1       1.985   1.205  -0.423  1.00  0.00     0.007 C 
BRANCH  12  13
HETATM   13  C12 UNL     1       2.378   2.208  -1.329  1.00  0.00    -0.061 C 
HETATM   14  C13 UNL     1       1.893   2.496  -2.692  1.00  0.00     0.048 C 
HETATM   15  C14 UNL     1       3.276   3.134  -0.858  1.00  0.00     0.039 C 
BRANCH  15  16
HETATM   16  C15 UNL     1       3.774   4.235  -1.694  1.00  0.00     0.278 C 
BRANCH  16  17
HETATM   17  O2  UNL     1       4.450   3.698  -2.783  1.00  0.00    -0.368 OA
ATOM     18  H2  UNL     1       4.772   4.410  -3.323  1.00  0.00     0.213 HD
ENDBRANCH  16  17
BRANCH  16  19
HETATM   19  O3  UNL     1       4.687   5.004  -0.933  1.00  0.00    -0.368 OA
ATOM     20  H3  UNL     1       5.009   5.716  -1.473  1.00  0.00     0.213 HD
ENDBRANCH  16  19
ENDBRANCH  15  16
ENDBRANCH  12  13
ENDBRANCH   2  11
BRANCH   1  21
HETATM   21  C7  UNL     1      -0.828  -0.864   1.212  1.00  0.00     0.170 C 
HETATM   22  O1  UNL     1      -0.125   0.033   1.736  1.00  0.00    -0.291 OA
BRANCH  21  23
HETATM   23  C5  UNL     1      -1.913  -1.309   2.155  1.00  0.00     0.079 C 
HETATM   24  C6  UNL     1      -3.123  -0.486   1.735  1.00  0.00     0.022 C 
BRANCH  23  25
HETATM   25  C4  UNL     1      -1.519  -0.890   3.523  1.00  0.00    -0.013 C 
HETATM   26  C2  UNL     1      -1.996  -0.170   4.459  1.00  0.00    -0.091 C 
HETATM   27  C1  UNL     1      -3.239   0.613   4.584  1.00  0.00     0.042 C 
HETATM   28  C3  UNL     1      -1.116  -0.102   5.725  1.00  0.00     0.042 C 
ENDBRANCH  23  25
ENDBRANCH  21  23
ENDBRANCH   1  21
BRANCH   3  29
HETATM   29  N1  UNL     1       1.547  -0.763  -3.091  1.00  0.00    -0.304 N 
HETATM   30  N2  UNL     1       2.421  -1.317  -3.729  1.00  0.00    -0.345 N 
ATOM     31  H22 UNL     1       2.402  -2.328  -3.593  1.00  0.00     0.176 HD
ATOM     32  H21 UNL     1       3.155  -0.992  -4.359  1.00  0.00     0.176 HD
ATOM     33  H1  UNL     1       1.548   0.250  -3.212  1.00  0.00     0.186 HD
ENDBRANCH   3  29
BRANCH  10  34
HETATM   34  O4  UNL     1      -2.326  -2.970   0.103  1.00  0.00    -0.359 OA
ATOM     35  H4  UNL     1      -2.868  -3.658  -0.265  1.00  0.00     0.217 HD
ENDBRANCH  10  34
TORSDOF 10
