REMARK  8 active torsions:
REMARK  status: ('A' for Active; 'I' for Inactive)
REMARK    1  A    between atoms: N2_4  and  C3_6 
REMARK    2  A    between atoms: C3_6  and  C4_7 
REMARK    3  A    between atoms: C4_7  and  C5_8 
REMARK    4  A    between atoms: C5_8  and  C6_9 
REMARK    5  A    between atoms: C6_9  and  C7_10 
REMARK    6  A    between atoms: C10_17  and  C11_18 
REMARK    7  A    between atoms: C17_27  and  C18_28 
REMARK    8  A    between atoms: C18_28  and  N6_29 
ROOT
HETATM    1  C1  UNL     1      -2.501   2.114  -1.980  1.00  0.00     0.131 C 
HETATM    2  N1  UNL     1      -2.822   1.006  -1.415  1.00  0.00    -0.303 N 
HETATM    3  C2  UNL     1      -1.923  -0.022  -1.624  1.00  0.00     0.110 A 
HETATM    4  N2  UNL     1      -0.889   0.192  -2.330  1.00  0.00    -0.376 N 
ATOM      5  H2  UNL     1      -0.798   1.138  -2.701  1.00  0.00     0.161 HD
HETATM    6  C14 UNL     1      -2.171  -1.238  -1.067  1.00  0.00     0.073 A 
HETATM    7  C15 UNL     1      -3.326  -1.417  -0.298  1.00  0.00     0.010 A 
HETATM    8  C16 UNL     1      -3.585  -2.750   0.304  1.00  0.00     0.068 C 
HETATM    9  N5  UNL     1      -4.143  -0.385  -0.141  1.00  0.00    -0.345 N 
ATOM     10  H5  UNL     1      -4.984  -0.521   0.420  1.00  0.00     0.167 HD
HETATM   11  C17 UNL     1      -3.928   0.850  -0.684  1.00  0.00     0.128 A 
ENDROOT
BRANCH   4  12
HETATM   12  C3  UNL     1       0.154  -0.701  -2.672  1.00  0.00     0.121 C 
BRANCH  12  13
HETATM   13  C4  UNL     1       1.445  -0.426  -1.916  1.00  0.00     0.020 C 
BRANCH  13  14
HETATM   14  C5  UNL     1       1.241  -0.552  -0.428  1.00  0.00     0.005 C 
BRANCH  14  15
HETATM   15  C6  UNL     1       2.519  -0.273   0.332  1.00  0.00     0.029 C 
BRANCH  15  16
HETATM   16  C7  UNL     1       3.597  -1.197  -0.031  1.00  0.00     0.008 C 
HETATM   17  C8  UNL     1       4.802  -1.001   0.475  1.00  0.00     0.096 A 
HETATM   18  N3  UNL     1       5.910  -1.762   0.243  1.00  0.00    -0.297 N 
HETATM   19  C13 UNL     1       5.239  -0.017   1.336  1.00  0.00     0.227 A 
HETATM   20  N4  UNL     1       6.942  -1.279   0.910  1.00  0.00    -0.297 N 
ATOM     21  H3  UNL     1       5.937  -2.585  -0.359  1.00  0.00     0.187 HD
HETATM   22  C9  UNL     1       6.582  -0.191   1.610  1.00  0.00     0.096 A 
ATOM     23  H4  UNL     1       7.881  -1.677   0.896  1.00  0.00     0.187 HD
HETATM   24  C10 UNL     1       7.330   0.560   2.391  1.00  0.00     0.008 C 
HETATM   25  O1  UNL     1       4.525   0.921   1.819  1.00  0.00    -0.283 OA
BRANCH  24  26
HETATM   26  C11 UNL     1       8.762   0.219   2.566  1.00  0.00     0.025 C 
HETATM   27  C12 UNL     1       9.563   1.014   1.554  1.00  0.00     0.009 C 
ENDBRANCH  24  26
ENDBRANCH  15  16
ENDBRANCH  14  15
ENDBRANCH  13  14
ENDBRANCH  12  13
ENDBRANCH   4  12
BRANCH  11  28
HETATM   28  C18 UNL     1      -4.791   1.807  -0.474  1.00  0.00     0.146 C 
BRANCH  28  29
HETATM   29  N6  UNL     1      -5.969   1.554   0.333  1.00  0.00    -0.323 N 
HETATM   30  C19 UNL     1      -6.025   1.633   1.681  1.00  0.00     0.187 A 
HETATM   31  N7  UNL     1      -7.291   1.327   2.066  1.00  0.00    -0.354 N 
HETATM   32  C20 UNL     1      -8.035   1.056   0.967  1.00  0.00     0.022 A 
ATOM     33  H7  UNL     1      -7.628   1.305   3.029  1.00  0.00     0.166 HD
HETATM   34  C21 UNL     1      -9.478   0.680   1.005  1.00  0.00     0.069 C 
HETATM   35  C22 UNL     1      -7.190   1.204  -0.100  1.00  0.00     0.121 A 
ENDBRANCH  28  29
ENDBRANCH  11  28
TORSDOF 8
