REMARK  9 active torsions:
REMARK  status: ('A' for Active; 'I' for Inactive)
REMARK    1  A    between atoms: C2_2  and  C3_3 
REMARK    2  A    between atoms: C3_3  and  C4_4 
REMARK    3  A    between atoms: N1_6  and  C6_7 
REMARK    4  A    between atoms: C6_7  and  C7_8 
REMARK    5  A    between atoms: C8_9  and  C9_10 
REMARK    6  A    between atoms: C14_22  and  C15_23 
REMARK    7  A    between atoms: C17_25  and  O1_26 
REMARK    8  A    between atoms: C19_29  and  C20_30 
REMARK    9  A    between atoms: C22_32  and  O2_33 
ROOT
HETATM    1  C9  UNL     1       1.164  -1.247  -0.549  1.00  0.00    -0.031 A 
HETATM    2  C10 UNL     1       2.081  -2.075  -1.138  1.00  0.00     0.029 A 
HETATM    3  C11 UNL     1       3.429  -1.896  -0.877  1.00  0.00     0.102 A 
HETATM    4  N2  UNL     1       3.891  -0.937  -0.063  1.00  0.00    -0.284 N 
HETATM    5  C12 UNL     1       2.988  -0.111   0.525  1.00  0.00     0.153 A 
HETATM    6  C13 UNL     1       1.636  -0.249   0.297  1.00  0.00     0.064 A 
HETATM    7  N3  UNL     1       3.458   0.914   1.387  1.00  0.00    -0.185 N 
HETATM    8  N4  UNL     1       2.680   1.693   1.953  1.00  0.00    -0.322 N 
ATOM      9  H41 UNL     1       3.018   2.430   2.572  1.00  0.00     0.179 HD
ATOM     10  H42 UNL     1       1.681   1.582   1.780  1.00  0.00     0.179 HD
HETATM   11  N5  UNL     1       4.857   1.069   1.629  1.00  0.00    -0.278 N 
ATOM     12  H5  UNL     1       5.206   1.801   2.247  1.00  0.00     0.189 HD
HETATM   13  C14 UNL     1       5.746   0.171   0.981  1.00  0.00     0.078 A 
HETATM   14  C17 UNL     1       5.279  -0.778   0.181  1.00  0.00     0.172 A 
ENDROOT
BRANCH   1  15
HETATM   15  C8  UNL     1      -0.266  -1.341  -0.753  1.00  0.00     0.009 C 
HETATM   16  C7  UNL     1      -0.830  -2.243  -1.534  1.00  0.00    -0.006 C 
BRANCH  16  17
HETATM   17  C6  UNL     1      -2.297  -2.328  -1.734  1.00  0.00     0.155 C 
BRANCH  17  18
HETATM   18  N1  UNL     1      -2.948  -1.298  -0.961  1.00  0.00    -0.362 N 
HETATM   19  C5  UNL     1      -3.179  -0.086  -1.499  1.00  0.00     0.101 A 
HETATM   20  C4  UNL     1      -3.794   0.928  -0.810  1.00  0.00    -0.005 A 
HETATM   21  C22 UNL     1      -4.188   0.671   0.503  1.00  0.00     0.085 A 
HETATM   22  C19 UNL     1      -3.935  -0.599   1.039  1.00  0.00     0.012 A 
HETATM   23  C18 UNL     1      -3.317  -1.593   0.320  1.00  0.00     0.105 A 
BRANCH  20  24
HETATM   24  C3  UNL     1      -4.063   2.282  -1.394  1.00  0.00     0.069 C 
BRANCH  24  25
HETATM   25  C2  UNL     1      -5.470   2.451  -1.787  1.00  0.00    -0.032 C 
HETATM   26  C1  UNL     1      -6.227   3.394  -1.252  1.00  0.00     0.007 C 
ENDBRANCH  24  25
ENDBRANCH  20  24
BRANCH  21  27
HETATM   27  O2  UNL     1      -4.803   1.687   1.193  1.00  0.00    -0.359 OA
ATOM     28  H2  UNL     1      -5.071   1.512   2.087  1.00  0.00     0.217 HD
ENDBRANCH  21  27
BRANCH  22  29
HETATM   29  C20 UNL     1      -4.352  -0.852   2.411  1.00  0.00     0.005 C 
HETATM   30  C21 UNL     1      -4.308  -2.014   2.984  1.00  0.00     0.012 C 
ENDBRANCH  22  29
ENDBRANCH  17  18
ENDBRANCH  16  17
ENDBRANCH   1  15
BRANCH  14  31
HETATM   31  O1  UNL     1       6.197  -1.626  -0.424  1.00  0.00    -0.344 OA
ATOM     32  H1  UNL     1       7.127  -1.519  -0.261  1.00  0.00     0.219 HD
ENDBRANCH  14  31
BRANCH  13  33
HETATM   33  C15 UNL     1       7.212   0.285   1.196  1.00  0.00     0.059 C 
HETATM   34  C16 UNL     1       7.747   1.628   0.744  1.00  0.00     0.011 C 
ENDBRANCH  13  33
TORSDOF 9
