REMARK  8 active torsions:
REMARK  status: ('A' for Active; 'I' for Inactive)
REMARK    1  A    between atoms: C2_2  and  N1_3 
REMARK    2  A    between atoms: N1_3  and  C3_4 
REMARK       I    between atoms: N1_3  and  C5_6 
REMARK    3  A    between atoms: C5_6  and  C6_8 
REMARK    4  A    between atoms: C6_8  and  N2_9 
REMARK    5  A    between atoms: N2_9  and  C7_11 
REMARK    6  A    between atoms: C10_20  and  N6_21 
REMARK    7  A    between atoms: N6_21  and  C11_22 
REMARK    8  A    between atoms: N6_21  and  C13_24 
ROOT
HETATM    1  C7  UNL     1       0.835  -0.089   1.015  1.00  0.00     0.132 A 
HETATM    2  N3  UNL     1       1.041  -1.096   1.925  1.00  0.00    -0.283 N 
ATOM      3  H3  UNL     1       1.949  -1.371   2.300  1.00  0.00     0.188 HD
HETATM    4  N4  UNL     1      -0.109  -1.653   2.241  1.00  0.00    -0.283 N 
ATOM      5  H4  UNL     1      -0.241  -2.424   2.895  1.00  0.00     0.188 HD
HETATM    6  C8  UNL     1      -1.088  -1.022   1.544  1.00  0.00     0.137 A 
HETATM    7  N5  UNL     1      -2.407  -0.983   1.314  1.00  0.00    -0.337 N 
ATOM      8  H5  UNL     1      -3.079  -1.607   1.760  1.00  0.00     0.167 HD
HETATM    9  C9  UNL     1      -2.743  -0.038   0.438  1.00  0.00     0.083 A 
HETATM   10  C10 UNL     1      -3.963   0.373  -0.086  1.00  0.00     0.041 A 
HETATM   11  C15 UNL     1      -3.935   1.409  -0.967  1.00  0.00     0.043 A 
HETATM   12  C16 UNL     1      -2.726   1.990  -1.294  1.00  0.00     0.092 A 
HETATM   13  N7  UNL     1      -1.537   1.588  -0.785  1.00  0.00    -0.358 N 
HETATM   14  C17 UNL     1      -0.330   2.299  -1.224  1.00  0.00     0.156 C 
HETATM   15  C18 UNL     1      -1.542   0.585   0.073  1.00  0.00     0.080 A 
HETATM   16  C19 UNL     1      -0.502  -0.029   0.764  1.00  0.00     0.084 A 
ENDROOT
BRANCH   1  17
HETATM   17  N2  UNL     1       1.760   0.643   0.513  1.00  0.00    -0.366 N 
ATOM     18  H2  UNL     1       1.488   1.363  -0.156  1.00  0.00     0.161 HD
BRANCH  17  19
HETATM   19  C6  UNL     1       3.148   0.515   0.831  1.00  0.00     0.224 C 
BRANCH  19  20
HETATM   20  C5  UNL     1       3.801  -0.456  -0.079  1.00  0.00     0.237 C 
HETATM   21  N1  UNL     1       5.188  -0.757   0.039  1.00  0.00    -0.351 N 
HETATM   22  O1  UNL     1       3.109  -1.019  -0.965  1.00  0.00    -0.272 OA
BRANCH  21  23
HETATM   23  C2  UNL     1       5.790  -1.717  -0.870  1.00  0.00     0.121 C 
HETATM   24  C1  UNL     1       6.309  -1.030  -2.096  1.00  0.00     0.026 C 
ENDBRANCH  21  23
BRANCH  21  25
HETATM   25  C3  UNL     1       6.007  -0.135   1.032  1.00  0.00     0.121 C 
HETATM   26  C4  UNL     1       6.652   1.148   0.556  1.00  0.00     0.026 C 
ENDBRANCH  21  25
ENDBRANCH  19  20
ENDBRANCH  17  19
ENDBRANCH   1  17
BRANCH  10  27
HETATM   27  N6  UNL     1      -5.130  -0.332   0.310  1.00  0.00    -0.282 NA
BRANCH  27  28
HETATM   28  C11 UNL     1      -6.290   0.575   0.285  1.00  0.00     0.091 C 
HETATM   29  C12 UNL     1      -6.182   1.686   1.268  1.00  0.00     0.021 C 
ENDBRANCH  27  28
BRANCH  27  30
HETATM   30  C13 UNL     1      -5.469  -1.303  -0.748  1.00  0.00     0.091 C 
HETATM   31  C14 UNL     1      -4.428  -2.363  -0.942  1.00  0.00     0.021 C 
ENDBRANCH  27  30
ENDBRANCH  10  27
TORSDOF 8
