REMARK  14 active torsions:
REMARK  status: ('A' for Active; 'I' for Inactive)
REMARK    1  A    between atoms: N1_1  and  C1_4 
REMARK    2  A    between atoms: C2_7  and  C3_8 
REMARK    3  A    between atoms: C3_8  and  C4_9 
REMARK    4  A    between atoms: C4_9  and  C5_10 
REMARK    5  A    between atoms: C5_10  and  N3_11 
REMARK    6  A    between atoms: C9_15  and  C10_16 
REMARK    7  A    between atoms: C10_16  and  C11_17 
REMARK    8  A    between atoms: C12_18  and  C13_19 
REMARK    9  A    between atoms: C13_19  and  C14_20 
REMARK   10  A    between atoms: C14_20  and  C15_21 
REMARK   11  A    between atoms: C16_22  and  C17_23 
REMARK   12  A    between atoms: C17_23  and  C18_24 
REMARK   13  A    between atoms: C18_24  and  N4_25 
REMARK   14  A    between atoms: N6_32  and  N7_33 
ROOT
HETATM    1  N3  UNL     1      -3.204   1.653   1.131  1.00  0.00    -0.366 N 
HETATM    2  C6  UNL     1      -2.846   2.447   2.176  1.00  0.00     0.090 A 
HETATM    3  C7  UNL     1      -1.580   2.966   2.260  1.00  0.00     0.018 A 
HETATM    4  C8  UNL     1      -0.704   2.642   1.239  1.00  0.00     0.011 A 
HETATM    5  C9  UNL     1      -1.086   1.839   0.194  1.00  0.00    -0.032 A 
HETATM    6  C22 UNL     1      -2.372   1.331   0.138  1.00  0.00     0.098 A 
ENDROOT
BRANCH   1   7
HETATM    7  C5  UNL     1      -4.560   1.135   1.093  1.00  0.00     0.128 C 
BRANCH   7   8
HETATM    8  C4  UNL     1      -4.697  -0.193   1.804  1.00  0.00     0.028 C 
BRANCH   8   9
HETATM    9  C3  UNL     1      -6.102  -0.652   1.727  1.00  0.00     0.082 C 
BRANCH   9  10
HETATM   10  C2  UNL     1      -6.642  -0.971   0.414  1.00  0.00     0.137 A 
HETATM   11  N2  UNL     1      -7.988  -1.007   0.161  1.00  0.00    -0.176 N 
HETATM   12  C1  UNL     1      -8.188  -1.366  -1.094  1.00  0.00     0.693 A 
ATOM     13  H2  UNL     1      -8.721  -0.790   0.836  1.00  0.00     0.185 HD
HETATM   14  N8  UNL     1      -7.000  -1.570  -1.676  1.00  0.00    -0.110 N 
HETATM   15  N6  UNL     1      -6.072  -1.325  -0.740  1.00  0.00    -0.176 N 
ATOM     16  H8  UNL     1      -6.834  -1.855  -2.641  1.00  0.00     0.208 HD
BRANCH  12  17
HETATM   17  N1  UNL     1      -9.323  -1.517  -1.726  1.00  0.00    -0.233 N 
ATOM     18  H12 UNL     1     -10.228  -1.362  -1.283  1.00  0.00     0.174 HD
ATOM     19  H11 UNL     1      -9.477  -1.794  -2.695  1.00  0.00     0.174 HD
ENDBRANCH  12  17
BRANCH  15  20
HETATM   20  N7  UNL     1      -4.716  -1.481  -1.018  1.00  0.00    -0.322 N 
ATOM     21  H72 UNL     1      -4.010  -1.295  -0.306  1.00  0.00     0.179 HD
ATOM     22  H71 UNL     1      -4.280  -1.751  -1.900  1.00  0.00     0.179 HD
ENDBRANCH  15  20
ENDBRANCH   9  10
ENDBRANCH   8   9
ENDBRANCH   7   8
ENDBRANCH   1   7
BRANCH   5  23
HETATM   23  C10 UNL     1      -0.106   1.526  -0.870  1.00  0.00     0.133 C 
BRANCH  23  24
HETATM   24  C11 UNL     1       0.658   0.300  -0.549  1.00  0.00    -0.102 C 
HETATM   25  C12 UNL     1       1.282  -0.703  -0.294  1.00  0.00    -0.105 C 
BRANCH  25  26
HETATM   26  C13 UNL     1       2.040  -1.910   0.016  1.00  0.00     0.106 C 
BRANCH  26  27
HETATM   27  C14 UNL     1       3.356  -1.592   0.713  1.00  0.00     0.106 C 
BRANCH  27  28
HETATM   28  C15 UNL     1       4.188  -0.749  -0.142  1.00  0.00    -0.106 C 
HETATM   29  C16 UNL     1       4.877  -0.039  -0.853  1.00  0.00    -0.105 C 
BRANCH  29  30
HETATM   30  C17 UNL     1       5.683   0.811  -1.723  1.00  0.00     0.115 C 
BRANCH  30  31
HETATM   31  C18 UNL     1       6.888   1.308  -0.977  1.00  0.00     0.160 C 
BRANCH  31  32
HETATM   32  N4  UNL     1       7.700   0.200  -0.531  1.00  0.00    -0.303 N 
HETATM   33  C19 UNL     1       7.567  -0.423   0.650  1.00  0.00     0.111 A 
HETATM   34  C20 UNL     1       8.527  -1.439   0.713  1.00  0.00     0.037 A 
HETATM   35  C21 UNL     1       9.207  -1.365  -0.477  1.00  0.00     0.108 A 
HETATM   36  N5  UNL     1       8.680  -0.364  -1.204  1.00  0.00    -0.310 N 
ATOM     37  H5  UNL     1       8.992  -0.085  -2.134  1.00  0.00     0.186 HD
ENDBRANCH  31  32
ENDBRANCH  30  31
ENDBRANCH  29  30
ENDBRANCH  27  28
ENDBRANCH  26  27
ENDBRANCH  25  26
ENDBRANCH  23  24
ENDBRANCH   5  23
TORSDOF 14
