REMARK  8 active torsions:
REMARK  status: ('A' for Active; 'I' for Inactive)
REMARK    1  A    between atoms: C2_2  and  N1_3 
REMARK    2  A    between atoms: C3_5  and  C4_7 
REMARK    3  A    between atoms: C4_7  and  N3_8 
REMARK    4  A    between atoms: N3_8  and  C7_11 
REMARK    5  A    between atoms: C7_11  and  C8_12 
REMARK    6  A    between atoms: C8_12  and  N4_13 
REMARK    7  A    between atoms: C15_21  and  O1_22 
REMARK    8  A    between atoms: C16_24  and  O2_25 
ROOT
HETATM    1  N4  UNL     1      -1.000   0.649   0.162  1.00  0.00    -0.036 N 
HETATM    2  C9  UNL     1      -0.318   1.695  -0.619  1.00  0.00     0.275 C 
HETATM    3  C10 UNL     1      -0.909   0.928   1.579  1.00  0.00     0.267 C 
HETATM    4  C11 UNL     1      -2.312   0.724   2.109  1.00  0.00     0.267 C 
HETATM    5  N5  UNL     1      -3.093   1.132   0.929  1.00  0.00    -0.037 N 
HETATM    6  C12 UNL     1      -3.031   2.605   0.962  1.00  0.00     0.275 C 
HETATM    7  C13 UNL     1      -4.462   0.802   1.041  1.00  0.00     0.242 C 
HETATM    8  C14 UNL     1      -4.931  -0.471   0.449  1.00  0.00     0.062 C 
HETATM    9  C15 UNL     1      -4.371  -0.530  -0.980  1.00  0.00     0.152 C 
HETATM   10  C16 UNL     1      -2.858  -0.681  -0.746  1.00  0.00     0.206 C 
HETATM   11  C17 UNL     1      -2.381   0.637  -0.203  1.00  0.00     0.421 C 
ENDROOT
BRANCH   1  12
HETATM   12  C8  UNL     1      -0.286  -0.568  -0.083  1.00  0.00     0.267 C 
BRANCH  12  13
HETATM   13  C7  UNL     1       1.206  -0.335  -0.170  1.00  0.00     0.265 C 
BRANCH  13  14
HETATM   14  N3  UNL     1       1.958  -1.537  -0.415  1.00  0.00    -0.067 N 
HETATM   15  C5  UNL     1       1.121  -2.673  -0.741  1.00  0.00     0.272 C 
HETATM   16  C6  UNL     1       2.758  -1.904   0.738  1.00  0.00     0.272 C 
BRANCH  14  17
HETATM   17  C4  UNL     1       2.867  -1.397  -1.539  1.00  0.00     0.308 C 
BRANCH  17  18
HETATM   18  C3  UNL     1       3.894  -0.368  -1.369  1.00  0.00     0.115 C 
HETATM   19  N1  UNL     1       3.945   0.328  -0.297  1.00  0.00    -0.381 N 
ATOM     20  H1  UNL     1       3.251   0.141   0.427  1.00  0.00     0.160 HD
HETATM   21  N2  UNL     1       4.845  -0.127  -2.388  1.00  0.00    -0.086 NA
BRANCH  19  22
HETATM   22  C2  UNL     1       4.922   1.362  -0.045  1.00  0.00     0.116 C 
HETATM   23  C1  UNL     1       5.541   1.256   1.329  1.00  0.00     0.026 C 
ENDBRANCH  19  22
ENDBRANCH  17  18
ENDBRANCH  14  17
ENDBRANCH  13  14
ENDBRANCH  12  13
ENDBRANCH   1  12
BRANCH  10  24
HETATM   24  O2  UNL     1      -2.723  -1.744   0.111  1.00  0.00    -0.389 OA
ATOM     25  H2  UNL     1      -1.789  -1.837   0.255  1.00  0.00     0.210 HD
ENDBRANCH  10  24
BRANCH   9  26
HETATM   26  O1  UNL     1      -4.893  -1.596  -1.671  1.00  0.00    -0.393 OA
ATOM     27  H1  UNL     1      -4.547  -1.632  -2.555  1.00  0.00     0.210 HD
ENDBRANCH   9  26
TORSDOF 8
