REMARK  2 active torsions:
REMARK  status: ('A' for Active; 'I' for Inactive)
REMARK    1  A    between atoms: C2_2  and  C3_3 
REMARK    2  A    between atoms: C12_17  and  O1_18 
ROOT
HETATM    1  C3  UNL     1       2.199  -0.731   0.692  1.00  0.00     0.152 C 
HETATM    2  N1  UNL     1       1.698   0.593   0.901  1.00  0.00    -0.371 N 
ATOM      3  H1  UNL     1       2.223   1.147   1.577  1.00  0.00     0.161 HD
HETATM    4  C4  UNL     1       0.590   1.259   0.320  1.00  0.00     0.081 A 
HETATM    5  S1  UNL     1       0.478   2.947   0.124  1.00  0.00    -0.056 SA
HETATM    6  C5  UNL     1      -1.052   3.035  -0.618  1.00  0.00     0.110 A 
HETATM    7  N2  UNL     1      -1.710   4.227  -1.036  1.00  0.00    -0.093 NA
HETATM    8  C6  UNL     1      -1.443   1.729  -0.695  1.00  0.00     0.085 A 
HETATM    9  C7  UNL     1      -2.753   1.439  -1.307  1.00  0.00     0.102 C 
HETATM   10  N3  UNL     1      -3.789   1.199  -1.809  1.00  0.00    -0.191 NA
HETATM   11  C8  UNL     1      -0.591   0.787  -0.205  1.00  0.00     0.010 A 
HETATM   12  C9  UNL     1      -0.985  -0.651  -0.259  1.00  0.00     0.091 C 
HETATM   13  C10 UNL     1      -1.726  -1.078   0.964  1.00  0.00    -0.024 C 
HETATM   14  C11 UNL     1      -2.423  -0.375   1.830  1.00  0.00     0.020 C 
HETATM   15  C12 UNL     1      -1.460  -2.569   0.966  1.00  0.00     0.288 C 
HETATM   16  O2  UNL     1      -0.105  -2.560   0.691  1.00  0.00    -0.345 OA
HETATM   17  C13 UNL     1       0.024  -1.666  -0.368  1.00  0.00     0.185 C 
HETATM   18  C14 UNL     1       1.449  -1.267  -0.487  1.00  0.00     0.037 C 
HETATM   19  N4  UNL     1       2.067  -1.368  -1.579  1.00  0.00    -0.402 N 
ATOM     20  H41 UNL     1       1.556  -1.733  -2.383  1.00  0.00     0.155 HD
ATOM     21  H42 UNL     1       3.046  -1.094  -1.661  1.00  0.00     0.155 HD
ENDROOT
BRANCH   1  22
HETATM   22  C2  UNL     1       3.645  -0.694   0.478  1.00  0.00    -0.006 C 
HETATM   23  C1  UNL     1       4.221   0.327  -0.131  1.00  0.00     0.009 C 
ENDBRANCH   1  22
BRANCH  15  24
HETATM   24  O1  UNL     1      -2.242  -3.147  -0.015  1.00  0.00    -0.367 OA
ATOM     25  H1  UNL     1      -2.075  -4.082  -0.014  1.00  0.00     0.213 HD
ENDBRANCH  15  24
TORSDOF 2
