REMARK  1 active torsions:
REMARK  status: ('A' for Active; 'I' for Inactive)
REMARK    1  A    between atoms: C15_23  and  N8_24 
ROOT
HETATM    1  N1  UNL     1       5.296  -1.226   1.609  1.00  0.00    -0.191 NA
HETATM    2  C1  UNL     1       4.415  -0.738   1.052  1.00  0.00     0.105 C 
HETATM    3  C2  UNL     1       3.316  -0.129   0.352  1.00  0.00     0.112 A 
HETATM    4  C3  UNL     1       3.471   0.768  -0.657  1.00  0.00     0.095 A 
HETATM    5  N2  UNL     1       4.782   1.140  -1.061  1.00  0.00    -0.099 NA
HETATM    6  C4  UNL     1       2.365   1.295  -1.264  1.00  0.00     0.115 A 
HETATM    7  C5  UNL     1       2.514   2.251  -2.341  1.00  0.00     0.105 C 
HETATM    8  N3  UNL     1       2.649   3.027  -3.195  1.00  0.00    -0.191 NA
HETATM    9  C6  UNL     1       1.099   0.913  -0.849  1.00  0.00     0.137 A 
HETATM   10  N4  UNL     1      -0.097   1.276  -1.276  1.00  0.00    -0.341 N 
ATOM     11  H4  UNL     1      -0.270   1.941  -2.030  1.00  0.00     0.167 HD
HETATM   12  C7  UNL     1      -1.054   0.642  -0.573  1.00  0.00     0.066 A 
HETATM   13  C8  UNL     1      -0.412  -0.163   0.344  1.00  0.00     0.062 A 
HETATM   14  N5  UNL     1       0.904   0.018   0.158  1.00  0.00    -0.283 N 
HETATM   15  C9  UNL     1       2.015  -0.484   0.737  1.00  0.00     0.147 A 
HETATM   16  N6  UNL     1       1.850  -1.429   1.795  1.00  0.00    -0.080 NA
HETATM   17  C10 UNL     1      -0.998  -1.036   1.317  1.00  0.00     0.145 C 
HETATM   18  C11 UNL     1      -1.176  -2.425   0.810  1.00  0.00     0.070 C 
HETATM   19  N7  UNL     1      -1.295  -3.511   0.410  1.00  0.00    -0.197 NA
HETATM   20  C12 UNL     1      -2.437  -0.633   1.721  1.00  0.00     0.025 C 
HETATM   21  C13 UNL     1      -3.380  -0.736   0.560  1.00  0.00     0.004 C 
HETATM   22  C14 UNL     1      -3.491   0.703   0.075  1.00  0.00     0.039 C 
HETATM   23  C15 UNL     1      -2.447   0.930  -0.931  1.00  0.00     0.235 C 
ENDROOT
BRANCH  23  24
HETATM   24  N8  UNL     1      -2.842   0.221  -2.160  1.00  0.00    -0.070 N 
ATOM     25  H83 UNL     1      -2.207   0.427  -2.931  1.00  0.00     0.275 HD
ATOM     26  H82 UNL     1      -2.675  -0.782  -2.083  1.00  0.00     0.275 HD
ATOM     27  H81 UNL     1      -3.811   0.421  -2.409  1.00  0.00     0.275 HD
ENDBRANCH  23  24
TORSDOF 1
