REMARK  12 active torsions:
REMARK  status: ('A' for Active; 'I' for Inactive)
REMARK    1  A    between atoms: C3_3  and  N1_4 
REMARK    2  A    between atoms: C6_9  and  C7_10 
REMARK    3  A    between atoms: C8_11  and  C9_12 
REMARK    4  A    between atoms: C9_12  and  N3_13 
REMARK    5  A    between atoms: C12_16  and  C13_17 
REMARK    6  A    between atoms: C12_16  and  N6_22 
REMARK    7  A    between atoms: N7_27  and  C19_29 
REMARK    8  A    between atoms: C19_29  and  C20_30 
REMARK    9  A    between atoms: C20_30  and  C21_31 
REMARK   10  A    between atoms: C21_31  and  C22_32 
REMARK   11  A    between atoms: C22_32  and  C23_33 
REMARK   12  A    between atoms: C23_33  and  N8_34 
ROOT
HETATM    1  C1  UNL     1       6.117   0.631   3.531  1.00  0.00     0.113 C 
HETATM    2  C2  UNL     1       5.917   0.809   2.075  1.00  0.00    -0.087 C 
HETATM    3  C3  UNL     1       5.768   0.962   0.886  1.00  0.00     0.019 C 
ENDROOT
BRANCH   3   4
HETATM    4  N1  UNL     1       5.610   1.128  -0.493  1.00  0.00    -0.257 N 
HETATM    5  C4  UNL     1       6.558   1.306  -1.443  1.00  0.00     0.198 A 
HETATM    6  N2  UNL     1       5.981   1.425  -2.649  1.00  0.00    -0.358 N 
HETATM    7  C5  UNL     1       4.650   1.325  -2.483  1.00  0.00     0.129 A 
ATOM      8  H2  UNL     1       6.466   1.566  -3.535  1.00  0.00     0.166 HD
HETATM    9  C6  UNL     1       4.423   1.139  -1.123  1.00  0.00     0.117 A 
BRANCH   9  10
HETATM   10  C7  UNL     1       3.152   0.979  -0.464  1.00  0.00    -0.044 C 
HETATM   11  C8  UNL     1       2.082   0.837   0.077  1.00  0.00    -0.069 C 
BRANCH  11  12
HETATM   12  C9  UNL     1       0.765   0.688   0.749  1.00  0.00     0.365 C 
BRANCH  12  13
HETATM   13  N3  UNL     1      -0.077  -0.247   0.028  1.00  0.00     0.097 N 
HETATM   14  C10 UNL     1       0.375  -0.170  -1.366  1.00  0.00     0.311 C 
HETATM   15  C11 UNL     1       0.222  -1.543   0.597  1.00  0.00     0.322 C 
HETATM   16  C12 UNL     1      -0.606  -2.675   0.109  1.00  0.00     0.240 C 
HETATM   17  C16 UNL     1      -1.836  -2.255  -0.612  1.00  0.00     0.081 C 
HETATM   18  C17 UNL     1      -2.323  -0.879  -0.392  1.00  0.00     0.275 C 
HETATM   19  N7  UNL     1      -1.402   0.111   0.073  1.00  0.00     0.085 N 
HETATM   20  C18 UNL     1      -1.741   0.538   1.432  1.00  0.00     0.309 C 
BRANCH  16  21
HETATM   21  C13 UNL     1      -0.970  -3.617   1.204  1.00  0.00     0.128 C 
HETATM   22  N4  UNL     1      -0.650  -4.862   1.217  1.00  0.00    -0.389 N 
ATOM     23  H42 UNL     1      -0.114  -5.200   0.417  1.00  0.00     0.157 HD
ATOM     24  H41 UNL     1      -0.899  -5.507   1.967  1.00  0.00     0.157 HD
HETATM   25  N5  UNL     1      -1.717  -3.146   2.319  1.00  0.00    -0.085 NA
ENDBRANCH  16  21
BRANCH  16  26
HETATM   26  N6  UNL     1       0.270  -3.449  -0.790  1.00  0.00     0.098 N 
HETATM   27  C14 UNL     1      -0.409  -4.549  -1.405  1.00  0.00     0.310 C 
HETATM   28  C15 UNL     1       1.511  -3.799  -0.182  1.00  0.00     0.310 C 
ENDBRANCH  16  26
BRANCH  19  29
HETATM   29  C19 UNL     1      -1.607   1.293  -0.763  1.00  0.00     0.272 C 
BRANCH  29  30
HETATM   30  C20 UNL     1      -3.002   1.816  -0.494  1.00  0.00     0.030 C 
BRANCH  30  31
HETATM   31  C21 UNL     1      -3.276   3.060  -1.342  1.00  0.00     0.003 C 
BRANCH  31  32
HETATM   32  C22 UNL     1      -4.653   3.590  -1.089  1.00  0.00     0.027 C 
BRANCH  32  33
HETATM   33  C23 UNL     1      -4.899   3.988   0.342  1.00  0.00     0.229 C 
BRANCH  33  34
HETATM   34  N8  UNL     1      -4.017   5.015   0.813  1.00  0.00    -0.079 N 
ATOM     35  H83 UNL     1      -3.043   4.744   0.677  1.00  0.00     0.274 HD
ATOM     36  H82 UNL     1      -4.054   5.830   0.201  1.00  0.00     0.274 HD
ATOM     37  H81 UNL     1      -4.184   5.285   1.782  1.00  0.00     0.274 HD
ENDBRANCH  33  34
ENDBRANCH  32  33
ENDBRANCH  31  32
ENDBRANCH  30  31
ENDBRANCH  29  30
ENDBRANCH  19  29
ENDBRANCH  12  13
ENDBRANCH  11  12
ENDBRANCH   9  10
ENDBRANCH   3   4
TORSDOF 12
