REMARK  11 active torsions:
REMARK  status: ('A' for Active; 'I' for Inactive)
REMARK    1  A    between atoms: C2_2  and  N1_3 
REMARK    2  A    between atoms: N1_3  and  C3_4 
REMARK       I    between atoms: N1_3  and  C5_6 
REMARK       I    between atoms: C5_6  and  N2_8 
REMARK    3  A    between atoms: N2_8  and  C6_10 
REMARK    4  A    between atoms: C7_11  and  O2_12 
REMARK    5  A    between atoms: C9_16  and  O3_17 
REMARK    6  A    between atoms: C11_19  and  N3_20 
REMARK    7  A    between atoms: C12_24  and  O4_25 
REMARK    8  A    between atoms: O4_25  and  C13_26 
REMARK    9  A    between atoms: C15_29  and  O5_30 
REMARK   10  A    between atoms: C16_32  and  O6_33 
REMARK   11  A    between atoms: C17_35  and  O7_36 
ROOT
HETATM    1  C6  UNL     1      -1.102   1.261  -0.694  1.00  0.00     0.147 C 
HETATM    2  C7  UNL     1      -1.843   2.468  -0.233  1.00  0.00     0.160 C 
HETATM    3  C8  UNL     1      -1.061   3.699   0.041  1.00  0.00     0.120 C 
HETATM    4  S1  UNL     1      -0.745   3.863   1.806  1.00  0.00    -0.087 SA
HETATM    5  C9  UNL     1       0.201   3.664  -0.786  1.00  0.00     0.171 C 
HETATM    6  C11 UNL     1       1.088   2.513  -0.321  1.00  0.00     0.244 C 
HETATM    7  C12 UNL     1       0.330   1.205  -0.297  1.00  0.00     0.181 C 
ENDROOT
BRANCH   7   8
HETATM    8  O4  UNL     1       1.005   0.294  -1.180  1.00  0.00    -0.363 OA
BRANCH   8   9
HETATM    9  C13 UNL     1       1.480  -0.809  -0.539  1.00  0.00     0.214 C 
HETATM   10  S2  UNL     1       0.791  -2.357  -1.225  1.00  0.00    -0.132 SA
HETATM   11  C14 UNL     1       2.227  -3.430  -1.562  1.00  0.00     0.111 C 
HETATM   12  C15 UNL     1       3.206  -3.408  -0.415  1.00  0.00     0.159 C 
HETATM   13  C16 UNL     1       3.468  -2.048   0.134  1.00  0.00     0.179 C 
HETATM   14  C17 UNL     1       2.973  -0.918  -0.766  1.00  0.00     0.188 C 
BRANCH  12  15
HETATM   15  O5  UNL     1       2.768  -4.234   0.632  1.00  0.00    -0.392 OA
ATOM     16  H5  UNL     1       3.385  -4.220   1.355  1.00  0.00     0.210 HD
ENDBRANCH  12  15
BRANCH  13  17
HETATM   17  O6  UNL     1       4.851  -1.875   0.310  1.00  0.00    -0.390 OA
ATOM     18  H6  UNL     1       5.018  -1.008   0.660  1.00  0.00     0.210 HD
ENDBRANCH  13  17
BRANCH  14  19
HETATM   19  O7  UNL     1       3.625   0.251  -0.438  1.00  0.00    -0.389 OA
ATOM     20  H7  UNL     1       4.562   0.183  -0.580  1.00  0.00     0.210 HD
ENDBRANCH  14  19
ENDBRANCH   8   9
ENDBRANCH   7   8
BRANCH   1  21
HETATM   21  N2  UNL     1      -1.791   0.068  -0.273  1.00  0.00    -0.333 N 
HETATM   22  C5  UNL     1      -1.879  -0.532   0.974  1.00  0.00     0.318 C 
HETATM   23  N1  UNL     1      -2.602  -1.726   1.231  1.00  0.00    -0.335 N 
HETATM   24  O1  UNL     1      -1.300  -0.030   1.981  1.00  0.00    -0.247 OA
ATOM     25  H2  UNL     1      -2.298  -0.415  -1.015  1.00  0.00     0.164 HD
BRANCH  23  26
HETATM   26  C2  UNL     1      -3.273  -2.402   0.162  1.00  0.00     0.123 C 
HETATM   27  C1  UNL     1      -4.697  -1.888  -0.036  1.00  0.00     0.026 C 
ENDBRANCH  23  26
BRANCH  23  28
HETATM   28  C3  UNL     1      -2.657  -2.257   2.604  1.00  0.00     0.123 C 
HETATM   29  C4  UNL     1      -1.535  -3.208   2.897  1.00  0.00     0.026 C 
ENDBRANCH  23  28
ENDBRANCH   1  21
BRANCH   6  30
HETATM   30  N3  UNL     1       1.602   2.745   1.012  1.00  0.00    -0.070 N 
ATOM     31  H33 UNL     1       2.088   3.640   1.074  1.00  0.00     0.274 HD
ATOM     32  H32 UNL     1       0.849   2.928   1.676  1.00  0.00     0.274 HD
ATOM     33  H31 UNL     1       2.195   1.976   1.323  1.00  0.00     0.274 HD
ENDBRANCH   6  30
BRANCH   2  34
HETATM   34  O2  UNL     1      -2.679   2.101   0.821  1.00  0.00    -0.392 OA
ATOM     35  H2  UNL     1      -3.152   2.871   1.115  1.00  0.00     0.210 HD
ENDBRANCH   2  34
BRANCH   5  36
HETATM   36  O3  UNL     1       0.839   4.828  -0.960  1.00  0.00    -0.387 OA
HETATM   37  C10 UNL     1       0.950   5.348  -2.219  1.00  0.00     0.202 C 
ENDBRANCH   5  36
TORSDOF 11
