REMARK  13 active torsions:
REMARK  status: ('A' for Active; 'I' for Inactive)
REMARK    1  A    between atoms: O1_2  and  C2_3 
REMARK    2  A    between atoms: C3_4  and  C4_5 
REMARK    3  A    between atoms: C4_5  and  O2_6 
REMARK    4  A    between atoms: C11_14  and  C13_16 
REMARK    5  A    between atoms: C13_16  and  O3_17 
REMARK    6  A    between atoms: C14_19  and  O4_20 
REMARK    7  A    between atoms: O4_20  and  C15_21 
REMARK    8  A    between atoms: C16_23  and  C17_24 
REMARK    9  A    between atoms: C17_24  and  O6_25 
REMARK   10  A    between atoms: C18_27  and  O7_28 
REMARK   11  A    between atoms: C19_30  and  O8_31 
REMARK   12  A    between atoms: C20_33  and  O9_34 
REMARK   13  A    between atoms: C21_36  and  O10_37 
ROOT
HETATM    1  C2  UNL     1      -1.820   1.273  -0.892  1.00  0.00     0.159 C 
HETATM    2  C3  UNL     1      -2.759   0.116  -1.154  1.00  0.00     0.046 C 
HETATM    3  C5  UNL     1      -2.875  -0.886  -0.071  1.00  0.00     0.003 C 
HETATM    4  C6  UNL     1      -4.260  -1.004   0.524  1.00  0.00    -0.014 C 
HETATM    5  C7  UNL     1      -5.083  -2.087  -0.191  1.00  0.00     0.010 C 
HETATM    6  C8  UNL     1      -4.038  -1.531   1.918  1.00  0.00     0.005 C 
HETATM    7  C9  UNL     1      -2.524  -1.773   2.053  1.00  0.00     0.006 C 
HETATM    8  C10 UNL     1      -1.989  -0.745   1.103  1.00  0.00     0.003 C 
HETATM    9  C11 UNL     1      -0.536  -0.972   0.827  1.00  0.00     0.010 C 
HETATM   10  C12 UNL     1       0.092  -1.444   2.117  1.00  0.00     0.020 C 
HETATM   11  C14 UNL     1       0.158   0.276   0.329  1.00  0.00     0.166 C 
HETATM   12  C21 UNL     1      -0.400   0.765  -0.970  1.00  0.00     0.180 C 
ENDROOT
BRANCH  11  13
HETATM   13  O4  UNL     1       1.472  -0.052   0.157  1.00  0.00    -0.350 OA
BRANCH  13  14
HETATM   14  C15 UNL     1       2.397   0.668   0.856  1.00  0.00     0.292 C 
HETATM   15  O5  UNL     1       3.121   1.414  -0.019  1.00  0.00    -0.348 OA
HETATM   16  C16 UNL     1       4.282   0.944  -0.498  1.00  0.00     0.179 C 
HETATM   17  C18 UNL     1       5.273   0.621   0.560  1.00  0.00     0.180 C 
HETATM   18  C19 UNL     1       4.566   0.831   1.909  1.00  0.00     0.183 C 
HETATM   19  C20 UNL     1       3.261   0.007   1.846  1.00  0.00     0.204 C 
BRANCH  16  20
HETATM   20  C17 UNL     1       4.113  -0.124  -1.553  1.00  0.00     0.198 C 
BRANCH  20  21
HETATM   21  O6  UNL     1       5.377  -0.569  -1.948  1.00  0.00    -0.398 OA
ATOM     22  H6  UNL     1       5.271  -1.241  -2.611  1.00  0.00     0.209 HD
ENDBRANCH  20  21
ENDBRANCH  16  20
BRANCH  17  23
HETATM   23  O7  UNL     1       6.346   1.487   0.520  1.00  0.00    -0.390 OA
ATOM     24  H7  UNL     1       6.980   1.280   1.197  1.00  0.00     0.210 HD
ENDBRANCH  17  23
BRANCH  18  25
HETATM   25  O8  UNL     1       4.323   2.173   2.043  1.00  0.00    -0.390 OA
ATOM     26  H8  UNL     1       3.886   2.303   2.877  1.00  0.00     0.210 HD
ENDBRANCH  18  25
BRANCH  19  27
HETATM   27  O9  UNL     1       3.695  -1.252   1.450  1.00  0.00    -0.388 OA
ATOM     28  H9  UNL     1       4.253  -1.679   2.089  1.00  0.00     0.210 HD
ENDBRANCH  19  27
ENDBRANCH  13  14
ENDBRANCH  11  13
BRANCH   9  29
HETATM   29  C13 UNL     1      -0.316  -2.107  -0.151  1.00  0.00     0.176 C 
BRANCH  29  30
HETATM   30  O3  UNL     1       1.043  -2.301  -0.389  1.00  0.00    -0.400 OA
ATOM     31  H3  UNL     1       1.181  -3.013  -1.003  1.00  0.00     0.209 HD
ENDBRANCH  29  30
ENDBRANCH   9  29
BRANCH  12  32
HETATM   32  O10 UNL     1       0.355   1.752  -1.530  1.00  0.00    -0.385 OA
HETATM   33  C22 UNL     1       0.803   1.487  -2.812  1.00  0.00     0.202 C 
ENDBRANCH  12  32
BRANCH   1  34
HETATM   34  O1  UNL     1      -2.123   2.093   0.129  1.00  0.00    -0.388 OA
HETATM   35  C1  UNL     1      -2.481   3.377  -0.172  1.00  0.00     0.202 C 
ENDBRANCH   1  34
BRANCH   2  36
HETATM   36  C4  UNL     1      -4.091   0.614  -1.707  1.00  0.00     0.171 C 
BRANCH  36  37
HETATM   37  O2  UNL     1      -3.757   1.290  -2.908  1.00  0.00    -0.400 OA
ATOM     38  H2  UNL     1      -4.586   1.600  -3.252  1.00  0.00     0.209 HD
ENDBRANCH  36  37
ENDBRANCH   2  36
TORSDOF 13
