REMARK  13 active torsions:
REMARK  status: ('A' for Active; 'I' for Inactive)
REMARK    1  A    between atoms: C3_4  and  O2_5 
REMARK    2  A    between atoms: O2_5  and  C4_6 
REMARK    3  A    between atoms: C9_11  and  C10_12 
REMARK    4  A    between atoms: C10_12  and  S1_13 
REMARK    5  A    between atoms: S1_13  and  C11_14 
REMARK    6  A    between atoms: C11_14  and  C12_15 
REMARK    7  A    between atoms: C14_17  and  O3_18 
REMARK    8  A    between atoms: C15_20  and  O4_21 
REMARK    9  A    between atoms: C16_23  and  C17_24 
REMARK   10  A    between atoms: C17_24  and  O5_25 
REMARK   11  A    between atoms: C18_28  and  O7_29 
REMARK   12  A    between atoms: C19_31  and  O8_32 
REMARK   13  A    between atoms: C20_34  and  O9_35 
ROOT
HETATM    1  C4  UNL     1       1.608   1.120   1.569  1.00  0.00     0.129 C 
HETATM    2  C5  UNL     1       2.054   2.472   1.955  1.00  0.00     0.032 C 
HETATM    3  C6  UNL     1       1.407   3.604   1.205  1.00  0.00     0.002 C 
HETATM    4  C7  UNL     1      -0.081   3.475   1.457  1.00  0.00     0.001 C 
HETATM    5  C8  UNL     1      -0.511   2.203   0.756  1.00  0.00     0.008 C 
HETATM    6  C9  UNL     1       0.129   0.965   1.288  1.00  0.00     0.024 C 
ENDROOT
BRANCH   6   7
HETATM    7  C10 UNL     1      -0.588   0.478   2.520  1.00  0.00     0.081 C 
BRANCH   7   8
HETATM    8  S1  UNL     1      -2.328   0.235   2.401  1.00  0.00    -0.166 SA
BRANCH   8   9
HETATM    9  C11 UNL     1      -2.942  -1.101   1.419  1.00  0.00     0.105 C 
BRANCH   9  10
HETATM   10  C12 UNL     1      -2.757  -0.986  -0.062  1.00  0.00     0.134 C 
HETATM   11  C13 UNL     1      -3.353  -2.212  -0.745  1.00  0.00     0.067 C 
HETATM   12  C14 UNL     1      -4.666  -1.964  -1.400  1.00  0.00     0.152 C 
HETATM   13  C15 UNL     1      -5.427  -0.777  -0.923  1.00  0.00     0.178 C 
HETATM   14  C16 UNL     1      -4.610   0.347  -0.385  1.00  0.00     0.176 C 
HETATM   15  O6  UNL     1      -3.245   0.183  -0.600  1.00  0.00    -0.375 OA
BRANCH  12  16
HETATM   16  O3  UNL     1      -4.566  -1.975  -2.807  1.00  0.00    -0.393 OA
ATOM     17  H3  UNL     1      -5.404  -1.817  -3.225  1.00  0.00     0.210 HD
ENDBRANCH  12  16
BRANCH  13  18
HETATM   18  O4  UNL     1      -6.442  -1.128  -0.003  1.00  0.00    -0.390 OA
ATOM     19  H4  UNL     1      -6.928  -0.370   0.301  1.00  0.00     0.210 HD
ENDBRANCH  13  18
BRANCH  14  20
HETATM   20  C17 UNL     1      -5.011   1.670  -1.004  1.00  0.00     0.198 C 
BRANCH  20  21
HETATM   21  O5  UNL     1      -4.741   1.674  -2.368  1.00  0.00    -0.398 OA
ATOM     22  H5  UNL     1      -4.993   2.504  -2.756  1.00  0.00     0.209 HD
ENDBRANCH  20  21
ENDBRANCH  14  20
ENDBRANCH   9  10
ENDBRANCH   8   9
ENDBRANCH   7   8
ENDBRANCH   6   7
BRANCH   1  23
HETATM   23  O2  UNL     1       2.383   0.590   0.527  1.00  0.00    -0.353 OA
BRANCH  23  24
HETATM   24  C3  UNL     1       3.094  -0.527   0.872  1.00  0.00     0.291 C 
HETATM   25  O1  UNL     1       2.685  -1.673   0.200  1.00  0.00    -0.351 OA
HETATM   26  C2  UNL     1       3.190  -1.836  -1.056  1.00  0.00     0.152 C 
HETATM   27  C1  UNL     1       4.024  -3.125  -1.052  1.00  0.00     0.042 C 
HETATM   28  C20 UNL     1       4.051  -0.745  -1.588  1.00  0.00     0.178 C 
HETATM   29  C19 UNL     1       5.080  -0.252  -0.630  1.00  0.00     0.183 C 
HETATM   30  C18 UNL     1       4.574  -0.433   0.765  1.00  0.00     0.204 C 
BRANCH  28  31
HETATM   31  O9  UNL     1       4.750  -1.264  -2.704  1.00  0.00    -0.390 OA
ATOM     32  H9  UNL     1       5.300  -0.568  -3.044  1.00  0.00     0.210 HD
ENDBRANCH  28  31
BRANCH  29  33
HETATM   33  O8  UNL     1       6.335  -0.864  -0.837  1.00  0.00    -0.390 OA
ATOM     34  H8  UNL     1       6.657  -0.749  -1.723  1.00  0.00     0.210 HD
ENDBRANCH  29  33
BRANCH  30  35
HETATM   35  O7  UNL     1       5.166   0.506   1.589  1.00  0.00    -0.388 OA
ATOM     36  H7  UNL     1       6.112   0.566   1.521  1.00  0.00     0.210 HD
ENDBRANCH  30  35
ENDBRANCH  23  24
ENDBRANCH   1  23
TORSDOF 13
