REMARK  3 active torsions:
REMARK  status: ('A' for Active; 'I' for Inactive)
REMARK    1  A    between atoms: O1_1  and  N1_3 
REMARK    2  A    between atoms: N1_3  and  N2_5 
REMARK       I    between atoms: N2_5  and  C1_7 
REMARK       I    between atoms: C1_7  and  N3_9 
REMARK    3  A    between atoms: N3_9  and  C2_11 
ROOT
HETATM    1  N2  UNL     1       2.499  -0.375   0.075  1.00  0.00    -0.231 N 
ATOM      2  H2  UNL     1       2.512  -1.251   0.597  1.00  0.00     0.193 HD
HETATM    3  C1  UNL     1       1.368  -0.018  -0.700  1.00  0.00     0.354 C 
HETATM    4  O2  UNL     1       1.317   1.055  -1.356  1.00  0.00    -0.245 OA
HETATM    5  N3  UNL     1       0.258  -0.892  -0.740  1.00  0.00    -0.138 N 
ATOM      6  H3  UNL     1       0.390  -1.856  -1.048  1.00  0.00     0.189 HD
ENDROOT
BRANCH   5   7
HETATM    7  C2  UNL     1      -0.902  -0.498  -0.399  1.00  0.00     0.705 A 
HETATM    8  N4  UNL     1      -1.198   0.742   0.022  1.00  0.00    -0.128 N 
HETATM    9  N5  UNL     1      -2.515   0.757   0.282  1.00  0.00    -0.237 N 
ATOM     10  H4  UNL     1      -0.548   1.522   0.124  1.00  0.00     0.205 HD
HETATM   11  C3  UNL     1      -2.999  -0.478   0.015  1.00  0.00     0.353 A 
ATOM     12  H5  UNL     1      -3.053   1.555   0.620  1.00  0.00     0.192 HD
HETATM   13  O3  UNL     1      -4.196  -0.857   0.137  1.00  0.00    -0.245 OA
HETATM   14  N6  UNL     1      -2.001  -1.270  -0.411  1.00  0.00    -0.138 N 
ATOM     15  H6  UNL     1      -2.064  -2.250  -0.686  1.00  0.00     0.189 HD
ENDBRANCH   5   7
BRANCH   1  16
HETATM   16  N1  UNL     1       3.588   0.482   0.115  1.00  0.00    -0.206 N 
ATOM     17  H1  UNL     1       4.194   0.515   0.935  1.00  0.00     0.215 HD
BRANCH  16  18
HETATM   18  O1  UNL     1       3.810   1.207  -0.865  1.00  0.00    -0.274 OA
ATOM     19  H1  UNL     1       4.556   1.794  -0.838  1.00  0.00     0.246 HD
ENDBRANCH  16  18
ENDBRANCH   1  16
TORSDOF 3
