REMARK  6 active torsions:
REMARK  status: ('A' for Active; 'I' for Inactive)
REMARK       I    between atoms: N1_2  and  C2_4 
REMARK    1  A    between atoms: C2_4  and  C3_6 
REMARK    2  A    between atoms: N2_10  and  C7_11 
REMARK    3  A    between atoms: C7_11  and  O2_12 
REMARK    4  A    between atoms: C7_11  and  C8_14 
REMARK    5  A    between atoms: C8_14  and  N3_15 
REMARK       I    between atoms: N3_15  and  C9_17 
REMARK    6  A    between atoms: C12_24  and  N6_25 
ROOT
HETATM    1  C8  UNL     1       0.680   0.494   0.047  1.00  0.00     0.099 C 
HETATM    2  C10 UNL     1       1.077   0.064   1.509  1.00  0.00     0.042 C 
HETATM    3  C11 UNL     1       2.519  -0.310   1.412  1.00  0.00     0.028 C 
HETATM    4  C12 UNL     1       2.916  -0.043  -0.011  1.00  0.00     0.086 C 
HETATM    5  C14 UNL     1       1.593  -0.373  -0.752  1.00  0.00     0.065 C 
ENDROOT
BRANCH   1   6
HETATM    6  C7  UNL     1      -0.759   0.242  -0.006  1.00  0.00     0.143 C 
BRANCH   6   7
HETATM    7  N2  UNL     1      -1.535  -0.713  -0.622  1.00  0.00    -0.350 N 
HETATM    8  C3  UNL     1      -2.930  -1.021  -0.529  1.00  0.00     0.178 C 
HETATM    9  C4  UNL     1      -3.376  -0.660  -1.929  1.00  0.00     0.037 C 
HETATM   10  C5  UNL     1      -2.249  -1.342  -2.724  1.00  0.00     0.022 C 
HETATM   11  C6  UNL     1      -1.130  -1.625  -1.677  1.00  0.00     0.126 C 
BRANCH   8  12
HETATM   12  C2  UNL     1      -3.751  -0.624   0.560  1.00  0.00     0.240 C 
HETATM   13  N1  UNL     1      -5.189  -0.665   0.357  1.00  0.00    -0.364 N 
HETATM   14  C1  UNL     1      -6.121  -0.284   1.388  1.00  0.00     0.149 C 
ATOM     15  H1  UNL     1      -5.551  -0.974  -0.545  1.00  0.00     0.161 HD
HETATM   16  O1  UNL     1      -3.439  -0.226   1.718  1.00  0.00    -0.271 OA
ENDBRANCH   8  12
ENDBRANCH   6   7
BRANCH   6  17
HETATM   17  O2  UNL     1      -1.428   1.119   0.686  1.00  0.00    -0.347 OA
ATOM     18  H2  UNL     1      -0.892   1.778   1.111  1.00  0.00     0.219 HD
ENDBRANCH   6  17
ENDBRANCH   1   6
BRANCH   1  19
HETATM   19  N3  UNL     1       1.068   1.873  -0.106  1.00  0.00    -0.348 N 
HETATM   20  C9  UNL     1       0.776   2.976   0.697  1.00  0.00     0.182 C 
HETATM   21  N4  UNL     1       1.515   3.281   1.697  1.00  0.00    -0.374 N 
HETATM   22  N5  UNL     1      -0.332   3.812   0.419  1.00  0.00    -0.064 NA
ATOM     23  H42 UNL     1       2.313   2.679   1.897  1.00  0.00     0.158 HD
ATOM     24  H41 UNL     1       1.302   4.087   2.284  1.00  0.00     0.158 HD
ATOM     25  H3  UNL     1       1.643   2.073  -0.925  1.00  0.00     0.163 HD
ENDBRANCH   1  19
BRANCH   4  26
HETATM   26  N6  UNL     1       3.958  -0.940  -0.470  1.00  0.00    -0.362 N 
HETATM   27  C13 UNL     1       5.141  -0.770  -0.001  1.00  0.00     0.197 C 
HETATM   28  N7  UNL     1       5.503   0.222   0.927  1.00  0.00    -0.067 NA
HETATM   29  N8  UNL     1       6.178  -1.654  -0.448  1.00  0.00    -0.067 NA
ATOM     30  H6  UNL     1       3.758  -1.681  -1.142  1.00  0.00     0.162 HD
ENDBRANCH   4  26
TORSDOF 6
