REMARK  11 active torsions:
REMARK  status: ('A' for Active; 'I' for Inactive)
REMARK    1  A    between atoms: C2_2  and  C3_3 
REMARK    2  A    between atoms: C2_2  and  C14_18 
REMARK    3  A    between atoms: C5_8  and  C6_9 
REMARK    4  A    between atoms: C6_9  and  C7_10 
REMARK    5  A    between atoms: C8_11  and  C9_12 
REMARK    6  A    between atoms: C14_18  and  O2_19 
REMARK    7  A    between atoms: C14_18  and  C15_21 
REMARK    8  A    between atoms: C15_21  and  O3_22 
REMARK    9  A    between atoms: C15_21  and  C16_24 
REMARK   10  A    between atoms: C16_24  and  N2_25 
REMARK   11  A    between atoms: N2_25  and  C17_27 
ROOT
HETATM    1  C3  UNL     1      -0.237   0.225   0.028  1.00  0.00     0.327 C 
HETATM    2  N1  UNL     1      -0.692  -0.840  -0.793  1.00  0.00    -0.046 N 
ATOM      3  H11 UNL     1      -0.331  -1.758  -0.534  1.00  0.00     0.280 HD
ATOM      4  H12 UNL     1      -0.310  -0.839  -1.739  1.00  0.00     0.280 HD
HETATM    5  C4  UNL     1      -2.143  -0.720  -0.727  1.00  0.00     0.267 C 
HETATM    6  C5  UNL     1      -2.334   0.710  -0.332  1.00  0.00     0.153 C 
HETATM    7  O1  UNL     1      -1.067   1.287  -0.306  1.00  0.00    -0.351 OA
ENDROOT
BRANCH   1   8
HETATM    8  C2  UNL     1       1.218   0.597  -0.147  1.00  0.00     0.070 C 
HETATM    9  C1  UNL     1       1.479   1.732   0.819  1.00  0.00     0.017 C 
BRANCH   8  10
HETATM   10  C14 UNL     1       2.179  -0.532  -0.036  1.00  0.00     0.160 C 
BRANCH  10  11
HETATM   11  O2  UNL     1       1.814  -1.496  -0.989  1.00  0.00    -0.392 OA
ATOM     12  H2  UNL     1       2.428  -2.217  -0.918  1.00  0.00     0.210 HD
ENDBRANCH  10  11
BRANCH  10  13
HETATM   13  C15 UNL     1       3.598  -0.054  -0.288  1.00  0.00     0.185 C 
BRANCH  13  14
HETATM   14  O3  UNL     1       4.006   0.869   0.646  1.00  0.00    -0.388 OA
ATOM     15  H3  UNL     1       4.894   1.168   0.488  1.00  0.00     0.210 HD
ENDBRANCH  13  14
BRANCH  13  16
HETATM   16  C16 UNL     1       4.564  -1.165  -0.457  1.00  0.00     0.090 C 
BRANCH  16  17
HETATM   17  N2  UNL     1       5.858  -0.908  -0.904  1.00  0.00    -0.392 N 
ATOM     18  H2  UNL     1       6.106  -1.215  -1.844  1.00  0.00     0.159 HD
BRANCH  17  19
HETATM   19  C17 UNL     1       6.839  -0.258  -0.152  1.00  0.00     0.018 C 
HETATM   20  C18 UNL     1       8.203  -0.716  -0.759  1.00  0.00     0.037 C 
HETATM   21  C19 UNL     1       6.893   1.248  -0.247  1.00  0.00     0.037 C 
HETATM   22  C20 UNL     1       6.922  -0.676   1.295  1.00  0.00     0.037 C 
ENDBRANCH  17  19
ENDBRANCH  16  17
ENDBRANCH  13  16
ENDBRANCH  10  13
ENDBRANCH   8  10
ENDBRANCH   1   8
BRANCH   6  23
HETATM   23  C6  UNL     1      -3.037   0.938   0.962  1.00  0.00     0.060 C 
BRANCH  23  24
HETATM   24  C7  UNL     1      -4.402   0.462   1.094  1.00  0.00    -0.028 C 
HETATM   25  C8  UNL     1      -5.094  -0.126   0.163  1.00  0.00    -0.026 C 
BRANCH  25  26
HETATM   26  C9  UNL     1      -6.502  -0.611   0.319  1.00  0.00     0.008 C 
HETATM   27  C10 UNL     1      -7.159  -0.070   1.574  1.00  0.00     0.008 C 
HETATM   28  C11 UNL     1      -8.642   0.008   1.233  1.00  0.00     0.001 C 
HETATM   29  C12 UNL     1      -8.752  -0.022  -0.265  1.00  0.00     0.001 C 
HETATM   30  C13 UNL     1      -7.323   0.131  -0.740  1.00  0.00     0.008 C 
ENDBRANCH  25  26
ENDBRANCH  23  24
ENDBRANCH   6  23
TORSDOF 11
