REMARK  6 active torsions:
REMARK  status: ('A' for Active; 'I' for Inactive)
REMARK    1  A    between atoms: C3_5  and  N2_6 
REMARK    2  A    between atoms: C4_11  and  N4_12 
REMARK    3  A    between atoms: C5_15  and  C6_16 
REMARK    4  A    between atoms: C6_16  and  C7_17 
REMARK    5  A    between atoms: C7_17  and  C8_18 
REMARK    6  A    between atoms: C8_18  and  N5_19 
ROOT
HETATM    1  C1  UNL     1       1.296   1.734   0.826  1.00  0.00     0.069 C 
HETATM    2  C2  UNL     1       2.224   0.672   0.499  1.00  0.00     0.032 A 
HETATM    3  N1  UNL     1       3.442   1.103   0.006  1.00  0.00    -0.196 N 
ATOM      4  H1  UNL     1       3.609   2.098  -0.141  1.00  0.00     0.184 HD
HETATM    5  C3  UNL     1       4.402   0.215  -0.278  1.00  0.00     0.677 A 
HETATM    6  N3  UNL     1       4.202  -1.099  -0.091  1.00  0.00    -0.177 N 
ATOM      7  H3  UNL     1       4.938  -1.771  -0.309  1.00  0.00     0.185 HD
HETATM    8  C4  UNL     1       3.021  -1.514   0.386  1.00  0.00     0.122 A 
HETATM    9  C5  UNL     1       1.964  -0.630   0.705  1.00  0.00     0.009 A 
ENDROOT
BRANCH   9  10
HETATM   10  C6  UNL     1       0.718  -1.196   1.152  1.00  0.00     0.046 C 
BRANCH  10  11
HETATM   11  C7  UNL     1      -0.321  -1.570   0.185  1.00  0.00     0.035 C 
BRANCH  11  12
HETATM   12  C8  UNL     1      -1.034  -0.606  -0.660  1.00  0.00     0.273 C 
BRANCH  12  13
HETATM   13  N5  UNL     1      -1.883   0.350  -0.004  1.00  0.00     0.098 N 
HETATM   14  C9  UNL     1      -3.043  -0.184   0.628  1.00  0.00     0.292 C 
HETATM   15  C10 UNL     1      -4.161  -0.463  -0.357  1.00  0.00     0.152 C 
HETATM   16  N6  UNL     1      -4.628   0.840  -0.788  1.00  0.00    -0.358 N 
HETATM   17  C11 UNL     1      -3.610   1.818  -0.948  1.00  0.00     0.246 C 
ATOM     18  H6  UNL     1      -5.613   1.040  -0.963  1.00  0.00     0.162 HD
HETATM   19  O1  UNL     1      -3.937   3.003  -1.185  1.00  0.00    -0.272 OA
HETATM   20  C12 UNL     1      -2.167   1.495  -0.846  1.00  0.00     0.374 C 
ENDBRANCH  12  13
ENDBRANCH  11  12
ENDBRANCH  10  11
ENDBRANCH   9  10
BRANCH   8  21
HETATM   21  N4  UNL     1       2.814  -2.762   0.570  1.00  0.00    -0.385 N 
ATOM     22  H42 UNL     1       3.576  -3.400   0.340  1.00  0.00     0.157 HD
ATOM     23  H41 UNL     1       1.915  -3.078   0.933  1.00  0.00     0.157 HD
ENDBRANCH   8  21
BRANCH   5  24
HETATM   24  N2  UNL     1       5.563   0.572  -0.744  1.00  0.00    -0.234 N 
ATOM     25  H22 UNL     1       5.715   1.571  -0.886  1.00  0.00     0.174 HD
ATOM     26  H21 UNL     1       6.295  -0.105  -0.960  1.00  0.00     0.174 HD
ENDBRANCH   5  24
TORSDOF 6
