REMARK  9 active torsions:
REMARK  status: ('A' for Active; 'I' for Inactive)
REMARK    1  A    between atoms: C2_2  and  C3_3 
REMARK    2  A    between atoms: C3_3  and  C4_4 
REMARK    3  A    between atoms: C4_4  and  C5_5 
REMARK    4  A    between atoms: C5_5  and  C6_6 
REMARK    5  A    between atoms: C6_6  and  C7_7 
REMARK    6  A    between atoms: C7_7  and  C8_8 
REMARK    7  A    between atoms: C8_8  and  C9_9 
REMARK    8  A    between atoms: C9_9  and  C10_10 
REMARK    9  A    between atoms: C10_10  and  N1_11 
REMARK       I    between atoms: N1_11  and  C11_13 
REMARK       I    between atoms: N3_15  and  C12_17 
REMARK       I    between atoms: C12_17  and  N4_19 
ROOT
HETATM    1  N1  UNL     1      -1.875  -0.749  -0.234  1.00  0.00    -0.364 N 
ATOM      2  H1  UNL     1      -2.544   0.021  -0.234  1.00  0.00     0.162 HD
HETATM    3  C11 UNL     1      -2.323  -2.053  -0.542  1.00  0.00     0.192 C 
HETATM    4  N2  UNL     1      -1.584  -3.187  -0.114  1.00  0.00    -0.063 NA
HETATM    5  N3  UNL     1      -3.394  -2.227  -1.207  1.00  0.00    -0.283 N 
ATOM      6  H3  UNL     1      -3.721  -3.168  -1.429  1.00  0.00     0.173 HD
HETATM    7  C12 UNL     1      -4.128  -1.085  -1.636  1.00  0.00     0.324 C 
HETATM    8  O1  UNL     1      -3.962  -0.598  -2.794  1.00  0.00    -0.247 OA
HETATM    9  N4  UNL     1      -5.063  -0.458  -0.785  1.00  0.00    -0.334 N 
HETATM   10  C13 UNL     1      -5.373  -0.884   0.564  1.00  0.00     0.127 C 
HETATM   11  C14 UNL     1      -5.109   0.259   1.536  1.00  0.00     0.020 C 
HETATM   12  C15 UNL     1      -5.505   1.585   0.952  1.00  0.00     0.003 C 
HETATM   13  C16 UNL     1      -6.490   1.418  -0.198  1.00  0.00     0.020 C 
HETATM   14  C17 UNL     1      -5.775   0.709  -1.306  1.00  0.00     0.127 C 
ENDROOT
BRANCH   1  15
HETATM   15  C10 UNL     1      -0.468  -0.476   0.086  1.00  0.00     0.122 C 
BRANCH  15  16
HETATM   16  C9  UNL     1       0.317  -0.673  -1.189  1.00  0.00     0.020 C 
BRANCH  16  17
HETATM   17  C8  UNL     1       1.781  -0.388  -0.934  1.00  0.00     0.002 C 
BRANCH  17  18
HETATM   18  C7  UNL     1       2.309  -1.341   0.085  1.00  0.00     0.000 C 
BRANCH  18  19
HETATM   19  C6  UNL     1       3.793  -1.083   0.354  1.00  0.00     0.000 C 
BRANCH  19  20
HETATM   20  C5  UNL     1       3.959   0.302   0.883  1.00  0.00     0.000 C 
BRANCH  20  21
HETATM   21  C4  UNL     1       5.411   0.582   1.190  1.00  0.00     0.000 C 
BRANCH  21  22
HETATM   22  C3  UNL     1       6.266   0.454  -0.034  1.00  0.00    -0.000 C 
BRANCH  22  23
HETATM   23  C2  UNL     1       5.841   1.444  -1.093  1.00  0.00    -0.005 C 
HETATM   24  C1  UNL     1       5.979   2.836  -0.485  1.00  0.00     0.005 C 
ENDBRANCH  22  23
ENDBRANCH  21  22
ENDBRANCH  20  21
ENDBRANCH  19  20
ENDBRANCH  18  19
ENDBRANCH  17  18
ENDBRANCH  16  17
ENDBRANCH  15  16
ENDBRANCH   1  15
TORSDOF 9
