REMARK  1 active torsions:
REMARK  status: ('A' for Active; 'I' for Inactive)
REMARK    1  A    between atoms: C2_2  and  C3_3 
ROOT
HETATM    1  C3  UNL     1       0.154   0.045  -0.654  1.00  0.00     0.103 C 
HETATM    2  C4  UNL     1      -0.489   0.200  -1.984  1.00  0.00     0.074 C 
HETATM    3  N1  UNL     1      -0.998   0.336  -3.014  1.00  0.00    -0.196 NA
HETATM    4  C5  UNL     1       0.768   1.359  -0.313  1.00  0.00     0.192 C 
HETATM    5  C6  UNL     1       0.085   2.439  -1.046  1.00  0.00     0.074 C 
HETATM    6  N2  UNL     1      -0.449   3.307  -1.613  1.00  0.00    -0.196 NA
HETATM    7  C7  UNL     1       0.429   1.543   1.116  1.00  0.00     0.132 C 
HETATM    8  N3  UNL     1       1.071   2.174   2.039  1.00  0.00    -0.382 N 
ATOM      9  H31 UNL     1       0.837   2.301   3.024  1.00  0.00     0.158 HD
ATOM     10  H32 UNL     1       1.955   2.657   1.879  1.00  0.00     0.158 HD
HETATM   11  O1  UNL     1      -0.764   0.892   1.332  1.00  0.00    -0.326 OA
HETATM   12  C8  UNL     1      -0.926  -0.123   0.343  1.00  0.00     0.084 C 
HETATM   13  C9  UNL     1      -2.311   0.130  -0.267  1.00  0.00     0.048 C 
HETATM   14  C10 UNL     1      -0.983  -1.441   1.029  1.00  0.00     0.048 C 
ENDROOT
BRANCH   1  15
HETATM   15  C2  UNL     1       1.115  -1.084  -0.773  1.00  0.00     0.025 C 
HETATM   16  C1  UNL     1       1.881  -1.425   0.441  1.00  0.00     0.007 C 
ENDBRANCH   1  15
TORSDOF 1
