REMARK  1 active torsions:
REMARK  status: ('A' for Active; 'I' for Inactive)
REMARK    1  A    between atoms: C8_10  and  C9_11 
ROOT
HETATM    1  C1  UNL     1      -1.086  -1.825   1.265  1.00  0.00     0.011 C 
HETATM    2  C2  UNL     1      -1.200  -0.618   0.371  1.00  0.00     0.002 C 
HETATM    3  C3  UNL     1      -1.354  -1.006  -1.045  1.00  0.00     0.008 C 
HETATM    4  C4  UNL     1      -0.130  -0.979  -1.879  1.00  0.00     0.035 C 
HETATM    5  C5  UNL     1       0.786   0.160  -1.450  1.00  0.00     0.152 C 
HETATM    6  O1  UNL     1      -0.034   1.285  -1.335  1.00  0.00    -0.298 OA
HETATM    7  N1  UNL     1      -0.179   1.573  -0.047  1.00  0.00    -0.195 NA
HETATM    8  C6  UNL     1      -1.334   2.317   0.290  1.00  0.00     0.144 C 
HETATM    9  C7  UNL     1      -0.066   0.306   0.669  1.00  0.00     0.097 C 
HETATM   10  C8  UNL     1       1.218  -0.171  -0.035  1.00  0.00     0.047 C 
ENDROOT
BRANCH  10  11
HETATM   11  C9  UNL     1       2.306   0.782   0.397  1.00  0.00     0.095 C 
HETATM   12  S1  UNL     1       2.884   0.471   2.060  1.00  0.00    -0.097 SA
ENDBRANCH  10  11
TORSDOF 1
