REMARK  2 active torsions:
REMARK  status: ('A' for Active; 'I' for Inactive)
REMARK    1  A    between atoms: C2_2  and  C3_3 
REMARK    2  A    between atoms: C3_3  and  C4_5 
ROOT
HETATM    1  C4  UNL     1       1.406   0.050  -0.222  1.00  0.00     0.157 C 
HETATM    2  C5  UNL     1       1.257  -1.362  -0.596  1.00  0.00     0.159 C 
HETATM    3  O2  UNL     1       2.157  -2.155  -0.741  1.00  0.00    -0.295 OA
HETATM    4  C6  UNL     1      -0.189  -1.663  -0.766  1.00  0.00     0.163 C 
HETATM    5 CL1  UNL     1      -0.644  -2.783   0.513  1.00  0.00    -0.116 Cl
HETATM    6  C7  UNL     1      -0.838  -0.329  -0.692  1.00  0.00     0.012 C 
HETATM    7  C8  UNL     1      -0.671   0.319  -2.073  1.00  0.00     0.020 C 
HETATM    8  C9  UNL     1      -2.290  -0.333  -0.386  1.00  0.00     0.019 C 
HETATM    9  C10 UNL     1      -3.007   0.732  -1.214  1.00  0.00     0.012 C 
HETATM   10  C11 UNL     1      -2.689  -0.202   1.034  1.00  0.00     0.171 C 
HETATM   11  C12 UNL     1      -3.501  -1.346   1.507  1.00  0.00     0.072 C 
HETATM   12  N1  UNL     1      -4.157  -2.237   1.883  1.00  0.00    -0.196 NA
HETATM   13  C13 UNL     1      -1.574   0.092   1.963  1.00  0.00     0.130 C 
HETATM   14  N2  UNL     1      -1.896   0.341   3.198  1.00  0.00    -0.382 N 
ATOM     15  H21 UNL     1      -1.128   0.544   3.838  1.00  0.00     0.158 HD
ATOM     16  H22 UNL     1      -2.869   0.333   3.503  1.00  0.00     0.158 HD
HETATM   17  O3  UNL     1      -0.262   0.103   1.552  1.00  0.00    -0.331 OA
HETATM   18  C14 UNL     1       0.015   0.477   0.239  1.00  0.00     0.159 C 
ENDROOT
BRANCH   1  19
HETATM   19  C3  UNL     1       2.449   0.361   0.749  1.00  0.00     0.140 C 
HETATM   20  O1  UNL     1       2.188   0.909   1.810  1.00  0.00    -0.297 OA
BRANCH  19  21
HETATM   21  C2  UNL     1       3.869   0.019   0.464  1.00  0.00     0.074 C 
HETATM   22  C1  UNL     1       4.745   1.285   0.565  1.00  0.00     0.013 C 
ENDBRANCH  19  21
ENDBRANCH   1  19
TORSDOF 2
