REMARK  5 active torsions:
REMARK  status: ('A' for Active; 'I' for Inactive)
REMARK       I    between atoms: C2_2  and  N1_4 
REMARK    1  A    between atoms: N1_4  and  C3_6 
REMARK    2  A    between atoms: C4_9  and  C5_10 
REMARK    3  A    between atoms: C5_10  and  O2_13 
REMARK    4  A    between atoms: O2_13  and  C7_14 
REMARK    5  A    between atoms: C7_14  and  C8_16 
ROOT
HETATM    1  C3  UNL     1       3.297   0.398  -0.931  1.00  0.00     0.231 A 
HETATM    2  N2  UNL     1       2.348  -0.056  -0.099  1.00  0.00    -0.320 N 
ATOM      3  H2  UNL     1       2.334  -0.988   0.315  1.00  0.00     0.169 HD
HETATM    4  C4  UNL     1       1.404   0.906   0.116  1.00  0.00     0.085 A 
HETATM    5  C12 UNL     1       1.880   1.976  -0.672  1.00  0.00     0.175 A 
HETATM    6  O4  UNL     1       2.980   1.643  -1.262  1.00  0.00    -0.289 OA
ENDROOT
BRANCH   4   7
HETATM    7  C5  UNL     1       0.225   0.977   0.962  1.00  0.00     0.187 C 
HETATM    8  C6  UNL     1      -0.163   2.504   1.113  1.00  0.00     0.072 C 
HETATM    9 CL1  UNL     1       0.767   0.573   2.669  1.00  0.00    -0.081 Cl
BRANCH   7  10
HETATM   10  O2  UNL     1      -0.924   0.284   0.787  1.00  0.00    -0.287 OA
BRANCH  10  11
HETATM   11  C7  UNL     1      -1.859   0.213  -0.214  1.00  0.00     0.268 C 
HETATM   12  O3  UNL     1      -1.596   0.883  -1.243  1.00  0.00    -0.264 OA
BRANCH  11  13
HETATM   13  C8  UNL     1      -3.113  -0.582  -0.084  1.00  0.00     0.037 C 
HETATM   14  C9  UNL     1      -4.226   0.499  -0.183  1.00  0.00     0.025 C 
HETATM   15  C10 UNL     1      -3.253  -1.091   1.349  1.00  0.00     0.025 C 
HETATM   16  C11 UNL     1      -3.367  -1.574  -1.128  1.00  0.00     0.025 C 
ENDBRANCH  11  13
ENDBRANCH  10  11
ENDBRANCH   7  10
ENDBRANCH   4   7
BRANCH   1  17
HETATM   17  N1  UNL     1       4.364  -0.112  -1.419  1.00  0.00    -0.293 N 
HETATM   18  C2  UNL     1       4.785  -1.391  -1.127  1.00  0.00     0.220 C 
HETATM   19  C1  UNL     1       5.580  -1.707   0.070  1.00  0.00     0.117 C 
HETATM   20  O1  UNL     1       4.493  -2.370  -1.901  1.00  0.00    -0.274 OA
ATOM     21  H1  UNL     1       4.928   0.454  -2.053  1.00  0.00     0.172 HD
ENDBRANCH   1  17
TORSDOF 5
