REMARK  1 active torsions:
REMARK  status: ('A' for Active; 'I' for Inactive)
REMARK    1  A    between atoms: N1_6  and  N2_7 
ROOT
HETATM    1  C1  UNL     1      -2.255   0.887   0.006  1.00  0.00     0.029 C 
HETATM    2  C2  UNL     1      -1.012   0.125   0.495  1.00  0.00     0.091 C 
HETATM    3  C3  UNL     1      -0.859  -1.180  -0.209  1.00  0.00     0.024 C 
HETATM    4  C4  UNL     1       0.493  -1.531  -0.668  1.00  0.00     0.019 C 
HETATM    5  C5  UNL     1       1.612  -0.688  -0.198  1.00  0.00     0.134 C 
HETATM    6  N1  UNL     1       1.255   0.345   0.733  1.00  0.00    -0.151 NA
HETATM    7  N3  UNL     1       0.092   1.012   0.383  1.00  0.00    -0.141 NA
ENDROOT
BRANCH   6   8
HETATM    8  N2  UNL     1       2.300   1.296   0.728  1.00  0.00    -0.349 NA
ATOM      9  H22 UNL     1       3.156   0.805   0.986  1.00  0.00     0.172 HD
ATOM     10  H21 UNL     1       2.046   2.030   1.389  1.00  0.00     0.172 HD
ENDBRANCH   6   8
TORSDOF 1
