REMARK  7 active torsions:
REMARK  status: ('A' for Active; 'I' for Inactive)
REMARK    1  A    between atoms: O1_2  and  C2_3 
REMARK    2  A    between atoms: C4_5  and  N1_6 
REMARK    3  A    between atoms: N2_9  and  C7_10 
REMARK    4  A    between atoms: C8_13  and  N4_14 
REMARK    5  A    between atoms: C13_22  and  N6_23 
REMARK    6  A    between atoms: C18_37  and  O3_38 
REMARK    7  A    between atoms: C21_44  and  N13_45 
ROOT
HETATM    1  N6  UNL     1      -4.818  -2.137   0.133  1.00  0.00     0.037 N 
HETATM    2  C14 UNL     1      -4.888  -3.156   0.999  1.00  0.00     0.197 A 
HETATM    3  C15 UNL     1      -4.012  -3.471   2.116  1.00  0.00     0.123 C 
HETATM    4  N7  UNL     1      -3.330  -3.740   3.011  1.00  0.00    -0.190 NA
HETATM    5  C16 UNL     1      -6.000  -3.895   0.625  1.00  0.00     0.171 A 
HETATM    6  N8  UNL     1      -6.424  -5.076   1.305  1.00  0.00    -0.079 NA
HETATM    7  N9  UNL     1      -6.555  -3.300  -0.442  1.00  0.00    -0.175 N 
ATOM      8  H9  UNL     1      -7.389  -3.625  -0.931  1.00  0.00     0.185 HD
HETATM    9  C17 UNL     1      -5.847  -2.221  -0.761  1.00  0.00     0.699 A 
HETATM   10  N10 UNL     1      -6.090  -1.413  -1.731  1.00  0.00    -0.233 N 
ATOM     11 1H10 UNL     1      -6.859  -1.476  -2.399  1.00  0.00     0.174 HD
ATOM     12 2H10 UNL     1      -5.547  -0.585  -1.976  1.00  0.00     0.174 HD
ENDROOT
BRANCH   1  13
HETATM   13  C13 UNL     1      -3.814  -1.121   0.154  1.00  0.00     0.733 A 
HETATM   14  N5  UNL     1      -4.212   0.177   0.113  1.00  0.00    -0.020 N 
HETATM   15  C8  UNL     1      -3.384   1.220   0.111  1.00  0.00     0.709 A 
ATOM     16  H5  UNL     1      -5.214   0.366   0.082  1.00  0.00     0.203 HD
HETATM   17  N3  UNL     1      -2.071   0.951   0.151  1.00  0.00    -0.021 N 
HETATM   18  C7  UNL     1      -1.631  -0.339   0.193  1.00  0.00     0.712 A 
ATOM     19  H3  UNL     1      -1.397   1.716   0.150  1.00  0.00     0.203 HD
HETATM   20  N11 UNL     1      -2.498  -1.359   0.195  1.00  0.00    -0.020 N 
ATOM     21  H11 UNL     1      -2.155  -2.319   0.228  1.00  0.00     0.203 HD
BRANCH  15  22
HETATM   22  N4  UNL     1      -3.879   2.557   0.091  1.00  0.00    -0.213 N 
HETATM   23  C9  UNL     1      -3.181   3.658   0.741  1.00  0.00     0.167 C 
HETATM   24  C10 UNL     1      -4.164   4.808   0.979  1.00  0.00     0.188 C 
HETATM   25  O2  UNL     1      -4.699   5.126  -0.249  1.00  0.00    -0.388 OA
HETATM   26  C11 UNL     1      -5.634   4.165  -0.587  1.00  0.00     0.188 C 
HETATM   27  C12 UNL     1      -5.132   2.768  -0.650  1.00  0.00     0.167 C 
ENDBRANCH  15  22
BRANCH  18  28
HETATM   28  N2  UNL     1      -0.202  -0.535   0.170  1.00  0.00    -0.179 N 
HETATM   29  C6  UNL     1       0.426  -1.273   1.221  1.00  0.00     0.165 C 
HETATM   30  C5  UNL     1       1.830  -1.701   0.854  1.00  0.00     0.154 C 
HETATM   31  N1  UNL     1       2.572  -0.637   0.228  1.00  0.00    -0.298 N 
HETATM   32  C20 UNL     1       1.876   0.381  -0.467  1.00  0.00     0.275 C 
HETATM   33  C18 UNL     1       0.531   0.032  -0.981  1.00  0.00     0.333 C 
HETATM   34  O4  UNL     1       2.379   1.516  -0.635  1.00  0.00    -0.268 OA
BRANCH  31  35
HETATM   35  C4  UNL     1       3.991  -0.579   0.282  1.00  0.00     0.130 A 
HETATM   36  C3  UNL     1       4.727  -1.661   0.728  1.00  0.00     0.105 A 
HETATM   37  C2  UNL     1       6.119  -1.609   0.782  1.00  0.00     0.160 A 
HETATM   38  N14 UNL     1       6.704  -0.468   0.387  1.00  0.00    -0.170 N 
HETATM   39  C21 UNL     1       5.998   0.604  -0.053  1.00  0.00     0.683 A 
ATOM     40  H14 UNL     1       7.721  -0.404   0.419  1.00  0.00     0.186 HD
HETATM   41  N12 UNL     1       4.679   0.505  -0.088  1.00  0.00    -0.176 N 
ATOM     42  H12 UNL     1       4.151   1.312  -0.420  1.00  0.00     0.186 HD
BRANCH  37  43
HETATM   43  O1  UNL     1       6.858  -2.705   1.231  1.00  0.00    -0.340 OA
HETATM   44  C1  UNL     1       8.272  -2.603   1.266  1.00  0.00     0.211 C 
ENDBRANCH  37  43
BRANCH  39  45
HETATM   45  N13 UNL     1       6.734   1.757  -0.457  1.00  0.00    -0.226 N 
HETATM   46  C22 UNL     1       7.473   1.736  -1.691  1.00  0.00     0.168 C 
HETATM   47  C23 UNL     1       6.718   2.950   0.375  1.00  0.00     0.168 C 
ENDBRANCH  39  45
ENDBRANCH  31  35
BRANCH  33  48
HETATM   48  O3  UNL     1       0.689  -0.963  -1.954  1.00  0.00    -0.362 OA
HETATM   49  C19 UNL     1       0.031  -0.631  -3.134  1.00  0.00     0.204 C 
ENDBRANCH  33  48
ENDBRANCH  18  28
ENDBRANCH   1  13
TORSDOF 7
