REMARK  9 active torsions:
REMARK  status: ('A' for Active; 'I' for Inactive)
REMARK    1  A    between atoms: C2_2  and  C3_3 
REMARK    2  A    between atoms: C3_3  and  O1_4 
REMARK    3  A    between atoms: O1_4  and  C4_5 
REMARK    4  A    between atoms: C4_5  and  C5_6 
REMARK    5  A    between atoms: C4_5  and  C12_17 
REMARK    6  A    between atoms: C5_6  and  C6_7 
REMARK    7  A    between atoms: C6_7  and  C8_9 
REMARK    8  A    between atoms: C8_9  and  O3_11 
REMARK    9  A    between atoms: O3_11  and  C9_12 
ROOT
HETATM    1  C4  UNL     1      -1.833   0.651  -0.016  1.00  0.00     0.190 C 
ENDROOT
BRANCH   1   2
HETATM    2  O1  UNL     1      -1.988   1.453  -1.084  1.00  0.00    -0.351 OA
BRANCH   2   3
HETATM    3  C3  UNL     1      -2.604   2.624  -0.845  1.00  0.00     0.135 C 
BRANCH   3   4
HETATM    4  C2  UNL     1      -3.962   2.750  -0.392  1.00  0.00     0.014 C 
HETATM    5  C1  UNL     1      -4.864   1.857  -0.127  1.00  0.00     0.013 C 
ENDBRANCH   3   4
ENDBRANCH   2   3
ENDBRANCH   1   2
BRANCH   1   6
HETATM    6  C5  UNL     1      -0.423   0.739   0.585  1.00  0.00     0.083 C 
BRANCH   6   7
HETATM    7  C6  UNL     1       0.663   0.394  -0.301  1.00  0.00     0.011 C 
HETATM    8  C7  UNL     1       0.610   0.085  -1.575  1.00  0.00     0.025 C 
BRANCH   7   9
HETATM    9  C8  UNL     1       2.022   0.384   0.293  1.00  0.00     0.292 C 
HETATM   10  O2  UNL     1       2.173   0.667   1.504  1.00  0.00    -0.259 OA
BRANCH   9  11
HETATM   11  O3  UNL     1       3.147   0.075  -0.429  1.00  0.00    -0.261 OA
BRANCH  11  12
HETATM   12  C9  UNL     1       4.417   0.080   0.184  1.00  0.00     0.421 C 
HETATM   13  O4  UNL     1       5.058  -1.169   0.015  1.00  0.00    -0.337 OA
HETATM   14  C10 UNL     1       6.311  -0.879   0.572  1.00  0.00     0.199 C 
HETATM   15  C11 UNL     1       6.535   0.573   0.142  1.00  0.00     0.199 C 
HETATM   16  O5  UNL     1       5.320   0.925  -0.443  1.00  0.00    -0.337 OA
ENDBRANCH  11  12
ENDBRANCH   9  11
ENDBRANCH   7   9
ENDBRANCH   6   7
ENDBRANCH   1   6
BRANCH   1  17
HETATM   17  C12 UNL     1      -2.215  -0.748  -0.088  1.00  0.00     0.097 C 
HETATM   18  C13 UNL     1      -2.771  -1.392  -1.080  1.00  0.00     0.169 C 
HETATM   19  O6  UNL     1      -3.057  -2.734  -0.947  1.00  0.00    -0.358 OA
HETATM   20  C14 UNL     1      -3.181  -3.423   0.272  1.00  0.00     0.201 C 
HETATM   21  C15 UNL     1      -2.625  -2.667   1.435  1.00  0.00     0.202 C 
HETATM   22  O7  UNL     1      -1.948  -1.509   1.069  1.00  0.00    -0.349 OA
ENDBRANCH   1  17
TORSDOF 9
