REMARK  2 active torsions:
REMARK  status: ('A' for Active; 'I' for Inactive)
REMARK    1  A    between atoms: N1_9  and  N2_11 
REMARK    2  A    between atoms: N2_11  and  C8_13 
ROOT
HETATM    1  C1  UNL     1      -3.293   0.380   0.956  1.00  0.00     0.046 C 
HETATM    2  C2  UNL     1      -2.733  -0.169  -0.322  1.00  0.00     0.061 C 
HETATM    3  C3  UNL     1      -3.698  -1.256  -0.801  1.00  0.00     0.046 C 
HETATM    4  O1  UNL     1      -2.683   0.777  -1.338  1.00  0.00    -0.380 OA
HETATM    5  C4  UNL     1      -1.801   1.797  -1.133  1.00  0.00     0.169 C 
HETATM    6  C5  UNL     1      -0.402   1.360  -0.766  1.00  0.00     0.037 C 
HETATM    7  C6  UNL     1      -0.441   0.331   0.299  1.00  0.00     0.046 C 
HETATM    8  C7  UNL     1       0.776  -0.451   0.497  1.00  0.00     0.009 C 
HETATM    9  N1  UNL     1       2.004  -0.163   0.295  1.00  0.00    -0.306 N 
ATOM     10  H1  UNL     1       2.700  -0.878   0.507  1.00  0.00     0.186 HD
HETATM   11  C11 UNL     1       0.333  -1.781   1.025  1.00  0.00     0.055 C 
HETATM   12  C12 UNL     1      -1.187  -1.812   0.821  1.00  0.00     0.018 C 
HETATM   13  C13 UNL     1      -1.392  -0.771  -0.198  1.00  0.00    -0.004 C 
HETATM   14  C14 UNL     1      -0.909  -1.236  -1.541  1.00  0.00     0.019 C 
ENDROOT
BRANCH   9  15
HETATM   15  N2  UNL     1       2.457   1.053  -0.192  1.00  0.00    -0.280 N 
ATOM     16  H2  UNL     1       1.809   1.780  -0.494  1.00  0.00     0.189 HD
BRANCH  15  17
HETATM   17  C8  UNL     1       3.756   1.227  -0.247  1.00  0.00     0.163 A 
HETATM   18  N3  UNL     1       4.724   0.383   0.105  1.00  0.00    -0.345 N 
HETATM   19  C9  UNL     1       5.963   0.758  -0.033  1.00  0.00     0.097 A 
ATOM     20  H3  UNL     1       4.499  -0.540   0.476  1.00  0.00     0.167 HD
HETATM   21  C10 UNL     1       6.206   2.006  -0.535  1.00  0.00     0.070 A 
HETATM   22  S1  UNL     1       4.624   2.595  -0.791  1.00  0.00    -0.063 SA
ENDBRANCH  15  17
ENDBRANCH   9  15
TORSDOF 2
