REMARK  3 active torsions:
REMARK  status: ('A' for Active; 'I' for Inactive)
REMARK    1  A    between atoms: C2_2  and  N1_3 
REMARK    2  A    between atoms: C4_8  and  N2_9 
REMARK       I    between atoms: N2_9  and  C5_11 
REMARK    3  A    between atoms: C5_11  and  C6_13 
ROOT
HETATM    1  N1  UNL     1      -1.074  -0.533  -0.403  1.00  0.00    -0.312 N 
HETATM    2  C3  UNL     1      -1.707  -1.693  -0.316  1.00  0.00     0.153 A 
HETATM    3  S1  UNL     1      -3.365  -1.901  -0.158  1.00  0.00    -0.051 SA
HETATM    4  S2  UNL     1      -0.753  -3.103  -0.369  1.00  0.00    -0.019 SA
HETATM    5  S3  UNL     1       1.031  -2.023  -0.562  1.00  0.00    -0.013 SA
HETATM    6  C4  UNL     1       0.243  -0.511  -0.526  1.00  0.00     0.161 A 
ENDROOT
BRANCH   6   7
HETATM    7  N2  UNL     1       0.936   0.621  -0.613  1.00  0.00    -0.306 N 
HETATM    8  C5  UNL     1       2.321   0.628  -0.744  1.00  0.00     0.237 C 
HETATM    9  O1  UNL     1       2.943   1.185  -1.700  1.00  0.00    -0.272 OA
ATOM     10  H2  UNL     1       0.437   1.510  -0.583  1.00  0.00     0.171 HD
BRANCH   8  11
HETATM   11  C6  UNL     1       3.176  -0.047   0.270  1.00  0.00     0.217 C 
HETATM   12 CL1  UNL     1       4.175   1.212   1.033  1.00  0.00    -0.121 Cl
ENDBRANCH   8  11
ENDBRANCH   6   7
BRANCH   1  13
HETATM   13  C2  UNL     1      -1.879   0.720  -0.374  1.00  0.00     0.128 C 
HETATM   14  C1  UNL     1      -1.990   1.137   1.071  1.00  0.00     0.027 C 
ENDBRANCH   1  13
TORSDOF 3
