REMARK  5 active torsions:
REMARK  status: ('A' for Active; 'I' for Inactive)
REMARK       I    between atoms: C2_2  and  N1_4 
REMARK    1  A    between atoms: N1_4  and  C3_6 
REMARK    2  A    between atoms: C3_6  and  C4_7 
REMARK       I    between atoms: C4_7  and  N2_9 
REMARK    3  A    between atoms: N2_9  and  C5_11 
REMARK    4  A    between atoms: C8_14  and  O3_15 
REMARK       I    between atoms: N3_20  and  C12_21 
REMARK       I    between atoms: C12_21  and  N5_25 
REMARK    5  A    between atoms: N5_25  and  C13_27 
ROOT
HETATM    1  C5  UNL     1       1.318  -0.057  -0.136  1.00  0.00     0.092 C 
HETATM    2  C6  UNL     1       0.516   0.763  -1.101  1.00  0.00     0.054 C 
HETATM    3  C7  UNL     1      -0.845   1.094  -0.478  1.00  0.00     0.132 C 
HETATM    4  C8  UNL     1      -0.653   1.894   0.796  1.00  0.00     0.142 C 
HETATM    5  C9  UNL     1       0.057   1.006   1.767  1.00  0.00     0.042 C 
HETATM    6  C10 UNL     1       0.573  -0.266   1.144  1.00  0.00     0.029 C 
HETATM    7  C11 UNL     1      -0.690  -1.059   0.761  1.00  0.00     0.148 C 
HETATM    8  N3  UNL     1      -1.440  -0.176  -0.110  1.00  0.00    -0.211 N 
HETATM    9  C12 UNL     1      -2.727  -0.475  -0.630  1.00  0.00     0.670 C 
HETATM   10  N4  UNL     1      -2.838  -1.543  -1.345  1.00  0.00    -0.235 N 
ATOM     11  H41 UNL     1      -3.763  -1.758  -1.719  1.00  0.00     0.174 HD
ATOM     12  H42 UNL     1      -2.053  -2.163  -1.544  1.00  0.00     0.174 HD
HETATM   13  N5  UNL     1      -3.812   0.381  -0.355  1.00  0.00    -0.218 N 
ATOM     14  H5  UNL     1      -3.611   1.356  -0.135  1.00  0.00     0.178 HD
ENDROOT
BRANCH   1  15
HETATM   15  N2  UNL     1       2.666   0.408   0.037  1.00  0.00    -0.355 N 
HETATM   16  C4  UNL     1       3.811  -0.349  -0.330  1.00  0.00     0.235 C 
HETATM   17  O2  UNL     1       3.645  -1.502  -0.839  1.00  0.00    -0.272 OA
ATOM     18  H2  UNL     1       2.809   1.332   0.445  1.00  0.00     0.162 HD
BRANCH  16  19
HETATM   19  C3  UNL     1       5.192   0.107  -0.162  1.00  0.00     0.225 C 
BRANCH  19  20
HETATM   20  N1  UNL     1       6.170  -0.836  -0.607  1.00  0.00    -0.353 N 
HETATM   21  C2  UNL     1       7.544  -0.509  -0.496  1.00  0.00     0.213 C 
HETATM   22  C1  UNL     1       8.628  -1.417  -0.929  1.00  0.00     0.117 C 
HETATM   23  O1  UNL     1       7.870   0.598  -0.011  1.00  0.00    -0.274 OA
ATOM     24  H1  UNL     1       5.882  -1.733  -0.999  1.00  0.00     0.162 HD
ENDBRANCH  19  20
ENDBRANCH  16  19
ENDBRANCH   1  15
BRANCH   4  25
HETATM   25  O3  UNL     1       0.039   3.069   0.521  1.00  0.00    -0.393 OA
ATOM     26  H3  UNL     1       0.159   3.570   1.319  1.00  0.00     0.210 HD
ENDBRANCH   4  25
BRANCH  13  27
HETATM   27  C13 UNL     1      -5.188  -0.041  -0.366  1.00  0.00     0.036 C 
HETATM   28  C14 UNL     1      -6.096   1.121  -0.030  1.00  0.00     0.038 C 
HETATM   29  C15 UNL     1      -5.611  -0.519  -1.751  1.00  0.00     0.038 C 
HETATM   30  C16 UNL     1      -5.385  -1.175   0.640  1.00  0.00     0.038 C 
ENDBRANCH  13  27
TORSDOF 5
