REMARK  4 active torsions:
REMARK  status: ('A' for Active; 'I' for Inactive)
REMARK    1  A    between atoms: C2_2  and  C5_5 
REMARK       I    between atoms: N1_7  and  C7_8 
REMARK    2  A    between atoms: C10_15  and  N4_16 
REMARK       I    between atoms: N4_16  and  C11_18 
REMARK       I    between atoms: C11_18  and  N5_20 
REMARK    3  A    between atoms: C15_24  and  C16_25 
REMARK    4  A    between atoms: C16_25  and  N6_26 
ROOT
HETATM    1  C5  UNL     1      -2.115  -0.462  -0.281  1.00  0.00     0.034 C 
HETATM    2  C6  UNL     1      -2.463   0.683   0.644  1.00  0.00     0.132 C 
HETATM    3  N1  UNL     1      -2.628   1.840  -0.214  1.00  0.00    -0.355 N 
HETATM    4  C7  UNL     1      -2.591   3.168   0.259  1.00  0.00     0.183 C 
HETATM    5  N2  UNL     1      -1.464   3.787   0.195  1.00  0.00    -0.374 N 
ATOM      6  H21 UNL     1      -1.437   4.748   0.537  1.00  0.00     0.158 HD
ATOM      7  H22 UNL     1      -0.650   3.307  -0.189  1.00  0.00     0.158 HD
HETATM    8  N3  UNL     1      -3.726   3.837   0.795  1.00  0.00    -0.064 NA
HETATM    9  C8  UNL     1      -2.845   1.601  -1.621  1.00  0.00     0.127 C 
HETATM   10  C9  UNL     1      -1.631   0.963  -2.206  1.00  0.00     0.045 C 
HETATM   11  C10 UNL     1      -1.089  -0.104  -1.292  1.00  0.00     0.094 C 
ENDROOT
BRANCH  11  12
HETATM   12  N4  UNL     1       0.158   0.345  -0.748  1.00  0.00    -0.338 N 
HETATM   13  C11 UNL     1       1.411  -0.283  -0.987  1.00  0.00     0.319 C 
HETATM   14  O1  UNL     1       1.360  -1.311  -1.748  1.00  0.00    -0.247 OA
HETATM   15  N5  UNL     1       2.628   0.176  -0.437  1.00  0.00    -0.328 N 
HETATM   16  C12 UNL     1       2.732   1.333   0.427  1.00  0.00     0.128 C 
HETATM   17  C15 UNL     1       3.910  -0.397  -0.633  1.00  0.00     0.114 C 
HETATM   18  C13 UNL     1       4.223   1.504   0.695  1.00  0.00     0.022 C 
HETATM   19  C14 UNL     1       4.687   0.067   0.607  1.00  0.00     0.029 C 
ATOM     20  H4  UNL     1       0.146   1.171  -0.149  1.00  0.00     0.164 HD
BRANCH  17  21
HETATM   21  C16 UNL     1       3.985  -1.889  -0.629  1.00  0.00     0.254 C 
BRANCH  21  22
HETATM   22  N6  UNL     1       3.540  -2.462   0.614  1.00  0.00    -0.077 N 
ATOM     23  H63 UNL     1       4.051  -2.067   1.403  1.00  0.00     0.274 HD
ATOM     24  H62 UNL     1       2.601  -2.142   0.850  1.00  0.00     0.274 HD
ATOM     25  H61 UNL     1       3.591  -3.481   0.617  1.00  0.00     0.274 HD
ENDBRANCH  21  22
ENDBRANCH  17  21
ENDBRANCH  11  12
BRANCH   1  26
HETATM   26  C2  UNL     1      -1.808  -1.693   0.531  1.00  0.00    -0.044 C 
HETATM   27  C1  UNL     1      -3.087  -1.981   1.331  1.00  0.00     0.015 C 
HETATM   28  C3  UNL     1      -1.615  -2.898  -0.361  1.00  0.00     0.015 C 
HETATM   29  C4  UNL     1      -0.695  -1.532   1.516  1.00  0.00     0.015 C 
ENDBRANCH   1  26
TORSDOF 4
