REMARK  3 active torsions:
REMARK  status: ('A' for Active; 'I' for Inactive)
REMARK    1  A    between atoms: C3_3  and  C4_4 
REMARK    2  A    between atoms: C4_4  and  C5_5 
REMARK    3  A    between atoms: C5_5  and  C6_6 
ROOT
HETATM    1  C1  UNL     1      -1.279  -0.291  -1.716  1.00  0.00     0.049 C 
HETATM    2  C2  UNL     1      -1.046   0.006  -0.293  1.00  0.00    -0.045 A 
HETATM    3  C3  UNL     1       0.032   0.762   0.116  1.00  0.00    -0.036 A 
HETATM    4  C7  UNL     1       0.177   0.994   1.465  1.00  0.00     0.096 A 
HETATM    5  N1  UNL     1      -0.711   0.497   2.371  1.00  0.00    -0.356 N 
ATOM      6  H1  UNL     1      -0.574   0.688   3.364  1.00  0.00     0.166 HD
HETATM    7  C8  UNL     1      -1.769  -0.244   1.978  1.00  0.00     0.106 A 
HETATM    8  S2  UNL     1      -2.837  -0.841   3.067  1.00  0.00    -0.060 SA
HETATM    9  C9  UNL     1      -1.943  -0.496   0.627  1.00  0.00    -0.018 A 
HETATM   10  C10 UNL     1      -3.090  -1.299   0.202  1.00  0.00     0.052 C 
ENDROOT
BRANCH   3  11
HETATM   11  C4  UNL     1       1.028   1.333  -0.807  1.00  0.00     0.041 C 
BRANCH  11  12
HETATM   12  C5  UNL     1       2.003   0.328  -1.340  1.00  0.00     0.015 C 
BRANCH  12  13
HETATM   13  C6  UNL     1       2.825  -0.364  -0.308  1.00  0.00     0.086 C 
HETATM   14  S1  UNL     1       3.852   0.719   0.682  1.00  0.00    -0.098 SA
ENDBRANCH  12  13
ENDBRANCH  11  12
ENDBRANCH   3  11
TORSDOF 3
