REMARK  10 active torsions:
REMARK  status: ('A' for Active; 'I' for Inactive)
REMARK    1  A    between atoms: S1_3  and  N1_5 
REMARK    2  A    between atoms: S1_3  and  N3_13 
REMARK    3  A    between atoms: N1_5  and  C3_7 
REMARK    4  A    between atoms: C3_7  and  C4_8 
REMARK    5  A    between atoms: C4_8  and  N2_9 
REMARK    6  A    between atoms: C5_14  and  C6_15 
REMARK    7  A    between atoms: C6_15  and  O2_16 
REMARK    8  A    between atoms: C7_18  and  O3_19 
REMARK    9  A    between atoms: C9_25  and  N5_26 
REMARK   10  A    between atoms: N5_26  and  N6_28 
ROOT
HETATM    1  C1  UNL     1       1.993   3.196  -0.171  1.00  0.00     0.115 C 
HETATM    2  C2  UNL     1       1.441   2.155   0.215  1.00  0.00    -0.056 C 
HETATM    3  S1  UNL     1       0.598   0.386   0.830  1.00  0.00     0.176 S 
HETATM    4  O1  UNL     1       0.576   0.213   1.890  1.00  0.00    -0.215 OA
ENDROOT
BRANCH   3   5
HETATM    5  N1  UNL     1       1.862  -0.933   0.202  1.00  0.00    -0.325 N 
ATOM      6  H1  UNL     1       1.690  -1.721  -0.423  1.00  0.00     0.171 HD
BRANCH   5   7
HETATM    7  C3  UNL     1       3.088  -0.550   0.813  1.00  0.00     0.158 C 
BRANCH   7   8
HETATM    8  C4  UNL     1       4.270  -1.206   0.071  1.00  0.00     0.249 C 
BRANCH   8   9
HETATM    9  N2  UNL     1       4.250  -0.610  -1.244  1.00  0.00    -0.078 N 
ATOM     10  H23 UNL     1       3.356  -0.698  -1.727  1.00  0.00     0.274 HD
ATOM     11  H22 UNL     1       4.277   0.410  -1.239  1.00  0.00     0.274 HD
ATOM     12  H21 UNL     1       5.032  -1.044  -1.735  1.00  0.00     0.274 HD
ENDBRANCH   8   9
ENDBRANCH   7   8
ENDBRANCH   5   7
ENDBRANCH   3   5
BRANCH   3  13
HETATM   13  N3  UNL     1      -1.191   0.264   0.204  1.00  0.00    -0.223 N 
HETATM   14  C5  UNL     1      -1.963   1.289  -0.009  1.00  0.00     0.103 A 
HETATM   15  C7  UNL     1      -3.263   1.105  -0.462  1.00  0.00     0.169 A 
HETATM   16  N4  UNL     1      -3.791  -0.111  -0.694  1.00  0.00    -0.299 N 
HETATM   17  C8  UNL     1      -3.024  -1.164  -0.467  1.00  0.00     0.294 A 
ATOM     18  H4  UNL     1      -4.747  -0.216  -1.032  1.00  0.00     0.171 HD
HETATM   19  O4  UNL     1      -3.546  -2.272  -0.689  1.00  0.00    -0.264 OA
HETATM   20  C9  UNL     1      -1.740  -0.974  -0.022  1.00  0.00     0.216 A 
BRANCH  14  21
HETATM   21  C6  UNL     1      -1.803   2.650   0.616  1.00  0.00     0.227 C 
BRANCH  21  22
HETATM   22  O2  UNL     1      -1.064   3.524  -0.043  1.00  0.00    -0.395 OA
ATOM     23  H2  UNL     1      -0.963   4.382   0.351  1.00  0.00     0.209 HD
ENDBRANCH  21  22
ENDBRANCH  14  21
BRANCH  15  24
HETATM   24  O3  UNL     1      -4.053   2.253  -0.696  1.00  0.00    -0.344 OA
ATOM     25  H3  UNL     1      -4.942   2.127  -1.006  1.00  0.00     0.219 HD
ENDBRANCH  15  24
BRANCH  20  26
HETATM   26  N5  UNL     1      -1.012  -2.012   0.320  1.00  0.00    -0.214 N 
ATOM     27  H5  UNL     1      -0.086  -1.833   0.708  1.00  0.00     0.203 HD
BRANCH  26  28
HETATM   28  N6  UNL     1      -1.390  -3.264   0.199  1.00  0.00    -0.348 NA
HETATM   29  C10 UNL     1      -1.622  -4.379  -0.146  1.00  0.00     0.258 C 
ENDBRANCH  26  28
ENDBRANCH  20  26
ENDBRANCH   3  13
TORSDOF 10
