REMARK  8 active torsions:
REMARK  status: ('A' for Active; 'I' for Inactive)
REMARK    1  A    between atoms: N1_1  and  C1_4 
REMARK    2  A    between atoms: C4_10  and  N3_11 
REMARK    3  A    between atoms: N5_17  and  C6_19 
REMARK    4  A    between atoms: C6_19  and  C7_20 
REMARK    5  A    between atoms: C7_20  and  O2_21 
REMARK    6  A    between atoms: O2_21  and  C8_22 
REMARK    7  A    between atoms: C8_22  and  C9_23 
REMARK    8  A    between atoms: C9_23  and  O3_24 
ROOT
HETATM    1  C1  UNL     1      -5.326  -0.994  -0.404  1.00  0.00     0.679 A 
HETATM    2  N2  UNL     1      -5.248   0.217   0.175  1.00  0.00    -0.155 N 
ATOM      3  H2  UNL     1      -6.108   0.662   0.496  1.00  0.00     0.187 HD
HETATM    4  C2  UNL     1      -4.085   0.863   0.348  1.00  0.00     0.276 A 
HETATM    5  O1  UNL     1      -3.994   1.992   0.885  1.00  0.00    -0.267 OA
HETATM    6  C3  UNL     1      -2.918   0.274  -0.080  1.00  0.00     0.109 A 
HETATM    7  C4  UNL     1      -1.791   1.029   0.151  1.00  0.00     0.133 C 
HETATM    8  N4  UNL     1      -0.513   0.698  -0.150  1.00  0.00    -0.176 N 
ATOM      9  H4  UNL     1       0.156   1.465  -0.221  1.00  0.00     0.186 HD
HETATM   10  C5  UNL     1      -0.038  -0.542  -0.365  1.00  0.00     0.682 C 
HETATM   11  N5  UNL     1       1.148  -0.776   0.002  1.00  0.00    -0.224 N 
ATOM     12  H5  UNL     1       1.494  -1.720  -0.169  1.00  0.00     0.177 HD
HETATM   13  N6  UNL     1      -0.658  -1.620  -0.934  1.00  0.00    -0.154 N 
ATOM     14  H6  UNL     1      -0.069  -2.408  -1.204  1.00  0.00     0.187 HD
HETATM   15  C10 UNL     1      -1.977  -1.730  -1.168  1.00  0.00     0.288 C 
HETATM   16  O4  UNL     1      -2.363  -2.647  -1.958  1.00  0.00    -0.265 OA
HETATM   17  C11 UNL     1      -3.041  -0.985  -0.676  1.00  0.00     0.137 A 
HETATM   18  N7  UNL     1      -4.214  -1.613  -0.840  1.00  0.00    -0.185 N 
ATOM     19  H7  UNL     1      -4.262  -2.531  -1.281  1.00  0.00     0.184 HD
ENDROOT
BRANCH  11  20
HETATM   20  C6  UNL     1       2.061   0.124   0.627  1.00  0.00     0.164 C 
BRANCH  20  21
HETATM   21  C7  UNL     1       3.012   0.708  -0.418  1.00  0.00     0.188 C 
BRANCH  21  22
HETATM   22  O2  UNL     1       3.878   1.556   0.133  1.00  0.00    -0.387 OA
BRANCH  22  23
HETATM   23  C8  UNL     1       4.723   1.153   1.086  1.00  0.00     0.193 C 
BRANCH  23  24
HETATM   24  C9  UNL     1       5.726   0.121   0.687  1.00  0.00     0.190 C 
BRANCH  24  25
HETATM   25  O3  UNL     1       5.173  -1.043   0.264  1.00  0.00    -0.399 OA
ATOM     26  H3  UNL     1       5.811  -1.699   0.010  1.00  0.00     0.209 HD
ENDBRANCH  24  25
ENDBRANCH  23  24
ENDBRANCH  22  23
ENDBRANCH  21  22
ENDBRANCH  20  21
ENDBRANCH  11  20
BRANCH   7  27
HETATM   27  N3  UNL     1      -1.993   2.156   0.706  1.00  0.00    -0.384 N 
ATOM     28  H32 UNL     1      -2.956   2.405   0.933  1.00  0.00     0.157 HD
ATOM     29  H31 UNL     1      -1.158   2.716   0.877  1.00  0.00     0.157 HD
ENDBRANCH   7  27
BRANCH   1  30
HETATM   30  N1  UNL     1      -6.499  -1.563  -0.539  1.00  0.00    -0.234 N 
ATOM     31  H12 UNL     1      -7.342  -1.094  -0.208  1.00  0.00     0.174 HD
ATOM     32  H11 UNL     1      -6.558  -2.482  -0.978  1.00  0.00     0.174 HD
ENDBRANCH   1  30
TORSDOF 8
