REMARK  14 active torsions:
REMARK  status: ('A' for Active; 'I' for Inactive)
REMARK    1  A    between atoms: O1_2  and  C2_3 
REMARK    2  A    between atoms: C2_3  and  C3_5 
REMARK    3  A    between atoms: N1_7  and  C5_8 
REMARK    4  A    between atoms: C5_8  and  C6_9 
REMARK    5  A    between atoms: C5_8  and  C12_33 
REMARK       I    between atoms: C6_9  and  N2_11 
REMARK    6  A    between atoms: N2_11  and  C7_13 
REMARK    7  A    between atoms: C7_13  and  C8_17 
REMARK    8  A    between atoms: C9_22  and  C10_23 
REMARK       I    between atoms: N11_36  and  C15_37 
REMARK    9  A    between atoms: C15_37  and  O5_39 
REMARK   10  A    between atoms: O5_39  and  C16_40 
REMARK   11  A    between atoms: C21_46  and  N12_47 
REMARK       I    between atoms: N12_47  and  C22_49 
REMARK   12  A    between atoms: C24_52  and  C25_53 
REMARK   13  A    between atoms: C25_53  and  O8_54 
REMARK   14  A    between atoms: C25_53  and  O9_56 
ROOT
HETATM    1  C5  UNL     1      -0.625   0.378   0.506  1.00  0.00     0.122 C 
ENDROOT
BRANCH   1   2
HETATM    2  N1  UNL     1      -1.255  -0.897   0.333  1.00  0.00    -0.281 N 
HETATM    3  C4  UNL     1      -1.129  -1.580  -0.807  1.00  0.00     0.119 A 
HETATM    4  C3  UNL     1      -1.762  -2.847  -0.970  1.00  0.00     0.073 A 
HETATM    5  C24 UNL     1      -2.510  -3.401   0.021  1.00  0.00     0.072 A 
HETATM    6  C21 UNL     1      -2.612  -2.646   1.205  1.00  0.00     0.120 A 
HETATM    7  C20 UNL     1      -1.998  -1.437   1.333  1.00  0.00     0.280 A 
HETATM    8  O6  UNL     1      -2.110  -0.772   2.423  1.00  0.00    -0.265 OA
BRANCH   4   9
HETATM    9  C2  UNL     1      -1.542  -3.504  -2.241  1.00  0.00     0.295 C 
HETATM   10  O2  UNL     1      -1.971  -4.603  -2.560  1.00  0.00    -0.259 OA
BRANCH   9  11
HETATM   11  O1  UNL     1      -0.763  -2.839  -3.228  1.00  0.00    -0.322 OA
HETATM   12  C1  UNL     1      -0.560  -3.495  -4.461  1.00  0.00     0.213 C 
ENDBRANCH   9  11
ENDBRANCH   4   9
BRANCH   5  13
HETATM   13  C25 UNL     1      -3.240  -4.638  -0.027  1.00  0.00     0.191 C 
BRANCH  13  14
HETATM   14  O8  UNL     1      -3.944  -4.941   1.033  1.00  0.00    -0.340 OA
ATOM     15  H8  UNL     1      -4.427  -5.759   1.001  1.00  0.00     0.220 HD
ENDBRANCH  13  14
BRANCH  13  16
HETATM   16  O9  UNL     1      -3.364  -5.605  -0.977  1.00  0.00    -0.335 OA
HETATM   17  C26 UNL     1      -4.170  -6.778  -0.791  1.00  0.00     0.212 C 
ENDBRANCH  13  16
ENDBRANCH   5  13
BRANCH   6  18
HETATM   18  N12 UNL     1      -3.352  -3.094   2.337  1.00  0.00    -0.322 N 
HETATM   19  C22 UNL     1      -2.661  -3.749   3.397  1.00  0.00     0.218 C 
HETATM   20  C23 UNL     1      -3.366  -4.237   4.597  1.00  0.00     0.117 C 
HETATM   21  O7  UNL     1      -1.404  -3.934   3.340  1.00  0.00    -0.274 OA
ATOM     22  H12 UNL     1      -4.360  -2.948   2.388  1.00  0.00     0.169 HD
ENDBRANCH   6  18
ENDBRANCH   1   2
BRANCH   1  23
HETATM   23  C6  UNL     1       0.856   0.359   0.356  1.00  0.00     0.275 C 
HETATM   24  O3  UNL     1       1.574   0.202   1.404  1.00  0.00    -0.266 OA
HETATM   25  N2  UNL     1       1.452   0.510  -0.900  1.00  0.00    -0.305 N 
ATOM     26  H2  UNL     1       0.795   0.635  -1.670  1.00  0.00     0.171 HD
BRANCH  25  27
HETATM   27  C7  UNL     1       2.785   0.518  -1.272  1.00  0.00     0.148 C 
HETATM   28  N3  UNL     1       3.003   0.690  -2.588  1.00  0.00    -0.382 N 
ATOM     29  H32 UNL     1       2.144   0.792  -3.128  1.00  0.00     0.157 HD
ATOM     30  H31 UNL     1       3.985   0.696  -2.862  1.00  0.00     0.157 HD
BRANCH  27  31
HETATM   31  C8  UNL     1       4.000   0.374  -0.508  1.00  0.00     0.166 A 
HETATM   32  N4  UNL     1       4.203   0.192   0.787  1.00  0.00    -0.281 N 
HETATM   33  N5  UNL     1       5.493   0.109   1.084  1.00  0.00    -0.281 N 
ATOM     34  H4  UNL     1       3.454   0.124   1.477  1.00  0.00     0.188 HD
HETATM   35  C9  UNL     1       6.178   0.242  -0.063  1.00  0.00     0.169 A 
ATOM     36  H5  UNL     1       5.891  -0.030   2.013  1.00  0.00     0.188 HD
HETATM   37  N10 UNL     1       5.281   0.402  -1.019  1.00  0.00    -0.320 N 
ATOM     38  H10 UNL     1       5.506   0.530  -2.006  1.00  0.00     0.169 HD
BRANCH  35  39
HETATM   39  C10 UNL     1       7.625   0.215  -0.213  1.00  0.00     0.180 A 
HETATM   40  N6  UNL     1       8.518   0.049   0.796  1.00  0.00    -0.264 N 
HETATM   41  N7  UNL     1       9.727   0.083   0.259  1.00  0.00    -0.003 NA
ATOM     42  H6  UNL     1       8.298  -0.078   1.784  1.00  0.00     0.186 HD
HETATM   43  N8  UNL     1       9.654   0.263  -1.050  1.00  0.00    -0.221 N 
HETATM   44  C11 UNL     1      10.772   0.356  -2.000  1.00  0.00     0.197 C 
HETATM   45  N9  UNL     1       8.364   0.343  -1.328  1.00  0.00    -0.267 N 
ATOM     46  H9  UNL     1       7.981   0.483  -2.263  1.00  0.00     0.190 HD
ENDBRANCH  35  39
ENDBRANCH  27  31
ENDBRANCH  25  27
ENDBRANCH   1  23
BRANCH   1  47
HETATM   47  C12 UNL     1      -1.290   1.504  -0.147  1.00  0.00     0.014 A 
HETATM   48  C13 UNL     1      -1.659   1.615  -1.479  1.00  0.00     0.033 A 
HETATM   49  C14 UNL     1      -2.244   2.834  -1.666  1.00  0.00     0.102 A 
HETATM   50  N11 UNL     1      -2.245   3.471  -0.491  1.00  0.00    -0.279 N 
HETATM   51  C15 UNL     1      -2.765   4.778  -0.244  1.00  0.00     0.371 C 
HETATM   52  C19 UNL     1      -1.687   2.711   0.428  1.00  0.00     0.115 A 
HETATM   53  O4  UNL     1      -3.278   5.422  -1.193  1.00  0.00    -0.238 OA
BRANCH  51  54
HETATM   54  O5  UNL     1      -2.719   5.355   1.019  1.00  0.00    -0.299 OA
BRANCH  54  55
HETATM   55  C16 UNL     1      -3.253   6.663   1.211  1.00  0.00     0.125 C 
HETATM   56  C17 UNL     1      -2.060   7.552   1.567  1.00  0.00     0.040 C 
HETATM   57  C18 UNL     1      -4.297   6.687   2.292  1.00  0.00     0.040 C 
ENDBRANCH  54  55
ENDBRANCH  51  54
ENDBRANCH   1  47
TORSDOF 14
