REMARK  17 active torsions:
REMARK  status: ('A' for Active; 'I' for Inactive)
REMARK    1  A    between atoms: C2_2  and  C3_3 
REMARK    2  A    between atoms: N1_4  and  N2_6 
REMARK       I    between atoms: N2_6  and  C4_8 
REMARK    3  A    between atoms: C4_8  and  O2_10 
REMARK    4  A    between atoms: O2_10  and  C5_11 
REMARK    5  A    between atoms: C7_16  and  C8_17 
REMARK    6  A    between atoms: C8_17  and  O4_19 
REMARK    7  A    between atoms: O4_19  and  C9_20 
REMARK    8  A    between atoms: C11_24  and  N4_25 
REMARK    9  A    between atoms: C12_28  and  C13_29 
REMARK   10  A    between atoms: N5_31  and  N6_33 
REMARK       I    between atoms: N6_33  and  C15_35 
REMARK   11  A    between atoms: C15_35  and  O8_37 
REMARK   12  A    between atoms: C18_40  and  O9_41 
REMARK   13  A    between atoms: O9_41  and  C19_42 
REMARK   14  A    between atoms: C19_42  and  O11_44 
REMARK   15  A    between atoms: O11_44  and  C20_45 
REMARK   16  A    between atoms: C22_47  and  O12_48 
REMARK   17  A    between atoms: O12_48  and  C23_49 
ROOT
HETATM    1  C5  UNL     1      -0.748   1.644   0.796  1.00  0.00     0.362 C 
HETATM    2  N3  UNL     1      -1.929   1.658   1.609  1.00  0.00    -0.038 N 
ATOM      3  H31 UNL     1      -2.726   2.105   1.155  1.00  0.00     0.281 HD
ATOM      4  H32 UNL     1      -1.863   2.293   2.405  1.00  0.00     0.281 HD
HETATM    5  C6  UNL     1      -2.175   0.337   1.977  1.00  0.00     0.239 C 
HETATM    6  C7  UNL     1      -3.553  -0.053   2.370  1.00  0.00     0.262 C 
HETATM    7  O6  UNL     1      -3.382  -1.377   2.910  1.00  0.00    -0.318 OA
HETATM    8  C11 UNL     1      -2.345  -2.156   2.413  1.00  0.00     0.145 C 
HETATM    9  C12 UNL     1      -1.978  -1.860   0.976  1.00  0.00     0.025 C 
HETATM   10  C17 UNL     1      -1.685  -0.444   0.731  1.00  0.00     0.093 C 
HETATM   11  C18 UNL     1      -0.342   0.108   0.694  1.00  0.00     0.202 C 
ENDROOT
BRANCH  11  12
HETATM   12  O9  UNL     1       0.422  -0.009  -0.481  1.00  0.00    -0.287 OA
BRANCH  12  13
HETATM   13  C19 UNL     1       1.789  -0.190  -0.365  1.00  0.00     0.409 C 
HETATM   14  O10 UNL     1       2.279  -0.243   0.807  1.00  0.00    -0.229 OA
BRANCH  13  15
HETATM   15  O11 UNL     1       2.653  -0.314  -1.418  1.00  0.00    -0.266 OA
BRANCH  15  16
HETATM   16  C20 UNL     1       4.034  -0.494  -1.166  1.00  0.00     0.274 C 
HETATM   17  C21 UNL     1       4.624  -1.667  -1.912  1.00  0.00     0.096 C 
HETATM   18  C22 UNL     1       5.946  -1.148  -2.390  1.00  0.00     0.160 C 
HETATM   19  C25 UNL     1       5.995   0.257  -1.907  1.00  0.00     0.203 C 
HETATM   20  O14 UNL     1       4.682   0.641  -1.665  1.00  0.00    -0.358 OA
BRANCH  18  21
HETATM   21  O12 UNL     1       7.043  -1.928  -1.969  1.00  0.00    -0.314 OA
BRANCH  21  22
HETATM   22  C23 UNL     1       7.923  -2.546  -2.808  1.00  0.00     0.255 C 
HETATM   23  C24 UNL     1       9.086  -3.373  -2.367  1.00  0.00     0.126 C 
HETATM   24  O13 UNL     1       7.740  -2.411  -4.055  1.00  0.00    -0.266 OA
ENDBRANCH  21  22
ENDBRANCH  18  21
ENDBRANCH  15  16
ENDBRANCH  13  15
ENDBRANCH  12  13
ENDBRANCH  11  12
BRANCH   1  25
HETATM   25  O2  UNL     1      -1.095   2.053  -0.517  1.00  0.00    -0.266 OA
BRANCH  25  26
HETATM   26  C4  UNL     1      -0.422   2.991  -1.261  1.00  0.00     0.381 C 
HETATM   27  N2  UNL     1      -0.806   3.374  -2.576  1.00  0.00    -0.246 N 
ATOM     28  H2  UNL     1      -1.636   2.912  -2.948  1.00  0.00     0.192 HD
HETATM   29  O1  UNL     1       0.587   3.540  -0.762  1.00  0.00    -0.237 OA
BRANCH  27  30
HETATM   30  N1  UNL     1      -0.222   4.260  -3.387  1.00  0.00    -0.311 N 
HETATM   31  C3  UNL     1      -0.067   5.493  -3.464  1.00  0.00     0.080 C 
ATOM     32  H1  UNL     1       0.228   3.789  -4.172  1.00  0.00     0.185 HD
BRANCH  31  33
HETATM   33  C2  UNL     1      -0.591   6.477  -2.483  1.00  0.00     0.041 C 
HETATM   34  C1  UNL     1       0.279   7.703  -2.405  1.00  0.00     0.010 C 
ENDBRANCH  31  33
ENDBRANCH  27  30
ENDBRANCH  25  26
ENDBRANCH   1  25
BRANCH   9  35
HETATM   35  C13 UNL     1      -1.145  -2.879   0.382  1.00  0.00     0.033 C 
HETATM   36  C14 UNL     1       0.168  -3.361   0.948  1.00  0.00     0.070 C 
HETATM   37  N5  UNL     1      -1.498  -3.454  -0.706  1.00  0.00    -0.300 N 
ATOM     38  H5  UNL     1      -0.903  -4.172  -1.120  1.00  0.00     0.186 HD
BRANCH  37  39
HETATM   39  N6  UNL     1      -2.696  -3.099  -1.326  1.00  0.00    -0.245 N 
HETATM   40  C15 UNL     1      -3.903  -3.826  -1.174  1.00  0.00     0.379 C 
HETATM   41  O7  UNL     1      -3.991  -4.860  -0.460  1.00  0.00    -0.237 OA
ATOM     42  H6  UNL     1      -2.704  -2.271  -1.921  1.00  0.00     0.192 HD
BRANCH  40  43
HETATM   43  O8  UNL     1      -5.041  -3.396  -1.826  1.00  0.00    -0.308 OA
HETATM   44  C16 UNL     1      -6.278  -4.096  -1.690  1.00  0.00     0.215 C 
ENDBRANCH  40  43
ENDBRANCH  37  39
ENDBRANCH   9  35
BRANCH   6  45
HETATM   45  C8  UNL     1      -3.965   0.808   3.508  1.00  0.00     0.298 C 
HETATM   46  O3  UNL     1      -4.205   2.038   3.366  1.00  0.00    -0.262 OA
BRANCH  45  47
HETATM   47  O4  UNL     1      -4.110   0.305   4.793  1.00  0.00    -0.243 OA
BRANCH  47  48
HETATM   48  C9  UNL     1      -4.493   1.062   5.890  1.00  0.00     0.262 C 
HETATM   49  C10 UNL     1      -4.644   0.506   7.261  1.00  0.00     0.126 C 
HETATM   50  O5  UNL     1      -4.711   2.295   5.635  1.00  0.00    -0.265 OA
ENDBRANCH  47  48
ENDBRANCH  45  47
ENDBRANCH   6  45
BRANCH   8  51
HETATM   51  N4  UNL     1      -1.738  -3.058   3.109  1.00  0.00    -0.380 N 
ATOM     52  H42 UNL     1      -1.986  -3.258   4.078  1.00  0.00     0.158 HD
ATOM     53  H41 UNL     1      -0.976  -3.630   2.744  1.00  0.00     0.158 HD
ENDBRANCH   8  51
TORSDOF 17
