REMARK  17 active torsions:
REMARK  status: ('A' for Active; 'I' for Inactive)
REMARK    1  A    between atoms: C2_2  and  O2_4 
REMARK    2  A    between atoms: O2_4  and  C3_5 
REMARK    3  A    between atoms: C4_6  and  N1_7 
REMARK    4  A    between atoms: C5_11  and  O3_12 
REMARK    5  A    between atoms: O3_12  and  C6_13 
REMARK    6  A    between atoms: C8_16  and  O5_17 
REMARK    7  A    between atoms: O5_17  and  C9_18 
REMARK    8  A    between atoms: C9_18  and  C10_20 
REMARK    9  A    between atoms: C10_20  and  O7_21 
REMARK   10  A    between atoms: C10_20  and  C21_37 
REMARK   11  A    between atoms: O7_21  and  C11_22 
REMARK   12  A    between atoms: C11_22  and  C12_24 
REMARK   13  A    between atoms: C21_37  and  O9_39 
REMARK   14  A    between atoms: C23_41  and  O10_42 
REMARK   15  A    between atoms: O10_42  and  C24_43 
REMARK   16  A    between atoms: C26_46  and  O12_47 
REMARK   17  A    between atoms: O12_47  and  C27_48 
ROOT
HETATM    1  C12 UNL     1       5.086   0.865   0.253  1.00  0.00     0.072 A 
HETATM    2  C13 UNL     1       5.928   1.809   0.751  1.00  0.00    -0.021 A 
HETATM    3  C14 UNL     1       5.560   3.247   0.752  1.00  0.00     0.051 C 
HETATM    4  C15 UNL     1       7.158   1.468   1.276  1.00  0.00     0.077 A 
HETATM    5  C16 UNL     1       8.033   2.482   1.798  1.00  0.00     0.102 C 
HETATM    6  N2  UNL     1       8.726   3.308   2.212  1.00  0.00    -0.191 NA
HETATM    7  C17 UNL     1       7.600   0.164   1.325  1.00  0.00     0.090 A 
HETATM    8  N3  UNL     1       8.866  -0.191   1.865  1.00  0.00    -0.099 NA
HETATM    9  C18 UNL     1       6.739  -0.804   0.815  1.00  0.00     0.095 A 
HETATM   10  C19 UNL     1       7.177  -2.168   0.855  1.00  0.00     0.103 C 
HETATM   11  N4  UNL     1       7.545  -3.265   0.875  1.00  0.00    -0.191 NA
HETATM   12  C20 UNL     1       5.525  -0.459   0.298  1.00  0.00     0.086 A 
HETATM   13  N5  UNL     1       4.647  -1.451  -0.222  1.00  0.00    -0.100 NA
ENDROOT
BRANCH   1  14
HETATM   14  C11 UNL     1       3.783   1.201  -0.307  1.00  0.00     0.296 C 
HETATM   15  O8  UNL     1       3.330   2.367  -0.377  1.00  0.00    -0.259 OA
BRANCH  14  16
HETATM   16  O7  UNL     1       2.955   0.202  -0.806  1.00  0.00    -0.299 OA
BRANCH  16  17
HETATM   17  C10 UNL     1       1.682   0.463  -1.361  1.00  0.00     0.259 C 
BRANCH  17  18
HETATM   18  C9  UNL     1       0.595  -0.141  -0.546  1.00  0.00     0.291 C 
HETATM   19  O6  UNL     1       0.934  -0.773   0.472  1.00  0.00    -0.262 OA
BRANCH  18  20
HETATM   20  O5  UNL     1      -0.729  -0.041  -0.848  1.00  0.00    -0.308 OA
BRANCH  20  21
HETATM   21  C8  UNL     1      -1.783  -0.605  -0.092  1.00  0.00     0.195 C 
HETATM   22  C5  UNL     1      -2.474  -1.647  -0.882  1.00  0.00     0.197 C 
HETATM   23  C4  UNL     1      -3.648  -1.181  -1.680  1.00  0.00     0.247 C 
HETATM   24  C3  UNL     1      -4.529  -0.196  -0.990  1.00  0.00     0.197 C 
HETATM   25  C26 UNL     1      -3.772   0.926  -0.359  1.00  0.00     0.195 C 
HETATM   26  C23 UNL     1      -2.675   0.421   0.542  1.00  0.00     0.196 C 
BRANCH  22  27
HETATM   27  O3  UNL     1      -2.779  -2.752  -0.049  1.00  0.00    -0.311 OA
BRANCH  27  28
HETATM   28  C6  UNL     1      -2.246  -4.001  -0.187  1.00  0.00     0.255 C 
HETATM   29  C7  UNL     1      -2.553  -5.166   0.673  1.00  0.00     0.126 C 
HETATM   30  O4  UNL     1      -1.422  -4.199  -1.118  1.00  0.00    -0.266 OA
ENDBRANCH  27  28
ENDBRANCH  22  27
BRANCH  23  31
HETATM   31  N1  UNL     1      -3.225  -0.570  -2.950  1.00  0.00    -0.070 N 
ATOM     32  H13 UNL     1      -4.008  -0.262  -3.526  1.00  0.00     0.274 HD
ATOM     33  H12 UNL     1      -2.786   0.342  -2.828  1.00  0.00     0.274 HD
ATOM     34  H11 UNL     1      -2.622  -1.244  -3.422  1.00  0.00     0.274 HD
ENDBRANCH  23  31
BRANCH  24  35
HETATM   35  O2  UNL     1      -5.348  -0.781   0.005  1.00  0.00    -0.311 OA
BRANCH  35  36
HETATM   36  C2  UNL     1      -6.721  -0.763  -0.027  1.00  0.00     0.255 C 
HETATM   37  C1  UNL     1      -7.449  -1.426   1.099  1.00  0.00     0.126 C 
HETATM   38  O1  UNL     1      -7.303  -0.203  -0.979  1.00  0.00    -0.266 OA
ENDBRANCH  35  36
ENDBRANCH  24  35
BRANCH  25  39
HETATM   39  O12 UNL     1      -3.253   1.856  -1.276  1.00  0.00    -0.311 OA
BRANCH  39  40
HETATM   40  C27 UNL     1      -3.649   3.182  -1.249  1.00  0.00     0.255 C 
HETATM   41  C28 UNL     1      -3.139   4.209  -2.187  1.00  0.00     0.126 C 
HETATM   42  O13 UNL     1      -4.501   3.502  -0.353  1.00  0.00    -0.266 OA
ENDBRANCH  39  40
ENDBRANCH  25  39
BRANCH  26  43
HETATM   43  O10 UNL     1      -3.250  -0.129   1.715  1.00  0.00    -0.311 OA
BRANCH  43  44
HETATM   44  C24 UNL     1      -3.087   0.420   2.979  1.00  0.00     0.255 C 
HETATM   45  C25 UNL     1      -3.693  -0.164   4.206  1.00  0.00     0.126 C 
HETATM   46  O11 UNL     1      -2.381   1.467   3.047  1.00  0.00    -0.266 OA
ENDBRANCH  43  44
ENDBRANCH  26  43
ENDBRANCH  20  21
ENDBRANCH  18  20
ENDBRANCH  17  18
BRANCH  17  47
HETATM   47  C21 UNL     1       1.618  -0.008  -2.801  1.00  0.00     0.153 C 
HETATM   48  C22 UNL     1       2.731   0.699  -3.554  1.00  0.00     0.042 C 
BRANCH  47  49
HETATM   49  O9  UNL     1       0.393   0.230  -3.377  1.00  0.00    -0.393 OA
ATOM     50  H9  UNL     1       0.353  -0.065  -4.279  1.00  0.00     0.210 HD
ENDBRANCH  47  49
ENDBRANCH  17  47
ENDBRANCH  16  17
ENDBRANCH  14  16
ENDBRANCH   1  14
TORSDOF 17
