REMARK  5 active torsions:
REMARK  status: ('A' for Active; 'I' for Inactive)
REMARK    1  A    between atoms: C1_2  and  C2_4 
REMARK    2  A    between atoms: C2_4  and  O1_5 
REMARK    3  A    between atoms: O1_5  and  C3_6 
REMARK    4  A    between atoms: C6_11  and  C7_12 
REMARK    5  A    between atoms: C12_20  and  C13_21 
ROOT
HETATM    1  C3  UNL     1       4.144  -1.358   0.586  1.00  0.00     0.225 A 
HETATM    2  N1  UNL     1       2.936  -2.020   0.550  1.00  0.00    -0.331 N 
ATOM      3  H1  UNL     1       2.906  -3.033   0.666  1.00  0.00     0.168 HD
HETATM    4  C4  UNL     1       1.803  -1.336   0.363  1.00  0.00     0.107 A 
HETATM    5  C5  UNL     1       1.797   0.020   0.202  1.00  0.00     0.032 A 
HETATM    6  C6  UNL     1       0.790   0.950  -0.018  1.00  0.00    -0.019 A 
HETATM    7  C18 UNL     1       1.441   2.159  -0.112  1.00  0.00     0.098 A 
HETATM    8  N3  UNL     1       2.786   1.982   0.044  1.00  0.00    -0.351 N 
ATOM      9  H3  UNL     1       3.495   2.715   0.019  1.00  0.00     0.166 HD
HETATM   10  C19 UNL     1       3.015   0.651   0.240  1.00  0.00     0.120 A 
HETATM   11  N4  UNL     1       4.147  -0.038   0.429  1.00  0.00    -0.307 N 
ATOM     12  H4  UNL     1       5.035   0.463   0.453  1.00  0.00     0.171 HD
ENDROOT
BRANCH   6  13
HETATM   13  C7  UNL     1      -0.684   0.700  -0.077  1.00  0.00    -0.009 C 
HETATM   14  C8  UNL     1      -1.356   2.004  -0.404  1.00  0.00     0.042 C 
HETATM   15  C9  UNL     1      -2.470   2.477   0.434  1.00  0.00     0.233 C 
HETATM   16  N2  UNL     1      -3.780   2.341  -0.234  1.00  0.00    -0.075 N 
HETATM   17  C10 UNL     1      -4.456   1.132   0.275  1.00  0.00     0.233 C 
ATOM     18  H22 UNL     1      -4.355   3.178  -0.136  1.00  0.00     0.277 HD
ATOM     19  H21 UNL     1      -3.699   2.342  -1.251  1.00  0.00     0.277 HD
HETATM   20  C11 UNL     1      -3.996  -0.060  -0.459  1.00  0.00     0.046 C 
HETATM   21  C12 UNL     1      -3.029  -0.965   0.157  1.00  0.00     0.059 C 
HETATM   22  C14 UNL     1      -1.964  -1.344  -0.858  1.00  0.00     0.019 C 
HETATM   23  C16 UNL     1      -2.332  -0.571   1.405  1.00  0.00     0.019 C 
HETATM   24  C15 UNL     1      -1.004  -0.272  -1.188  1.00  0.00     0.015 C 
HETATM   25  C17 UNL     1      -1.066   0.189   1.290  1.00  0.00     0.015 C 
BRANCH  21  26
HETATM   26  C13 UNL     1      -3.746  -2.310   0.421  1.00  0.00     0.395 C 
HETATM   27  F3  UNL     1      -4.810  -2.160   1.252  1.00  0.00    -0.170 F 
HETATM   28  F4  UNL     1      -2.808  -3.179   0.939  1.00  0.00    -0.170 F 
HETATM   29  F5  UNL     1      -4.118  -2.818  -0.826  1.00  0.00    -0.170 F 
ENDBRANCH  21  26
ENDBRANCH   6  13
BRANCH   1  30
HETATM   30  O1  UNL     1       5.294  -2.063   0.781  1.00  0.00    -0.316 OA
BRANCH  30  31
HETATM   31  C2  UNL     1       6.585  -1.622   0.846  1.00  0.00     0.249 C 
BRANCH  31  32
HETATM   32  C1  UNL     1       7.195  -0.975  -0.348  1.00  0.00     0.377 C 
HETATM   33  F1  UNL     1       7.179  -1.852  -1.433  1.00  0.00    -0.212 F 
HETATM   34  F2  UNL     1       6.778   0.274  -0.674  1.00  0.00    -0.212 F 
ENDBRANCH  31  32
ENDBRANCH  30  31
ENDBRANCH   1  30
TORSDOF 5
