REMARK  8 active torsions:
REMARK  status: ('A' for Active; 'I' for Inactive)
REMARK    1  A    between atoms: C2_7  and  C3_8 
REMARK    2  A    between atoms: C3_8  and  C4_9 
REMARK    3  A    between atoms: C4_9  and  N3_10 
REMARK    4  A    between atoms: C6_15  and  C7_16 
REMARK    5  A    between atoms: C9_21  and  C10_22 
REMARK    6  A    between atoms: C9_21  and  C15_32 
REMARK    7  A    between atoms: N6_26  and  C12_27 
REMARK    8  A    between atoms: C12_27  and  C13_28 
ROOT
HETATM    1  N3  UNL     1      -1.928  -1.251  -0.845  1.00  0.00    -0.226 N 
ATOM      2  H3  UNL     1      -1.714  -1.940  -1.566  1.00  0.00     0.177 HD
HETATM    3  C5  UNL     1      -1.011  -0.602  -0.216  1.00  0.00     0.675 C 
HETATM    4  N4  UNL     1      -1.260   0.359   0.794  1.00  0.00    -0.191 N 
ATOM      5  H4  UNL     1      -2.225   0.526   1.078  1.00  0.00     0.184 HD
HETATM    6  C6  UNL     1      -0.343   1.020   1.361  1.00  0.00     0.112 C 
HETATM    7  C8  UNL     1       1.083   0.876   1.041  1.00  0.00     0.108 C 
HETATM    8  C9  UNL     1       1.293   0.337  -0.325  1.00  0.00     0.179 C 
HETATM    9  N7  UNL     1       0.379  -0.764  -0.539  1.00  0.00    -0.203 N 
ATOM     10  H7  UNL     1       0.719  -1.648  -0.916  1.00  0.00     0.179 HD
ENDROOT
BRANCH   8  11
HETATM   11  C10 UNL     1       2.735  -0.102  -0.488  1.00  0.00     0.014 A 
HETATM   12  C11 UNL     1       3.215  -1.282  -1.005  1.00  0.00     0.118 A 
HETATM   13  N5  UNL     1       4.568  -1.207  -0.976  1.00  0.00    -0.309 N 
HETATM   14  N6  UNL     1       4.961  -0.046  -0.468  1.00  0.00    -0.298 N 
ATOM     15  H5  UNL     1       5.197  -1.942  -1.300  1.00  0.00     0.186 HD
HETATM   16  C14 UNL     1       3.845   0.649  -0.160  1.00  0.00     0.121 A 
BRANCH  14  17
HETATM   17  C12 UNL     1       6.337   0.426  -0.304  1.00  0.00     0.219 C 
BRANCH  17  18
HETATM   18  C13 UNL     1       6.819  -0.026   1.040  1.00  0.00     0.372 C 
HETATM   19  F4  UNL     1       6.748  -1.414   1.030  1.00  0.00    -0.213 F 
HETATM   20  F5  UNL     1       8.105   0.432   1.276  1.00  0.00    -0.213 F 
ENDBRANCH  17  18
ENDBRANCH  14  17
ENDBRANCH   8  11
BRANCH   8  21
HETATM   21  C15 UNL     1       1.059   1.347  -1.429  1.00  0.00     0.418 C 
HETATM   22  F6  UNL     1       1.308   0.650  -2.621  1.00  0.00    -0.168 F 
HETATM   23  F7  UNL     1      -0.183   1.894  -1.414  1.00  0.00    -0.168 F 
HETATM   24  F8  UNL     1       2.055   2.319  -1.309  1.00  0.00    -0.168 F 
ENDBRANCH   8  21
BRANCH   6  25
HETATM   25  C7  UNL     1      -0.765   2.005   2.420  1.00  0.00     0.429 C 
HETATM   26  F1  UNL     1      -0.515   3.291   2.016  1.00  0.00    -0.165 F 
HETATM   27  F2  UNL     1      -2.107   1.882   2.721  1.00  0.00    -0.165 F 
HETATM   28  F3  UNL     1      -0.037   1.708   3.582  1.00  0.00    -0.165 F 
ENDBRANCH   6  25
BRANCH   1  29
HETATM   29  C4  UNL     1      -3.282  -0.933  -0.456  1.00  0.00     0.144 C 
BRANCH  29  30
HETATM   30  C3  UNL     1      -4.356  -1.711  -1.129  1.00  0.00     0.078 C 
BRANCH  30  31
HETATM   31  C2  UNL     1      -5.646  -1.112  -0.564  1.00  0.00     0.019 A 
HETATM   32  N2  UNL     1      -6.243  -1.575   0.513  1.00  0.00    -0.340 N 
HETATM   33  C1  UNL     1      -7.353  -0.970   0.927  1.00  0.00     0.142 A 
ATOM     34  H2  UNL     1      -5.865  -2.377   1.017  1.00  0.00     0.167 HD
HETATM   35  N1  UNL     1      -8.098  -1.276   1.977  1.00  0.00    -0.380 N 
HETATM   36  S1  UNL     1      -7.567   0.280  -0.215  1.00  0.00    -0.064 SA
ATOM     37  H12 UNL     1      -7.970  -2.023   2.660  1.00  0.00     0.158 HD
ATOM     38  H11 UNL     1      -8.949  -0.812   2.294  1.00  0.00     0.158 HD
HETATM   39  C16 UNL     1      -6.207  -0.036  -1.188  1.00  0.00     0.078 A 
ENDBRANCH  30  31
ENDBRANCH  29  30
ENDBRANCH   1  29
TORSDOF 8
