REMARK  1 active torsions:
REMARK  status: ('A' for Active; 'I' for Inactive)
REMARK    1  A    between atoms: N1_1  and  C1_5 
ROOT
HETATM    1  C1  UNL     1      -2.105   0.098  -0.259  1.00  0.00     0.318 C 
HETATM    2  C2  UNL     1      -1.706  -1.311  -0.571  1.00  0.00     0.061 C 
HETATM    3  C3  UNL     1      -0.565  -1.814   0.262  1.00  0.00     0.004 C 
HETATM    4  C4  UNL     1       0.773  -1.701  -0.458  1.00  0.00     0.000 C 
HETATM    5  C5  UNL     1       1.856  -1.322   0.540  1.00  0.00     0.002 C 
HETATM    6  C6  UNL     1       2.820  -0.316  -0.017  1.00  0.00     0.026 C 
HETATM    7  C7  UNL     1       2.309   1.083  -0.017  1.00  0.00     0.167 C 
HETATM    8  O1  UNL     1       1.146   1.268   0.701  1.00  0.00    -0.389 OA
HETATM    9  C8  UNL     1       0.423   2.341   0.153  1.00  0.00     0.193 C 
HETATM   10  C9  UNL     1      -1.073   2.069   0.242  1.00  0.00     0.196 C 
HETATM   11  O2  UNL     1      -1.239   0.734   0.625  1.00  0.00    -0.357 OA
ENDROOT
BRANCH   1  12
HETATM   12  N1  UNL     1      -3.437   0.175   0.345  1.00  0.00    -0.053 N 
ATOM     13  H13 UNL     1      -4.135  -0.285  -0.240  1.00  0.00     0.277 HD
ATOM     14  H12 UNL     1      -3.502  -0.419   1.172  1.00  0.00     0.277 HD
ATOM     15  H11 UNL     1      -3.709   1.135   0.558  1.00  0.00     0.277 HD
ENDBRANCH   1  12
TORSDOF 1
