REMARK  0 active torsions:
REMARK  status: ('A' for Active; 'I' for Inactive)
ROOT
HETATM    1  C1  UNL     1      -2.928  -0.949  -0.502  1.00  0.00     0.019 C 
HETATM    2  C2  UNL     1      -1.800   0.051  -0.203  1.00  0.00    -0.004 C 
HETATM    3  C3  UNL     1      -2.501   1.336   0.185  1.00  0.00     0.019 C 
HETATM    4  C4  UNL     1      -0.929   0.279  -1.383  1.00  0.00     0.184 C 
HETATM    5  O1  UNL     1       0.380   0.073  -1.251  1.00  0.00    -0.332 OA
HETATM    6  C5  UNL     1       0.969  -0.099  -0.074  1.00  0.00     0.337 C 
HETATM    7  C6  UNL     1       1.981   1.037   0.142  1.00  0.00     0.103 C 
HETATM    8  C7  UNL     1       3.324   0.400   0.232  1.00  0.00     0.035 C 
HETATM    9  C8  UNL     1       2.993  -1.030   0.595  1.00  0.00     0.239 C 
HETATM   10  N1  UNL     1       1.816  -1.302  -0.166  1.00  0.00    -0.017 N 
ATOM     11  H11 UNL     1       2.013  -1.585  -1.126  1.00  0.00     0.283 HD
ATOM     12  H12 UNL     1       1.337  -2.155   0.122  1.00  0.00     0.283 HD
HETATM   13  O2  UNL     1       0.242  -0.194   1.062  1.00  0.00    -0.332 OA
HETATM   14  C9  UNL     1      -1.064  -0.513   0.986  1.00  0.00     0.184 C 
ENDROOT
TORSDOF 0
