REMARK  12 active torsions:
REMARK  status: ('A' for Active; 'I' for Inactive)
REMARK    1  A    between atoms: C2_2  and  C3_3 
REMARK    2  A    between atoms: C3_3  and  C4_4 
REMARK    3  A    between atoms: C5_7  and  N2_8 
REMARK    4  A    between atoms: C6_13  and  N4_14 
REMARK    5  A    between atoms: C7_17  and  C8_18 
REMARK    6  A    between atoms: C8_18  and  C9_19 
REMARK    7  A    between atoms: C9_19  and  C10_20 
REMARK    8  A    between atoms: C10_20  and  C11_21 
REMARK    9  A    between atoms: C11_21  and  C12_22 
REMARK   10  A    between atoms: C12_22  and  N5_23 
REMARK   11  A    between atoms: C17_29  and  C18_30 
REMARK   12  A    between atoms: C18_30  and  O1_31 
ROOT
HETATM    1  N5  UNL     1      -2.015   1.223  -0.282  1.00  0.00    -0.364 N 
HETATM    2  C13 UNL     1      -2.278   1.339  -1.569  1.00  0.00     0.113 A 
HETATM    3  C14 UNL     1      -3.420   0.865  -2.145  1.00  0.00     0.061 A 
HETATM    4  C15 UNL     1      -3.667   1.009  -3.556  1.00  0.00     0.101 C 
HETATM    5  N6  UNL     1      -3.866   1.111  -4.703  1.00  0.00    -0.191 NA
HETATM    6  C16 UNL     1      -4.353   0.231  -1.323  1.00  0.00     0.041 A 
HETATM    7  C17 UNL     1      -4.143   0.083   0.004  1.00  0.00     0.032 A 
HETATM    8  C23 UNL     1      -2.946   0.598   0.494  1.00  0.00     0.106 A 
ENDROOT
BRANCH   1   9
HETATM    9  C12 UNL     1      -0.878   1.726   0.452  1.00  0.00     0.128 C 
BRANCH   9  10
HETATM   10  C11 UNL     1       0.264   0.791   0.505  1.00  0.00     0.020 C 
BRANCH  10  11
HETATM   11  C10 UNL     1       0.989   0.659  -0.783  1.00  0.00     0.002 C 
BRANCH  11  12
HETATM   12  C9  UNL     1       2.117  -0.357  -0.759  1.00  0.00     0.005 C 
BRANCH  12  13
HETATM   13  C8  UNL     1       2.974  -0.089   0.441  1.00  0.00     0.044 C 
BRANCH  13  14
HETATM   14  C7  UNL     1       4.164  -0.977   0.501  1.00  0.00     0.009 A 
HETATM   15  C4  UNL     1       5.382  -0.510   0.102  1.00  0.00     0.036 A 
HETATM   16  N1  UNL     1       6.429  -1.382   0.060  1.00  0.00    -0.195 N 
HETATM   17  C5  UNL     1       6.209  -2.658   0.415  1.00  0.00     0.677 A 
ATOM     18  H1  UNL     1       7.356  -1.073  -0.234  1.00  0.00     0.184 HD
HETATM   19  N3  UNL     1       4.991  -3.123   0.815  1.00  0.00    -0.177 N 
HETATM   20  C6  UNL     1       3.934  -2.284   0.868  1.00  0.00     0.122 A 
ATOM     21  H3  UNL     1       4.878  -4.103   1.074  1.00  0.00     0.185 HD
BRANCH  15  22
HETATM   22  C3  UNL     1       5.632   0.925  -0.213  1.00  0.00     0.058 C 
BRANCH  22  23
HETATM   23  C2  UNL     1       7.111   1.227  -0.244  1.00  0.00     0.002 C 
HETATM   24  C1  UNL     1       7.245   2.722  -0.510  1.00  0.00     0.005 C 
ENDBRANCH  22  23
ENDBRANCH  15  22
BRANCH  17  25
HETATM   25  N2  UNL     1       7.227  -3.485   0.375  1.00  0.00    -0.234 N 
ATOM     26  H22 UNL     1       8.138  -3.137   0.076  1.00  0.00     0.174 HD
ATOM     27  H21 UNL     1       7.060  -4.454   0.645  1.00  0.00     0.174 HD
ENDBRANCH  17  25
BRANCH  20  28
HETATM   28  N4  UNL     1       2.800  -2.752   1.233  1.00  0.00    -0.385 N 
ATOM     29  H42 UNL     1       2.630  -3.720   1.505  1.00  0.00     0.157 HD
ATOM     30  H41 UNL     1       2.002  -2.118   1.273  1.00  0.00     0.157 HD
ENDBRANCH  20  28
ENDBRANCH  13  14
ENDBRANCH  12  13
ENDBRANCH  11  12
ENDBRANCH  10  11
ENDBRANCH   9  10
ENDBRANCH   1   9
BRANCH   7  31
HETATM   31  C18 UNL     1      -5.054  -0.465   0.976  1.00  0.00     0.149 C 
HETATM   32  N7  UNL     1      -6.394  -0.695   0.882  1.00  0.00    -0.361 N 
HETATM   33  C19 UNL     1      -7.170  -1.337   1.999  1.00  0.00     0.125 C 
HETATM   34  C22 UNL     1      -7.404  -0.375  -0.101  1.00  0.00     0.125 C 
HETATM   35  C20 UNL     1      -8.360  -0.439   2.105  1.00  0.00     0.021 C 
HETATM   36  C21 UNL     1      -8.480   0.244   0.803  1.00  0.00     0.021 C 
BRANCH  31  37
HETATM   37  O1  UNL     1      -4.520  -0.783   2.139  1.00  0.00    -0.346 OA
ATOM     38  H1  UNL     1      -5.121  -1.144   2.780  1.00  0.00     0.219 HD
ENDBRANCH  31  37
ENDBRANCH   7  31
TORSDOF 12
