REMARK  9 active torsions:
REMARK  status: ('A' for Active; 'I' for Inactive)
REMARK    1  A    between atoms: C4_10  and  O1_11 
REMARK    2  A    between atoms: C6_15  and  C7_16 
REMARK    3  A    between atoms: C7_16  and  C8_17 
REMARK    4  A    between atoms: C8_17  and  C9_18 
REMARK    5  A    between atoms: C9_18  and  C10_19 
REMARK    6  A    between atoms: C10_19  and  C11_20 
REMARK    7  A    between atoms: C11_20  and  C12_21 
REMARK    8  A    between atoms: C12_21  and  C13_22 
REMARK    9  A    between atoms: C13_22  and  N4_23 
ROOT
HETATM    1  C1  UNL     1      -4.597  -1.320  -1.331  1.00  0.00     0.153 C 
HETATM    2  N1  UNL     1      -4.279  -0.157  -0.491  1.00  0.00    -0.351 N 
HETATM    3  C2  UNL     1      -5.154   0.961  -0.411  1.00  0.00     0.171 C 
HETATM    4  N2  UNL     1      -6.230   1.181  -1.132  1.00  0.00    -0.371 N 
ATOM      5  H21 UNL     1      -6.858   1.983  -1.075  1.00  0.00     0.159 HD
ATOM      6  H22 UNL     1      -6.606   0.581  -1.866  1.00  0.00     0.159 HD
HETATM    7  N3  UNL     1      -4.630   1.797   0.612  1.00  0.00    -0.353 N 
ATOM      8  H3  UNL     1      -5.148   2.469   1.178  1.00  0.00     0.163 HD
HETATM    9  C3  UNL     1      -3.237   1.508   0.688  1.00  0.00     0.138 C 
HETATM   10  C4  UNL     1      -2.655   1.718   2.069  1.00  0.00     0.166 C 
HETATM   11  C5  UNL     1      -1.312   0.971   2.031  1.00  0.00     0.202 C 
HETATM   12  O2  UNL     1      -0.672   1.366   0.908  1.00  0.00    -0.383 OA
HETATM   13  C6  UNL     1      -0.672   0.544  -0.180  1.00  0.00     0.123 C 
HETATM   14  C14 UNL     1      -1.864  -0.325  -0.381  1.00  0.00     0.059 C 
HETATM   15  C15 UNL     1      -3.109   0.044   0.342  1.00  0.00     0.114 C 
ENDROOT
BRANCH  13  16
HETATM   16  C7  UNL     1       0.648  -0.229  -0.253  1.00  0.00     0.036 C 
BRANCH  16  17
HETATM   17  C8  UNL     1       0.900  -1.071   0.922  1.00  0.00     0.029 C 
BRANCH  17  18
HETATM   18  C9  UNL     1       2.119  -1.902   0.958  1.00  0.00    -0.031 C 
BRANCH  18  19
HETATM   19  C10 UNL     1       3.465  -1.346   0.959  1.00  0.00    -0.031 C 
BRANCH  19  20
HETATM   20  C11 UNL     1       3.973  -0.513  -0.144  1.00  0.00     0.028 C 
BRANCH  20  21
HETATM   21  C12 UNL     1       5.470  -0.169   0.153  1.00  0.00     0.031 C 
BRANCH  21  22
HETATM   22  C13 UNL     1       6.000   0.685  -0.973  1.00  0.00     0.230 C 
BRANCH  22  23
HETATM   23  N4  UNL     1       5.934   0.029  -2.243  1.00  0.00    -0.079 N 
ATOM     24  H43 UNL     1       6.409  -0.873  -2.214  1.00  0.00     0.274 HD
ATOM     25  H42 UNL     1       4.986  -0.290  -2.441  1.00  0.00     0.274 HD
ATOM     26  H41 UNL     1       6.292   0.606  -3.004  1.00  0.00     0.274 HD
ENDBRANCH  22  23
ENDBRANCH  21  22
ENDBRANCH  20  21
ENDBRANCH  19  20
ENDBRANCH  18  19
ENDBRANCH  17  18
ENDBRANCH  16  17
ENDBRANCH  13  16
BRANCH  10  27
HETATM   27  O1  UNL     1      -3.494   1.185   3.044  1.00  0.00    -0.391 OA
ATOM     28  H1  UNL     1      -3.129   1.317   3.911  1.00  0.00     0.210 HD
ENDBRANCH  10  27
TORSDOF 9
