REMARK  7 active torsions:
REMARK  status: ('A' for Active; 'I' for Inactive)
REMARK    1  A    between atoms: C4_5  and  N2_6 
REMARK    2  A    between atoms: C6_11  and  C7_12 
REMARK    3  A    between atoms: C7_12  and  O1_13 
REMARK    4  A    between atoms: O1_13  and  C8_14 
REMARK    5  A    between atoms: C8_14  and  C9_15 
REMARK    6  A    between atoms: C9_15  and  O2_16 
REMARK    7  A    between atoms: O2_16  and  C10_17 
ROOT
HETATM    1  C1  UNL     1       4.487   2.204   0.309  1.00  0.00     0.310 C 
HETATM    2  N1  UNL     1       3.620   1.265  -0.351  1.00  0.00     0.089 N 
HETATM    3  C2  UNL     1       4.238   0.680  -1.537  1.00  0.00     0.274 C 
HETATM    4  C3  UNL     1       3.986  -0.782  -1.670  1.00  0.00     0.063 C 
HETATM    5  C4  UNL     1       2.528  -1.158  -1.438  1.00  0.00     0.191 C 
HETATM    6  C5  UNL     1       1.978  -0.456  -0.250  1.00  0.00     0.055 C 
HETATM    7  C6  UNL     1       1.434  -1.340   0.817  1.00  0.00     0.018 C 
HETATM    8  C14 UNL     1       1.714  -0.628   2.122  1.00  0.00     0.009 C 
HETATM    9  C15 UNL     1       2.536   0.606   1.759  1.00  0.00     0.037 C 
HETATM   10  C16 UNL     1       3.162   0.202   0.473  1.00  0.00     0.229 C 
ENDROOT
BRANCH   7  11
HETATM   11  C7  UNL     1      -0.110  -1.439   0.702  1.00  0.00     0.172 C 
BRANCH  11  12
HETATM   12  O1  UNL     1      -0.661  -0.197   0.833  1.00  0.00    -0.389 OA
BRANCH  12  13
HETATM   13  C8  UNL     1      -2.062  -0.208   0.807  1.00  0.00     0.193 C 
BRANCH  13  14
HETATM   14  C9  UNL     1      -2.558  -0.749  -0.475  1.00  0.00     0.195 C 
BRANCH  14  15
HETATM   15  O2  UNL     1      -3.873  -0.826  -0.628  1.00  0.00    -0.379 OA
BRANCH  15  16
HETATM   16  C10 UNL     1      -4.716   0.169  -0.605  1.00  0.00     0.050 C 
HETATM   17  C11 UNL     1      -4.913   0.866   0.689  1.00  0.00     0.045 C 
HETATM   18  C12 UNL     1      -4.320   1.174  -1.709  1.00  0.00     0.045 C 
HETATM   19  C13 UNL     1      -6.115  -0.390  -0.999  1.00  0.00     0.045 C 
ENDBRANCH  15  16
ENDBRANCH  14  15
ENDBRANCH  13  14
ENDBRANCH  12  13
ENDBRANCH  11  12
ENDBRANCH   7  11
BRANCH   5  20
HETATM   20  N2  UNL     1       1.806  -0.669  -2.623  1.00  0.00    -0.075 N 
ATOM     21  H23 UNL     1       1.950   0.323  -2.811  1.00  0.00     0.274 HD
ATOM     22  H22 UNL     1       2.184  -1.014  -3.506  1.00  0.00     0.274 HD
ATOM     23  H21 UNL     1       0.830  -0.921  -2.468  1.00  0.00     0.274 HD
ENDBRANCH   5  20
TORSDOF 7
