REMARK  6 active torsions:
REMARK  status: ('A' for Active; 'I' for Inactive)
REMARK    1  A    between atoms: N2_5  and  C3_6 
REMARK    2  A    between atoms: C3_6  and  C4_7 
REMARK    3  A    between atoms: C4_7  and  N3_8 
REMARK    4  A    between atoms: N3_8  and  C5_10 
REMARK    5  A    between atoms: C5_10  and  C6_11 
REMARK    6  A    between atoms: N4_15  and  C10_16 
ROOT
HETATM    1  C6  UNL     1       0.519  -0.505   0.112  1.00  0.00     0.042 C 
HETATM    2  C7  UNL     1      -0.008  -1.262   1.323  1.00  0.00     0.016 C 
HETATM    3  C8  UNL     1      -1.050  -2.226   0.801  1.00  0.00     0.045 C 
HETATM    4  C9  UNL     1      -2.223  -1.350   0.398  1.00  0.00     0.063 C 
HETATM    5  N4  UNL     1      -1.855  -0.479  -0.635  1.00  0.00    -0.369 N 
HETATM    6  C16 UNL     1      -0.554   0.032  -0.743  1.00  0.00     0.069 C 
ENDROOT
BRANCH   1   7
HETATM    7  C5  UNL     1       1.482  -1.431  -0.648  1.00  0.00     0.123 C 
BRANCH   7   8
HETATM    8  N3  UNL     1       2.560  -1.837   0.170  1.00  0.00    -0.419 N 
ATOM      9  H3  UNL     1       2.612  -2.799   0.504  1.00  0.00     0.153 HD
BRANCH   8  10
HETATM   10  C4  UNL     1       3.568  -0.911   0.527  1.00  0.00     0.135 C 
BRANCH  10  11
HETATM   11  C3  UNL     1       4.491  -0.556  -0.626  1.00  0.00     0.167 C 
BRANCH  11  12
HETATM   12  N2  UNL     1       5.504   0.374  -0.214  1.00  0.00    -0.302 N 
HETATM   13  N1  UNL     1       6.693   0.097   0.312  1.00  0.00    -0.310 N 
HETATM   14  C2  UNL     1       7.381   1.211   0.543  1.00  0.00     0.108 A 
ATOM     15  H1  UNL     1       7.032  -0.844   0.512  1.00  0.00     0.186 HD
HETATM   16  C1  UNL     1       6.575   2.260   0.134  1.00  0.00     0.037 A 
HETATM   17  C17 UNL     1       5.401   1.727  -0.337  1.00  0.00     0.111 A 
ENDBRANCH  11  12
ENDBRANCH  10  11
ENDBRANCH   8  10
ENDBRANCH   7   8
ENDBRANCH   1   7
BRANCH   5  18
HETATM   18  C10 UNL     1      -2.850   0.552  -0.907  1.00  0.00     0.088 C 
HETATM   19  C11 UNL     1      -4.159   0.027  -1.383  1.00  0.00     0.026 C 
HETATM   20  C12 UNL     1      -5.232  -0.097  -0.338  1.00  0.00     0.002 C 
HETATM   21  C13 UNL     1      -5.345   1.060   0.592  1.00  0.00     0.000 C 
HETATM   22  C14 UNL     1      -4.391   2.136   0.150  1.00  0.00     0.002 C 
HETATM   23  C15 UNL     1      -2.996   1.543   0.215  1.00  0.00     0.026 C 
ENDBRANCH   5  18
TORSDOF 6
