REMARK  10 active torsions:
REMARK  status: ('A' for Active; 'I' for Inactive)
REMARK       I    between atoms: C1_4  and  N3_6 
REMARK    1  A    between atoms: N3_6  and  N4_8 
REMARK    2  A    between atoms: N4_8  and  C2_10 
REMARK    3  A    between atoms: C3_13  and  C4_14 
REMARK    4  A    between atoms: C4_14  and  N6_15 
REMARK    5  A    between atoms: C4_14  and  N7_19 
REMARK    6  A    between atoms: N7_19  and  N8_20 
REMARK       I    between atoms: N8_20  and  C5_22 
REMARK    7  A    between atoms: C5_22  and  C6_24 
REMARK    8  A    between atoms: N11_29  and  C7_30 
REMARK    9  A    between atoms: C8_36  and  N14_37 
REMARK   10  A    between atoms: C9_42  and  N16_43 
ROOT
HETATM    1  C4  UNL     1       0.553  -0.503  -0.753  1.00  0.00     0.348 C 
ENDROOT
BRANCH   1   2
HETATM    2  C3  UNL     1       2.075  -0.307  -0.912  1.00  0.00     0.100 A 
HETATM    3  N5  UNL     1       2.894  -0.811  -0.001  1.00  0.00    -0.333 N 
HETATM    4  C2  UNL     1       4.201  -0.634  -0.151  1.00  0.00     0.166 A 
ATOM      5  H5  UNL     1       2.527  -1.325   0.800  1.00  0.00     0.168 HD
HETATM    6  S1  UNL     1       4.318   0.248  -1.584  1.00  0.00    -0.026 SA
HETATM    7  C9  UNL     1       2.612   0.367  -1.958  1.00  0.00     0.173 A 
BRANCH   4   8
HETATM    8  N4  UNL     1       5.111  -1.074   0.685  1.00  0.00    -0.277 N 
ATOM      9  H4  UNL     1       4.786  -1.586   1.505  1.00  0.00     0.189 HD
BRANCH   8  10
HETATM   10  N3  UNL     1       6.451  -0.903   0.546  1.00  0.00    -0.272 N 
HETATM   11  C1  UNL     1       6.975   0.369   0.174  1.00  0.00     0.200 C 
HETATM   12  N1  UNL     1       6.897   1.319   1.053  1.00  0.00    -0.372 N 
HETATM   13  N2  UNL     1       7.563   0.603  -1.094  1.00  0.00    -0.062 NA
ATOM     14  H12 UNL     1       7.272   2.229   0.787  1.00  0.00     0.158 HD
ATOM     15  H11 UNL     1       6.474   1.151   1.966  1.00  0.00     0.158 HD
ATOM     16  H3  UNL     1       7.084  -1.686   0.708  1.00  0.00     0.189 HD
ENDBRANCH   8  10
ENDBRANCH   4   8
BRANCH   7  17
HETATM   17  N16 UNL     1       2.080   1.061  -3.089  1.00  0.00    -0.106 N 
HETATM   18  O3  UNL     1       2.920   1.585  -3.892  1.00  0.00    -0.531 OA
HETATM   19  O4  UNL     1       0.795   1.253  -3.438  1.00  0.00    -0.531 OA
ENDBRANCH   7  17
ENDBRANCH   1   2
BRANCH   1  20
HETATM   20  N6  UNL     1      -0.052  -0.946  -1.969  1.00  0.00    -0.054 N 
ATOM     21  H63 UNL     1       0.163  -0.317  -2.742  1.00  0.00     0.276 HD
ATOM     22  H62 UNL     1       0.397  -1.791  -2.322  1.00  0.00     0.276 HD
ATOM     23  H61 UNL     1      -1.058  -1.076  -1.864  1.00  0.00     0.276 HD
ENDBRANCH   1  20
BRANCH   1  24
HETATM   24  N7  UNL     1       0.013   0.694  -0.183  1.00  0.00    -0.098 NA
BRANCH  24  25
HETATM   25  N8  UNL     1      -1.307   0.566   0.197  1.00  0.00    -0.265 N 
HETATM   26  C5  UNL     1      -1.593  -0.149   1.373  1.00  0.00     0.303 C 
HETATM   27  O1  UNL     1      -0.697  -0.697   2.082  1.00  0.00    -0.263 OA
ATOM     28  H8  UNL     1      -2.055   0.979  -0.360  1.00  0.00     0.185 HD
BRANCH  26  29
HETATM   29  C6  UNL     1      -2.950  -0.296   1.840  1.00  0.00     0.208 A 
HETATM   30  N9  UNL     1      -3.390  -1.031   2.907  1.00  0.00    -0.264 N 
HETATM   31  N10 UNL     1      -4.687  -0.823   2.963  1.00  0.00    -0.218 N 
ATOM     32  H9  UNL     1      -2.830  -1.616   3.527  1.00  0.00     0.190 HD
HETATM   33  N11 UNL     1      -5.071  -0.002   1.993  1.00  0.00    -0.158 N 
ATOM     34  H10 UNL     1      -5.312  -1.235   3.656  1.00  0.00     0.210 HD
HETATM   35  N15 UNL     1      -4.021   0.334   1.291  1.00  0.00    -0.255 N 
ATOM     36  H15 UNL     1      -4.008   0.954   0.481  1.00  0.00     0.191 HD
BRANCH  33  37
HETATM   37  C7  UNL     1      -6.408   0.453   1.765  1.00  0.00     0.214 A 
HETATM   38  N12 UNL     1      -7.164   1.105   2.687  1.00  0.00    -0.219 N 
HETATM   39  O2  UNL     1      -8.292   1.353   2.143  1.00  0.00    -0.153 OA
ATOM     40  H12 UNL     1      -6.883   1.350   3.636  1.00  0.00     0.198 HD
HETATM   41  N13 UNL     1      -8.347   0.910   0.912  1.00  0.00    -0.222 N 
HETATM   42  C8  UNL     1      -7.151   0.321   0.622  1.00  0.00     0.171 A 
ATOM     43  H13 UNL     1      -9.144   0.991   0.281  1.00  0.00     0.198 HD
BRANCH  42  44
HETATM   44  N14 UNL     1      -6.807  -0.234  -0.485  1.00  0.00    -0.381 N 
ATOM     45 2H14 UNL     1      -5.913  -0.674  -0.702  1.00  0.00     0.157 HD
ATOM     46 1H14 UNL     1      -7.360  -0.332  -1.336  1.00  0.00     0.157 HD
ENDBRANCH  42  44
ENDBRANCH  33  37
ENDBRANCH  26  29
ENDBRANCH  24  25
ENDBRANCH   1  24
TORSDOF 10
