REMARK  11 active torsions:
REMARK  status: ('A' for Active; 'I' for Inactive)
REMARK    1  A    between atoms: N1_1  and  C1_4 
REMARK    2  A    between atoms: C2_7  and  C3_8 
REMARK    3  A    between atoms: C3_8  and  N3_9 
REMARK    4  A    between atoms: N4_11  and  C4_13 
REMARK    5  A    between atoms: C5_16  and  N6_17 
REMARK    6  A    between atoms: N6_17  and  N7_19 
REMARK    7  A    between atoms: C6_24  and  N9_25 
REMARK    8  A    between atoms: N9_25  and  O3_26 
REMARK    9  A    between atoms: C7_28  and  N10_29 
REMARK       I    between atoms: N13_40  and  C11_42 
REMARK   10  A    between atoms: C11_42  and  C12_44 
REMARK   11  A    between atoms: C12_44  and  N14_45 
ROOT
HETATM    1  C1  UNL     1       2.591   2.303   0.811  1.00  0.00     0.676 A 
HETATM    2  N2  UNL     1       1.381   1.905   1.230  1.00  0.00    -0.192 N 
ATOM      3  H2  UNL     1       0.742   2.580   1.649  1.00  0.00     0.184 HD
HETATM    4  C2  UNL     1       1.006   0.619   1.100  1.00  0.00     0.074 A 
HETATM    5  C8  UNL     1       1.895  -0.263   0.530  1.00  0.00     0.089 A 
HETATM    6  N11 UNL     1       1.507  -1.549   0.406  1.00  0.00    -0.349 N 
ATOM      7  H11 UNL     1       0.584  -1.841   0.728  1.00  0.00     0.167 HD
HETATM    8  C9  UNL     1       2.343  -2.441  -0.144  1.00  0.00     0.182 A 
HETATM    9  N12 UNL     1       3.562  -2.036  -0.565  1.00  0.00    -0.337 N 
ATOM     10  H12 UNL     1       4.187  -2.726  -0.982  1.00  0.00     0.168 HD
HETATM   11  C10 UNL     1       3.988  -0.768  -0.460  1.00  0.00     0.139 A 
HETATM   12  N13 UNL     1       5.137  -0.378  -0.855  1.00  0.00    -0.310 N 
ATOM     13  H13 UNL     1       5.361   0.609  -0.728  1.00  0.00     0.170 HD
HETATM   14  C11 UNL     1       6.121  -1.186  -1.449  1.00  0.00     0.248 C 
HETATM   15  O4  UNL     1       5.894  -1.842  -2.498  1.00  0.00    -0.271 OA
HETATM   16  C13 UNL     1       3.141   0.163   0.103  1.00  0.00     0.122 A 
HETATM   17  N15 UNL     1       3.469   1.447   0.252  1.00  0.00    -0.186 N 
ATOM     18  H15 UNL     1       4.382   1.780  -0.056  1.00  0.00     0.184 HD
ENDROOT
BRANCH   4  19
HETATM   19  C3  UNL     1      -0.348   0.175   1.568  1.00  0.00     0.199 C 
BRANCH  19  20
HETATM   20  N3  UNL     1      -1.078   1.256   2.115  1.00  0.00    -0.333 N 
HETATM   21  N4  UNL     1      -2.271   1.504   1.900  1.00  0.00    -0.314 N 
ATOM     22  H4  UNL     1      -2.674   2.319   2.362  1.00  0.00     0.182 HD
ATOM     23  H3  UNL     1      -0.577   1.886   2.741  1.00  0.00     0.180 HD
BRANCH  21  24
HETATM   24  C4  UNL     1      -3.129   0.732   1.051  1.00  0.00     0.248 C 
HETATM   25  N5  UNL     1      -4.509   0.776   1.516  1.00  0.00    -0.200 N 
HETATM   26  C5  UNL     1      -5.364   0.239   0.686  1.00  0.00     0.696 C 
ATOM     27  H5  UNL     1      -4.783   1.188   2.408  1.00  0.00     0.180 HD
HETATM   28  N8  UNL     1      -4.930  -0.321  -0.546  1.00  0.00    -0.202 N 
HETATM   29  C6  UNL     1      -3.759   0.168  -1.239  1.00  0.00     0.255 C 
ATOM     30  H8  UNL     1      -5.461  -1.091  -0.954  1.00  0.00     0.179 HD
HETATM   31  C7  UNL     1      -3.115   1.222  -0.372  1.00  0.00     0.268 C 
BRANCH  26  32
HETATM   32  N6  UNL     1      -6.740   0.214   1.011  1.00  0.00    -0.072 N 
ATOM     33  H6  UNL     1      -7.397   0.653   0.365  1.00  0.00     0.212 HD
BRANCH  32  34
HETATM   34  N7  UNL     1      -7.248  -0.380   2.170  1.00  0.00    -0.024 N 
HETATM   35  O1  UNL     1      -6.727  -0.135   3.274  1.00  0.00    -0.516 OA
HETATM   36  O2  UNL     1      -8.314  -1.235   2.133  1.00  0.00    -0.516 OA
ENDBRANCH  32  34
ENDBRANCH  26  32
BRANCH  29  37
HETATM   37  N9  UNL     1      -2.798  -0.914  -1.497  1.00  0.00    -0.075 NA
BRANCH  37  38
HETATM   38  O3  UNL     1      -3.487  -1.808  -2.279  1.00  0.00    -0.294 OA
ATOM     39  H3  UNL     1      -2.866  -2.507  -2.446  1.00  0.00     0.238 HD
ENDBRANCH  37  38
ENDBRANCH  29  37
BRANCH  31  40
HETATM   40  N10 UNL     1      -3.982   2.406  -0.457  1.00  0.00    -0.068 N 
ATOM     41 3H10 UNL     1      -4.925   2.229  -0.111  1.00  0.00     0.275 HD
ATOM     42 2H10 UNL     1      -3.724   3.132   0.212  1.00  0.00     0.275 HD
ATOM     43 1H10 UNL     1      -3.973   2.738  -1.421  1.00  0.00     0.275 HD
ENDBRANCH  31  40
ENDBRANCH  21  24
ENDBRANCH  19  20
ENDBRANCH   4  19
BRANCH   1  44
HETATM   44  N1  UNL     1       2.964   3.546   0.932  1.00  0.00    -0.234 N 
ATOM     45  H12 UNL     1       2.299   4.194   1.355  1.00  0.00     0.174 HD
ATOM     46  H11 UNL     1       3.884   3.849   0.613  1.00  0.00     0.174 HD
ENDBRANCH   1  44
BRANCH  14  47
HETATM   47  C12 UNL     1       7.497  -1.312  -0.866  1.00  0.00     0.332 C 
BRANCH  47  48
HETATM   48  N14 UNL     1       7.600  -0.498   0.336  1.00  0.00    -0.071 N 
ATOM     49 3H14 UNL     1       7.344   0.474   0.164  1.00  0.00     0.274 HD
ATOM     50 2H14 UNL     1       6.874  -0.724   1.015  1.00  0.00     0.274 HD
ATOM     51 1H14 UNL     1       8.536  -0.584   0.733  1.00  0.00     0.274 HD
ENDBRANCH  47  48
ENDBRANCH  14  47
TORSDOF 11
