REMARK  4 active torsions:
REMARK  status: ('A' for Active; 'I' for Inactive)
REMARK    1  A    between atoms: C4_4  and  C5_5 
REMARK    2  A    between atoms: C5_5  and  C6_6 
REMARK    3  A    between atoms: C7_7  and  O1_8 
REMARK    4  A    between atoms: C9_11  and  O2_12 
ROOT
HETATM    1  C6  UNL     1      -1.465  -0.440  -0.481  1.00  0.00     0.014 A 
HETATM    2  C7  UNL     1      -2.207  -1.197  -1.356  1.00  0.00     0.077 A 
HETATM    3  C8  UNL     1      -1.574  -1.893  -2.367  1.00  0.00     0.074 A 
HETATM    4  C9  UNL     1      -0.208  -1.841  -2.515  1.00  0.00     0.085 A 
HETATM    5  C10 UNL     1       0.504  -1.072  -1.619  1.00  0.00     0.083 A 
HETATM    6  C11 UNL     1       1.856  -1.104  -1.882  1.00  0.00     0.205 C 
HETATM    7  O3  UNL     1       2.270  -1.653  -2.930  1.00  0.00    -0.286 OA
HETATM    8  C12 UNL     1       2.909  -0.587  -1.109  1.00  0.00     0.073 A 
HETATM    9  S1  UNL     1       4.562  -0.630  -1.529  1.00  0.00    -0.090 SA
HETATM   10  C13 UNL     1       5.209   0.157  -0.170  1.00  0.00    -0.013 A 
HETATM   11  C14 UNL     1       6.650   0.476   0.150  1.00  0.00     0.057 C 
HETATM   12  C15 UNL     1       4.107   0.441   0.591  1.00  0.00    -0.032 A 
HETATM   13  C16 UNL     1       4.251   1.169   1.921  1.00  0.00     0.050 C 
HETATM   14  C17 UNL     1       2.907   0.055   0.105  1.00  0.00     0.068 A 
HETATM   15  C18 UNL     1       1.695   0.286   0.798  1.00  0.00     0.300 C 
HETATM   16  O4  UNL     1       1.790   0.390   2.061  1.00  0.00    -0.259 OA
HETATM   17  O5  UNL     1       0.481   0.408   0.325  1.00  0.00    -0.273 OA
HETATM   18  C19 UNL     1      -0.079  -0.362  -0.597  1.00  0.00     0.105 A 
ENDROOT
BRANCH   1  19
HETATM   19  C5  UNL     1      -2.068   0.351   0.642  1.00  0.00     0.072 C 
BRANCH  19  20
HETATM   20  C4  UNL     1      -3.426  -0.064   0.980  1.00  0.00    -0.020 C 
HETATM   21  C2  UNL     1      -4.453   0.805   0.934  1.00  0.00    -0.091 C 
HETATM   22  C1  UNL     1      -4.231   2.200   0.539  1.00  0.00     0.042 C 
HETATM   23  C3  UNL     1      -5.820   0.348   1.287  1.00  0.00     0.042 C 
ENDBRANCH  19  20
ENDBRANCH   1  19
BRANCH   2  24
HETATM   24  O1  UNL     1      -3.589  -1.239  -1.193  1.00  0.00    -0.360 OA
ATOM     25  H1  UNL     1      -4.102  -1.762  -1.798  1.00  0.00     0.217 HD
ENDBRANCH   2  24
BRANCH   4  26
HETATM   26  O2  UNL     1       0.480  -2.534  -3.531  1.00  0.00    -0.360 OA
ATOM     27  H2  UNL     1       1.424  -2.498  -3.633  1.00  0.00     0.217 HD
ENDBRANCH   4  26
TORSDOF 4
