REMARK  10 active torsions:
REMARK  status: ('A' for Active; 'I' for Inactive)
REMARK    1  A    between atoms: O1_2  and  C2_3 
REMARK    2  A    between atoms: C2_3  and  C3_5 
REMARK    3  A    between atoms: C6_17  and  C7_18 
REMARK    4  A    between atoms: C7_18  and  O3_19 
REMARK    5  A    between atoms: O3_19  and  C8_20 
REMARK    6  A    between atoms: C8_20  and  C9_22 
REMARK    7  A    between atoms: C9_22  and  N5_23 
REMARK    8  A    between atoms: C9_22  and  C12_38 
REMARK       I    between atoms: N5_23  and  C10_25 
REMARK       I    between atoms: C10_25  and  N6_27 
REMARK       I    between atoms: N6_27  and  C11_29 
REMARK    9  A    between atoms: N8_31  and  N9_33 
REMARK   10  A    between atoms: N9_33  and  N10_35 
ROOT
HETATM    1  C8  UNL     1       0.232  -0.768  -0.460  1.00  0.00     0.282 C 
HETATM    2  O4  UNL     1      -0.017  -0.637   0.752  1.00  0.00    -0.263 OA
ENDROOT
BRANCH   1   3
HETATM    3  O3  UNL     1       1.507  -0.947  -0.913  1.00  0.00    -0.314 OA
BRANCH   3   4
HETATM    4  C7  UNL     1       2.676  -0.999  -0.132  1.00  0.00     0.238 C 
BRANCH   4   5
HETATM    5  C6  UNL     1       2.907   0.290   0.563  1.00  0.00     0.068 A 
HETATM    6  C3  UNL     1       4.015   0.399   1.397  1.00  0.00     0.135 A 
HETATM    7  N1  UNL     1       4.189   1.584   1.983  1.00  0.00    -0.332 N 
HETATM    8  C4  UNL     1       3.359   2.666   1.812  1.00  0.00     0.159 A 
ATOM      9  H1  UNL     1       4.993   1.695   2.600  1.00  0.00     0.168 HD
HETATM   10  N2  UNL     1       3.523   3.870   2.399  1.00  0.00    -0.295 N 
HETATM   11  C5  UNL     1       2.289   2.539   0.999  1.00  0.00     0.158 A 
HETATM   12  S1  UNL     1       2.239   4.772   1.834  1.00  0.00     0.070 SA
ATOM     13  H2  UNL     1       4.261   4.161   3.040  1.00  0.00     0.177 HD
HETATM   14  N3  UNL     1       1.508   3.628   0.866  1.00  0.00    -0.295 N 
ATOM     15  H3  UNL     1       0.664   3.730   0.303  1.00  0.00     0.177 HD
HETATM   16  N4  UNL     1       2.086   1.326   0.381  1.00  0.00    -0.338 N 
ATOM     17  H4  UNL     1       1.282   1.215  -0.236  1.00  0.00     0.167 HD
BRANCH   6  18
HETATM   18  C2  UNL     1       4.940  -0.708   1.622  1.00  0.00     0.311 C 
HETATM   19  O2  UNL     1       4.855  -1.842   1.117  1.00  0.00    -0.258 OA
BRANCH  18  20
HETATM   20  O1  UNL     1       6.018  -0.492   2.477  1.00  0.00    -0.321 OA
HETATM   21  C1  UNL     1       6.980  -1.482   2.774  1.00  0.00     0.213 C 
ENDBRANCH  18  20
ENDBRANCH   6  18
ENDBRANCH   4   5
ENDBRANCH   3   4
ENDBRANCH   1   3
BRANCH   1  22
HETATM   22  C9  UNL     1      -0.884  -0.730  -1.464  1.00  0.00     0.189 C 
BRANCH  22  23
HETATM   23  N5  UNL     1      -2.136  -0.532  -0.773  1.00  0.00    -0.329 N 
HETATM   24  C10 UNL     1      -2.933   0.598  -1.051  1.00  0.00     0.323 C 
HETATM   25  O5  UNL     1      -2.567   1.446  -1.901  1.00  0.00    -0.247 OA
HETATM   26  N6  UNL     1      -4.168   0.813  -0.384  1.00  0.00    -0.282 N 
HETATM   27  C11 UNL     1      -4.994   1.937  -0.639  1.00  0.00     0.212 C 
ATOM     28  H6  UNL     1      -4.474   0.129   0.308  1.00  0.00     0.173 HD
HETATM   29  N7  UNL     1      -4.611   2.921  -1.597  1.00  0.00    -0.062 NA
HETATM   30  N8  UNL     1      -6.102   2.107  -0.023  1.00  0.00    -0.259 N 
ATOM     31  H8  UNL     1      -6.674   2.926  -0.229  1.00  0.00     0.191 HD
ATOM     32  H5  UNL     1      -2.446  -1.213  -0.080  1.00  0.00     0.165 HD
BRANCH  30  33
HETATM   33  N9  UNL     1      -6.541   1.174   0.937  1.00  0.00    -0.247 N 
ATOM     34  H9  UNL     1      -7.195   0.442   0.659  1.00  0.00     0.207 HD
BRANCH  33  35
HETATM   35  N10 UNL     1      -6.098   1.230   2.268  1.00  0.00    -0.331 N 
ATOM     36 2H10 UNL     1      -5.444   1.968   2.529  1.00  0.00     0.178 HD
ATOM     37 1H10 UNL     1      -6.416   0.555   2.963  1.00  0.00     0.178 HD
ENDBRANCH  33  35
ENDBRANCH  30  33
ENDBRANCH  22  23
BRANCH  22  38
HETATM   38  C12 UNL     1      -0.901  -2.001  -2.278  1.00  0.00     0.010 C 
HETATM   39  C13 UNL     1      -1.099  -3.235  -1.439  1.00  0.00     0.012 C 
HETATM   40  C14 UNL     1       0.381  -2.144  -3.044  1.00  0.00     0.012 C 
ENDBRANCH  22  38
ENDBRANCH   1  22
TORSDOF 10
