REMARK  16 active torsions:
REMARK  status: ('A' for Active; 'I' for Inactive)
REMARK    1  A    between atoms: O1_2  and  C2_3 
REMARK       I    between atoms: C2_3  and  N1_5 
REMARK    2  A    between atoms: N1_5  and  C3_7 
REMARK    3  A    between atoms: C3_7  and  C4_8 
REMARK    4  A    between atoms: C4_8  and  C5_9 
REMARK    5  A    between atoms: C5_9  and  C6_10 
REMARK       I    between atoms: C6_10  and  N2_12 
REMARK       I    between atoms: N3_15  and  C9_16 
REMARK    6  A    between atoms: C9_16  and  C10_18 
REMARK    7  A    between atoms: C10_18  and  C11_19 
REMARK    8  A    between atoms: C11_19  and  C12_20 
REMARK    9  A    between atoms: C12_20  and  C13_21 
REMARK   10  A    between atoms: C13_21  and  C14_22 
REMARK   11  A    between atoms: C14_22  and  C15_23 
REMARK   12  A    between atoms: C15_23  and  C16_24 
REMARK   13  A    between atoms: C16_24  and  N4_25 
REMARK       I    between atoms: N4_25  and  C17_27 
REMARK       I    between atoms: C17_27  and  N5_29 
REMARK   14  A    between atoms: N5_29  and  C18_31 
REMARK   15  A    between atoms: C18_31  and  C19_32 
REMARK   16  A    between atoms: C19_32  and  N6_33 
ROOT
HETATM    1  C10 UNL     1       1.373   0.376  -1.241  1.00  0.00     0.103 C 
ENDROOT
BRANCH   1   2
HETATM    2  C9  UNL     1       2.369  -0.470  -1.889  1.00  0.00     0.219 C 
HETATM    3  N3  UNL     1       3.045  -1.517  -1.167  1.00  0.00    -0.349 N 
HETATM    4  C8  UNL     1       2.718  -1.680   0.229  1.00  0.00     0.145 C 
HETATM    5  C25 UNL     1       4.000  -2.330  -1.843  1.00  0.00     0.145 C 
HETATM    6  C7  UNL     1       3.905  -1.831   1.107  1.00  0.00     0.145 C 
HETATM    7  N2  UNL     1       5.079  -2.150   0.360  1.00  0.00    -0.349 N 
HETATM    8  C6  UNL     1       6.349  -1.688   0.878  1.00  0.00     0.219 C 
HETATM    9  C26 UNL     1       5.005  -2.910  -0.849  1.00  0.00     0.145 C 
HETATM   10  O3  UNL     1       6.402  -1.038   1.948  1.00  0.00    -0.273 OA
HETATM   11  O4  UNL     1       2.694  -0.349  -3.083  1.00  0.00    -0.273 OA
BRANCH   8  12
HETATM   12  C5  UNL     1       7.600  -1.980   0.154  1.00  0.00     0.104 C 
BRANCH  12  13
HETATM   13  C4  UNL     1       8.829  -1.446   0.789  1.00  0.00     0.029 C 
BRANCH  13  14
HETATM   14  C3  UNL     1       8.917   0.034   0.912  1.00  0.00     0.125 C 
BRANCH  14  15
HETATM   15  N1  UNL     1      10.189   0.363   1.551  1.00  0.00    -0.337 N 
HETATM   16  C2  UNL     1      10.510   1.719   1.779  1.00  0.00     0.360 C 
HETATM   17  O2  UNL     1       9.724   2.627   1.441  1.00  0.00    -0.239 OA
ATOM     18  H1  UNL     1      10.835  -0.376   1.828  1.00  0.00     0.164 HD
BRANCH  16  19
HETATM   19  O1  UNL     1      11.698   2.110   2.381  1.00  0.00    -0.309 OA
HETATM   20  C1  UNL     1      12.030   3.477   2.618  1.00  0.00     0.215 C 
ENDBRANCH  16  19
ENDBRANCH  14  15
ENDBRANCH  13  14
ENDBRANCH  12  13
ENDBRANCH   8  12
ENDBRANCH   1   2
BRANCH   1  21
HETATM   21  C11 UNL     1       0.615   1.333  -2.064  1.00  0.00     0.009 C 
BRANCH  21  22
HETATM   22  C12 UNL     1      -0.218   0.717  -3.146  1.00  0.00     0.000 C 
BRANCH  22  23
HETATM   23  C13 UNL     1      -0.925   1.791  -3.879  1.00  0.00     0.000 C 
BRANCH  23  24
HETATM   24  C14 UNL     1      -1.850   2.647  -3.147  1.00  0.00     0.002 C 
BRANCH  24  25
HETATM   25  C15 UNL     1      -3.095   2.080  -2.603  1.00  0.00     0.020 C 
BRANCH  25  26
HETATM   26  C16 UNL     1      -3.043   1.003  -1.590  1.00  0.00     0.124 C 
BRANCH  26  27
HETATM   27  N4  UNL     1      -4.450   0.684  -1.214  1.00  0.00    -0.343 N 
HETATM   28  C17 UNL     1      -4.721  -0.325  -0.279  1.00  0.00     0.316 C 
HETATM   29  O5  UNL     1      -3.746  -0.943   0.250  1.00  0.00    -0.247 OA
HETATM   30  N5  UNL     1      -6.068  -0.632   0.046  1.00  0.00    -0.338 N 
ATOM     31  H5  UNL     1      -6.803  -0.089  -0.406  1.00  0.00     0.164 HD
ATOM     32  H4  UNL     1      -5.219   1.202  -1.639  1.00  0.00     0.164 HD
BRANCH  30  33
HETATM   33  C18 UNL     1      -6.466  -1.667   0.978  1.00  0.00     0.168 C 
BRANCH  33  34
HETATM   34  C19 UNL     1      -7.938  -1.803   1.121  1.00  0.00     0.077 C 
BRANCH  34  35
HETATM   35  N6  UNL     1      -8.681  -0.724   1.611  1.00  0.00    -0.392 N 
HETATM   36  C20 UNL     1      -8.543  -0.342   2.965  1.00  0.00     0.122 C 
HETATM   37  C21 UNL     1      -9.453   0.854   3.271  1.00  0.00     0.020 C 
HETATM   38  C22 UNL     1     -10.788   0.551   2.623  1.00  0.00     0.003 C 
HETATM   39  C23 UNL     1     -10.625   0.564   1.118  1.00  0.00     0.020 C 
HETATM   40  C24 UNL     1      -9.185   0.240   0.702  1.00  0.00     0.122 C 
ENDBRANCH  34  35
ENDBRANCH  33  34
ENDBRANCH  30  33
ENDBRANCH  26  27
ENDBRANCH  25  26
ENDBRANCH  24  25
ENDBRANCH  23  24
ENDBRANCH  22  23
ENDBRANCH  21  22
ENDBRANCH   1  21
TORSDOF 16
