REMARK  18 active torsions:
REMARK  status: ('A' for Active; 'I' for Inactive)
REMARK    1  A    between atoms: C2_2  and  C4_4 
REMARK    2  A    between atoms: C4_4  and  C5_5 
REMARK    3  A    between atoms: C5_5  and  N1_6 
REMARK    4  A    between atoms: C5_5  and  C7_10 
REMARK    5  A    between atoms: N1_6  and  C6_8 
REMARK       I    between atoms: C7_10  and  N2_12 
REMARK    6  A    between atoms: C13_18  and  C14_19 
REMARK       I    between atoms: C14_19  and  N3_21 
REMARK    7  A    between atoms: N3_21  and  C15_23 
REMARK    8  A    between atoms: C15_23  and  C16_24 
REMARK    9  A    between atoms: C15_23  and  C23_31 
REMARK   10  A    between atoms: C16_24  and  C17_25 
REMARK   11  A    between atoms: C23_31  and  C24_32 
REMARK   12  A    between atoms: C23_31  and  C30_46 
REMARK   13  A    between atoms: C24_32  and  C25_33 
REMARK   14  A    between atoms: C25_33  and  O4_34 
REMARK   15  A    between atoms: C25_33  and  N4_36 
REMARK   16  A    between atoms: N4_36  and  C26_38 
REMARK   17  A    between atoms: C26_38  and  O5_39 
REMARK   18  A    between atoms: C26_38  and  C27_41 
REMARK       I    between atoms: C27_41  and  N5_43 
ROOT
HETATM    1  C15 UNL     1       1.791  -1.434   0.451  1.00  0.00     0.089 C 
ENDROOT
BRANCH   1   2
HETATM    2  N3  UNL     1       0.548  -1.028  -0.177  1.00  0.00    -0.354 N 
HETATM    3  C14 UNL     1      -0.734  -1.133   0.395  1.00  0.00     0.241 C 
HETATM    4  O3  UNL     1      -0.875  -1.631   1.529  1.00  0.00    -0.271 OA
ATOM      5  H3  UNL     1       0.608  -0.632  -1.115  1.00  0.00     0.162 HD
BRANCH   3   6
HETATM    6  C13 UNL     1      -1.945  -0.656  -0.321  1.00  0.00     0.183 C 
HETATM    7  N2  UNL     1      -3.127  -0.832   0.485  1.00  0.00    -0.336 N 
HETATM    8  C7  UNL     1      -3.935   0.058   1.223  1.00  0.00     0.243 C 
HETATM    9  C8  UNL     1      -3.388  -2.282   0.465  1.00  0.00     0.132 C 
HETATM   10  O2  UNL     1      -4.868  -0.473   1.934  1.00  0.00    -0.271 OA
HETATM   11  C9  UNL     1      -2.898  -2.741  -0.866  1.00  0.00     0.010 C 
HETATM   12  C10 UNL     1      -3.971  -2.611  -1.929  1.00  0.00     0.007 C 
HETATM   13  C12 UNL     1      -2.219  -1.536  -1.494  1.00  0.00     0.023 C 
HETATM   14  C11 UNL     1      -3.500  -1.221  -2.244  1.00  0.00     0.008 C 
BRANCH   8  15
HETATM   15  C5  UNL     1      -3.802   1.529   1.254  1.00  0.00     0.176 C 
BRANCH  15  16
HETATM   16  C4  UNL     1      -4.165   2.187  -0.085  1.00  0.00     0.038 C 
BRANCH  16  17
HETATM   17  C2  UNL     1      -3.878   3.670   0.109  1.00  0.00    -0.020 C 
HETATM   18  C1  UNL     1      -4.199   4.435  -1.162  1.00  0.00     0.009 C 
HETATM   19  C3  UNL     1      -2.441   3.948   0.446  1.00  0.00     0.009 C 
ENDBRANCH  16  17
ENDBRANCH  15  16
BRANCH  15  20
HETATM   20  N1  UNL     1      -4.625   2.120   2.284  1.00  0.00    -0.355 N 
ATOM     21  H1  UNL     1      -4.126   2.572   3.050  1.00  0.00     0.162 HD
BRANCH  20  22
HETATM   22  C6  UNL     1      -6.023   2.149   2.360  1.00  0.00     0.349 C 
HETATM   23  O1  UNL     1      -6.729   1.617   1.469  1.00  0.00    -0.284 OA
ENDBRANCH  20  22
ENDBRANCH  15  20
ENDBRANCH   8  15
ENDBRANCH   3   6
ENDBRANCH   1   2
BRANCH   1  24
HETATM   24  C16 UNL     1       2.032  -2.836   0.647  1.00  0.00     0.030 C 
BRANCH  24  25
HETATM   25  C17 UNL     1       2.084  -3.757  -0.548  1.00  0.00    -0.013 C 
HETATM   26  C18 UNL     1       0.861  -3.850  -1.382  1.00  0.00     0.005 C 
HETATM   27  C19 UNL     1       1.173  -4.818  -2.541  1.00  0.00     0.000 C 
HETATM   28  C20 UNL     1       1.290  -6.190  -1.960  1.00  0.00     0.000 C 
HETATM   29  C21 UNL     1       2.480  -6.206  -1.020  1.00  0.00     0.000 C 
HETATM   30  C22 UNL     1       2.383  -5.150   0.025  1.00  0.00     0.005 C 
ENDBRANCH  24  25
ENDBRANCH   1  24
BRANCH   1  31
HETATM   31  C23 UNL     1       1.953  -0.534   1.742  1.00  0.00     0.019 C 
BRANCH  31  32
HETATM   32  C24 UNL     1       2.004   0.861   1.128  1.00  0.00     0.091 C 
BRANCH  32  33
HETATM   33  C25 UNL     1       2.018   2.005   2.010  1.00  0.00     0.117 C 
BRANCH  33  34
HETATM   34  O4  UNL     1       1.668   1.787   3.265  1.00  0.00    -0.349 OA
ATOM     35  H4  UNL     1       1.677   2.539   3.845  1.00  0.00     0.219 HD
ENDBRANCH  33  34
BRANCH  33  36
HETATM   36  N4  UNL     1       2.351   3.331   1.746  1.00  0.00    -0.317 N 
ATOM     37  H4  UNL     1       2.334   3.890   2.599  1.00  0.00     0.170 HD
BRANCH  36  38
HETATM   38  C26 UNL     1       2.697   4.100   0.656  1.00  0.00     0.211 C 
BRANCH  38  39
HETATM   39  O5  UNL     1       2.981   5.353   0.982  1.00  0.00    -0.342 OA
ATOM     40  H5  UNL     1       3.220   5.883   0.231  1.00  0.00     0.219 HD
ENDBRANCH  38  39
BRANCH  38  41
HETATM   41  C27 UNL     1       2.821   3.872  -0.748  1.00  0.00     0.293 C 
HETATM   42  O6  UNL     1       2.525   2.765  -1.253  1.00  0.00    -0.264 OA
HETATM   43  N5  UNL     1       3.289   4.886  -1.667  1.00  0.00    -0.354 N 
HETATM   44  C28 UNL     1       3.359   4.500  -3.086  1.00  0.00     0.152 C 
HETATM   45  C29 UNL     1       3.681   6.215  -1.281  1.00  0.00     0.152 C 
ENDBRANCH  38  41
ENDBRANCH  36  38
ENDBRANCH  33  36
ENDBRANCH  32  33
ENDBRANCH  31  32
BRANCH  31  46
HETATM   46  C30 UNL     1       3.251  -0.953   2.336  1.00  0.00    -0.016 C 
HETATM   47  C31 UNL     1       4.447  -0.759   1.451  1.00  0.00     0.010 C 
HETATM   48  C32 UNL     1       3.614  -0.392   3.698  1.00  0.00     0.010 C 
ENDBRANCH  31  46
ENDBRANCH   1  31
TORSDOF 18
