REMARK  6 active torsions:
REMARK  status: ('A' for Active; 'I' for Inactive)
REMARK    1  A    between atoms: N1_2  and  C2_4 
REMARK    2  A    between atoms: C2_4  and  N2_6 
REMARK    3  A    between atoms: N2_6  and  N3_8 
REMARK       I    between atoms: N3_8  and  C3_10 
REMARK    4  A    between atoms: C3_10  and  C4_12 
REMARK    5  A    between atoms: C4_12  and  N4_13 
REMARK    6  A    between atoms: C4_12  and  C5_17 
REMARK       I    between atoms: C5_17  and  N5_19 
ROOT
HETATM    1  C4  UNL     1      -0.004   0.454  -0.310  1.00  0.00     0.367 C 
ENDROOT
BRANCH   1   2
HETATM    2  C3  UNL     1       1.176  -0.265   0.297  1.00  0.00     0.276 C 
HETATM    3  N3  UNL     1       1.805  -1.314  -0.409  1.00  0.00    -0.266 N 
ATOM      4  H3  UNL     1       1.445  -1.566  -1.330  1.00  0.00     0.190 HD
HETATM    5  O1  UNL     1       1.560   0.099   1.415  1.00  0.00    -0.269 OA
BRANCH   3   6
HETATM    6  N2  UNL     1       2.889  -2.016   0.093  1.00  0.00    -0.274 N 
ATOM      7  H2  UNL     1       2.757  -2.990   0.365  1.00  0.00     0.189 HD
BRANCH   6   8
HETATM    8  C2  UNL     1       4.168  -1.440   0.244  1.00  0.00     0.186 C 
HETATM    9  S1  UNL     1       5.427  -2.314   0.852  1.00  0.00    -0.040 SA
BRANCH   8  10
HETATM   10  N1  UNL     1       4.372  -0.092  -0.135  1.00  0.00    -0.370 N 
HETATM   11  C1  UNL     1       5.698   0.524   0.023  1.00  0.00     0.148 C 
ATOM     12  H1  UNL     1       3.599   0.453  -0.518  1.00  0.00     0.161 HD
ENDBRANCH   8  10
ENDBRANCH   6   8
ENDBRANCH   3   6
ENDBRANCH   1   2
BRANCH   1  13
HETATM   13  N4  UNL     1      -0.324   1.633   0.438  1.00  0.00    -0.058 N 
ATOM     14  H43 UNL     1      -0.477   1.423   1.424  1.00  0.00     0.275 HD
ATOM     15  H42 UNL     1       0.483   2.249   0.535  1.00  0.00     0.275 HD
ATOM     16  H41 UNL     1      -1.121   2.119   0.028  1.00  0.00     0.275 HD
ENDBRANCH   1  13
BRANCH   1  17
HETATM   17  C5  UNL     1      -1.150  -0.448  -0.532  1.00  0.00     0.260 C 
HETATM   18  O2  UNL     1      -0.906  -1.640  -0.926  1.00  0.00    -0.270 OA
HETATM   19  N5  UNL     1      -2.486  -0.047  -0.329  1.00  0.00    -0.350 N 
HETATM   20  C6  UNL     1      -3.638  -0.950  -0.479  1.00  0.00     0.126 C 
HETATM   21  C9  UNL     1      -2.963   1.270   0.011  1.00  0.00     0.126 C 
HETATM   22  C7  UNL     1      -4.745  -0.236   0.291  1.00  0.00     0.021 C 
HETATM   23  C8  UNL     1      -4.485   1.203  -0.156  1.00  0.00     0.021 C 
ENDBRANCH   1  17
TORSDOF 6
