REMARK  13 active torsions:
REMARK  status: ('A' for Active; 'I' for Inactive)
REMARK    1  A    between atoms: N1_1  and  C1_4 
REMARK    2  A    between atoms: C4_10  and  C5_11 
REMARK    3  A    between atoms: C5_11  and  N3_12 
REMARK    4  A    between atoms: C7_14  and  C8_15 
REMARK    5  A    between atoms: C8_15  and  N4_16 
REMARK    6  A    between atoms: C8_15  and  C9_20 
REMARK    7  A    between atoms: C9_20  and  N5_21 
REMARK    8  A    between atoms: N7_29  and  C11_30 
REMARK    9  A    between atoms: C11_30  and  C12_31 
REMARK   10  A    between atoms: C12_31  and  O2_32 
REMARK   11  A    between atoms: O2_32  and  C13_33 
REMARK   12  A    between atoms: C13_33  and  C14_34 
REMARK   13  A    between atoms: C14_34  and  N8_35 
ROOT
HETATM    1  N3  UNL     1      -1.467  -0.882   0.777  1.00  0.00    -0.295 N 
HETATM    2  C6  UNL     1      -2.220  -2.022   1.048  1.00  0.00     0.123 A 
HETATM    3  C7  UNL     1      -1.900  -2.984   0.133  1.00  0.00     0.036 A 
HETATM    4  C10 UNL     1      -0.961  -2.444  -0.692  1.00  0.00     0.125 A 
HETATM    5  N6  UNL     1      -0.389  -3.027  -1.688  1.00  0.00    -0.384 N 
ATOM      6  H61 UNL     1       0.314  -2.622  -2.306  1.00  0.00     0.157 HD
ATOM      7  H62 UNL     1      -0.558  -3.979  -2.013  1.00  0.00     0.157 HD
HETATM    8  N7  UNL     1      -0.731  -1.152  -0.251  1.00  0.00    -0.272 N 
ENDROOT
BRANCH   1   9
HETATM    9  C5  UNL     1      -1.647   0.255   1.672  1.00  0.00     0.189 C 
BRANCH   9  10
HETATM   10  C4  UNL     1      -2.805   1.082   1.351  1.00  0.00    -0.004 A 
HETATM   11  C3  UNL     1      -3.027   2.219   0.645  1.00  0.00     0.086 A 
HETATM   12  C2  UNL     1      -2.182   3.129   0.064  1.00  0.00     0.274 A 
HETATM   13  C20 UNL     1      -4.389   2.481   0.538  1.00  0.00     0.137 A 
HETATM   14  N2  UNL     1      -2.709   4.189  -0.561  1.00  0.00    -0.155 N 
HETATM   15  O1  UNL     1      -0.965   2.916   0.158  1.00  0.00    -0.267 OA
HETATM   16  C1  UNL     1      -4.039   4.429  -0.661  1.00  0.00     0.680 A 
ATOM     17  H2  UNL     1      -2.069   4.858  -0.989  1.00  0.00     0.187 HD
HETATM   18  N10 UNL     1      -4.886   3.554  -0.098  1.00  0.00    -0.176 N 
ATOM     19  H10 UNL     1      -5.894   3.702  -0.152  1.00  0.00     0.186 HD
HETATM   20  N9  UNL     1      -5.002   1.471   1.207  1.00  0.00    -0.350 N 
HETATM   21  C19 UNL     1      -4.096   0.631   1.700  1.00  0.00     0.099 A 
ATOM     22  H9  UNL     1      -6.011   1.371   1.316  1.00  0.00     0.166 HD
BRANCH  16  23
HETATM   23  N1  UNL     1      -4.479   5.479  -1.299  1.00  0.00    -0.234 N 
ATOM     24  H12 UNL     1      -3.835   6.144  -1.727  1.00  0.00     0.174 HD
ATOM     25  H11 UNL     1      -5.480   5.660  -1.374  1.00  0.00     0.174 HD
ENDBRANCH  16  23
ENDBRANCH   9  10
ENDBRANCH   1   9
BRANCH   8  26
HETATM   26  C11 UNL     1       0.287  -0.325  -0.893  1.00  0.00     0.177 C 
BRANCH  26  27
HETATM   27  C12 UNL     1       1.627  -0.577  -0.234  1.00  0.00     0.189 C 
BRANCH  27  28
HETATM   28  O2  UNL     1       2.618   0.141  -0.824  1.00  0.00    -0.388 OA
BRANCH  28  29
HETATM   29  C13 UNL     1       2.571   1.498  -0.787  1.00  0.00     0.187 C 
BRANCH  29  30
HETATM   30  C14 UNL     1       3.810   2.011  -1.515  1.00  0.00     0.148 C 
BRANCH  30  31
HETATM   31  N8  UNL     1       5.023   1.560  -0.938  1.00  0.00    -0.387 N 
HETATM   32  C15 UNL     1       5.367   2.031   0.343  1.00  0.00     0.084 C 
HETATM   33  C16 UNL     1       6.863   1.963   0.544  1.00  0.00     0.212 C 
HETATM   34  O3  UNL     1       7.525   1.318  -0.499  1.00  0.00    -0.385 OA
HETATM   35  C17 UNL     1       6.929   0.117  -0.791  1.00  0.00     0.187 C 
HETATM   36  C18 UNL     1       5.483   0.270  -1.275  1.00  0.00     0.148 C 
ENDBRANCH  30  31
ENDBRANCH  29  30
ENDBRANCH  28  29
ENDBRANCH  27  28
ENDBRANCH  26  27
ENDBRANCH   8  26
BRANCH   3  37
HETATM   37  C8  UNL     1      -2.509  -4.358   0.076  1.00  0.00     0.246 C 
BRANCH  37  38
HETATM   38  N4  UNL     1      -3.477  -4.359  -1.016  1.00  0.00    -0.069 N 
ATOM     39  H43 UNL     1      -4.173  -3.618  -0.933  1.00  0.00     0.275 HD
ATOM     40  H42 UNL     1      -3.075  -4.064  -1.906  1.00  0.00     0.275 HD
ATOM     41  H41 UNL     1      -3.890  -5.291  -1.055  1.00  0.00     0.275 HD
ENDBRANCH  37  38
BRANCH  37  42
HETATM   42  C9  UNL     1      -3.253  -4.674   1.359  1.00  0.00     0.267 C 
BRANCH  42  43
HETATM   43  N5  UNL     1      -3.808  -6.001   1.222  1.00  0.00    -0.077 N 
ATOM     44  H53 UNL     1      -4.388  -6.106   0.389  1.00  0.00     0.274 HD
ATOM     45  H52 UNL     1      -3.107  -6.703   0.985  1.00  0.00     0.274 HD
ATOM     46  H51 UNL     1      -4.308  -6.214   2.085  1.00  0.00     0.274 HD
ENDBRANCH  42  43
ENDBRANCH  37  42
ENDBRANCH   3  37
TORSDOF 13
