REMARK  2 active torsions:
REMARK  status: ('A' for Active; 'I' for Inactive)
REMARK    1  A    between atoms: C2_2  and  C4_10 
REMARK    2  A    between atoms: N1_3  and  N2_5 
ROOT
HETATM    1  C1  UNL     1      -0.301  -0.898  -1.077  1.00  0.00     0.065 C 
HETATM    2  C2  UNL     1      -0.607  -0.483   0.316  1.00  0.00     0.004 C 
HETATM    3  N1  UNL     1       0.368  -0.385   1.146  1.00  0.00    -0.307 N 
ATOM      4  H1  UNL     1       0.189  -0.102   2.109  1.00  0.00     0.186 HD
ENDROOT
BRANCH   3   5
HETATM    5  N2  UNL     1       1.648  -0.660   0.741  1.00  0.00    -0.276 N 
HETATM    6  C3  UNL     1       2.573   0.172   0.486  1.00  0.00     0.215 C 
HETATM    7  N3  UNL     1       2.448   1.587   0.576  1.00  0.00    -0.065 NA
HETATM    8  N4  UNL     1       3.839  -0.338   0.077  1.00  0.00    -0.065 NA
ATOM      9  H2  UNL     1       1.885  -1.646   0.632  1.00  0.00     0.189 HD
ENDBRANCH   3   5
BRANCH   2  10
HETATM   10  C4  UNL     1      -2.017  -0.190   0.725  1.00  0.00     0.032 A 
HETATM   11  C5  UNL     1      -2.723   0.895   0.007  1.00  0.00     0.011 A 
HETATM   12  C6  UNL     1      -3.125  -0.559  -0.205  1.00  0.00     0.011 A 
ENDBRANCH   2  10
TORSDOF 2
