REMARK  2 active torsions:
REMARK  status: ('A' for Active; 'I' for Inactive)
REMARK    1  A    between atoms: C2_3  and  C4_5 
REMARK    2  A    between atoms: C6_7  and  C7_8 
ROOT
HETATM    1  C1  UNL     1      -2.496   1.870  -1.343  1.00  0.00     0.221 C 
HETATM    2  N1  UNL     1      -2.095   0.986  -0.712  1.00  0.00    -0.466 NA
HETATM    3  C2  UNL     1      -1.627  -0.101   0.052  1.00  0.00     0.162 C 
HETATM    4  C3  UNL     1      -2.529  -0.219   1.261  1.00  0.00     0.048 C 
ENDROOT
BRANCH   3   5
HETATM    5  C4  UNL     1      -0.188   0.119   0.437  1.00  0.00     0.033 A 
HETATM    6  C5  UNL     1       0.577  -0.836   1.232  1.00  0.00     0.020 A 
HETATM    7  C6  UNL     1       0.903  -0.629  -0.248  1.00  0.00     0.057 A 
BRANCH   7   8
HETATM    8  C7  UNL     1       2.188   0.067  -0.555  1.00  0.00     0.091 C 
HETATM    9  N2  UNL     1       3.315  -0.314  -0.099  1.00  0.00    -0.391 N 
ATOM     10  H22 UNL     1       3.358  -1.133   0.507  1.00  0.00     0.157 HD
ATOM     11  H21 UNL     1       4.193   0.161  -0.309  1.00  0.00     0.157 HD
HETATM   12  N3  UNL     1       2.128   1.204  -1.397  1.00  0.00    -0.088 NA
ENDBRANCH   7   8
ENDBRANCH   3   5
TORSDOF 2
