REMARK  2 active torsions:
REMARK  status: ('A' for Active; 'I' for Inactive)
REMARK    1  A    between atoms: N1_2  and  C4_5 
REMARK    2  A    between atoms: C6_7  and  C7_8 
ROOT
HETATM    1  C4  UNL     1       0.150  -0.504   0.173  1.00  0.00     0.201 A 
HETATM    2  C5  UNL     1       0.592  -0.595   1.585  1.00  0.00     0.048 A 
HETATM    3  C6  UNL     1       1.105   0.492   0.647  1.00  0.00     0.083 A 
ENDROOT
BRANCH   3   4
HETATM    4  C7  UNL     1       2.556   0.391   0.391  1.00  0.00     0.093 C 
HETATM    5  N2  UNL     1       3.110  -0.575  -0.256  1.00  0.00    -0.391 N 
ATOM      6  H22 UNL     1       2.465  -1.289  -0.593  1.00  0.00     0.157 HD
ATOM      7  H21 UNL     1       4.112  -0.645  -0.433  1.00  0.00     0.157 HD
HETATM    8  N3  UNL     1       3.465   1.397   0.866  1.00  0.00    -0.088 NA
ENDBRANCH   3   4
BRANCH   1   9
HETATM    9  N1  UNL     1      -1.239  -0.204  -0.077  1.00  0.00    -0.074 N 
HETATM   10  C1  UNL     1      -2.130  -0.925   0.817  1.00  0.00     0.272 C 
HETATM   11  C2  UNL     1      -1.534   1.209   0.002  1.00  0.00     0.272 C 
HETATM   12  C3  UNL     1      -1.623  -0.618  -1.419  1.00  0.00     0.272 C 
ENDBRANCH   1   9
TORSDOF 2
