REMARK  3 active torsions:
REMARK  status: ('A' for Active; 'I' for Inactive)
REMARK    1  A    between atoms: C1_2  and  C2_4 
REMARK    2  A    between atoms: C2_4  and  N2_5 
REMARK       I    between atoms: N2_5  and  C3_7 
REMARK    3  A    between atoms: C3_7  and  C4_9 
ROOT
HETATM    1  N2  UNL     1       1.229  -1.109   0.445  1.00  0.00    -0.352 N 
ATOM      2  H2  UNL     1       0.826  -1.989   0.124  1.00  0.00     0.162 HD
HETATM    3  C3  UNL     1       0.358  -0.087   0.855  1.00  0.00     0.222 C 
HETATM    4  O2  UNL     1       0.842   1.003   1.255  1.00  0.00    -0.273 OA
ENDROOT
BRANCH   3   5
HETATM    5  C4  UNL     1      -1.117  -0.204   0.850  1.00  0.00     0.078 C 
HETATM    6  C5  UNL     1      -1.679  -0.476  -0.525  1.00  0.00     0.014 C 
HETATM    7  C6  UNL     1      -3.168  -0.244  -0.272  1.00  0.00     0.001 C 
HETATM    8  C7  UNL     1      -3.129   1.058   0.508  1.00  0.00     0.001 C 
HETATM    9  C8  UNL     1      -1.794   1.096   1.210  1.00  0.00     0.014 C 
ENDBRANCH   3   5
BRANCH   1  10
HETATM   10  C2  UNL     1       2.653  -0.978   0.455  1.00  0.00     0.222 C 
BRANCH  10  11
HETATM   11  C1  UNL     1       3.175   0.113  -0.402  1.00  0.00     0.248 C 
HETATM   12  N1  UNL     1       4.596   0.277  -0.416  1.00  0.00    -0.061 NA
HETATM   13  O1  UNL     1       2.495   0.885  -1.097  1.00  0.00    -0.275 OA
ENDBRANCH  10  11
ENDBRANCH   1  10
TORSDOF 3
