REMARK  3 active torsions:
REMARK  status: ('A' for Active; 'I' for Inactive)
REMARK    1  A    between atoms: C1_2  and  C2_3 
REMARK       I    between atoms: C1_2  and  N1_7 
REMARK    2  A    between atoms: C2_3  and  C3_4 
REMARK    3  A    between atoms: N1_7  and  C6_9 
ROOT
HETATM    1  O1  UNL     1       0.744   0.676  -1.505  1.00  0.00    -0.274 OA
HETATM    2  C1  UNL     1       0.660   0.084  -0.414  1.00  0.00     0.218 C 
HETATM    3  N1  UNL     1      -0.582  -0.295   0.102  1.00  0.00    -0.355 N 
ATOM      4  H1  UNL     1      -0.642  -0.779   0.998  1.00  0.00     0.162 HD
ENDROOT
BRANCH   3   5
HETATM    5  C6  UNL     1      -1.781   0.006  -0.647  1.00  0.00     0.111 C 
HETATM    6  C7  UNL     1      -2.786   0.796   0.191  1.00  0.00     0.054 C 
HETATM    7  C8  UNL     1      -3.818  -0.234   0.598  1.00  0.00     0.234 C 
HETATM    8  N2  UNL     1      -3.218  -1.520   0.297  1.00  0.00    -0.073 N 
HETATM    9  C9  UNL     1      -2.550  -1.245  -0.961  1.00  0.00     0.257 C 
ATOM     10  H22 UNL     1      -2.622  -1.903   1.030  1.00  0.00     0.277 HD
ATOM     11  H21 UNL     1      -3.865  -2.308   0.281  1.00  0.00     0.277 HD
ENDBRANCH   3   5
BRANCH   2  12
HETATM   12  C2  UNL     1       1.886  -0.219   0.344  1.00  0.00     0.107 C 
BRANCH  12  13
HETATM   13  C3  UNL     1       3.107   0.276  -0.391  1.00  0.00    -0.006 A 
HETATM   14  C4  UNL     1       4.422   0.049   0.237  1.00  0.00     0.005 A 
HETATM   15  C5  UNL     1       3.799   1.441   0.285  1.00  0.00     0.005 A 
ENDBRANCH  12  13
ENDBRANCH   2  12
TORSDOF 3
