REMARK  2 active torsions:
REMARK  status: ('A' for Active; 'I' for Inactive)
REMARK    1  A    between atoms: C2_2  and  C3_3 
REMARK       I    between atoms: C3_3  and  N1_5 
REMARK    2  A    between atoms: N1_5  and  C4_7 
ROOT
HETATM    1  C4  UNL     1      -0.184   0.109   0.188  1.00  0.00     0.084 C 
HETATM    2  C5  UNL     1      -0.566  -0.750  -0.953  1.00  0.00     0.025 C 
HETATM    3  C6  UNL     1      -2.036  -0.986  -1.120  1.00  0.00     0.002 C 
HETATM    4  C7  UNL     1      -2.729  -1.288   0.206  1.00  0.00     0.000 C 
HETATM    5  C8  UNL     1      -2.491  -0.069   1.069  1.00  0.00     0.002 C 
HETATM    6  C9  UNL     1      -1.022  -0.128   1.434  1.00  0.00     0.025 C 
ENDROOT
BRANCH   1   7
HETATM    7  N1  UNL     1       1.223  -0.073   0.458  1.00  0.00    -0.353 N 
HETATM    8  C3  UNL     1       2.101   1.033   0.341  1.00  0.00     0.240 C 
HETATM    9  O1  UNL     1       1.699   2.181   0.006  1.00  0.00    -0.269 OA
ATOM     10  H1  UNL     1       1.581  -0.988   0.730  1.00  0.00     0.163 HD
BRANCH   8  11
HETATM   11  C2  UNL     1       3.515   0.852   0.612  1.00  0.00     0.064 C 
HETATM   12  C1  UNL     1       4.367   1.860   0.513  1.00  0.00     0.017 C 
ENDBRANCH   8  11
ENDBRANCH   1   7
TORSDOF 2
