REMARK  14 active torsions:
REMARK  status: ('A' for Active; 'I' for Inactive)
REMARK    1  A    between atoms: N1_2  and  C2_4 
REMARK    2  A    between atoms: N3_8  and  C4_10 
REMARK    3  A    between atoms: C4_10  and  C5_11 
REMARK    4  A    between atoms: C5_11  and  O1_12 
REMARK    5  A    between atoms: C8_16  and  C9_17 
REMARK    6  A    between atoms: C10_18  and  C11_19 
REMARK    7  A    between atoms: C11_19  and  C13_21 
REMARK    8  A    between atoms: C11_19  and  C24_35 
REMARK    9  A    between atoms: C13_21  and  C14_22 
REMARK   10  A    between atoms: C17_25  and  N4_26 
REMARK   11  A    between atoms: N4_26  and  C19_28 
REMARK   12  A    between atoms: C19_28  and  C20_29 
REMARK   13  A    between atoms: C20_29  and  C21_30 
REMARK   14  A    between atoms: C21_30  and  N5_31 
ROOT
HETATM    1  C9  UNL     1      -1.667  -0.360  -0.475  1.00  0.00    -0.066 C 
HETATM    2  C10 UNL     1      -1.024  -1.384  -0.519  1.00  0.00    -0.084 C 
ENDROOT
BRANCH   2   3
HETATM    3  C11 UNL     1      -0.290  -2.676  -0.598  1.00  0.00     0.070 C 
HETATM    4  C12 UNL     1      -1.007  -3.432  -1.788  1.00  0.00     0.036 C 
BRANCH   3   5
HETATM    5  C13 UNL     1       1.047  -2.436  -1.110  1.00  0.00     0.093 C 
BRANCH   5   6
HETATM    6  C14 UNL     1       1.939  -1.527  -0.372  1.00  0.00     0.057 A 
HETATM    7  C15 UNL     1       1.776  -0.808   0.780  1.00  0.00     0.037 A 
HETATM    8  C16 UNL     1       2.966  -0.131   0.979  1.00  0.00     0.059 A 
HETATM    9  C17 UNL     1       3.818  -0.474  -0.081  1.00  0.00     0.145 A 
HETATM   10  O2  UNL     1       3.171  -1.276  -0.820  1.00  0.00    -0.298 OA
BRANCH   9  11
HETATM   11  N4  UNL     1       5.175   0.038  -0.240  1.00  0.00    -0.366 N 
HETATM   12  C18 UNL     1       6.154  -0.950  -0.560  1.00  0.00     0.151 C 
BRANCH  11  13
HETATM   13  C19 UNL     1       5.456   1.422  -0.113  1.00  0.00     0.126 C 
BRANCH  13  14
HETATM   14  C20 UNL     1       6.274   1.805   1.068  1.00  0.00     0.050 C 
BRANCH  14  15
HETATM   15  C21 UNL     1       7.665   1.272   1.137  1.00  0.00     0.273 C 
BRANCH  15  16
HETATM   16  N5  UNL     1       8.504   1.729   0.027  1.00  0.00     0.080 N 
HETATM   17  C22 UNL     1       9.845   1.196   0.207  1.00  0.00     0.309 C 
HETATM   18  C23 UNL     1       8.573   3.169  -0.073  1.00  0.00     0.309 C 
ENDBRANCH  15  16
ENDBRANCH  14  15
ENDBRANCH  13  14
ENDBRANCH  11  13
ENDBRANCH   9  11
ENDBRANCH   5   6
ENDBRANCH   3   5
BRANCH   3  19
HETATM   19  C24 UNL     1      -0.523  -3.525   0.552  1.00  0.00     0.048 A 
HETATM   20  C25 UNL     1      -0.991  -3.123   1.787  1.00  0.00     0.116 A 
HETATM   21  N6  UNL     1      -1.107  -4.162   2.606  1.00  0.00    -0.360 N 
HETATM   22  C26 UNL     1      -0.730  -5.241   1.941  1.00  0.00     0.182 A 
ATOM     23  H6  UNL     1      -1.429  -4.133   3.573  1.00  0.00     0.166 HD
HETATM   24  N7  UNL     1      -0.374  -4.870   0.700  1.00  0.00    -0.348 N 
HETATM   25  C27 UNL     1       0.074  -5.805  -0.285  1.00  0.00     0.157 C 
ENDBRANCH   3  19
ENDBRANCH   2   3
BRANCH   1  26
HETATM   26  C8  UNL     1      -2.488   0.818  -0.442  1.00  0.00     0.018 A 
HETATM   27  C7  UNL     1      -3.878   0.686  -0.403  1.00  0.00     0.038 A 
HETATM   28  C6  UNL     1      -4.731   1.758  -0.393  1.00  0.00     0.037 A 
HETATM   29  C3  UNL     1      -6.116   1.525  -0.359  1.00  0.00     0.129 A 
HETATM   30  C30 UNL     1      -4.260   3.018  -0.423  1.00  0.00     0.063 A 
HETATM   31  N2  UNL     1      -6.945   2.563  -0.360  1.00  0.00    -0.176 N 
HETATM   32  N3  UNL     1      -6.485   0.341  -0.293  1.00  0.00    -0.373 N 
HETATM   33  C2  UNL     1      -6.483   3.823  -0.389  1.00  0.00     0.679 A 
ATOM     34  H2  UNL     1      -7.952   2.399  -0.338  1.00  0.00     0.186 HD
HETATM   35  N8  UNL     1      -5.134   4.052  -0.421  1.00  0.00    -0.191 N 
ATOM     36  H8  UNL     1      -4.784   5.010  -0.444  1.00  0.00     0.184 HD
ATOM     37  H3  UNL     1      -5.696  -0.305  -0.306  1.00  0.00     0.161 HD
HETATM   38  C29 UNL     1      -2.882   3.194  -0.462  1.00  0.00     0.032 A 
HETATM   39  C28 UNL     1      -2.019   2.086  -0.469  1.00  0.00     0.023 A 
BRANCH  33  40
HETATM   40  N1  UNL     1      -7.239   4.872  -0.405  1.00  0.00    -0.230 N 
HETATM   41  C1  UNL     1      -8.672   4.847  -0.398  1.00  0.00     0.165 C 
ATOM     42  H1  UNL     1      -6.782   5.784  -0.424  1.00  0.00     0.177 HD
ENDBRANCH  33  40
BRANCH  32  43
HETATM   43  C4  UNL     1      -7.717  -0.335  -0.205  1.00  0.00     0.147 C 
BRANCH  43  44
HETATM   44  C5  UNL     1      -7.983  -0.835   1.220  1.00  0.00     0.183 C 
BRANCH  44  45
HETATM   45  O1  UNL     1      -9.200  -1.501   1.206  1.00  0.00    -0.399 OA
ATOM     46  H1  UNL     1      -9.365  -1.811   2.089  1.00  0.00     0.209 HD
ENDBRANCH  44  45
ENDBRANCH  43  44
ENDBRANCH  32  43
ENDBRANCH   1  26
TORSDOF 14
