REMARK  2 active torsions:
REMARK  status: ('A' for Active; 'I' for Inactive)
REMARK    1  A    between atoms: C2_3  and  N2_4 
REMARK    2  A    between atoms: C3_9  and  N4_10 
REMARK       I    between atoms: N6_16  and  C5_18 
REMARK       I    between atoms: C5_18  and  N7_19 
REMARK       I    between atoms: C5_18  and  N8_23 
ROOT
HETATM    1  C1  UNL     1      -0.231   1.975   0.298  1.00  0.00     0.195 C 
HETATM    2  N1  UNL     1      -0.805   0.647   0.151  1.00  0.00    -0.018 N 
HETATM    3  C2  UNL     1      -2.155   0.531   0.192  1.00  0.00     0.706 A 
HETATM    4  N3  UNL     1      -2.730  -0.669   0.062  1.00  0.00    -0.022 N 
ATOM      5  H3  UNL     1      -3.746  -0.753   0.093  1.00  0.00     0.203 HD
HETATM    6  C3  UNL     1      -1.970  -1.765  -0.110  1.00  0.00     0.705 A 
HETATM    7  N5  UNL     1      -0.649  -1.661  -0.151  1.00  0.00    -0.021 N 
ATOM      8  H5  UNL     1      -0.088  -2.502  -0.282  1.00  0.00     0.203 HD
HETATM    9  C4  UNL     1      -0.006  -0.425  -0.019  1.00  0.00     0.712 A 
HETATM   10  N6  UNL     1       1.229  -0.445  -0.071  1.00  0.00    -0.172 N 
ATOM     11  H6  UNL     1       1.524  -1.412  -0.207  1.00  0.00     0.181 HD
HETATM   12  C5  UNL     1       2.340   0.330  -0.016  1.00  0.00     0.494 C 
HETATM   13  N7  UNL     1       2.888   0.642  -1.350  1.00  0.00    -0.032 N 
ATOM     14  H71 UNL     1       3.724   1.225  -1.309  1.00  0.00     0.278 HD
ATOM     15  H72 UNL     1       2.177   1.065  -1.947  1.00  0.00     0.278 HD
ATOM     16  H73 UNL     1       3.064  -0.211  -1.881  1.00  0.00     0.278 HD
HETATM   17  N8  UNL     1       3.417  -0.504   0.638  1.00  0.00    -0.032 N 
ATOM     18  H81 UNL     1       4.253   0.079   0.679  1.00  0.00     0.278 HD
ATOM     19  H82 UNL     1       3.572  -1.398   0.173  1.00  0.00     0.278 HD
ATOM     20  H83 UNL     1       3.141  -0.878   1.546  1.00  0.00     0.278 HD
ENDROOT
BRANCH   3  21
HETATM   21  N2  UNL     1      -2.885   1.613   0.361  1.00  0.00    -0.233 N 
ATOM     22  H22 UNL     1      -2.446   2.528   0.460  1.00  0.00     0.174 HD
ATOM     23  H21 UNL     1      -3.901   1.526   0.392  1.00  0.00     0.174 HD
ENDBRANCH   3  21
BRANCH   6  24
HETATM   24  N4  UNL     1      -2.587  -2.912  -0.232  1.00  0.00    -0.234 N 
ATOM     25  H42 UNL     1      -3.603  -2.992  -0.200  1.00  0.00     0.174 HD
ATOM     26  H41 UNL     1      -2.011  -3.743  -0.362  1.00  0.00     0.174 HD
ENDBRANCH   6  24
TORSDOF 2
