REMARK  11 active torsions:
REMARK  status: ('A' for Active; 'I' for Inactive)
REMARK    1  A    between atoms: N1_1  and  C1_5 
REMARK    2  A    between atoms: C1_5  and  O1_6 
REMARK    3  A    between atoms: C1_5  and  C2_8 
REMARK    4  A    between atoms: C2_8  and  N2_9 
REMARK    5  A    between atoms: C2_8  and  C3_13 
REMARK    6  A    between atoms: C3_13  and  C4_15 
REMARK    7  A    between atoms: C5_22  and  C6_23 
REMARK       I    between atoms: C6_23  and  N6_25 
REMARK    8  A    between atoms: N6_25  and  C7_27 
REMARK    9  A    between atoms: C7_27  and  O4_28 
REMARK   10  A    between atoms: C7_27  and  N7_30 
REMARK   11  A    between atoms: N7_30  and  O5_32 
ROOT
HETATM    1  C4  UNL     1      -0.268  -1.069   0.034  1.00  0.00     0.131 A 
HETATM    2  N3  UNL     1      -0.686  -2.339   0.361  1.00  0.00    -0.280 N 
ATOM      3  H3  UNL     1      -1.653  -2.659   0.304  1.00  0.00     0.188 HD
HETATM    4  N4  UNL     1       0.311  -3.080   0.752  1.00  0.00    -0.242 N 
ATOM      5  H4  UNL     1       0.262  -4.055   1.047  1.00  0.00     0.208 HD
HETATM    6  N5  UNL     1       1.375  -2.348   0.696  1.00  0.00    -0.279 N 
ATOM      7  H5  UNL     1       2.309  -2.672   0.947  1.00  0.00     0.189 HD
HETATM    8  C5  UNL     1       1.089  -1.073   0.254  1.00  0.00     0.149 A 
ENDROOT
BRANCH   1   9
HETATM    9  C3  UNL     1      -1.115   0.007  -0.435  1.00  0.00     0.214 C 
HETATM   10  O2  UNL     1      -0.753   1.163  -0.736  1.00  0.00    -0.288 OA
BRANCH   9  11
HETATM   11  C2  UNL     1      -2.571  -0.231  -0.595  1.00  0.00     0.314 C 
BRANCH  11  12
HETATM   12  C1  UNL     1      -3.394   0.752   0.203  1.00  0.00     0.354 C 
BRANCH  12  13
HETATM   13  N1  UNL     1      -3.018   2.113  -0.027  1.00  0.00    -0.051 N 
ATOM     14  H13 UNL     1      -3.238   2.394  -0.982  1.00  0.00     0.277 HD
ATOM     15  H12 UNL     1      -3.632   2.751   0.480  1.00  0.00     0.277 HD
ATOM     16  H11 UNL     1      -2.039   2.300   0.191  1.00  0.00     0.277 HD
ENDBRANCH  12  13
BRANCH  12  17
HETATM   17  O1  UNL     1      -4.731   0.497  -0.095  1.00  0.00    -0.368 OA
ATOM     18  H1  UNL     1      -4.981  -0.407   0.058  1.00  0.00     0.212 HD
ENDBRANCH  12  17
ENDBRANCH  11  12
BRANCH  11  19
HETATM   19  N2  UNL     1      -2.911  -1.561  -0.238  1.00  0.00    -0.064 N 
ATOM     20  H23 UNL     1      -2.825  -1.719   0.766  1.00  0.00     0.275 HD
ATOM     21  H22 UNL     1      -3.911  -1.737  -0.333  1.00  0.00     0.275 HD
ATOM     22  H21 UNL     1      -2.355  -2.225  -0.777  1.00  0.00     0.275 HD
ENDBRANCH  11  19
ENDBRANCH   9  11
ENDBRANCH   1   9
BRANCH   8  23
HETATM   23  C6  UNL     1       2.079  -0.017   0.086  1.00  0.00     0.279 C 
HETATM   24  O3  UNL     1       1.785   1.100  -0.308  1.00  0.00    -0.265 OA
HETATM   25  N6  UNL     1       3.414  -0.338   0.400  1.00  0.00    -0.286 N 
ATOM     26  H6  UNL     1       3.624  -1.281   0.726  1.00  0.00     0.172 HD
BRANCH  25  27
HETATM   27  C7  UNL     1       4.467   0.580   0.285  1.00  0.00     0.244 C 
BRANCH  27  28
HETATM   28  O4  UNL     1       5.662   0.175   0.602  1.00  0.00    -0.331 OA
ATOM     29  H4  UNL     1       6.376   0.797   0.524  1.00  0.00     0.221 HD
ENDBRANCH  27  28
BRANCH  27  30
HETATM   30  N7  UNL     1       4.397   1.911  -0.139  1.00  0.00    -0.233 N 
ATOM     31  H7  UNL     1       3.499   2.313  -0.408  1.00  0.00     0.198 HD
BRANCH  30  32
HETATM   32  O5  UNL     1       5.555   2.692  -0.195  1.00  0.00    -0.287 OA
ATOM     33  H5  UNL     1       5.507   3.596  -0.483  1.00  0.00     0.244 HD
ENDBRANCH  30  32
ENDBRANCH  27  30
ENDBRANCH  25  27
ENDBRANCH   8  23
TORSDOF 11
