REMARK  13 active torsions:
REMARK  status: ('A' for Active; 'I' for Inactive)
REMARK    1  A    between atoms: N1_1  and  C1_4 
REMARK    2  A    between atoms: C3_9  and  N4_10 
REMARK    3  A    between atoms: N4_10  and  C4_12 
REMARK    4  A    between atoms: C4_12  and  C5_13 
REMARK    5  A    between atoms: C4_12  and  C6_16 
REMARK    6  A    between atoms: C8_21  and  S1_22 
REMARK    7  A    between atoms: S1_22  and  C9_23 
REMARK    8  A    between atoms: C9_23  and  C10_24 
REMARK    9  A    between atoms: C10_24  and  O3_25 
REMARK   10  A    between atoms: C10_24  and  C11_27 
REMARK   11  A    between atoms: C11_27  and  O4_28 
REMARK   12  A    between atoms: N7_30  and  N8_31 
REMARK   13  A    between atoms: C12_34  and  N9_35 
ROOT
HETATM    1  C4  UNL     1       1.284  -0.481  -0.971  1.00  0.00     0.239 C 
ENDROOT
BRANCH   1   2
HETATM    2  N4  UNL     1       2.251   0.395  -0.406  1.00  0.00    -0.365 N 
ATOM      3  H4  UNL     1       1.874   1.288  -0.089  1.00  0.00     0.161 HD
BRANCH   2   4
HETATM    4  C3  UNL     1       3.624   0.249  -0.208  1.00  0.00     0.116 A 
HETATM    5  C2  UNL     1       4.371  -0.736  -0.807  1.00  0.00     0.162 A 
HETATM    6  N2  UNL     1       5.689  -0.819  -0.522  1.00  0.00    -0.177 N 
HETATM    7  N3  UNL     1       3.849  -1.672  -1.745  1.00  0.00    -0.080 NA
HETATM    8  C1  UNL     1       6.315   0.012   0.317  1.00  0.00     0.678 A 
ATOM      9  H2  UNL     1       6.235  -1.554  -0.971  1.00  0.00     0.185 HD
HETATM   10  N10 UNL     1       5.631   0.980   0.917  1.00  0.00    -0.175 N 
HETATM   11  C12 UNL     1       4.300   1.110   0.668  1.00  0.00     0.144 A 
ATOM     12  H10 UNL     1       6.100   1.620   1.558  1.00  0.00     0.186 HD
BRANCH   8  13
HETATM   13  N1  UNL     1       7.582  -0.107   0.560  1.00  0.00    -0.234 N 
ATOM     14  H12 UNL     1       8.107  -0.850   0.099  1.00  0.00     0.174 HD
ATOM     15  H11 UNL     1       8.060   0.527   1.200  1.00  0.00     0.174 HD
ENDBRANCH   8  13
BRANCH  11  16
HETATM   16  N9  UNL     1       3.745   2.068   1.310  1.00  0.00    -0.383 N 
ATOM     17  H92 UNL     1       2.747   2.165   1.123  1.00  0.00     0.157 HD
ATOM     18  H91 UNL     1       4.237   2.694   1.947  1.00  0.00     0.157 HD
ENDBRANCH  11  16
ENDBRANCH   2   4
ENDBRANCH   1   2
BRANCH   1  19
HETATM   19  C5  UNL     1       1.145  -1.681  -0.075  1.00  0.00     0.203 C 
HETATM   20  O1  UNL     1       0.468  -2.689  -0.378  1.00  0.00    -0.646 OA
HETATM   21  O2  UNL     1       1.797  -1.672   1.145  1.00  0.00    -0.646 OA
ENDBRANCH   1  19
BRANCH   1  22
HETATM   22  C6  UNL     1      -0.077   0.142  -1.014  1.00  0.00     0.110 A 
HETATM   23  C7  UNL     1      -0.729   0.598  -2.127  1.00  0.00     0.145 A 
HETATM   24  N5  UNL     1      -0.295   0.596  -3.472  1.00  0.00    -0.080 NA
HETATM   25  N6  UNL     1      -1.934   1.090  -1.752  1.00  0.00    -0.322 N 
HETATM   26  C8  UNL     1      -2.028   0.941  -0.435  1.00  0.00     0.167 A 
ATOM     27  H6  UNL     1      -2.638   1.499  -2.366  1.00  0.00     0.169 HD
HETATM   28  N7  UNL     1      -0.903   0.367   0.013  1.00  0.00    -0.239 N 
BRANCH  26  29
HETATM   29  S1  UNL     1      -3.448   1.441   0.544  1.00  0.00    -0.089 SA
BRANCH  29  30
HETATM   30  C9  UNL     1      -4.654   0.065   0.652  1.00  0.00     0.116 C 
BRANCH  30  31
HETATM   31  C10 UNL     1      -5.825   0.542   1.484  1.00  0.00     0.151 C 
BRANCH  31  32
HETATM   32  O3  UNL     1      -5.424   0.905   2.761  1.00  0.00    -0.393 OA
ATOM     33  H3  UNL     1      -6.159   1.204   3.283  1.00  0.00     0.210 HD
ENDBRANCH  31  32
BRANCH  31  34
HETATM   34  C11 UNL     1      -6.888  -0.530   1.565  1.00  0.00     0.196 C 
BRANCH  34  35
HETATM   35  O4  UNL     1      -7.987  -0.082   2.256  1.00  0.00    -0.398 OA
ATOM     36  H4  UNL     1      -8.655  -0.756   2.307  1.00  0.00     0.209 HD
ENDBRANCH  34  35
ENDBRANCH  31  34
ENDBRANCH  30  31
ENDBRANCH  29  30
ENDBRANCH  26  29
BRANCH  28  37
HETATM   37  N8  UNL     1      -0.683   0.071   1.365  1.00  0.00    -0.336 N 
ATOM     38  H82 UNL     1       0.173  -0.366   1.706  1.00  0.00     0.177 HD
ATOM     39  H81 UNL     1      -1.313   0.243   2.148  1.00  0.00     0.177 HD
ENDBRANCH  28  37
ENDBRANCH   1  22
TORSDOF 13
