REMARK  6 active torsions:
REMARK  status: ('A' for Active; 'I' for Inactive)
REMARK    1  A    between atoms: N1_2  and  C2_4 
REMARK    2  A    between atoms: N5_11  and  C4_12 
REMARK    3  A    between atoms: C4_12  and  C5_13 
REMARK    4  A    between atoms: C5_13  and  C6_14 
REMARK    5  A    between atoms: C6_14  and  N6_15 
REMARK    6  A    between atoms: N6_15  and  N7_16 
ROOT
HETATM    1  C2  UNL     1      -1.997   0.251   0.164  1.00  0.00     0.697 A 
HETATM    2  N2  UNL     1      -3.143  -0.513   0.227  1.00  0.00    -0.161 N 
ATOM      3  H2  UNL     1      -4.079  -0.208  -0.039  1.00  0.00     0.187 HD
HETATM    4  C3  UNL     1      -2.817  -1.721   0.697  1.00  0.00     0.222 A 
HETATM    5  N3  UNL     1      -3.701  -2.832   0.924  1.00  0.00    -0.061 NA
HETATM    6  N4  UNL     1      -1.494  -1.683   0.912  1.00  0.00    -0.257 N 
ATOM      7  H4  UNL     1      -0.949  -2.466   1.273  1.00  0.00     0.190 HD
HETATM    8  N5  UNL     1      -0.982  -0.497   0.595  1.00  0.00    -0.121 N 
ENDROOT
BRANCH   8   9
HETATM    9  C4  UNL     1       0.448  -0.168   0.717  1.00  0.00     0.169 C 
BRANCH   9  10
HETATM   10  C5  UNL     1       1.074  -0.574  -0.582  1.00  0.00     0.040 C 
BRANCH  10  11
HETATM   11  C6  UNL     1       2.539  -0.317  -0.618  1.00  0.00     0.136 C 
BRANCH  11  12
HETATM   12  N6  UNL     1       2.844   1.065  -0.449  1.00  0.00    -0.148 NA
BRANCH  12  13
HETATM   13  N7  UNL     1       4.244   1.303  -0.506  1.00  0.00    -0.348 N 
ATOM     14  H72 UNL     1       4.933   0.565  -0.651  1.00  0.00     0.172 HD
ATOM     15  H71 UNL     1       4.462   2.292  -0.385  1.00  0.00     0.172 HD
ENDBRANCH  12  13
ENDBRANCH  11  12
ENDBRANCH  10  11
ENDBRANCH   9  10
ENDBRANCH   8   9
BRANCH   1  16
HETATM   16  N1  UNL     1      -2.024   1.438  -0.242  1.00  0.00    -0.229 N 
HETATM   17  C1  UNL     1      -1.062   2.442  -0.417  1.00  0.00     0.165 C 
ATOM     18  H1  UNL     1      -2.961   1.742  -0.505  1.00  0.00     0.177 HD
ENDBRANCH   1  16
TORSDOF 6
