REMARK  5 active torsions:
REMARK  status: ('A' for Active; 'I' for Inactive)
REMARK    1  A    between atoms: N1_2  and  N2_3 
REMARK    2  A    between atoms: N2_3  and  N3_4 
REMARK    3  A    between atoms: N3_4  and  C2_6 
REMARK    4  A    between atoms: N4_7  and  N5_9 
REMARK    5  A    between atoms: N5_9  and  C3_11 
ROOT
HETATM    1  N5  UNL     1       0.914   1.093  -0.202  1.00  0.00    -0.271 N 
ATOM      2  H5  UNL     1       0.573   1.685  -0.959  1.00  0.00     0.190 HD
ENDROOT
BRANCH   1   3
HETATM    3  N4  UNL     1       0.166   1.004   0.969  1.00  0.00    -0.293 N 
HETATM    4  C2  UNL     1      -0.960   0.408   1.070  1.00  0.00     0.211 C 
ATOM      5  H4  UNL     1       0.544   1.446   1.807  1.00  0.00     0.187 HD
BRANCH   4   6
HETATM    6  N3  UNL     1      -1.623  -0.256   0.007  1.00  0.00    -0.282 N 
ATOM      7  H3  UNL     1      -1.315  -1.191  -0.260  1.00  0.00     0.184 HD
BRANCH   6   8
HETATM    8  N2  UNL     1      -2.679   0.327  -0.683  1.00  0.00    -0.031 NA
BRANCH   8   9
HETATM    9  N1  UNL     1      -3.857  -0.388  -0.626  1.00  0.00    -0.131 NA
HETATM   10  C1  UNL     1      -4.756   0.031   0.412  1.00  0.00     0.156 C 
ENDBRANCH   8   9
ENDBRANCH   6   8
ENDBRANCH   4   6
ENDBRANCH   1   3
BRANCH   1  11
HETATM   11  C3  UNL     1       2.152   0.379  -0.383  1.00  0.00     0.190 C 
HETATM   12  N6  UNL     1       2.255  -0.765  -0.956  1.00  0.00    -0.360 N 
HETATM   13  C4  UNL     1       3.627  -1.191  -0.970  1.00  0.00     0.142 C 
ATOM     14  H6  UNL     1       1.475  -1.295  -1.345  1.00  0.00     0.162 HD
HETATM   15  C5  UNL     1       4.281  -0.337   0.090  1.00  0.00     0.142 C 
HETATM   16  N7  UNL     1       3.427   0.834   0.051  1.00  0.00    -0.360 N 
ATOM     17  H7  UNL     1       3.688   1.791   0.287  1.00  0.00     0.162 HD
ENDBRANCH   1  11
TORSDOF 5
