REMARK  13 active torsions:
REMARK  status: ('A' for Active; 'I' for Inactive)
REMARK    1  A    between atoms: C2_2  and  O1_3 
REMARK    2  A    between atoms: C2_2  and  C3_5 
REMARK    3  A    between atoms: C3_5  and  O2_6 
REMARK    4  A    between atoms: C3_5  and  C4_8 
REMARK    5  A    between atoms: C4_8  and  O3_9 
REMARK    6  A    between atoms: C4_8  and  C5_11 
REMARK    7  A    between atoms: C5_11  and  S1_13 
REMARK    8  A    between atoms: S1_13  and  C7_14 
REMARK    9  A    between atoms: C8_16  and  N1_17 
REMARK   10  A    between atoms: N1_17  and  C9_19 
REMARK   11  A    between atoms: C10_22  and  N3_23 
REMARK   12  A    between atoms: N5_27  and  N6_28 
REMARK   13  A    between atoms: N7_33  and  O6_34 
ROOT
HETATM    1  N3  UNL     1      -5.828  -1.767  -1.366  1.00  0.00    -0.123 N 
ATOM      2  H3  UNL     1      -6.693  -1.965  -1.869  1.00  0.00     0.197 HD
HETATM    3  C11 UNL     1      -4.888  -2.791  -1.300  1.00  0.00     0.196 C 
HETATM    4  N4  UNL     1      -4.091  -3.638  -1.226  1.00  0.00    -0.171 NA
ENDROOT
BRANCH   1   5
HETATM    5  C10 UNL     1      -5.708  -0.602  -0.855  1.00  0.00     0.731 A 
HETATM    6  N2  UNL     1      -4.611  -0.206  -0.158  1.00  0.00    -0.017 N 
HETATM    7  C9  UNL     1      -4.519   1.023   0.376  1.00  0.00     0.727 A 
ATOM      8  H2  UNL     1      -3.837  -0.859  -0.037  1.00  0.00     0.203 HD
HETATM    9  N7  UNL     1      -5.521   1.903   0.232  1.00  0.00     0.007 N 
HETATM   10  C12 UNL     1      -6.604   1.504  -0.459  1.00  0.00     0.401 A 
HETATM   11  N5  UNL     1      -6.716   0.269  -1.004  1.00  0.00    -0.034 N 
HETATM   12  O5  UNL     1      -7.568   2.307  -0.615  1.00  0.00    -0.241 OA
BRANCH   7  13
HETATM   13  N1  UNL     1      -3.352   1.431   1.106  1.00  0.00    -0.173 N 
ATOM     14  H1  UNL     1      -3.315   2.360   1.526  1.00  0.00     0.183 HD
BRANCH  13  15
HETATM   15  C8  UNL     1      -2.224   0.529   1.249  1.00  0.00     0.388 C 
HETATM   16  O4  UNL     1      -1.685   0.315   0.027  1.00  0.00    -0.325 OA
HETATM   17  C7  UNL     1      -0.297   0.603   0.054  1.00  0.00     0.222 C 
HETATM   18  C13 UNL     1      -0.035   0.821   1.503  1.00  0.00     0.094 C 
HETATM   19  O7  UNL     1      -1.294   1.041   2.093  1.00  0.00    -0.330 OA
HETATM   20  C14 UNL     1       0.553  -0.356   2.233  1.00  0.00     0.049 C 
HETATM   21  C15 UNL     1       0.716   2.130   1.789  1.00  0.00     0.049 C 
BRANCH  17  22
HETATM   22  S1  UNL     1       0.491  -0.743  -0.752  1.00  0.00    -0.127 SA
BRANCH  22  23
HETATM   23  C5  UNL     1       2.125  -0.708  -1.325  1.00  0.00     0.077 C 
HETATM   24  C6  UNL     1       2.444   0.343  -2.367  1.00  0.00     0.024 C 
BRANCH  23  25
HETATM   25  C4  UNL     1       3.224  -0.698  -0.300  1.00  0.00     0.163 C 
BRANCH  25  26
HETATM   26  C3  UNL     1       4.576  -1.090  -0.936  1.00  0.00     0.176 C 
BRANCH  26  27
HETATM   27  C2  UNL     1       5.606  -1.127   0.183  1.00  0.00     0.145 C 
HETATM   28  C1  UNL     1       6.935  -1.483  -0.480  1.00  0.00     0.042 C 
BRANCH  27  29
HETATM   29  O1  UNL     1       5.724   0.153   0.736  1.00  0.00    -0.393 OA
ATOM     30  H1  UNL     1       4.897   0.374   1.148  1.00  0.00     0.210 HD
ENDBRANCH  27  29
ENDBRANCH  26  27
BRANCH  26  31
HETATM   31  O2  UNL     1       5.011  -0.201  -1.873  1.00  0.00    -0.390 OA
ATOM     32  H2  UNL     1       4.368  -0.178  -2.572  1.00  0.00     0.210 HD
ENDBRANCH  26  31
ENDBRANCH  25  26
BRANCH  25  33
HETATM   33  O3  UNL     1       3.429   0.563   0.283  1.00  0.00    -0.392 OA
ATOM     34  H3  UNL     1       2.598   0.804   0.674  1.00  0.00     0.210 HD
ENDBRANCH  25  33
ENDBRANCH  23  25
ENDBRANCH  22  23
ENDBRANCH  17  22
ENDBRANCH  13  15
ENDBRANCH   7  13
BRANCH   9  35
HETATM   35  O6  UNL     1      -5.448   3.159   0.770  1.00  0.00    -0.265 OA
ATOM     36  H6  UNL     1      -6.158   3.782   0.668  1.00  0.00     0.246 HD
ENDBRANCH   9  35
BRANCH  11  37
HETATM   37  N6  UNL     1      -7.854  -0.134  -1.725  1.00  0.00    -0.320 N 
ATOM     38  H62 UNL     1      -7.938  -1.064  -2.135  1.00  0.00     0.178 HD
ATOM     39  H61 UNL     1      -8.621   0.529  -1.838  1.00  0.00     0.178 HD
ENDBRANCH  11  37
ENDBRANCH   1   5
TORSDOF 13
