REMARK  12 active torsions:
REMARK  status: ('A' for Active; 'I' for Inactive)
REMARK    1  A    between atoms: N1_1  and  C1_5 
REMARK    2  A    between atoms: C1_5  and  C2_6 
REMARK    3  A    between atoms: C4_8  and  O1_9 
REMARK    4  A    between atoms: O1_9  and  C5_10 
REMARK    5  A    between atoms: C6_11  and  N2_12 
REMARK    6  A    between atoms: C8_17  and  O2_18 
REMARK    7  A    between atoms: O2_18  and  C9_19 
REMARK    8  A    between atoms: C11_22  and  C12_23 
REMARK    9  A    between atoms: C12_23  and  N3_24 
REMARK       I    between atoms: N3_24  and  C13_26 
REMARK   10  A    between atoms: C13_26  and  C14_28 
REMARK   11  A    between atoms: C20_35  and  N4_36 
REMARK   12  A    between atoms: C22_41  and  O6_42 
ROOT
HETATM    1  C5  UNL     1      -2.362  -1.213  -1.274  1.00  0.00     0.181 C 
HETATM    2  C6  UNL     1      -2.766  -2.109  -2.446  1.00  0.00     0.217 C 
HETATM    3  C7  UNL     1      -1.410  -1.794  -3.045  1.00  0.00     0.070 C 
HETATM    4  C8  UNL     1      -0.937  -1.528  -1.613  1.00  0.00     0.160 C 
ENDROOT
BRANCH   1   5
HETATM    5  O1  UNL     1      -2.757   0.099  -1.382  1.00  0.00    -0.374 OA
BRANCH   5   6
HETATM    6  C4  UNL     1      -3.521   0.487  -0.312  1.00  0.00     0.153 C 
HETATM    7  C3  UNL     1      -4.911   0.964  -0.719  1.00  0.00     0.043 C 
HETATM    8  C2  UNL     1      -5.830   0.868   0.476  1.00  0.00     0.042 C 
HETATM    9  C22 UNL     1      -5.163   1.545   1.639  1.00  0.00     0.126 C 
HETATM   10  C21 UNL     1      -4.005   2.420   1.199  1.00  0.00     0.067 C 
HETATM   11  C20 UNL     1      -2.924   1.609   0.510  1.00  0.00     0.214 C 
BRANCH   8  12
HETATM   12  C1  UNL     1      -6.200  -0.543   0.810  1.00  0.00     0.236 C 
BRANCH  12  13
HETATM   13  N1  UNL     1      -7.076  -0.533   1.963  1.00  0.00    -0.079 N 
ATOM     14  H13 UNL     1      -6.670  -0.038   2.757  1.00  0.00     0.274 HD
ATOM     15  H12 UNL     1      -7.893   0.063   1.827  1.00  0.00     0.274 HD
ATOM     16  H11 UNL     1      -7.328  -1.495   2.191  1.00  0.00     0.274 HD
ENDBRANCH  12  13
ENDBRANCH   8  12
BRANCH   9  17
HETATM   17  O6  UNL     1      -6.090   2.400   2.243  1.00  0.00    -0.395 OA
ATOM     18  H6  UNL     1      -5.668   2.828   2.979  1.00  0.00     0.210 HD
ENDBRANCH   9  17
BRANCH  11  19
HETATM   19  N4  UNL     1      -2.053   1.090   1.559  1.00  0.00    -0.072 N 
ATOM     20  H43 UNL     1      -2.537   0.412   2.147  1.00  0.00     0.274 HD
ATOM     21  H42 UNL     1      -1.330   0.479   1.178  1.00  0.00     0.274 HD
ATOM     22  H41 UNL     1      -1.651   1.846   2.113  1.00  0.00     0.274 HD
ENDBRANCH  11  19
ENDBRANCH   5   6
ENDBRANCH   1   5
BRANCH   2  23
HETATM   23  N2  UNL     1      -3.890  -1.682  -3.211  1.00  0.00    -0.072 N 
ATOM     24  H23 UNL     1      -4.691  -1.539  -2.595  1.00  0.00     0.274 HD
ATOM     25  H22 UNL     1      -3.739  -0.729  -3.543  1.00  0.00     0.274 HD
ATOM     26  H21 UNL     1      -4.159  -2.279  -3.993  1.00  0.00     0.274 HD
ENDBRANCH   2  23
BRANCH   4  27
HETATM   27  O2  UNL     1      -0.025  -0.507  -1.615  1.00  0.00    -0.331 OA
BRANCH  27  28
HETATM   28  C9  UNL     1       1.103  -0.947  -0.931  1.00  0.00     0.413 C 
HETATM   29  O3  UNL     1       1.384  -0.181   0.211  1.00  0.00    -0.336 OA
HETATM   30  C10 UNL     1       2.726  -0.439   0.486  1.00  0.00     0.207 C 
HETATM   31  C11 UNL     1       3.320  -0.542  -0.898  1.00  0.00     0.168 C 
HETATM   32  O5  UNL     1       2.253  -0.950  -1.678  1.00  0.00    -0.330 OA
BRANCH  31  33
HETATM   33  C12 UNL     1       4.459  -1.539  -0.937  1.00  0.00     0.157 C 
BRANCH  33  34
HETATM   34  N3  UNL     1       5.537  -1.070  -0.106  1.00  0.00    -0.354 N 
HETATM   35  C13 UNL     1       6.264   0.114  -0.266  1.00  0.00     0.251 C 
HETATM   36  O4  UNL     1       5.974   0.880  -1.234  1.00  0.00    -0.268 OA
ATOM     37  H3  UNL     1       5.798  -1.663   0.682  1.00  0.00     0.162 HD
BRANCH  35  38
HETATM   38  C14 UNL     1       7.339   0.541   0.600  1.00  0.00     0.032 A 
HETATM   39  C15 UNL     1       7.677  -0.125   1.749  1.00  0.00     0.017 A 
HETATM   40  C16 UNL     1       8.713   0.270   2.592  1.00  0.00     0.001 A 
HETATM   41  C17 UNL     1       9.432   1.392   2.246  1.00  0.00     0.000 A 
HETATM   42  C18 UNL     1       9.131   2.097   1.100  1.00  0.00     0.001 A 
HETATM   43  C19 UNL     1       8.100   1.668   0.300  1.00  0.00     0.017 A 
ENDBRANCH  35  38
ENDBRANCH  33  34
ENDBRANCH  31  33
ENDBRANCH  27  28
ENDBRANCH   4  27
TORSDOF 12
