REMARK  14 active torsions:
REMARK  status: ('A' for Active; 'I' for Inactive)
REMARK    1  A    between atoms: C1_2  and  C2_3 
REMARK       I    between atoms: C1_2  and  N2_27 
REMARK    2  A    between atoms: C3_4  and  C4_5 
REMARK    3  A    between atoms: C7_9  and  O2_10 
REMARK    4  A    between atoms: C8_12  and  O3_13 
REMARK    5  A    between atoms: C9_15  and  C10_16 
REMARK    6  A    between atoms: C10_16  and  N1_17 
REMARK    7  A    between atoms: N1_17  and  C11_20 
REMARK    8  A    between atoms: N2_27  and  C18_29 
REMARK    9  A    between atoms: C18_29  and  C19_30 
REMARK   10  A    between atoms: C19_30  and  C20_31 
REMARK   11  A    between atoms: C20_31  and  C21_32 
REMARK   12  A    between atoms: C21_32  and  C22_33 
REMARK   13  A    between atoms: C22_33  and  C23_34 
REMARK   14  A    between atoms: C23_34  and  N3_35 
ROOT
HETATM    1  C2  UNL     1       2.319  -0.295   0.411  1.00  0.00     0.075 C 
HETATM    2  C3  UNL     1       3.423   0.256   0.093  1.00  0.00     0.017 C 
ENDROOT
BRANCH   1   3
HETATM    3  C1  UNL     1       0.987  -0.007   0.809  1.00  0.00     0.241 C 
HETATM    4  O1  UNL     1       0.391   1.068   0.995  1.00  0.00    -0.269 OA
HETATM    5  N2  UNL     1       0.109  -1.157   1.061  1.00  0.00    -0.358 N 
ATOM      6  H2  UNL     1       0.461  -2.108   0.950  1.00  0.00     0.162 HD
BRANCH   5   7
HETATM    7  C18 UNL     1      -1.242  -0.930   1.463  1.00  0.00     0.123 C 
BRANCH   7   8
HETATM    8  C19 UNL     1      -1.995  -2.216   1.689  1.00  0.00     0.020 C 
BRANCH   8   9
HETATM    9  C20 UNL     1      -2.091  -3.114   0.528  1.00  0.00     0.002 C 
BRANCH   9  10
HETATM   10  C21 UNL     1      -2.707  -2.652  -0.718  1.00  0.00     0.002 C 
BRANCH  10  11
HETATM   11  C22 UNL     1      -4.119  -2.261  -0.789  1.00  0.00     0.020 C 
BRANCH  11  12
HETATM   12  C23 UNL     1      -4.637  -1.103  -0.042  1.00  0.00     0.127 C 
BRANCH  12  13
HETATM   13  N3  UNL     1      -6.073  -0.888  -0.287  1.00  0.00    -0.374 N 
HETATM   14  C24 UNL     1      -6.820  -1.932   0.250  1.00  0.00     0.063 C 
HETATM   15  C25 UNL     1      -7.827  -1.529   1.354  1.00  0.00     0.044 C 
HETATM   16  C26 UNL     1      -8.605  -0.461   0.695  1.00  0.00     0.005 C 
HETATM   17  C27 UNL     1      -9.928  -0.035   1.251  1.00  0.00     0.002 C 
HETATM   18  C28 UNL     1     -10.448   0.923   0.157  1.00  0.00     0.020 C 
HETATM   19  C29 UNL     1      -9.419   1.836  -0.396  1.00  0.00     0.118 C 
HETATM   20  N4  UNL     1      -8.749   1.376  -1.595  1.00  0.00    -0.402 N 
HETATM   21  C30 UNL     1      -7.501   1.940  -1.884  1.00  0.00     0.060 C 
ATOM     22  H4  UNL     1      -9.168   0.672  -2.202  1.00  0.00     0.158 HD
HETATM   23  C31 UNL     1      -6.260   1.213  -1.572  1.00  0.00     0.088 C 
HETATM   24  C32 UNL     1      -6.343  -0.304  -1.530  1.00  0.00     0.068 C 
ENDBRANCH  12  13
ENDBRANCH  11  12
ENDBRANCH  10  11
ENDBRANCH   9  10
ENDBRANCH   8   9
ENDBRANCH   7   8
ENDBRANCH   5   7
ENDBRANCH   1   3
BRANCH   2  25
HETATM   25  C4  UNL     1       3.877   1.609  -0.019  1.00  0.00    -0.024 A 
HETATM   26  C5  UNL     1       3.133   2.738   0.239  1.00  0.00     0.038 A 
HETATM   27  C6  UNL     1       3.626   4.035   0.112  1.00  0.00     0.070 A 
HETATM   28 CL1  UNL     1       2.553   5.378   0.476  1.00  0.00    -0.081 Cl
HETATM   29  C7  UNL     1       4.908   4.202  -0.287  1.00  0.00     0.121 A 
HETATM   30  C8  UNL     1       5.757   3.103  -0.577  1.00  0.00     0.109 A 
HETATM   31  C9  UNL     1       5.221   1.839  -0.435  1.00  0.00     0.014 A 
BRANCH  29  32
HETATM   32  O2  UNL     1       5.432   5.468  -0.425  1.00  0.00    -0.356 OA
ATOM     33  H2  UNL     1       6.332   5.585  -0.705  1.00  0.00     0.218 HD
ENDBRANCH  29  32
BRANCH  30  34
HETATM   34  O3  UNL     1       6.988   3.328  -0.962  1.00  0.00    -0.357 OA
ATOM     35  H3  UNL     1       7.557   2.592  -1.156  1.00  0.00     0.217 HD
ENDBRANCH  30  34
BRANCH  31  36
HETATM   36  C10 UNL     1       6.031   0.624  -0.744  1.00  0.00     0.275 C 
BRANCH  36  37
HETATM   37  N1  UNL     1       7.382   0.972  -1.097  1.00  0.00    -0.063 N 
ATOM     38  H12 UNL     1       7.407   1.737  -1.771  1.00  0.00     0.278 HD
ATOM     39  H11 UNL     1       7.865   1.428  -0.323  1.00  0.00     0.278 HD
BRANCH  37  40
HETATM   40  C11 UNL     1       8.127  -0.197  -1.582  1.00  0.00     0.218 C 
HETATM   41  C12 UNL     1       8.211  -1.205  -0.473  1.00  0.00     0.003 C 
HETATM   42  C13 UNL     1       8.798  -0.962   0.814  1.00  0.00    -0.028 C 
HETATM   43  C14 UNL     1      10.274  -1.225   1.115  1.00  0.00     0.038 C 
HETATM   44  C15 UNL     1      11.210  -0.417   0.148  1.00  0.00     0.083 C 
HETATM   45  C16 UNL     1      10.406  -0.048  -0.942  1.00  0.00    -0.180 C 
HETATM   46  C17 UNL     1       9.556   0.309  -2.001  1.00  0.00     0.116 C 
ENDBRANCH  37  40
ENDBRANCH  36  37
ENDBRANCH  31  36
ENDBRANCH   2  25
TORSDOF 14
