REMARK  17 active torsions:
REMARK  status: ('A' for Active; 'I' for Inactive)
REMARK    1  A    between atoms: C2_2  and  C3_3 
REMARK    2  A    between atoms: C3_3  and  C4_4 
REMARK    3  A    between atoms: C4_4  and  O1_5 
REMARK    4  A    between atoms: C4_4  and  C5_7 
REMARK    5  A    between atoms: C4_4  and  C20_28 
REMARK    6  A    between atoms: C5_7  and  C6_8 
REMARK    7  A    between atoms: C6_8  and  C7_9 
REMARK    8  A    between atoms: C7_9  and  C8_10 
REMARK    9  A    between atoms: C10_12  and  O2_13 
REMARK   10  A    between atoms: C15_19  and  O3_20 
REMARK   11  A    between atoms: C17_23  and  O4_24 
REMARK   12  A    between atoms: C20_28  and  C21_29 
REMARK   13  A    between atoms: C21_29  and  C22_30 
REMARK   14  A    between atoms: C23_31  and  O5_32 
REMARK   15  A    between atoms: C25_35  and  C26_36 
REMARK   16  A    between atoms: C26_36  and  C27_37 
REMARK   17  A    between atoms: C32_42  and  O6_43 
ROOT
HETATM    1  C4  UNL     1       0.089  -0.058  -0.877  1.00  0.00     0.058 C 
ENDROOT
BRANCH   1   2
HETATM    2  C3  UNL     1      -0.477  -1.027  -1.796  1.00  0.00     0.037 C 
BRANCH   2   3
HETATM    3  C2  UNL     1       0.050  -2.324  -2.196  1.00  0.00    -0.002 C 
HETATM    4  C1  UNL     1       0.064  -3.422  -1.164  1.00  0.00     0.005 C 
ENDBRANCH   2   3
ENDBRANCH   1   2
BRANCH   1   5
HETATM    5  O1  UNL     1       1.366   0.259  -1.667  1.00  0.00    -0.390 OA
ATOM      6  H1  UNL     1       1.737   0.894  -1.065  1.00  0.00     0.210 HD
ENDBRANCH   1   5
BRANCH   1   7
HETATM    7  C5  UNL     1      -0.582   1.293  -0.991  1.00  0.00     0.038 C 
BRANCH   7   8
HETATM    8  C6  UNL     1      -2.009   1.434  -0.743  1.00  0.00     0.003 C 
BRANCH   8   9
HETATM    9  C7  UNL     1      -2.612   1.085   0.545  1.00  0.00     0.005 C 
BRANCH   9  10
HETATM   10  C8  UNL     1      -4.064   1.336   0.723  1.00  0.00    -0.007 C 
HETATM   11  C9  UNL     1      -4.377   2.826   0.499  1.00  0.00     0.036 C 
HETATM   12  C10 UNL     1      -5.382   3.331   1.504  1.00  0.00     0.118 C 
HETATM   13  C11 UNL     1      -6.724   2.647   1.337  1.00  0.00     0.032 C 
HETATM   14  C12 UNL     1      -6.595   1.306   1.992  1.00  0.00     0.014 C 
HETATM   15  C13 UNL     1      -6.233   0.181   1.100  1.00  0.00    -0.014 C 
HETATM   16  C14 UNL     1      -5.753  -0.965   2.003  1.00  0.00     0.018 C 
HETATM   17  C15 UNL     1      -7.449  -0.322   0.369  1.00  0.00     0.129 C 
HETATM   18  C19 UNL     1      -5.079   0.485   0.127  1.00  0.00     0.003 C 
HETATM   19  C16 UNL     1      -7.155  -0.559  -1.075  1.00  0.00     0.064 C 
HETATM   20  C17 UNL     1      -5.894  -1.317  -1.319  1.00  0.00     0.121 C 
HETATM   21  C18 UNL     1      -4.721  -0.828  -0.449  1.00  0.00     0.037 C 
BRANCH  12  22
HETATM   22  O2  UNL     1      -5.460   4.711   1.365  1.00  0.00    -0.396 OA
ATOM     23  H2  UNL     1      -6.093   5.029   1.998  1.00  0.00     0.210 HD
ENDBRANCH  12  22
BRANCH  17  24
HETATM   24  O3  UNL     1      -8.043  -1.420   0.990  1.00  0.00    -0.395 OA
ATOM     25  H3  UNL     1      -8.810  -1.737   0.529  1.00  0.00     0.210 HD
ENDBRANCH  17  24
BRANCH  20  26
HETATM   26  O4  UNL     1      -6.069  -2.692  -1.175  1.00  0.00    -0.395 OA
ATOM     27  H4  UNL     1      -5.266  -3.175  -1.330  1.00  0.00     0.210 HD
ENDBRANCH  20  26
ENDBRANCH   9  10
ENDBRANCH   8   9
ENDBRANCH   7   8
ENDBRANCH   1   7
BRANCH   1  28
HETATM   28  C20 UNL     1       0.577  -0.247   0.467  1.00  0.00     0.042 C 
BRANCH  28  29
HETATM   29  C21 UNL     1       1.742  -0.968   0.949  1.00  0.00     0.047 C 
BRANCH  29  30
HETATM   30  C22 UNL     1       3.086  -0.485   0.569  1.00  0.00     0.017 A 
HETATM   31  C23 UNL     1       3.618   0.647   1.158  1.00  0.00     0.075 A 
HETATM   32  C24 UNL     1       4.870   1.096   0.773  1.00  0.00     0.047 A 
HETATM   33  C25 UNL     1       5.636   0.445  -0.201  1.00  0.00    -0.019 A 
HETATM   34  C32 UNL     1       5.125  -0.662  -0.782  1.00  0.00     0.113 A 
HETATM   35  C34 UNL     1       3.838  -1.105  -0.370  1.00  0.00     0.159 A 
HETATM   36  F1  UNL     1       3.466  -2.255  -0.995  1.00  0.00    -0.203 F 
BRANCH  31  37
HETATM   37  O5  UNL     1       2.992   1.383   2.131  1.00  0.00    -0.360 OA
ATOM     38  H5  UNL     1       3.358   2.161   2.536  1.00  0.00     0.217 HD
ENDBRANCH  31  37
BRANCH  33  39
HETATM   39  C26 UNL     1       6.983   0.965  -0.473  1.00  0.00     0.046 C 
BRANCH  39  40
HETATM   40  C27 UNL     1       8.051   0.698   0.494  1.00  0.00    -0.010 C 
HETATM   41  C28 UNL     1       9.376   1.302  -0.003  1.00  0.00     0.005 C 
HETATM   42  C29 UNL     1      10.038   0.117  -0.681  1.00  0.00     0.000 C 
HETATM   43  C30 UNL     1       9.632  -1.079   0.154  1.00  0.00     0.000 C 
HETATM   44  C31 UNL     1       8.398  -0.659   0.931  1.00  0.00     0.005 C 
ENDBRANCH  39  40
ENDBRANCH  33  39
BRANCH  34  45
HETATM   45  O6  UNL     1       5.745  -1.398  -1.753  1.00  0.00    -0.352 OA
HETATM   46  C33 UNL     1       6.526  -2.521  -1.702  1.00  0.00     0.210 C 
ENDBRANCH  34  45
ENDBRANCH  29  30
ENDBRANCH  28  29
ENDBRANCH   1  28
TORSDOF 17
