REMARK  15 active torsions:
REMARK  status: ('A' for Active; 'I' for Inactive)
REMARK    1  A    between atoms: C2_2  and  O1_5 
REMARK    2  A    between atoms: O1_5  and  C5_6 
REMARK       I    between atoms: C5_6  and  N1_8 
REMARK    3  A    between atoms: N1_8  and  C6_10 
REMARK    4  A    between atoms: C6_10  and  C14_18 
REMARK    5  A    between atoms: C7_11  and  C8_12 
REMARK    6  A    between atoms: C14_18  and  O3_19 
REMARK    7  A    between atoms: N2_21  and  C15_23 
REMARK    8  A    between atoms: C15_23  and  C16_24 
REMARK    9  A    between atoms: C15_23  and  C19_30 
REMARK   10  A    between atoms: C16_24  and  C17_25 
REMARK   11  A    between atoms: C17_25  and  C18_26 
REMARK   12  A    between atoms: C18_26  and  O4_27 
REMARK       I    between atoms: C19_30  and  N3_32 
REMARK   13  A    between atoms: C20_34  and  C21_35 
REMARK   14  A    between atoms: C21_35  and  C22_36 
REMARK   15  A    between atoms: C22_36  and  C23_37 
ROOT
HETATM    1  C14 UNL     1      -0.410  -0.064   0.566  1.00  0.00     0.167 C 
HETATM    2  N2  UNL     1       0.351   0.571  -0.373  1.00  0.00    -0.334 N 
ATOM      3  H2  UNL     1      -0.199   1.110  -1.042  1.00  0.00     0.168 HD
ENDROOT
BRANCH   1   4
HETATM    4  C6  UNL     1      -1.807  -0.130   0.798  1.00  0.00     0.084 C 
HETATM    5  C7  UNL     1      -2.971   0.416   0.196  1.00  0.00     0.012 C 
BRANCH   4   6
HETATM    6  N1  UNL     1      -2.019  -1.647   0.949  1.00  0.00    -0.299 N 
HETATM    7  C5  UNL     1      -2.170  -2.217   2.208  1.00  0.00     0.366 C 
HETATM    8  O2  UNL     1      -2.122  -1.448   3.222  1.00  0.00    -0.238 OA
ATOM      9  H1  UNL     1      -2.049  -2.239   0.119  1.00  0.00     0.171 HD
BRANCH   7  10
HETATM   10  O1  UNL     1      -2.367  -3.552   2.441  1.00  0.00    -0.294 OA
BRANCH  10  11
HETATM   11  C2  UNL     1      -2.514  -4.148   3.718  1.00  0.00     0.061 C 
HETATM   12  C1  UNL     1      -1.265  -3.914   4.556  1.00  0.00     0.046 C 
HETATM   13  C3  UNL     1      -3.707  -3.643   4.474  1.00  0.00     0.046 C 
HETATM   14  C4  UNL     1      -2.668  -5.635   3.516  1.00  0.00     0.046 C 
ENDBRANCH  10  11
ENDBRANCH   7  10
ENDBRANCH   4   6
BRANCH   5  15
HETATM   15  C8  UNL     1      -3.429   1.736  -0.124  1.00  0.00     0.010 C 
HETATM   16  C9  UNL     1      -4.878   1.515  -0.752  1.00  0.00     0.008 C 
HETATM   17  C10 UNL     1      -5.259   2.657  -1.613  1.00  0.00     0.001 C 
HETATM   18  C11 UNL     1      -4.776   3.986  -1.117  1.00  0.00     0.000 C 
HETATM   19  C12 UNL     1      -3.293   4.037  -0.903  1.00  0.00     0.001 C 
HETATM   20  C13 UNL     1      -2.773   2.585  -1.114  1.00  0.00     0.008 C 
ENDBRANCH   5  15
ENDBRANCH   1   4
BRANCH   1  21
HETATM   21  O3  UNL     1       0.297  -0.757   1.425  1.00  0.00    -0.344 OA
ATOM     22  H3  UNL     1       1.233  -0.713   1.270  1.00  0.00     0.219 HD
ENDBRANCH   1  21
BRANCH   2  23
HETATM   23  C15 UNL     1       1.766   0.637  -0.613  1.00  0.00     0.080 C 
BRANCH  23  24
HETATM   24  C16 UNL     1       2.554  -0.547  -0.109  1.00  0.00     0.068 C 
BRANCH  24  25
HETATM   25  C17 UNL     1       2.108  -1.801  -0.821  1.00  0.00     0.072 C 
BRANCH  25  26
HETATM   26  C18 UNL     1       2.929  -2.951  -0.225  1.00  0.00     0.304 C 
HETATM   27  F1  UNL     1       4.276  -2.650  -0.455  1.00  0.00    -0.220 F 
BRANCH  26  28
HETATM   28  O4  UNL     1       2.574  -4.145  -0.832  1.00  0.00    -0.367 OA
ATOM     29  H4  UNL     1       3.083  -4.857  -0.463  1.00  0.00     0.213 HD
ENDBRANCH  26  28
ENDBRANCH  25  26
ENDBRANCH  24  25
ENDBRANCH  23  24
BRANCH  23  30
HETATM   30  C19 UNL     1       2.388   1.933  -0.395  1.00  0.00     0.267 C 
HETATM   31  O5  UNL     1       1.736   2.960  -0.031  1.00  0.00    -0.266 OA
HETATM   32  N3  UNL     1       3.782   2.056  -0.596  1.00  0.00    -0.336 N 
HETATM   33  C20 UNL     1       4.392   2.077  -1.713  1.00  0.00     0.064 C 
ATOM     34  H3  UNL     1       4.359   2.136   0.241  1.00  0.00     0.168 HD
BRANCH  33  35
HETATM   35  C21 UNL     1       5.867   2.211  -1.823  1.00  0.00     0.045 C 
BRANCH  35  36
HETATM   36  C22 UNL     1       6.253   2.799  -3.149  1.00  0.00     0.016 C 
BRANCH  36  37
HETATM   37  C23 UNL     1       7.768   2.933  -3.265  1.00  0.00     0.086 C 
HETATM   38  S1  UNL     1       8.253   3.638  -4.843  1.00  0.00    -0.098 SA
ENDBRANCH  36  37
ENDBRANCH  35  36
ENDBRANCH  33  35
ENDBRANCH  23  30
ENDBRANCH   2  23
TORSDOF 15
