REMARK  16 active torsions:
REMARK  status: ('A' for Active; 'I' for Inactive)
REMARK    1  A    between atoms: C2_2  and  O2_4 
REMARK    2  A    between atoms: O2_4  and  C3_5 
REMARK    3  A    between atoms: C3_5  and  C4_6 
REMARK    4  A    between atoms: C3_5  and  C26_34 
REMARK    5  A    between atoms: C4_6  and  C5_7 
REMARK    6  A    between atoms: C5_7  and  N1_8 
REMARK    7  A    between atoms: N1_8  and  C6_10 
REMARK    8  A    between atoms: C6_10  and  O3_12 
REMARK    9  A    between atoms: C6_10  and  C8_14 
REMARK   10  A    between atoms: C8_14  and  C9_15 
REMARK   11  A    between atoms: C9_15  and  C10_16 
REMARK   12  A    between atoms: C10_16  and  C11_17 
REMARK   13  A    between atoms: C11_17  and  C12_19 
REMARK   14  A    between atoms: C12_19  and  C13_20 
REMARK   15  A    between atoms: C13_20  and  C14_21 
REMARK       I    between atoms: C26_34  and  N2_36 
REMARK   16  A    between atoms: N2_36  and  N3_38 
ROOT
HETATM    1  C5  UNL     1      -3.289   0.449  -0.640  1.00  0.00     0.061 C 
HETATM    2  C21 UNL     1      -4.202   1.551  -1.039  1.00  0.00     0.033 C 
HETATM    3  C22 UNL     1      -4.816   1.535  -2.380  1.00  0.00     0.003 C 
HETATM    4  C23 UNL     1      -4.148   0.760  -3.453  1.00  0.00     0.003 C 
HETATM    5  C24 UNL     1      -2.960  -0.056  -3.056  1.00  0.00     0.040 C 
HETATM    6  C25 UNL     1      -3.233  -0.652  -1.716  1.00  0.00     0.198 C 
HETATM    7  F1  UNL     1      -2.285  -1.573  -1.322  1.00  0.00    -0.247 F 
ENDROOT
BRANCH   1   8
HETATM    8  C4  UNL     1      -3.689  -0.223   0.605  1.00  0.00     0.076 C 
BRANCH   8   9
HETATM    9  C3  UNL     1      -4.986  -0.919   0.806  1.00  0.00     0.227 C 
BRANCH   9  10
HETATM   10  O2  UNL     1      -4.747  -1.459   2.200  1.00  0.00    -0.306 OA
BRANCH  10  11
HETATM   11  C2  UNL     1      -4.830  -2.812   2.398  1.00  0.00     0.255 C 
HETATM   12  C1  UNL     1      -4.603  -3.366   3.747  1.00  0.00     0.126 C 
HETATM   13  O1  UNL     1      -5.098  -3.563   1.440  1.00  0.00    -0.266 OA
ENDBRANCH  10  11
ENDBRANCH   9  10
BRANCH   9  14
HETATM   14  C26 UNL     1      -6.203  -0.128   1.041  1.00  0.00     0.265 C 
HETATM   15  O5  UNL     1      -6.406   0.337   2.229  1.00  0.00    -0.269 OA
HETATM   16  N2  UNL     1      -7.208   0.187   0.109  1.00  0.00    -0.274 N 
ATOM     17  H2  UNL     1      -7.119  -0.145  -0.851  1.00  0.00     0.189 HD
BRANCH  16  18
HETATM   18  N3  UNL     1      -8.316   0.939   0.466  1.00  0.00    -0.343 N 
ATOM     19  H32 UNL     1      -8.389   1.263   1.430  1.00  0.00     0.176 HD
ATOM     20  H31 UNL     1      -9.045   1.167  -0.210  1.00  0.00     0.176 HD
ENDBRANCH  16  18
ENDBRANCH   9  14
ENDBRANCH   8   9
ENDBRANCH   1   8
BRANCH   1  21
HETATM   21  N1  UNL     1      -1.943   0.883  -0.465  1.00  0.00    -0.380 N 
ATOM     22  H1  UNL     1      -1.271   0.360  -1.027  1.00  0.00     0.157 HD
BRANCH  21  23
HETATM   23  C6  UNL     1      -1.381   1.837   0.286  1.00  0.00     0.124 C 
HETATM   24  C7  UNL     1      -1.532   1.813   1.816  1.00  0.00     0.070 C 
BRANCH  23  25
HETATM   25  O3  UNL     1      -1.450   3.179  -0.090  1.00  0.00    -0.372 OA
ATOM     26  H3  UNL     1      -1.051   3.856   0.443  1.00  0.00     0.212 HD
ENDBRANCH  23  25
BRANCH  23  27
HETATM   27  C8  UNL     1       0.166   1.580   0.171  1.00  0.00     0.060 C 
BRANCH  27  28
HETATM   28  C9  UNL     1       0.683   1.639  -1.212  1.00  0.00     0.012 C 
BRANCH  28  29
HETATM   29  C10 UNL     1       2.195   1.371  -1.143  1.00  0.00     0.083 C 
BRANCH  29  30
HETATM   30  C11 UNL     1       2.420   0.026  -0.492  1.00  0.00     0.145 C 
HETATM   31  O4  UNL     1       2.009  -0.915  -1.156  1.00  0.00    -0.294 OA
BRANCH  30  32
HETATM   32  C12 UNL     1       3.058  -0.108   0.794  1.00  0.00     0.024 C 
BRANCH  32  33
HETATM   33  C13 UNL     1       4.479   0.014   1.041  1.00  0.00     0.035 C 
BRANCH  33  34
HETATM   34  C14 UNL     1       5.432  -0.968   0.477  1.00  0.00    -0.011 C 
HETATM   35  C15 UNL     1       5.459  -1.036  -0.995  1.00  0.00     0.005 C 
HETATM   36  C16 UNL     1       6.575  -1.983  -1.502  1.00  0.00     0.001 C 
HETATM   37  C17 UNL     1       7.887  -1.710  -0.850  1.00  0.00     0.004 C 
HETATM   38  C18 UNL     1       7.778  -0.396  -0.091  1.00  0.00    -0.018 C 
HETATM   39  C19 UNL     1       9.117   0.035   0.472  1.00  0.00     0.010 C 
HETATM   40  C20 UNL     1       6.835  -0.636   1.051  1.00  0.00     0.009 C 
ENDBRANCH  33  34
ENDBRANCH  32  33
ENDBRANCH  30  32
ENDBRANCH  29  30
ENDBRANCH  28  29
ENDBRANCH  27  28
ENDBRANCH  23  27
ENDBRANCH  21  23
ENDBRANCH   1  21
TORSDOF 16
