REMARK  16 active torsions:
REMARK  status: ('A' for Active; 'I' for Inactive)
REMARK    1  A    between atoms: C2_2  and  C3_3 
REMARK    2  A    between atoms: C3_3  and  O2_5 
REMARK    3  A    between atoms: O2_5  and  C4_6 
REMARK    4  A    between atoms: C6_8  and  N1_9 
REMARK    5  A    between atoms: N1_9  and  C7_11 
REMARK    6  A    between atoms: C7_11  and  C8_12 
REMARK    7  A    between atoms: C7_11  and  C9_14 
REMARK       I    between atoms: C9_14  and  N2_16 
REMARK       I    between atoms: N2_16  and  C10_18 
REMARK    8  A    between atoms: C10_18  and  C11_20 
REMARK    9  A    between atoms: C11_20  and  N3_21 
REMARK   10  A    between atoms: C11_20  and  C15_26 
REMARK   11  A    between atoms: N3_21  and  C12_23 
REMARK   12  A    between atoms: C18_29  and  C19_30 
REMARK   13  A    between atoms: C21_32  and  C22_33 
REMARK   14  A    between atoms: C22_33  and  C23_34 
REMARK   15  A    between atoms: C23_34  and  C24_35 
REMARK   16  A    between atoms: C32_45  and  O7_46 
ROOT
HETATM    1  C4  UNL     1       0.757  -3.856   0.242  1.00  0.00     0.138 C 
HETATM    2  C5  UNL     1       1.079  -2.807   1.322  1.00  0.00     0.058 C 
HETATM    3  C6  UNL     1       1.063  -1.524   0.515  1.00  0.00     0.088 C 
HETATM    4  C18 UNL     1       1.699  -1.975  -0.818  1.00  0.00     0.050 C 
HETATM    5  C33 UNL     1       1.815  -3.405  -0.788  1.00  0.00     0.022 C 
HETATM    6  C34 UNL     1       1.367  -4.121  -2.064  1.00  0.00     0.013 C 
ENDROOT
BRANCH   3   7
HETATM    7  N1  UNL     1      -0.174  -0.958   0.371  1.00  0.00    -0.403 N 
ATOM      8  H1  UNL     1      -0.548  -0.961  -0.578  1.00  0.00     0.154 HD
BRANCH   7   9
HETATM    9  C7  UNL     1      -0.981  -0.389   1.318  1.00  0.00     0.184 C 
BRANCH   9  10
HETATM   10  C8  UNL     1      -1.547  -1.178   2.445  1.00  0.00     0.149 C 
HETATM   11 CL1  UNL     1      -2.577  -2.524   1.854  1.00  0.00    -0.128 Cl
ENDBRANCH   9  10
BRANCH   9  12
HETATM   12  C9  UNL     1      -2.227   0.184   0.601  1.00  0.00     0.247 C 
HETATM   13  O3  UNL     1      -2.441  -0.164  -0.581  1.00  0.00    -0.271 OA
HETATM   14  N2  UNL     1      -3.027   1.057   1.341  1.00  0.00    -0.294 N 
HETATM   15  C10 UNL     1      -4.254   1.625   0.992  1.00  0.00     0.247 C 
ATOM     16  H2  UNL     1      -2.667   1.314   2.260  1.00  0.00     0.171 HD
HETATM   17  O4  UNL     1      -4.828   2.496   1.736  1.00  0.00    -0.271 OA
BRANCH  15  18
HETATM   18  C11 UNL     1      -4.988   1.265  -0.241  1.00  0.00     0.173 C 
BRANCH  18  19
HETATM   19  N3  UNL     1      -6.139   2.132  -0.487  1.00  0.00    -0.406 N 
ATOM     20  H3  UNL     1      -7.098   1.784  -0.469  1.00  0.00     0.154 HD
BRANCH  19  21
HETATM   21  C12 UNL     1      -5.830   3.492  -0.753  1.00  0.00     0.069 C 
HETATM   22  C13 UNL     1      -5.007   3.672  -2.021  1.00  0.00     0.031 C 
HETATM   23  C14 UNL     1      -7.176   4.188  -1.021  1.00  0.00     0.031 C 
ENDBRANCH  19  21
ENDBRANCH  18  19
BRANCH  18  24
HETATM   24  C15 UNL     1      -5.662  -0.089   0.107  1.00  0.00     0.009 C 
HETATM   25  C16 UNL     1      -6.580   0.212   1.301  1.00  0.00     0.012 C 
HETATM   26  C17 UNL     1      -6.520  -0.595  -1.007  1.00  0.00     0.012 C 
ENDBRANCH  18  24
ENDBRANCH  15  18
ENDBRANCH   9  12
ENDBRANCH   7   9
ENDBRANCH   3   7
BRANCH   4  27
HETATM   27  C19 UNL     1       2.745  -1.065  -1.243  1.00  0.00    -0.018 A 
HETATM   28  C20 UNL     1       2.641   0.255  -0.849  1.00  0.00     0.018 A 
HETATM   29  C21 UNL     1       3.556   1.250  -1.242  1.00  0.00    -0.050 A 
HETATM   30  C29 UNL     1       4.611   0.913  -2.060  1.00  0.00    -0.053 A 
HETATM   31  C30 UNL     1       5.614   1.891  -2.592  1.00  0.00     0.049 C 
HETATM   32  C31 UNL     1       4.725  -0.406  -2.460  1.00  0.00     0.044 A 
HETATM   33  C32 UNL     1       3.799  -1.372  -2.051  1.00  0.00     0.072 A 
BRANCH  29  34
HETATM   34  C22 UNL     1       3.441   2.621  -0.752  1.00  0.00     0.059 C 
BRANCH  34  35
HETATM   35  C23 UNL     1       4.139   2.945   0.528  1.00  0.00     0.052 C 
HETATM   36  C25 UNL     1       5.544   2.494   0.670  1.00  0.00     0.021 C 
HETATM   37  C26 UNL     1       5.785   2.506   2.190  1.00  0.00     0.001 C 
HETATM   38  C27 UNL     1       4.442   2.452   2.831  1.00  0.00     0.001 C 
HETATM   39  C28 UNL     1       3.485   2.186   1.705  1.00  0.00     0.021 C 
BRANCH  35  40
HETATM   40  C24 UNL     1       3.969   4.387   0.843  1.00  0.00     0.182 C 
HETATM   41  O5  UNL     1       3.088   4.732   1.663  1.00  0.00    -0.647 OA
HETATM   42  O6  UNL     1       4.772   5.366   0.237  1.00  0.00    -0.647 OA
ENDBRANCH  35  40
ENDBRANCH  34  35
ENDBRANCH  29  34
BRANCH  33  43
HETATM   43  O7  UNL     1       3.951  -2.665  -2.470  1.00  0.00    -0.360 OA
ATOM     44  H7  UNL     1       4.686  -2.879  -3.033  1.00  0.00     0.217 HD
ENDBRANCH  33  43
ENDBRANCH   4  27
BRANCH   1  45
HETATM   45  O2  UNL     1       1.083  -5.132   0.675  1.00  0.00    -0.312 OA
BRANCH  45  46
HETATM   46  C3  UNL     1       0.108  -6.162   0.634  1.00  0.00     0.282 C 
HETATM   47  O1  UNL     1      -1.021  -5.806   0.186  1.00  0.00    -0.260 OA
BRANCH  46  48
HETATM   48  C2  UNL     1       0.389  -7.509   1.069  1.00  0.00     0.072 C 
HETATM   49  C1  UNL     1       1.574  -7.843   1.536  1.00  0.00     0.017 C 
ENDBRANCH  46  48
ENDBRANCH  45  46
ENDBRANCH   1  45
TORSDOF 16
