REMARK  4 active torsions:
REMARK  status: ('A' for Active; 'I' for Inactive)
REMARK    1  A    between atoms: O1_2  and  C2_3 
REMARK    2  A    between atoms: C5_7  and  C15_17 
REMARK    3  A    between atoms: C6_8  and  C7_9 
REMARK    4  A    between atoms: C12_14  and  C13_15 
ROOT
HETATM    1  C2  UNL     1      -0.514   1.277   1.503  1.00  0.00     0.144 C 
HETATM    2 CL1  UNL     1       0.868   2.042   2.429  1.00  0.00    -0.087 Cl
HETATM    3  C3  UNL     1      -0.910   0.106   2.356  1.00  0.00     0.056 C 
HETATM    4  C4  UNL     1      -1.050  -1.219   1.707  1.00  0.00     0.013 C 
HETATM    5  C5  UNL     1      -0.290  -1.366   0.404  1.00  0.00     0.023 C 
HETATM    6  C6  UNL     1       0.861  -0.379   0.543  1.00  0.00    -0.060 C 
HETATM    7  C12 UNL     1       0.174   0.869   0.181  1.00  0.00     0.073 C 
ENDROOT
BRANCH   6   8
HETATM    8  C7  UNL     1       2.152  -0.831   0.178  1.00  0.00    -0.057 C 
HETATM    9  C8  UNL     1       2.487  -2.252   0.709  1.00  0.00     0.049 C 
HETATM   10  C9  UNL     1       3.100  -0.318  -0.504  1.00  0.00    -0.082 C 
HETATM   11  C10 UNL     1       4.383  -1.126  -0.694  1.00  0.00     0.043 C 
HETATM   12  C11 UNL     1       3.122   1.001  -1.148  1.00  0.00     0.043 C 
ENDBRANCH   6   8
BRANCH   5  13
HETATM   13  C15 UNL     1      -1.141  -1.200  -0.799  1.00  0.00     0.033 C 
HETATM   14  C14 UNL     1      -0.419  -0.415  -1.903  1.00  0.00     0.017 C 
HETATM   15  C13 UNL     1      -0.774   0.765  -0.972  1.00  0.00     0.037 C 
HETATM   16  C16 UNL     1      -2.027   0.023  -0.814  1.00  0.00     0.087 C 
HETATM   17  C17 UNL     1      -2.878   0.168  -2.024  1.00  0.00     0.010 C 
HETATM   18  O2  UNL     1      -2.932   0.206   0.151  1.00  0.00    -0.372 OA
HETATM   19  C18 UNL     1      -4.163  -0.054  -1.676  1.00  0.00    -0.002 C 
HETATM   20  C19 UNL     1      -4.146  -0.341  -0.232  1.00  0.00     0.196 C 
ENDBRANCH   5  13
BRANCH   1  21
HETATM   21  O1  UNL     1      -1.399   2.284   1.439  1.00  0.00    -0.369 OA
HETATM   22  C1  UNL     1      -0.996   3.481   0.925  1.00  0.00     0.204 C 
ENDBRANCH   1  21
TORSDOF 4
