REMARK  15 active torsions:
REMARK  status: ('A' for Active; 'I' for Inactive)
REMARK    1  A    between atoms: N1_2  and  C2_3 
REMARK    2  A    between atoms: N1_2  and  C4_7 
REMARK    3  A    between atoms: C2_3  and  C3_4 
REMARK    4  A    between atoms: C4_7  and  C5_8 
REMARK    5  A    between atoms: C7_10  and  N2_11 
REMARK    6  A    between atoms: N2_11  and  C8_13 
REMARK    7  A    between atoms: C8_13  and  O3_14 
REMARK    8  A    between atoms: C8_13  and  C9_16 
REMARK    9  A    between atoms: C10_17  and  O4_18 
REMARK   10  A    between atoms: C11_20  and  N3_21 
REMARK   11  A    between atoms: C14_30  and  N7_31 
REMARK   12  A    between atoms: N9_37  and  O6_38 
REMARK   13  A    between atoms: C15_40  and  O7_41 
REMARK   14  A    between atoms: C16_43  and  O8_44 
REMARK   15  A    between atoms: C17_46  and  O9_47 
ROOT
HETATM    1  C9  UNL     1       2.063  -0.136  -0.446  1.00  0.00     0.243 C 
HETATM    2  C10 UNL     1       3.434   0.090  -1.153  1.00  0.00     0.222 C 
HETATM    3  C11 UNL     1       4.372  -0.352  -0.090  1.00  0.00     0.139 C 
HETATM    4  N8  UNL     1       3.746  -1.182   0.698  1.00  0.00    -0.264 N 
ATOM      5  H8  UNL     1       4.148  -1.643   1.514  1.00  0.00     0.190 HD
HETATM    6  N9  UNL     1       2.385  -1.343   0.224  1.00  0.00    -0.184 N 
ENDROOT
BRANCH   1   7
HETATM    7  C8  UNL     1       0.932   0.037  -1.342  1.00  0.00     0.142 C 
BRANCH   7   8
HETATM    8  N2  UNL     1      -0.313   0.374  -0.876  1.00  0.00    -0.365 N 
ATOM      9  H2  UNL     1      -0.653   1.307  -1.109  1.00  0.00     0.161 HD
BRANCH   8  10
HETATM   10  C7  UNL     1      -1.172  -0.442  -0.105  1.00  0.00     0.115 C 
HETATM   11  C6  UNL     1      -2.493  -0.480  -0.863  1.00  0.00     0.036 C 
HETATM   12  C5  UNL     1      -3.704  -0.771  -0.071  1.00  0.00     0.037 C 
HETATM   13  C17 UNL     1      -3.589  -0.549   1.404  1.00  0.00     0.155 C 
HETATM   14  C16 UNL     1      -2.602   0.529   1.744  1.00  0.00     0.178 C 
HETATM   15  C15 UNL     1      -1.252   0.110   1.272  1.00  0.00     0.172 C 
BRANCH  12  16
HETATM   16  C4  UNL     1      -4.824   0.087  -0.663  1.00  0.00     0.129 C 
BRANCH  16  17
HETATM   17  N1  UNL     1      -6.065  -0.061  -0.042  1.00  0.00    -0.388 N 
HETATM   18  C1  UNL     1      -6.758  -1.259  -0.204  1.00  0.00     0.149 C 
BRANCH  17  19
HETATM   19  C2  UNL     1      -6.717   1.125   0.291  1.00  0.00     0.170 C 
BRANCH  19  20
HETATM   20  C3  UNL     1      -7.609   1.714  -0.732  1.00  0.00     0.214 C 
HETATM   21  O1  UNL     1      -8.237   2.769  -0.480  1.00  0.00    -0.644 OA
HETATM   22  O2  UNL     1      -7.738   1.084  -1.960  1.00  0.00    -0.644 OA
ENDBRANCH  19  20
ENDBRANCH  17  19
ENDBRANCH  16  17
ENDBRANCH  12  16
BRANCH  13  23
HETATM   23  O9  UNL     1      -3.110  -1.735   1.977  1.00  0.00    -0.392 OA
ATOM     24  H9  UNL     1      -3.037  -1.594   2.914  1.00  0.00     0.210 HD
ENDBRANCH  13  23
BRANCH  14  25
HETATM   25  O8  UNL     1      -2.998   1.742   1.239  1.00  0.00    -0.390 OA
ATOM     26  H8  UNL     1      -3.859   2.009   1.540  1.00  0.00     0.210 HD
ENDBRANCH  14  25
BRANCH  15  27
HETATM   27  O7  UNL     1      -0.779  -0.879   2.168  1.00  0.00    -0.391 OA
ATOM     28  H7  UNL     1      -0.830  -0.526   3.049  1.00  0.00     0.210 HD
ENDBRANCH  15  27
ENDBRANCH   8  10
ENDBRANCH   7   8
BRANCH   7  29
HETATM   29  O3  UNL     1       0.995  -0.940  -2.372  1.00  0.00    -0.348 OA
ATOM     30  H3  UNL     1       1.857  -1.173  -2.695  1.00  0.00     0.219 HD
ENDBRANCH   7  29
ENDBRANCH   1   7
BRANCH   2  31
HETATM   31  O4  UNL     1       3.519  -0.593  -2.325  1.00  0.00    -0.385 OA
ATOM     32  H4  UNL     1       4.354  -0.455  -2.756  1.00  0.00     0.210 HD
ENDBRANCH   2  31
BRANCH   6  33
HETATM   33  O6  UNL     1       1.657  -2.440   0.409  1.00  0.00    -0.271 OA
ATOM     34  H6  UNL     1       1.873  -3.249   0.858  1.00  0.00     0.246 HD
ENDBRANCH   6  33
BRANCH   3  35
HETATM   35  N3  UNL     1       5.729   0.109   0.068  1.00  0.00    -0.239 N 
HETATM   36  C12 UNL     1       6.296   0.975  -0.874  1.00  0.00     0.333 A 
HETATM   37  O5  UNL     1       5.719   1.241  -1.968  1.00  0.00    -0.246 OA
HETATM   38  N4  UNL     1       7.573   1.571  -0.590  1.00  0.00    -0.282 N 
HETATM   39  C13 UNL     1       8.246   1.266   0.615  1.00  0.00     0.195 A 
ATOM     40  H4  UNL     1       7.994   2.215  -1.259  1.00  0.00     0.173 HD
HETATM   41  N5  UNL     1       9.502   1.896   0.917  1.00  0.00    -0.063 NA
HETATM   42  N6  UNL     1       7.722   0.437   1.428  1.00  0.00    -0.320 N 
HETATM   43  C14 UNL     1       6.475  -0.268   1.255  1.00  0.00     0.400 A 
ATOM     44  H6  UNL     1       8.237   0.253   2.289  1.00  0.00     0.166 HD
BRANCH  43  45
HETATM   45  N7  UNL     1       6.778  -1.709   1.093  1.00  0.00    -0.040 N 
ATOM     46  H73 UNL     1       5.953  -2.285   0.928  1.00  0.00     0.279 HD
ATOM     47  H72 UNL     1       7.257  -1.931   0.220  1.00  0.00     0.279 HD
ATOM     48  H71 UNL     1       7.302  -1.974   1.927  1.00  0.00     0.279 HD
ENDBRANCH  43  45
ENDBRANCH   3  35
TORSDOF 15
