REMARK  14 active torsions:
REMARK  status: ('A' for Active; 'I' for Inactive)
REMARK    1  A    between atoms: O1_1  and  C1_3 
REMARK    2  A    between atoms: C1_3  and  N1_4 
REMARK    3  A    between atoms: C1_3  and  N4_27 
REMARK    4  A    between atoms: N1_4  and  C2_7 
REMARK    5  A    between atoms: C2_7  and  C3_8 
REMARK    6  A    between atoms: C3_8  and  N2_9 
REMARK    7  A    between atoms: N2_9  and  C4_12 
REMARK    8  A    between atoms: C4_12  and  C5_13 
REMARK    9  A    between atoms: C5_13  and  C6_14 
REMARK   10  A    between atoms: C6_14  and  C7_15 
REMARK   11  A    between atoms: C7_15  and  C8_16 
REMARK   12  A    between atoms: C8_16  and  N3_17 
REMARK   13  A    between atoms: N3_17  and  C9_19 
REMARK   14  A    between atoms: N4_27  and  C15_29 
ROOT
HETATM    1  N2  UNL     1      -0.218   0.614  -0.378  1.00  0.00    -0.074 N 
ATOM      2  H21 UNL     1      -0.371   1.537  -0.784  1.00  0.00     0.277 HD
ATOM      3  H22 UNL     1      -0.481   0.034  -1.175  1.00  0.00     0.277 HD
ENDROOT
BRANCH   1   4
HETATM    4  C3  UNL     1      -1.112   0.388   0.742  1.00  0.00     0.260 C 
BRANCH   4   5
HETATM    5  C2  UNL     1      -2.520   0.634   0.233  1.00  0.00     0.265 C 
BRANCH   5   6
HETATM    6  N1  UNL     1      -3.509   0.449   1.246  1.00  0.00    -0.029 N 
ATOM      7  H12 UNL     1      -3.294   1.023   2.061  1.00  0.00     0.282 HD
ATOM      8  H11 UNL     1      -3.425  -0.480   1.659  1.00  0.00     0.282 HD
BRANCH   6   9
HETATM    9  C1  UNL     1      -4.848   0.681   0.816  1.00  0.00     0.427 C 
BRANCH   9  10
HETATM   10  O1  UNL     1      -5.728   0.474   1.904  1.00  0.00    -0.354 OA
ATOM     11  H1  UNL     1      -6.620   0.629   1.617  1.00  0.00     0.214 HD
ENDBRANCH   9  10
BRANCH   9  12
HETATM   12  N4  UNL     1      -5.288  -0.126  -0.262  1.00  0.00    -0.328 N 
ATOM     13  H4  UNL     1      -4.686  -0.870  -0.615  1.00  0.00     0.165 HD
BRANCH  12  14
HETATM   14  C15 UNL     1      -6.556   0.092  -0.853  1.00  0.00     0.103 A 
HETATM   15  C16 UNL     1      -7.426   1.093  -0.448  1.00  0.00     0.048 A 
HETATM   16  C17 UNL     1      -8.657   1.284  -1.031  1.00  0.00     0.005 A 
HETATM   17  C18 UNL     1      -9.040   0.452  -2.052  1.00  0.00     0.017 A 
HETATM   18  C19 UNL     1      -8.169  -0.556  -2.463  1.00  0.00     0.089 A 
HETATM   19  N5  UNL     1      -6.994  -0.701  -1.872  1.00  0.00    -0.352 N 
ATOM     20  H5  UNL     1      -6.381  -1.449  -2.197  1.00  0.00     0.166 HD
ENDBRANCH  12  14
ENDBRANCH   9  12
ENDBRANCH   6   9
ENDBRANCH   5   6
ENDBRANCH   4   5
ENDBRANCH   1   4
BRANCH   1  21
HETATM   21  C4  UNL     1       1.158   0.427  -0.046  1.00  0.00     0.232 C 
BRANCH  21  22
HETATM   22  C5  UNL     1       1.543  -1.002   0.256  1.00  0.00     0.027 C 
BRANCH  22  23
HETATM   23  C6  UNL     1       3.039  -0.967   0.582  1.00  0.00     0.003 C 
BRANCH  23  24
HETATM   24  C7  UNL     1       3.572  -2.310   0.899  1.00  0.00     0.020 C 
BRANCH  24  25
HETATM   25  C8  UNL     1       5.036  -2.270   1.226  1.00  0.00     0.120 C 
BRANCH  25  26
HETATM   26  N3  UNL     1       5.882  -1.771   0.212  1.00  0.00    -0.389 N 
ATOM     27  H3  UNL     1       6.230  -2.459  -0.456  1.00  0.00     0.159 HD
BRANCH  26  28
HETATM   28  C9  UNL     1       6.311  -0.430   0.003  1.00  0.00     0.051 A 
HETATM   29  C10 UNL     1       6.098   0.589   0.897  1.00  0.00     0.054 A 
HETATM   30  C11 UNL     1       6.542   1.873   0.718  1.00  0.00     0.036 A 
HETATM   31 CL1  UNL     1       6.233   3.136   1.915  1.00  0.00    -0.084 Cl
HETATM   32  C12 UNL     1       7.250   2.171  -0.428  1.00  0.00     0.026 A 
HETATM   33  C13 UNL     1       7.483   1.167  -1.349  1.00  0.00     0.028 A 
HETATM   34  C14 UNL     1       7.033  -0.108  -1.156  1.00  0.00     0.060 A 
HETATM   35 CL2  UNL     1       7.343  -1.371  -2.341  1.00  0.00    -0.082 Cl
ENDBRANCH  26  28
ENDBRANCH  25  26
ENDBRANCH  24  25
ENDBRANCH  23  24
ENDBRANCH  22  23
ENDBRANCH  21  22
ENDBRANCH   1  21
TORSDOF 14
