REMARK  7 active torsions:
REMARK  status: ('A' for Active; 'I' for Inactive)
REMARK       I    between atoms: C1_4  and  N3_6 
REMARK    1  A    between atoms: N3_6  and  C2_8 
REMARK    2  A    between atoms: C2_8  and  C3_9 
REMARK    3  A    between atoms: C3_9  and  C4_10 
REMARK    4  A    between atoms: C4_10  and  N4_11 
REMARK    5  A    between atoms: C4_10  and  C5_15 
REMARK       I    between atoms: C5_15  and  N5_17 
REMARK    6  A    between atoms: N5_17  and  C6_19 
REMARK    7  A    between atoms: C6_19  and  N6_20 
ROOT
HETATM    1  C5  UNL     1       1.193  -0.701  -0.494  1.00  0.00     0.249 C 
HETATM    2  O1  UNL     1       1.058   0.278  -1.265  1.00  0.00    -0.271 OA
HETATM    3  N5  UNL     1       0.050  -1.575  -0.393  1.00  0.00    -0.346 N 
ATOM      4  H5  UNL     1       0.111  -2.386   0.222  1.00  0.00     0.163 HD
ENDROOT
BRANCH   3   5
HETATM    5  C6  UNL     1      -1.161  -1.358  -1.112  1.00  0.00     0.238 C 
BRANCH   5   6
HETATM    6  N6  UNL     1      -1.794  -0.095  -0.798  1.00  0.00    -0.202 NA
HETATM    7  C7  UNL     1      -2.101  -0.079   0.607  1.00  0.00     0.218 C 
HETATM    8  C8  UNL     1      -2.790   1.162   1.049  1.00  0.00     0.233 C 
HETATM    9  O2  UNL     1      -2.202   1.890   1.930  1.00  0.00    -0.272 OA
HETATM   10  N7  UNL     1      -4.031   1.622   0.595  1.00  0.00    -0.344 N 
HETATM   11  C9  UNL     1      -5.266   0.874   0.509  1.00  0.00     0.249 C 
ATOM     12  H7  UNL     1      -4.069   2.595   0.290  1.00  0.00     0.164 HD
HETATM   13  N8  UNL     1      -5.071  -0.557   0.416  1.00  0.00    -0.337 N 
HETATM   14  C10 UNL     1      -4.770  -1.225  -0.813  1.00  0.00     0.311 C 
ATOM     15  H8  UNL     1      -5.152  -1.115   1.266  1.00  0.00     0.164 HD
HETATM   16  O3  UNL     1      -5.205  -2.408  -0.979  1.00  0.00    -0.262 OA
HETATM   17  C11 UNL     1      -3.987  -0.606  -1.878  1.00  0.00     0.323 C 
HETATM   18  O4  UNL     1      -4.412  -0.819  -3.069  1.00  0.00    -0.261 OA
HETATM   19  N9  UNL     1      -2.827   0.187  -1.650  1.00  0.00    -0.279 N 
ATOM     20  H9  UNL     1      -2.759   1.057  -2.177  1.00  0.00     0.184 HD
ENDBRANCH   5   6
ENDBRANCH   3   5
BRANCH   1  21
HETATM   21  C4  UNL     1       2.429  -0.935   0.251  1.00  0.00     0.276 C 
BRANCH  21  22
HETATM   22  C3  UNL     1       2.786   0.140   1.223  1.00  0.00     0.062 C 
BRANCH  22  23
HETATM   23  C2  UNL     1       2.975   1.461   0.561  1.00  0.00     0.125 C 
BRANCH  23  24
HETATM   24  N3  UNL     1       4.024   1.425  -0.443  1.00  0.00    -0.365 N 
HETATM   25  C1  UNL     1       5.386   1.257  -0.131  1.00  0.00     0.181 C 
HETATM   26  N1  UNL     1       6.004   2.170   0.530  1.00  0.00    -0.374 N 
HETATM   27  N2  UNL     1       6.117   0.108  -0.517  1.00  0.00    -0.064 NA
ATOM     28  H12 UNL     1       6.991   2.048   0.756  1.00  0.00     0.158 HD
ATOM     29  H11 UNL     1       5.477   2.998   0.808  1.00  0.00     0.158 HD
ATOM     30  H3  UNL     1       3.760   1.527  -1.423  1.00  0.00     0.162 HD
ENDBRANCH  23  24
ENDBRANCH  22  23
ENDBRANCH  21  22
BRANCH  21  31
HETATM   31  N4  UNL     1       2.266  -2.204   0.961  1.00  0.00    -0.066 N 
ATOM     32  H43 UNL     1       3.088  -2.444   1.515  1.00  0.00     0.275 HD
ATOM     33  H42 UNL     1       1.592  -2.135   1.723  1.00  0.00     0.275 HD
ATOM     34  H41 UNL     1       2.022  -2.939   0.297  1.00  0.00     0.275 HD
ENDBRANCH  21  31
ENDBRANCH   1  21
TORSDOF 7
