REMARK  7 active torsions:
REMARK  status: ('A' for Active; 'I' for Inactive)
REMARK    1  A    between atoms: C3_3  and  C4_4 
REMARK    2  A    between atoms: C4_4  and  C5_5 
REMARK    3  A    between atoms: C5_5  and  C6_6 
REMARK    4  A    between atoms: C6_6  and  N1_7 
REMARK    5  A    between atoms: C6_6  and  C13_28 
REMARK    6  A    between atoms: N1_7  and  N2_8 
REMARK    7  A    between atoms: N2_8  and  C7_10 
ROOT
HETATM    1  C1  UNL     1       5.230  -0.277   3.258  1.00  0.00     0.012 C 
HETATM    2  C2  UNL     1       4.444   0.010   2.392  1.00  0.00    -0.117 C 
HETATM    3  C3  UNL     1       3.463   0.383   1.333  1.00  0.00     0.093 C 
ENDROOT
BRANCH   3   4
HETATM    4  C4  UNL     1       3.984  -0.155   0.038  1.00  0.00     0.014 C 
BRANCH   4   5
HETATM    5  C5  UNL     1       3.223   0.091  -1.187  1.00  0.00     0.035 C 
BRANCH   5   6
HETATM    6  C6  UNL     1       1.873  -0.419  -1.405  1.00  0.00     0.200 C 
BRANCH   6   7
HETATM    7  N1  UNL     1       0.809  -0.053  -0.538  1.00  0.00    -0.124 NA
BRANCH   7   8
HETATM    8  N2  UNL     1      -0.471  -0.428  -1.061  1.00  0.00    -0.288 N 
ATOM      9  H2  UNL     1      -0.555  -0.763  -2.021  1.00  0.00     0.184 HD
BRANCH   8  10
HETATM   10  C7  UNL     1      -1.606  -0.332  -0.245  1.00  0.00     0.134 C 
HETATM   11  C8  UNL     1      -2.470   0.639  -0.450  1.00  0.00     0.122 A 
HETATM   12  C9  UNL     1      -2.148   1.467  -1.472  1.00  0.00     0.267 A 
HETATM   13  C11 UNL     1      -3.667   0.924   0.232  1.00  0.00     0.143 A 
HETATM   14  O1  UNL     1      -1.116   1.316  -2.147  1.00  0.00    -0.267 OA
HETATM   15  N3  UNL     1      -2.917   2.515  -1.837  1.00  0.00    -0.275 N 
HETATM   16  C10 UNL     1      -4.038   2.757  -1.175  1.00  0.00     0.328 A 
ATOM     17  H3  UNL     1      -2.638   3.114  -2.614  1.00  0.00     0.173 HD
HETATM   18  O2  UNL     1      -4.760   3.736  -1.513  1.00  0.00    -0.247 OA
HETATM   19  N4  UNL     1      -4.418   1.984  -0.157  1.00  0.00    -0.292 N 
ATOM     20  H4  UNL     1      -5.286   2.193   0.336  1.00  0.00     0.172 HD
HETATM   21  N5  UNL     1      -4.164   0.321   1.232  1.00  0.00    -0.287 N 
HETATM   22  N6  UNL     1      -3.717  -0.775   1.962  1.00  0.00    -0.317 N 
ATOM     23  H5  UNL     1      -5.049   0.709   1.558  1.00  0.00     0.188 HD
HETATM   24  C12 UNL     1      -2.353  -1.306   2.039  1.00  0.00     0.262 C 
ATOM     25  H6  UNL     1      -4.423  -1.268   2.509  1.00  0.00     0.182 HD
HETATM   26  N7  UNL     1      -1.739  -1.354   0.764  1.00  0.00    -0.357 N 
ATOM     27  H7  UNL     1      -1.325  -2.254   0.521  1.00  0.00     0.162 HD
ENDBRANCH   8  10
ENDBRANCH   7   8
ENDBRANCH   6   7
BRANCH   6  28
HETATM   28  C13 UNL     1       1.864  -1.921  -1.602  1.00  0.00     0.194 C 
HETATM   29  O3  UNL     1       1.037  -2.681  -1.068  1.00  0.00    -0.647 OA
HETATM   30  O4  UNL     1       2.835  -2.488  -2.429  1.00  0.00    -0.647 OA
ENDBRANCH   6  28
ENDBRANCH   5   6
ENDBRANCH   4   5
ENDBRANCH   3   4
TORSDOF 7
