REMARK  7 active torsions:
REMARK  status: ('A' for Active; 'I' for Inactive)
REMARK    1  A    between atoms: C3_9  and  C4_10 
REMARK    2  A    between atoms: N7_17  and  C9_18 
REMARK    3  A    between atoms: C9_18  and  C10_19 
REMARK    4  A    between atoms: C10_19  and  N8_20 
REMARK       I    between atoms: N8_20  and  C11_22 
REMARK    5  A    between atoms: C11_22  and  C12_24 
REMARK    6  A    between atoms: C17_33  and  C18_34 
REMARK    7  A    between atoms: C18_34  and  N10_35 
ROOT
HETATM    1  N1  UNL     1      -6.588   3.981  -2.850  1.00  0.00    -0.172 NA
HETATM    2  C1  UNL     1      -5.922   3.649  -1.938  1.00  0.00     0.183 C 
HETATM    3  N2  UNL     1      -5.155   3.291  -0.867  1.00  0.00    -0.280 N 
ATOM      4  H2  UNL     1      -4.833   4.050  -0.267  1.00  0.00     0.179 HD
HETATM    5  C2  UNL     1      -4.797   2.118  -0.533  1.00  0.00     0.140 C 
HETATM    6  N3  UNL     1      -3.977   1.748   0.616  1.00  0.00    -0.282 N 
ATOM      7  H3  UNL     1      -3.762   2.152   1.527  1.00  0.00     0.188 HD
HETATM    8  N4  UNL     1      -3.618   0.599  -0.083  1.00  0.00    -0.267 N 
HETATM    9  C3  UNL     1      -2.639  -0.456  -0.284  1.00  0.00     0.092 C 
HETATM   10  C17 UNL     1      -2.672  -1.100  -1.414  1.00  0.00     0.067 C 
HETATM   11  N11 UNL     1      -3.669  -0.766  -2.436  1.00  0.00    -0.325 N 
ATOM     12  H11 UNL     1      -3.676  -1.283  -3.315  1.00  0.00     0.169 HD
HETATM   13  C19 UNL     1      -4.618   0.255  -2.227  1.00  0.00     0.254 C 
HETATM   14  O3  UNL     1      -5.238   0.771  -3.172  1.00  0.00    -0.270 OA
HETATM   15  C20 UNL     1      -4.849   0.689  -0.840  1.00  0.00     0.269 C 
ENDROOT
BRANCH   9  16
HETATM   16  C4  UNL     1      -1.731  -0.776   0.809  1.00  0.00     0.064 A 
HETATM   17  C5  UNL     1      -1.599  -1.989   1.413  1.00  0.00     0.045 A 
HETATM   18  C6  UNL     1      -0.699  -2.167   2.420  1.00  0.00     0.087 A 
HETATM   19  C7  UNL     1      -0.581  -3.469   3.044  1.00  0.00     0.103 C 
HETATM   20  C8  UNL     1       0.097  -1.153   2.862  1.00  0.00     0.142 A 
HETATM   21  N5  UNL     1      -0.473  -4.508   3.546  1.00  0.00    -0.191 NA
HETATM   22  N6  UNL     1       1.032  -1.395   3.929  1.00  0.00    -0.081 NA
HETATM   23  N7  UNL     1      -0.007   0.072   2.281  1.00  0.00    -0.299 N 
HETATM   24  C16 UNL     1      -0.892   0.243   1.294  1.00  0.00     0.261 A 
HETATM   25  O2  UNL     1      -1.027   1.375   0.726  1.00  0.00    -0.267 OA
BRANCH  23  26
HETATM   26  C9  UNL     1       0.819   1.135   2.792  1.00  0.00     0.153 C 
BRANCH  26  27
HETATM   27  C10 UNL     1       2.201   1.215   2.298  1.00  0.00     0.143 C 
BRANCH  27  28
HETATM   28  N8  UNL     1       2.417   1.391   0.896  1.00  0.00    -0.358 N 
HETATM   29  C11 UNL     1       3.789   1.466   0.447  1.00  0.00     0.248 C 
HETATM   30  O1  UNL     1       4.687   1.372   1.305  1.00  0.00    -0.271 OA
ATOM     31  H8  UNL     1       1.638   1.461   0.242  1.00  0.00     0.162 HD
BRANCH  29  32
HETATM   32  C12 UNL     1       4.071   1.647  -0.988  1.00  0.00     0.277 C 
HETATM   33  C13 UNL     1       3.551   0.484  -1.819  1.00  0.00     0.044 C 
HETATM   34  C14 UNL     1       4.720  -0.471  -1.911  1.00  0.00     0.030 C 
HETATM   35  C15 UNL     1       5.910   0.399  -1.715  1.00  0.00     0.233 C 
HETATM   36  N9  UNL     1       5.491   1.698  -1.252  1.00  0.00    -0.062 N 
ATOM     37  H92 UNL     1       5.744   2.446  -1.897  1.00  0.00     0.278 HD
ATOM     38  H91 UNL     1       6.029   2.021  -0.448  1.00  0.00     0.278 HD
ENDBRANCH  29  32
ENDBRANCH  27  28
ENDBRANCH  26  27
ENDBRANCH  23  26
ENDBRANCH   9  16
BRANCH  10  39
HETATM   39  C18 UNL     1      -1.721  -2.177  -1.715  1.00  0.00     0.288 C 
BRANCH  39  40
HETATM   40  N10 UNL     1      -2.493  -3.417  -1.912  1.00  0.00    -0.074 N 
ATOM     41 3H10 UNL     1      -3.101  -3.635  -1.122  1.00  0.00     0.274 HD
ATOM     42 2H10 UNL     1      -3.221  -3.322  -2.620  1.00  0.00     0.274 HD
ATOM     43 1H10 UNL     1      -1.832  -4.165  -2.121  1.00  0.00     0.274 HD
ENDBRANCH  39  40
ENDBRANCH  10  39
TORSDOF 7
