REMARK  7 active torsions:
REMARK  status: ('A' for Active; 'I' for Inactive)
REMARK    1  A    between atoms: N1_1  and  N2_4 
REMARK    2  A    between atoms: N2_4  and  S1_6 
REMARK    3  A    between atoms: S1_6  and  N3_9 
REMARK    4  A    between atoms: N3_9  and  C1_11 
REMARK    5  A    between atoms: C4_14  and  C5_15 
REMARK    6  A    between atoms: C5_15  and  N4_16 
REMARK    7  A    between atoms: C5_15  and  N5_20 
ROOT
HETATM    1  C1  UNL     1       0.560  -0.925  -0.055  1.00  0.00     0.130 A 
HETATM    2  C2  UNL     1       0.283   0.372  -0.389  1.00  0.00     0.052 A 
HETATM    3  C3  UNL     1      -0.930   0.920  -0.029  1.00  0.00     0.034 A 
HETATM    4  C4  UNL     1      -1.880   0.197   0.662  1.00  0.00     0.083 A 
HETATM    5  N6  UNL     1      -1.552  -1.072   0.963  1.00  0.00    -0.299 N 
ATOM      6  H6  UNL     1      -2.222  -1.647   1.474  1.00  0.00     0.186 HD
HETATM    7  N7  UNL     1      -0.390  -1.597   0.618  1.00  0.00    -0.285 N 
ATOM      8  H7  UNL     1      -0.203  -2.566   0.877  1.00  0.00     0.188 HD
ENDROOT
BRANCH   1   9
HETATM    9  N3  UNL     1       1.647  -1.537  -0.335  1.00  0.00    -0.251 N 
ATOM     10  H3  UNL     1       1.724  -2.506  -0.027  1.00  0.00     0.182 HD
BRANCH   9  11
HETATM   11  S1  UNL     1       2.977  -0.888  -1.173  1.00  0.00     0.337 S 
HETATM   12  O1  UNL     1       2.640  -0.470  -2.576  1.00  0.00    -0.181 OA
HETATM   13  O2  UNL     1       4.036  -1.949  -1.292  1.00  0.00    -0.181 OA
BRANCH  11  14
HETATM   14  N2  UNL     1       3.687   0.459  -0.378  1.00  0.00    -0.216 N 
ATOM     15  H2  UNL     1       3.439   1.439  -0.511  1.00  0.00     0.201 HD
BRANCH  14  16
HETATM   16  N1  UNL     1       4.670  -0.039   0.486  1.00  0.00    -0.335 N 
ATOM     17  H12 UNL     1       4.909  -1.023   0.609  1.00  0.00     0.177 HD
ATOM     18  H11 UNL     1       5.092   0.761   0.958  1.00  0.00     0.177 HD
ENDBRANCH  14  16
ENDBRANCH  11  14
ENDBRANCH   9  11
ENDBRANCH   1   9
BRANCH   4  19
HETATM   19  C5  UNL     1      -3.192   0.776   1.057  1.00  0.00     0.428 C 
BRANCH  19  20
HETATM   20  N4  UNL     1      -3.428   0.389   2.435  1.00  0.00    -0.045 N 
ATOM     21  H43 UNL     1      -3.374  -0.619   2.583  1.00  0.00     0.277 HD
ATOM     22  H42 UNL     1      -2.668   0.654   3.062  1.00  0.00     0.277 HD
ATOM     23  H41 UNL     1      -4.328   0.786   2.706  1.00  0.00     0.277 HD
ENDBRANCH  19  20
BRANCH  19  24
HETATM   24  N5  UNL     1      -4.269   0.303   0.197  1.00  0.00    -0.045 N 
ATOM     25  H53 UNL     1      -4.065   0.480  -0.787  1.00  0.00     0.277 HD
ATOM     26  H52 UNL     1      -4.304  -0.716   0.171  1.00  0.00     0.277 HD
ATOM     27  H51 UNL     1      -5.169   0.700   0.468  1.00  0.00     0.277 HD
ENDBRANCH  19  24
ENDBRANCH   4  19
TORSDOF 7
