REMARK  6 active torsions:
REMARK  status: ('A' for Active; 'I' for Inactive)
REMARK    1  A    between atoms: C1_2  and  C2_4 
REMARK    2  A    between atoms: C5_9  and  S1_10 
REMARK    3  A    between atoms: S1_10  and  N2_13 
REMARK    4  A    between atoms: N2_13  and  C6_15 
REMARK    5  A    between atoms: C10_21  and  N4_22 
REMARK    6  A    between atoms: C13_27  and  N5_28 
ROOT
HETATM    1  C2  UNL     1       3.051   1.648   0.366  1.00  0.00     0.107 A 
HETATM    2  C3  UNL     1       1.998   2.028  -0.434  1.00  0.00     0.111 A 
HETATM    3  N1  UNL     1       1.125   1.153  -0.919  1.00  0.00    -0.363 N 
ATOM      4  H1  UNL     1       0.356   1.468  -1.510  1.00  0.00     0.165 HD
HETATM    5  C4  UNL     1       1.264  -0.151  -0.624  1.00  0.00     0.072 A 
HETATM    6  C5  UNL     1       0.382  -1.079  -1.149  1.00  0.00     0.107 A 
HETATM    7  C11 UNL     1       0.509  -2.423  -0.895  1.00  0.00     0.030 A 
HETATM    8  C12 UNL     1       1.516  -2.876  -0.111  1.00  0.00     0.039 A 
HETATM    9  C13 UNL     1       2.457  -1.982   0.463  1.00  0.00     0.119 A 
HETATM   10  C14 UNL     1       2.309  -0.637   0.190  1.00  0.00     0.076 A 
HETATM   11  C15 UNL     1       3.193   0.301   0.670  1.00  0.00     0.205 A 
HETATM   12  O9  UNL     1       4.156   0.009   1.385  1.00  0.00    -0.286 OA
ENDROOT
BRANCH   6  13
HETATM   13  S1  UNL     1      -0.928  -0.540  -2.158  1.00  0.00     0.266 S 
HETATM   14  O3  UNL     1      -1.681  -1.743  -2.650  1.00  0.00    -0.200 OA
HETATM   15  O4  UNL     1      -0.370   0.114  -3.429  1.00  0.00    -0.200 OA
BRANCH  13  16
HETATM   16  N2  UNL     1      -2.013   0.525  -1.406  1.00  0.00    -0.264 N 
ATOM     17  H2  UNL     1      -1.979   1.509  -1.673  1.00  0.00     0.180 HD
BRANCH  16  18
HETATM   18  C6  UNL     1      -2.862   0.176  -0.534  1.00  0.00     0.148 A 
HETATM   19  N3  UNL     1      -3.082  -1.046  -0.036  1.00  0.00    -0.350 N 
HETATM   20  C7  UNL     1      -4.025  -1.304   0.900  1.00  0.00     0.090 A 
ATOM     21  H3  UNL     1      -2.512  -1.820  -0.378  1.00  0.00     0.166 HD
HETATM   22  C8  UNL     1      -4.842  -0.323   1.420  1.00  0.00     0.020 A 
HETATM   23  C9  UNL     1      -4.652   0.956   0.937  1.00  0.00     0.041 A 
HETATM   24  C10 UNL     1      -3.687   1.188  -0.013  1.00  0.00     0.147 A 
BRANCH  24  25
HETATM   25  N4  UNL     1      -3.500   2.504  -0.505  1.00  0.00    -0.112 N 
HETATM   26  O5  UNL     1      -3.797   3.455   0.245  1.00  0.00    -0.532 OA
HETATM   27  O6  UNL     1      -3.016   2.776  -1.739  1.00  0.00    -0.532 OA
ENDBRANCH  24  25
ENDBRANCH  16  18
ENDBRANCH  13  16
ENDBRANCH   6  13
BRANCH   9  28
HETATM   28  N5  UNL     1       3.453  -2.561   1.248  1.00  0.00    -0.115 N 
HETATM   29  O7  UNL     1       3.853  -3.718   0.851  1.00  0.00    -0.532 OA
HETATM   30  O8  UNL     1       4.058  -2.081   2.330  1.00  0.00    -0.532 OA
ENDBRANCH   9  28
BRANCH   1  31
HETATM   31  C1  UNL     1       3.996   2.632   0.882  1.00  0.00     0.214 C 
HETATM   32  O1  UNL     1       3.826   3.835   0.586  1.00  0.00    -0.644 OA
HETATM   33  O2  UNL     1       5.062   2.235   1.687  1.00  0.00    -0.644 OA
ENDBRANCH   1  31
TORSDOF 6
