REMARK  11 active torsions:
REMARK  status: ('A' for Active; 'I' for Inactive)
REMARK    1  A    between atoms: C2_2  and  O1_3 
REMARK    2  A    between atoms: O1_3  and  C3_4 
REMARK    3  A    between atoms: C3_4  and  C4_6 
REMARK    4  A    between atoms: C4_6  and  O3_7 
REMARK    5  A    between atoms: C4_6  and  C5_9 
REMARK    6  A    between atoms: C9_14  and  O5_15 
REMARK    7  A    between atoms: O5_15  and  C10_16 
REMARK    8  A    between atoms: C13_20  and  O7_22 
REMARK    9  A    between atoms: C16_25  and  O8_26 
REMARK   10  A    between atoms: O8_26  and  C17_27 
REMARK   11  A    between atoms: C20_31  and  O10_32 
ROOT
HETATM    1  C5  UNL     1       1.255  -0.052  -0.040  1.00  0.00     0.123 C 
HETATM    2  C6  UNL     1       0.226   0.992  -0.043  1.00  0.00     0.147 C 
HETATM    3  O4  UNL     1       0.646   2.117   0.171  1.00  0.00    -0.296 OA
HETATM    4  C7  UNL     1      -1.248   0.971  -0.256  1.00  0.00     0.053 C 
HETATM    5  C8  UNL     1      -1.588   1.207  -1.700  1.00  0.00     0.027 C 
HETATM    6  C9  UNL     1      -1.936   2.071   0.540  1.00  0.00     0.150 C 
HETATM    7  C12 UNL     1      -1.702   1.603   1.954  1.00  0.00     0.071 C 
HETATM    8  C13 UNL     1      -1.924   0.106   1.838  1.00  0.00     0.064 C 
HETATM    9  C14 UNL     1      -3.271  -0.287   2.446  1.00  0.00     0.046 C 
HETATM   10  C15 UNL     1      -1.875  -0.236   0.358  1.00  0.00     0.067 C 
HETATM   11  C16 UNL     1      -1.190  -1.528   0.170  1.00  0.00     0.142 C 
HETATM   12  C19 UNL     1      -0.377  -1.677  -1.092  1.00  0.00     0.065 C 
HETATM   13  C20 UNL     1       1.026  -1.190  -0.973  1.00  0.00     0.135 C 
ENDROOT
BRANCH   1  14
HETATM   14  C4  UNL     1       2.577   0.601  -0.468  1.00  0.00     0.231 C 
BRANCH  14  15
HETATM   15  C3  UNL     1       3.685  -0.351  -0.503  1.00  0.00     0.288 C 
HETATM   16  O2  UNL     1       3.934  -1.051   0.508  1.00  0.00    -0.262 OA
BRANCH  15  17
HETATM   17  O1  UNL     1       4.484  -0.516  -1.623  1.00  0.00    -0.320 OA
BRANCH  17  18
HETATM   18  C2  UNL     1       5.560  -1.447  -1.643  1.00  0.00     0.174 C 
HETATM   19  C1  UNL     1       6.569  -1.102  -0.562  1.00  0.00     0.034 C 
ENDBRANCH  17  18
ENDBRANCH  15  17
ENDBRANCH  14  15
BRANCH  14  20
HETATM   20  O3  UNL     1       2.434   1.292  -1.659  1.00  0.00    -0.385 OA
ATOM     21  H3  UNL     1       1.714   1.911  -1.636  1.00  0.00     0.210 HD
ENDBRANCH  14  20
ENDBRANCH   1  14
BRANCH  13  22
HETATM   22  O10 UNL     1       1.565  -0.847  -2.233  1.00  0.00    -0.395 OA
ATOM     23  H10 UNL     1       1.419  -1.573  -2.828  1.00  0.00     0.210 HD
ENDBRANCH  13  22
BRANCH   6  24
HETATM   24  O5  UNL     1      -1.439   3.338   0.277  1.00  0.00    -0.315 OA
BRANCH  24  25
HETATM   25  C10 UNL     1      -2.285   4.331  -0.180  1.00  0.00     0.255 C 
HETATM   26  C11 UNL     1      -1.763   5.693  -0.467  1.00  0.00     0.126 C 
HETATM   27  O6  UNL     1      -3.493   4.026  -0.338  1.00  0.00    -0.266 OA
ENDBRANCH  24  25
ENDBRANCH   6  24
BRANCH  11  28
HETATM   28  O8  UNL     1      -2.214  -2.538   0.117  1.00  0.00    -0.316 OA
BRANCH  28  29
HETATM   29  C17 UNL     1      -2.227  -3.626   0.955  1.00  0.00     0.255 C 
HETATM   30  C18 UNL     1      -3.273  -4.680   0.922  1.00  0.00     0.126 C 
HETATM   31  O9  UNL     1      -1.318  -3.757   1.801  1.00  0.00    -0.266 OA
ENDBRANCH  28  29
ENDBRANCH  11  28
BRANCH   8  32
HETATM   32  O7  UNL     1      -0.945  -0.495   2.587  1.00  0.00    -0.390 OA
ATOM     33  H7  UNL     1      -1.084  -1.432   2.514  1.00  0.00     0.210 HD
ENDBRANCH   8  32
TORSDOF 11
