REMARK  13 active torsions:
REMARK  status: ('A' for Active; 'I' for Inactive)
REMARK    1  A    between atoms: C2_2  and  C3_3 
REMARK    2  A    between atoms: C3_3  and  C4_4 
REMARK    3  A    between atoms: C11_15  and  C12_16 
REMARK    4  A    between atoms: C12_16  and  C13_17 
REMARK    5  A    between atoms: C17_24  and  C18_25 
REMARK    6  A    between atoms: C18_25  and  C19_26 
REMARK    7  A    between atoms: C23_33  and  C24_34 
REMARK    8  A    between atoms: C24_34  and  C25_35 
REMARK    9  A    between atoms: C25_35  and  C26_36 
REMARK   10  A    between atoms: C26_36  and  C27_37 
REMARK   11  A    between atoms: C27_37  and  N5_38 
REMARK   12  A    between atoms: C29_46  and  C30_47 
REMARK   13  A    between atoms: C30_47  and  C31_48 
ROOT
HETATM    1  C4  UNL     1      -2.296  -2.201  -0.041  1.00  0.00     0.126 C 
HETATM    2  C5  UNL     1      -1.403  -3.214   0.572  1.00  0.00     0.092 C 
HETATM    3  N1  UNL     1      -0.712  -4.164  -0.195  1.00  0.00    -0.329 N 
HETATM    4  C6  UNL     1      -0.585  -5.527   0.462  1.00  0.00     0.131 C 
HETATM    5  C7  UNL     1       0.869  -5.919   0.425  1.00  0.00     0.022 C 
HETATM    6  C8  UNL     1       1.615  -5.603  -0.814  1.00  0.00     0.025 C 
HETATM    7  C9  UNL     1       1.467  -4.148  -1.168  1.00  0.00     0.170 C 
HETATM    8  C10 UNL     1       2.237  -3.687  -2.310  1.00  0.00     0.231 C 
HETATM    9  O1  UNL     1       2.083  -4.317  -3.412  1.00  0.00    -0.273 OA
HETATM   10  N2  UNL     1       3.124  -2.599  -2.242  1.00  0.00    -0.347 N 
ATOM     11  H2  UNL     1       3.655  -2.364  -3.081  1.00  0.00     0.163 HD
HETATM   12  C11 UNL     1       3.338  -1.777  -1.042  1.00  0.00     0.177 C 
HETATM   13  C16 UNL     1       3.980  -0.511  -1.448  1.00  0.00     0.245 C 
HETATM   14  O2  UNL     1       5.259  -0.474  -1.391  1.00  0.00    -0.271 OA
HETATM   15  N3  UNL     1       3.347   0.671  -1.897  1.00  0.00    -0.321 N 
ATOM     16  H3  UNL     1       3.750   1.128  -2.715  1.00  0.00     0.169 HD
HETATM   17  C17 UNL     1       2.202   1.284  -1.317  1.00  0.00     0.099 C 
HETATM   18  C22 UNL     1       2.534   1.999  -0.035  1.00  0.00     0.268 C 
HETATM   19  O3  UNL     1       3.626   1.580   0.503  1.00  0.00    -0.266 OA
HETATM   20  N4  UNL     1       1.848   3.001   0.603  1.00  0.00    -0.342 N 
ATOM     21  H4  UNL     1       2.381   3.865   0.701  1.00  0.00     0.163 HD
HETATM   22  C23 UNL     1       0.515   3.072   1.164  1.00  0.00     0.177 C 
HETATM   23  C28 UNL     1       0.068   1.838   1.837  1.00  0.00     0.241 C 
HETATM   24  O4  UNL     1       0.557   1.654   3.018  1.00  0.00    -0.271 OA
HETATM   25  N6  UNL     1      -0.813   0.891   1.302  1.00  0.00    -0.346 N 
ATOM     26  H6  UNL     1      -0.661  -0.083   1.565  1.00  0.00     0.163 HD
HETATM   27  C29 UNL     1      -1.916   1.163   0.413  1.00  0.00     0.177 C 
HETATM   28  C34 UNL     1      -1.917   0.224  -0.765  1.00  0.00     0.241 C 
HETATM   29  O5  UNL     1      -2.203   0.744  -1.912  1.00  0.00    -0.271 OA
HETATM   30  N7  UNL     1      -1.644  -1.136  -0.758  1.00  0.00    -0.350 N 
ATOM     31  H7  UNL     1      -0.865  -1.425  -1.349  1.00  0.00     0.163 HD
HETATM   32  C35 UNL     1      -0.059  -4.034  -1.414  1.00  0.00     0.236 C 
HETATM   33  O6  UNL     1      -0.325  -3.864  -2.616  1.00  0.00    -0.272 OA
ENDROOT
BRANCH  22  34
HETATM   34  C24 UNL     1       0.632   4.112   2.306  1.00  0.00     0.035 C 
BRANCH  34  35
HETATM   35  C25 UNL     1      -0.658   4.348   3.012  1.00  0.00     0.004 C 
BRANCH  35  36
HETATM   36  C26 UNL     1      -1.724   4.899   2.076  1.00  0.00     0.027 C 
BRANCH  36  37
HETATM   37  C27 UNL     1      -2.999   5.098   2.906  1.00  0.00     0.229 C 
BRANCH  37  38
HETATM   38  N5  UNL     1      -4.021   5.611   2.045  1.00  0.00    -0.079 N 
ATOM     39  H53 UNL     1      -3.734   6.459   1.557  1.00  0.00     0.274 HD
ATOM     40  H52 UNL     1      -4.174   5.024   1.225  1.00  0.00     0.274 HD
ATOM     41  H51 UNL     1      -4.869   5.743   2.597  1.00  0.00     0.274 HD
ENDBRANCH  37  38
ENDBRANCH  36  37
ENDBRANCH  35  36
ENDBRANCH  34  35
ENDBRANCH  22  34
BRANCH  17  42
HETATM   42  C18 UNL     1       1.255   1.981  -2.168  1.00  0.00     0.012 C 
BRANCH  42  43
HETATM   43  C19 UNL     1       1.526   3.124  -3.015  1.00  0.00     0.002 C 
HETATM   44  C20 UNL     1       2.538   2.925  -4.110  1.00  0.00     0.013 C 
HETATM   45  C21 UNL     1       1.726   4.452  -2.311  1.00  0.00     0.013 C 
ENDBRANCH  42  43
ENDBRANCH  17  42
BRANCH  27  46
HETATM   46  C30 UNL     1      -3.230   1.247   1.102  1.00  0.00     0.038 C 
BRANCH  46  47
HETATM   47  C31 UNL     1      -4.327   1.524   0.112  1.00  0.00    -0.020 C 
HETATM   48  C32 UNL     1      -4.187   2.818  -0.635  1.00  0.00     0.009 C 
HETATM   49  C33 UNL     1      -5.703   1.408   0.750  1.00  0.00     0.009 C 
ENDBRANCH  46  47
ENDBRANCH  27  46
BRANCH  12  50
HETATM   50  C12 UNL     1       4.318  -2.584  -0.205  1.00  0.00     0.038 C 
BRANCH  50  51
HETATM   51  C13 UNL     1       4.690  -1.956   1.090  1.00  0.00    -0.020 C 
HETATM   52  C14 UNL     1       3.491  -1.739   1.985  1.00  0.00     0.009 C 
HETATM   53  C15 UNL     1       5.591  -2.942   1.847  1.00  0.00     0.009 C 
ENDBRANCH  50  51
ENDBRANCH  12  50
BRANCH   1  54
HETATM   54  C3  UNL     1      -3.353  -2.834  -0.886  1.00  0.00     0.056 C 
BRANCH  54  55
HETATM   55  C2  UNL     1      -4.231  -3.772  -0.097  1.00  0.00    -0.035 C 
HETATM   56  C1  UNL     1      -4.329  -5.035  -0.447  1.00  0.00     0.007 C 
ENDBRANCH  54  55
ENDBRANCH   1  54
TORSDOF 13
