REMARK  11 active torsions:
REMARK  status: ('A' for Active; 'I' for Inactive)
REMARK    1  A    between atoms: C6_6  and  N1_7 
REMARK    2  A    between atoms: N2_10  and  C9_11 
REMARK    3  A    between atoms: C9_11  and  C10_12 
REMARK    4  A    between atoms: C10_12  and  C11_13 
REMARK    5  A    between atoms: C11_13  and  O1_14 
REMARK    6  A    between atoms: O1_14  and  C12_15 
REMARK    7  A    between atoms: C13_18  and  N4_19 
REMARK    8  A    between atoms: C16_22  and  C17_23 
REMARK    9  A    between atoms: C21_32  and  C22_33 
REMARK   10  A    between atoms: C22_33  and  C23_34 
REMARK   11  A    between atoms: C23_34  and  C24_35 
ROOT
HETATM    1  C12 UNL     1       3.192  -1.275   0.323  1.00  0.00     0.169 A 
HETATM    2  N3  UNL     1       4.014  -0.320  -0.121  1.00  0.00    -0.170 N 
ATOM      3  H3  UNL     1       3.671   0.319  -0.838  1.00  0.00     0.186 HD
HETATM    4  C13 UNL     1       5.271  -0.158   0.330  1.00  0.00     0.685 A 
HETATM    5  N5  UNL     1       5.687  -1.025   1.282  1.00  0.00    -0.155 N 
ATOM      6  H5  UNL     1       6.635  -0.931   1.647  1.00  0.00     0.187 HD
HETATM    7  C20 UNL     1       4.904  -2.005   1.767  1.00  0.00     0.270 A 
HETATM    8  O4  UNL     1       5.294  -2.812   2.655  1.00  0.00    -0.267 OA
HETATM    9  C21 UNL     1       3.615  -2.166   1.300  1.00  0.00     0.062 A 
ENDROOT
BRANCH   1  10
HETATM   10  O1  UNL     1       1.887  -1.430  -0.156  1.00  0.00    -0.335 OA
BRANCH  10  11
HETATM   11  C11 UNL     1       1.440  -0.535  -1.130  1.00  0.00     0.179 C 
BRANCH  11  12
HETATM   12  C10 UNL     1       0.018  -0.812  -1.566  1.00  0.00     0.046 C 
BRANCH  12  13
HETATM   13  C9  UNL     1      -0.955  -0.726  -0.432  1.00  0.00     0.124 C 
BRANCH  13  14
HETATM   14  N2  UNL     1      -2.269  -0.981  -0.887  1.00  0.00    -0.390 N 
HETATM   15  C8  UNL     1      -2.871  -0.028  -1.736  1.00  0.00     0.141 C 
HETATM   16  C7  UNL     1      -4.342  -0.161  -1.917  1.00  0.00     0.143 C 
HETATM   17  N1  UNL     1      -4.997  -0.314  -0.639  1.00  0.00    -0.374 N 
HETATM   18  C26 UNL     1      -4.417  -1.258   0.287  1.00  0.00     0.167 C 
HETATM   19  C25 UNL     1      -3.107  -1.803  -0.110  1.00  0.00     0.078 C 
BRANCH  17  20
HETATM   20  C6  UNL     1      -6.175   0.434  -0.309  1.00  0.00     0.042 A 
HETATM   21  C4  UNL     1      -7.437  -0.020  -0.587  1.00  0.00    -0.034 A 
HETATM   22  C3  UNL     1      -8.558   0.708  -0.263  1.00  0.00     0.015 A 
HETATM   23  C5  UNL     1      -7.613  -1.322  -1.249  1.00  0.00     0.050 C 
HETATM   24  C2  UNL     1      -8.449   1.939   0.364  1.00  0.00    -0.061 A 
HETATM   25  C1  UNL     1      -9.652   2.745   0.715  1.00  0.00     0.048 C 
HETATM   26  C29 UNL     1      -7.174   2.396   0.644  1.00  0.00     0.015 A 
HETATM   27  C27 UNL     1      -6.043   1.666   0.319  1.00  0.00    -0.034 A 
HETATM   28  C28 UNL     1      -4.724   2.224   0.652  1.00  0.00     0.050 C 
ENDBRANCH  17  20
ENDBRANCH  13  14
ENDBRANCH  12  13
ENDBRANCH  11  12
ENDBRANCH  10  11
ENDBRANCH   1  10
BRANCH   9  29
HETATM   29  C22 UNL     1       2.702  -3.224   1.788  1.00  0.00     0.059 C 
BRANCH  29  30
HETATM   30  C23 UNL     1       2.583  -4.380   0.829  1.00  0.00     0.118 C 
BRANCH  30  31
HETATM   31  C24 UNL     1       1.628  -5.368   1.426  1.00  0.00     0.172 C 
HETATM   32  O5  UNL     1       0.478  -5.056   1.808  1.00  0.00    -0.648 OA
HETATM   33  O6  UNL     1       2.015  -6.712   1.579  1.00  0.00    -0.648 OA
ENDBRANCH  30  31
ENDBRANCH  29  30
ENDBRANCH   9  29
BRANCH   4  34
HETATM   34  N4  UNL     1       6.134   0.874  -0.161  1.00  0.00    -0.217 N 
HETATM   35  C14 UNL     1       5.624   1.757  -1.153  1.00  0.00     0.142 C 
HETATM   36  C15 UNL     1       6.446   2.945  -1.479  1.00  0.00     0.036 C 
HETATM   37  C16 UNL     1       7.767   3.039  -0.818  1.00  0.00     0.090 C 
HETATM   38  C18 UNL     1       7.788   2.426   0.571  1.00  0.00     0.036 C 
HETATM   39  C19 UNL     1       7.480   0.954   0.387  1.00  0.00     0.142 C 
BRANCH  37  40
HETATM   40  C17 UNL     1       8.282   4.422  -0.836  1.00  0.00     0.177 C 
HETATM   41  O2  UNL     1       7.655   5.354  -1.374  1.00  0.00    -0.648 OA
HETATM   42  O3  UNL     1       9.504   4.687  -0.231  1.00  0.00    -0.648 OA
ENDBRANCH  37  40
ENDBRANCH   4  34
TORSDOF 11
