REMARK  2 active torsions:
REMARK  status: ('A' for Active; 'I' for Inactive)
REMARK       I    between atoms: N1_1  and  C1_4 
REMARK       I    between atoms: C1_4  and  N3_6 
REMARK    1  A    between atoms: N3_6  and  C2_8 
REMARK    2  A    between atoms: C3_13  and  C4_14 
ROOT
HETATM    1  C2  UNL     1      -0.694  -0.405   0.282  1.00  0.00     0.247 A 
HETATM    2  N4  UNL     1      -0.749   0.938   0.321  1.00  0.00    -0.263 N 
ATOM      3  H4  UNL     1      -1.586   1.520   0.319  1.00  0.00     0.190 HD
HETATM    4  N5  UNL     1       0.507   1.347   0.363  1.00  0.00    -0.273 N 
ATOM      5  H5  UNL     1       0.802   2.323   0.400  1.00  0.00     0.189 HD
HETATM    6  C3  UNL     1       1.340   0.290   0.350  1.00  0.00     0.212 A 
HETATM    7  O1  UNL     1       0.558  -0.762   0.300  1.00  0.00    -0.256 OA
ENDROOT
BRANCH   1   8
HETATM    8  N3  UNL     1      -1.753  -1.177   0.233  1.00  0.00    -0.295 N 
HETATM    9  C1  UNL     1      -3.053  -0.631   0.220  1.00  0.00     0.189 C 
HETATM   10  N1  UNL     1      -3.520  -0.093   1.276  1.00  0.00    -0.373 N 
HETATM   11  N2  UNL     1      -3.813  -0.688  -0.964  1.00  0.00    -0.064 NA
ATOM     12  H12 UNL     1      -4.460   0.302   1.267  1.00  0.00     0.158 HD
ATOM     13  H11 UNL     1      -2.969  -0.052   2.134  1.00  0.00     0.158 HD
ATOM     14  H3  UNL     1      -1.634  -2.190   0.204  1.00  0.00     0.172 HD
ENDBRANCH   1   8
BRANCH   6  15
HETATM   15  C4  UNL     1       2.805   0.310   0.385  1.00  0.00     0.185 A 
HETATM   16  N6  UNL     1       3.569   1.403   0.436  1.00  0.00    -0.267 N 
HETATM   17  N7  UNL     1       4.845   1.019   0.455  1.00  0.00    -0.007 NA
ATOM     18  H6  UNL     1       3.234   2.366   0.457  1.00  0.00     0.185 HD
HETATM   19  N8  UNL     1       4.881  -0.307   0.415  1.00  0.00    -0.007 NA
HETATM   20  N9  UNL     1       3.616  -0.755   0.372  1.00  0.00    -0.267 N 
ATOM     21  H9  UNL     1       3.325  -1.732   0.336  1.00  0.00     0.185 HD
ENDBRANCH   6  15
TORSDOF 2
