REMARK  5 active torsions:
REMARK  status: ('A' for Active; 'I' for Inactive)
REMARK    1  A    between atoms: C2_2  and  N2_5 
REMARK    2  A    between atoms: C2_2  and  O1_9 
REMARK    3  A    between atoms: N2_5  and  N3_6 
REMARK    4  A    between atoms: O1_9  and  C4_10 
REMARK    5  A    between atoms: C5_11  and  C6_12 
ROOT
HETATM    1  C1  UNL     1       2.070   1.298   1.043  1.00  0.00     0.086 C 
HETATM    2  C2  UNL     1       2.334  -0.044   0.357  1.00  0.00     0.249 C 
HETATM    3  C3  UNL     1       2.726   0.234  -1.004  1.00  0.00     0.119 C 
HETATM    4  N1  UNL     1       3.039   0.443  -2.096  1.00  0.00    -0.192 NA
ENDROOT
BRANCH   2   5
HETATM    5  N2  UNL     1       3.398  -0.682   1.114  1.00  0.00    -0.093 NA
BRANCH   5   6
HETATM    6  N3  UNL     1       3.688  -1.902   0.547  1.00  0.00    -0.345 N 
ATOM      7  H32 UNL     1       3.221  -2.284  -0.275  1.00  0.00     0.172 HD
ATOM      8  H31 UNL     1       4.435  -2.350   1.078  1.00  0.00     0.172 HD
ENDBRANCH   5   6
ENDBRANCH   2   5
BRANCH   2   9
HETATM    9  O1  UNL     1       1.203  -0.886   0.448  1.00  0.00    -0.258 OA
BRANCH   9  10
HETATM   10  C4  UNL     1      -0.015  -0.535  -0.078  1.00  0.00     0.064 C 
HETATM   11  C5  UNL     1      -1.087  -0.208  -0.537  1.00  0.00    -0.013 C 
BRANCH  11  12
HETATM   12  C6  UNL     1      -2.365   0.188  -1.059  1.00  0.00     0.147 A 
HETATM   13  N4  UNL     1      -2.610   0.692  -2.283  1.00  0.00    -0.275 N 
HETATM   14  N5  UNL     1      -3.883   0.946  -2.434  1.00  0.00    -0.240 N 
ATOM     15  H4  UNL     1      -1.899   0.854  -2.996  1.00  0.00     0.189 HD
HETATM   16  N6  UNL     1      -4.513   0.622  -1.326  1.00  0.00    -0.271 N 
ATOM     17  H5  UNL     1      -4.316   1.332  -3.273  1.00  0.00     0.208 HD
HETATM   18  C7  UNL     1      -3.607   0.145  -0.440  1.00  0.00     0.169 A 
ATOM     19  H6  UNL     1      -5.515   0.714  -1.162  1.00  0.00     0.190 HD
HETATM   20  N7  UNL     1      -3.837  -0.318   0.873  1.00  0.00    -0.078 NA
ENDBRANCH  11  12
ENDBRANCH   9  10
ENDBRANCH   2   9
TORSDOF 5
