REMARK  7 active torsions:
REMARK  status: ('A' for Active; 'I' for Inactive)
REMARK    1  A    between atoms: N1_1  and  N2_4 
REMARK       I    between atoms: N2_4  and  C1_6 
REMARK    2  A    between atoms: C1_6  and  C2_8 
REMARK    3  A    between atoms: C2_8  and  N3_9 
REMARK       I    between atoms: N3_9  and  C3_11 
REMARK    4  A    between atoms: C3_11  and  C4_13 
REMARK       I    between atoms: C4_13  and  N4_15 
REMARK    5  A    between atoms: N4_15  and  C5_17 
REMARK    6  A    between atoms: C7_21  and  S1_22 
REMARK    7  A    between atoms: S1_22  and  N6_23 
ROOT
HETATM    1  C4  UNL     1      -0.124  -0.602  -0.151  1.00  0.00     0.315 C 
HETATM    2  O3  UNL     1       0.500  -0.944   0.890  1.00  0.00    -0.262 OA
HETATM    3  N4  UNL     1       0.488  -0.830  -1.416  1.00  0.00    -0.299 N 
ATOM      4  H4  UNL     1      -0.043  -1.135  -2.232  1.00  0.00     0.171 HD
ENDROOT
BRANCH   1   5
HETATM    5  C3  UNL     1      -1.433   0.007  -0.007  1.00  0.00     0.310 C 
HETATM    6  N3  UNL     1      -1.978   0.203   1.269  1.00  0.00    -0.344 N 
ATOM      7  H3  UNL     1      -1.451  -0.078   2.096  1.00  0.00     0.163 HD
HETATM    8  O2  UNL     1      -2.069   0.354  -1.025  1.00  0.00    -0.262 OA
BRANCH   6   9
HETATM    9  C2  UNL     1      -3.278   0.799   1.417  1.00  0.00     0.227 C 
BRANCH   9  10
HETATM   10  C1  UNL     1      -4.378   0.038   0.814  1.00  0.00     0.253 C 
HETATM   11  N2  UNL     1      -5.693   0.562   0.897  1.00  0.00    -0.275 N 
ATOM     12  H2  UNL     1      -5.854   1.451   1.370  1.00  0.00     0.189 HD
HETATM   13  O1  UNL     1      -4.150  -1.072   0.227  1.00  0.00    -0.270 OA
BRANCH  11  14
HETATM   14  N1  UNL     1      -6.754  -0.118   0.345  1.00  0.00    -0.343 N 
ATOM     15  H12 UNL     1      -6.576  -1.006  -0.125  1.00  0.00     0.176 HD
ATOM     16  H11 UNL     1      -7.700   0.259   0.405  1.00  0.00     0.176 HD
ENDBRANCH  11  14
ENDBRANCH   9  10
ENDBRANCH   6   9
ENDBRANCH   1   5
BRANCH   3  17
HETATM   17  C5  UNL     1       1.782  -0.620  -1.460  1.00  0.00     0.152 A 
HETATM   18  N5  UNL     1       2.575  -0.761  -2.510  1.00  0.00    -0.344 N 
HETATM   19  C6  UNL     1       3.842  -0.515  -2.399  1.00  0.00     0.123 A 
ATOM     20  H5  UNL     1       2.189  -1.063  -3.405  1.00  0.00     0.167 HD
HETATM   21  C7  UNL     1       4.308  -0.113  -1.172  1.00  0.00     0.138 A 
HETATM   22  S2  UNL     1       2.867  -0.116  -0.246  1.00  0.00    -0.039 SA
BRANCH  21  23
HETATM   23  S1  UNL     1       5.957   0.292  -0.704  1.00  0.00     0.264 S 
HETATM   24  O4  UNL     1       6.812   0.200  -1.907  1.00  0.00    -0.200 OA
HETATM   25  O5  UNL     1       5.935   1.687  -0.130  1.00  0.00    -0.200 OA
BRANCH  23  26
HETATM   26  N6  UNL     1       6.414  -0.783   0.547  1.00  0.00    -0.324 N 
ATOM     27  H62 UNL     1       5.827  -1.519   0.939  1.00  0.00     0.169 HD
ATOM     28  H61 UNL     1       7.369  -0.548   0.818  1.00  0.00     0.169 HD
ENDBRANCH  23  26
ENDBRANCH  21  23
ENDBRANCH   3  17
TORSDOF 7
