REMARK  22 active torsions:
REMARK  status: ('A' for Active; 'I' for Inactive)
REMARK    1  A    between atoms: N2_3  and  C2_5 
REMARK    2  A    between atoms: C2_5  and  C9_25 
REMARK    3  A    between atoms: N3_6  and  O1_8 
REMARK    4  A    between atoms: O1_8  and  C3_9 
REMARK    5  A    between atoms: C3_9  and  C4_11 
REMARK    6  A    between atoms: C4_11  and  O3_12 
REMARK    7  A    between atoms: C4_11  and  N4_14 
REMARK    8  A    between atoms: N4_14  and  C5_16 
REMARK    9  A    between atoms: C7_19  and  O5_20 
REMARK   10  A    between atoms: C8_22  and  O6_23 
REMARK   11  A    between atoms: C11_28  and  C12_29 
REMARK       I    between atoms: C12_29  and  N5_31 
REMARK   12  A    between atoms: C13_33  and  C14_34 
REMARK   13  A    between atoms: C14_34  and  C15_35 
REMARK   14  A    between atoms: C15_35  and  C16_36 
REMARK   15  A    between atoms: C16_36  and  C17_37 
REMARK   16  A    between atoms: C17_37  and  C18_38 
REMARK   17  A    between atoms: C18_38  and  C19_40 
REMARK   18  A    between atoms: C20_41  and  C21_42 
REMARK   19  A    between atoms: C23_44  and  O9_45 
REMARK   20  A    between atoms: C24_47  and  O10_48 
REMARK   21  A    between atoms: C25_50  and  O11_51 
REMARK   22  A    between atoms: C27_54  and  O12_55 
ROOT
HETATM    1  N1  UNL     1      -4.444   3.738  -0.828  1.00  0.00    -0.172 NA
HETATM    2  C1  UNL     1      -4.276   2.597  -0.894  1.00  0.00     0.183 C 
HETATM    3  N2  UNL     1      -4.047   1.214  -0.991  1.00  0.00    -0.277 N 
ATOM      4  H2  UNL     1      -4.031   0.811  -1.928  1.00  0.00     0.179 HD
ENDROOT
BRANCH   3   5
HETATM    5  C2  UNL     1      -3.838   0.338   0.084  1.00  0.00     0.154 C 
HETATM    6  N3  UNL     1      -4.440   0.348   1.217  1.00  0.00    -0.239 N 
ATOM      7  H3  UNL     1      -4.201  -0.345   1.927  1.00  0.00     0.196 HD
BRANCH   6   8
HETATM    8  O1  UNL     1      -5.395   1.280   1.473  1.00  0.00    -0.194 OA
BRANCH   8   9
HETATM    9  C3  UNL     1      -6.694   1.269   0.926  1.00  0.00     0.329 C 
HETATM   10  O2  UNL     1      -6.911   0.307   0.160  1.00  0.00    -0.258 OA
BRANCH   9  11
HETATM   11  C4  UNL     1      -7.618   2.345   1.298  1.00  0.00     0.319 C 
BRANCH  11  12
HETATM   12  O3  UNL     1      -6.911   3.207   2.187  1.00  0.00    -0.368 OA
ATOM     13  H3  UNL     1      -7.510   3.904   2.428  1.00  0.00     0.212 HD
ENDBRANCH  11  12
BRANCH  11  14
HETATM   14  N4  UNL     1      -8.815   1.895   1.846  1.00  0.00    -0.361 N 
ATOM     15  H4  UNL     1      -8.994   2.134   2.821  1.00  0.00     0.158 HD
BRANCH  14  16
HETATM   16  C5  UNL     1      -9.774   1.163   1.202  1.00  0.00     0.250 C 
HETATM   17  O4  UNL     1      -9.588  -0.097   0.741  1.00  0.00    -0.362 OA
HETATM   18  C6  UNL     1     -10.820  -0.473   0.202  1.00  0.00     0.205 C 
HETATM   19  C7  UNL     1     -11.502   0.798  -0.293  1.00  0.00     0.175 C 
HETATM   20  C8  UNL     1     -10.415   1.830  -0.011  1.00  0.00     0.197 C 
BRANCH  19  21
HETATM   21  O5  UNL     1     -12.562   1.103   0.552  1.00  0.00    -0.391 OA
ATOM     22  H5  UNL     1     -12.987   1.895   0.244  1.00  0.00     0.210 HD
ENDBRANCH  19  21
BRANCH  20  23
HETATM   23  O6  UNL     1     -10.899   3.086   0.255  1.00  0.00    -0.389 OA
ATOM     24  H6  UNL     1     -11.298   3.501  -0.500  1.00  0.00     0.210 HD
ENDBRANCH  20  23
ENDBRANCH  14  16
ENDBRANCH  11  14
ENDBRANCH   9  11
ENDBRANCH   8   9
ENDBRANCH   6   8
BRANCH   5  25
HETATM   25  C9  UNL     1      -2.832  -0.738  -0.072  1.00  0.00     0.085 A 
HETATM   26  S1  UNL     1      -3.003  -2.359   0.495  1.00  0.00    -0.094 SA
HETATM   27  C10 UNL     1      -1.508  -2.982  -0.016  1.00  0.00     0.070 A 
HETATM   28  C11 UNL     1      -0.908  -1.915  -0.616  1.00  0.00     0.073 A 
HETATM   29  C27 UNL     1      -1.602  -0.747  -0.643  1.00  0.00     0.102 A 
BRANCH  28  30
HETATM   30  C12 UNL     1       0.456  -2.064  -1.217  1.00  0.00     0.258 C 
HETATM   31  O7  UNL     1       1.024  -1.096  -1.788  1.00  0.00    -0.267 OA
HETATM   32  N5  UNL     1       1.156  -3.272  -1.171  1.00  0.00    -0.337 N 
HETATM   33  C13 UNL     1       2.404  -3.387  -0.896  1.00  0.00     0.064 C 
ATOM     34  H5  UNL     1       0.636  -4.127  -1.371  1.00  0.00     0.168 HD
BRANCH  33  35
HETATM   35  C14 UNL     1       3.194  -2.188  -0.603  1.00  0.00     0.044 C 
BRANCH  35  36
HETATM   36  C15 UNL     1       4.510  -2.501   0.053  1.00  0.00     0.006 C 
BRANCH  36  37
HETATM   37  C16 UNL     1       5.352  -3.339  -0.857  1.00  0.00     0.008 C 
BRANCH  37  38
HETATM   38  C17 UNL     1       6.698  -3.685  -0.331  1.00  0.00     0.083 C 
BRANCH  38  39
HETATM   39  C18 UNL     1       7.584  -2.475  -0.068  1.00  0.00     0.149 C 
HETATM   40  O8  UNL     1       8.517  -2.686   0.742  1.00  0.00    -0.293 OA
BRANCH  39  41
HETATM   41  C19 UNL     1       7.347  -1.220  -0.706  1.00  0.00     0.051 C 
HETATM   42  C20 UNL     1       7.810  -0.047  -0.779  1.00  0.00     0.015 C 
BRANCH  42  43
HETATM   43  C21 UNL     1       8.881   0.728  -0.245  1.00  0.00    -0.031 A 
HETATM   44  C22 UNL     1       8.850   2.126  -0.423  1.00  0.00     0.051 A 
HETATM   45  C23 UNL     1       9.880   2.909   0.027  1.00  0.00     0.102 A 
HETATM   46  C24 UNL     1      10.951   2.348   0.654  1.00  0.00     0.132 A 
HETATM   47  C25 UNL     1      11.039   0.996   0.856  1.00  0.00     0.102 A 
HETATM   48  C26 UNL     1       9.972   0.202   0.387  1.00  0.00     0.051 A 
BRANCH  45  49
HETATM   49  O9  UNL     1       9.797   4.274  -0.173  1.00  0.00    -0.358 OA
ATOM     50  H9  UNL     1      10.511   4.817   0.139  1.00  0.00     0.217 HD
ENDBRANCH  45  49
BRANCH  46  51
HETATM   51  O10 UNL     1      11.962   3.184   1.088  1.00  0.00    -0.356 OA
ATOM     52  H10 UNL     1      12.709   2.793   1.525  1.00  0.00     0.218 HD
ENDBRANCH  46  51
BRANCH  47  53
HETATM   53  O11 UNL     1      12.127   0.410   1.494  1.00  0.00    -0.358 OA
ATOM     54  H11 UNL     1      12.188  -0.528   1.634  1.00  0.00     0.217 HD
ENDBRANCH  47  53
ENDBRANCH  42  43
ENDBRANCH  39  41
ENDBRANCH  38  39
ENDBRANCH  37  38
ENDBRANCH  36  37
ENDBRANCH  35  36
ENDBRANCH  33  35
ENDBRANCH  28  30
BRANCH  29  55
HETATM   55  O12 UNL     1      -1.069   0.424  -1.240  1.00  0.00    -0.358 OA
ATOM     56  H12 UNL     1      -0.207   0.418  -1.640  1.00  0.00     0.217 HD
ENDBRANCH  29  55
ENDBRANCH   5  25
ENDBRANCH   3   5
TORSDOF 22
