REMARK  6 active torsions:
REMARK  status: ('A' for Active; 'I' for Inactive)
REMARK    1  A    between atoms: N1_2  and  C2_3 
REMARK    2  A    between atoms: N1_2  and  C17_23 
REMARK    3  A    between atoms: C2_3  and  C3_4 
REMARK    4  A    between atoms: C3_4  and  C4_5 
REMARK    5  A    between atoms: C4_5  and  N2_6 
REMARK       I    between atoms: N2_6  and  C5_8 
REMARK       I    between atoms: C5_8  and  N3_10 
REMARK    6  A    between atoms: N3_10  and  C6_12 
ROOT
HETATM    1  N2  UNL     1      -0.394  -0.530  -0.198  1.00  0.00    -0.343 N 
ATOM      2  H2  UNL     1      -0.280  -1.512  -0.447  1.00  0.00     0.164 HD
HETATM    3  C5  UNL     1       0.789   0.277   0.006  1.00  0.00     0.316 C 
HETATM    4  O1  UNL     1       0.555   1.468   0.311  1.00  0.00    -0.247 OA
HETATM    5  N3  UNL     1       2.075  -0.286  -0.140  1.00  0.00    -0.334 N 
ATOM      6  H3  UNL     1       2.108  -1.276  -0.385  1.00  0.00     0.165 HD
ENDROOT
BRANCH   1   7
HETATM    7  C4  UNL     1      -1.724  -0.002  -0.063  1.00  0.00     0.126 C 
BRANCH   7   8
HETATM    8  C3  UNL     1      -2.781  -1.043  -0.320  1.00  0.00     0.050 C 
BRANCH   8   9
HETATM    9  C2  UNL     1      -4.153  -0.412  -0.162  1.00  0.00     0.274 C 
BRANCH   9  10
HETATM   10  N1  UNL     1      -5.163  -1.405  -0.402  1.00  0.00     0.088 N 
HETATM   11  C1  UNL     1      -5.194  -1.833  -1.788  1.00  0.00     0.310 C 
BRANCH  10  12
HETATM   12  C17 UNL     1      -6.467  -1.090   0.102  1.00  0.00     0.222 C 
HETATM   13  C18 UNL     1      -6.535  -0.899   1.575  1.00  0.00     0.036 C 
HETATM   14  C19 UNL     1      -6.989   0.536   1.760  1.00  0.00     0.002 C 
HETATM   15  C20 UNL     1      -7.874   0.753   0.563  1.00  0.00     0.002 C 
HETATM   16  C21 UNL     1      -7.111   0.093  -0.566  1.00  0.00     0.036 C 
ENDBRANCH  10  12
ENDBRANCH   9  10
ENDBRANCH   8   9
ENDBRANCH   7   8
ENDBRANCH   1   7
BRANCH   5  17
HETATM   17  C6  UNL     1       3.348   0.374   0.017  1.00  0.00     0.036 C 
HETATM   18  C7  UNL     1       3.480   0.992   1.378  1.00  0.00     0.035 C 
HETATM   19  C8  UNL     1       4.127   2.141   0.722  1.00  0.00    -0.009 C 
HETATM   20  C9  UNL     1       5.559   2.283   0.732  1.00  0.00     0.009 C 
HETATM   21  C16 UNL     1       3.438   1.723  -0.535  1.00  0.00     0.035 C 
HETATM   22  C10 UNL     1       6.555   1.309   0.379  1.00  0.00    -0.013 C 
HETATM   23  C11 UNL     1       6.522   0.662  -0.968  1.00  0.00     0.014 C 
HETATM   24  C14 UNL     1       6.530  -0.067   0.919  1.00  0.00     0.014 C 
HETATM   25  C12 UNL     1       5.797  -0.455  -0.326  1.00  0.00    -0.041 C 
HETATM   26  C13 UNL     1       6.369  -1.798  -0.871  1.00  0.00     0.015 C 
HETATM   27  C15 UNL     1       4.386  -0.600  -0.351  1.00  0.00     0.040 C 
ENDBRANCH   5  17
TORSDOF 6
