REMARK  7 active torsions:
REMARK  status: ('A' for Active; 'I' for Inactive)
REMARK    1  A    between atoms: O1_2  and  C2_3 
REMARK    2  A    between atoms: C2_3  and  C3_4 
REMARK    3  A    between atoms: C3_4  and  O2_5 
REMARK    4  A    between atoms: C5_8  and  C6_9 
REMARK       I    between atoms: C6_9  and  N1_11 
REMARK    5  A    between atoms: C9_14  and  N2_15 
REMARK    6  A    between atoms: N2_15  and  C10_17 
REMARK    7  A    between atoms: C11_19  and  O4_20 
ROOT
HETATM    1  C6  UNL     1      -0.096  -0.861   0.234  1.00  0.00     0.226 C 
HETATM    2  O3  UNL     1      -0.422  -1.499   1.271  1.00  0.00    -0.273 OA
HETATM    3  N1  UNL     1       1.219  -0.369   0.069  1.00  0.00    -0.349 N 
HETATM    4  C7  UNL     1       1.541   0.352  -1.128  1.00  0.00     0.128 C 
HETATM    5  C8  UNL     1       2.975   0.322  -1.514  1.00  0.00     0.047 C 
HETATM    6  C9  UNL     1       3.935   0.098  -0.398  1.00  0.00     0.113 C 
HETATM    7  C11 UNL     1       3.473  -1.070   0.423  1.00  0.00     0.158 C 
HETATM    8  C12 UNL     1       2.187  -0.622   1.130  1.00  0.00     0.159 C 
ENDROOT
BRANCH   1   9
HETATM    9  C5  UNL     1      -1.147  -0.642  -0.811  1.00  0.00     0.107 C 
HETATM   10  C4  UNL     1      -2.440  -1.256  -0.397  1.00  0.00     0.087 C 
HETATM   11  C2  UNL     1      -3.304  -0.053   0.025  1.00  0.00     0.185 C 
HETATM   12  O5  UNL     1      -2.887   0.890  -0.928  1.00  0.00    -0.352 OA
HETATM   13  C13 UNL     1      -1.480   0.835  -0.869  1.00  0.00     0.185 C 
BRANCH  11  14
HETATM   14  O1  UNL     1      -2.924   0.260   1.286  1.00  0.00    -0.358 OA
HETATM   15  C1  UNL     1      -3.346   1.432   1.841  1.00  0.00     0.205 C 
ENDBRANCH  11  14
BRANCH  11  16
HETATM   16  C3  UNL     1      -4.745  -0.305  -0.229  1.00  0.00     0.232 C 
BRANCH  16  17
HETATM   17  O2  UNL     1      -5.479   0.834   0.059  1.00  0.00    -0.396 OA
ATOM     18  H2  UNL     1      -6.401   0.673  -0.104  1.00  0.00     0.209 HD
ENDBRANCH  16  17
ENDBRANCH  11  16
ENDBRANCH   1   9
BRANCH   7  19
HETATM   19  O4  UNL     1       4.440  -1.436   1.348  1.00  0.00    -0.392 OA
ATOM     20  H4  UNL     1       4.148  -2.175   1.868  1.00  0.00     0.210 HD
ENDBRANCH   7  19
BRANCH   6  21
HETATM   21  N2  UNL     1       5.250  -0.131  -0.981  1.00  0.00    -0.383 N 
ATOM     22  H2  UNL     1       5.623  -1.075  -1.087  1.00  0.00     0.160 HD
BRANCH  21  23
HETATM   23  C10 UNL     1       5.926   0.897  -1.358  1.00  0.00     0.166 C 
HETATM   24  S1  UNL     1       7.110   2.001  -1.554  1.00  0.00    -0.075 SA
ENDBRANCH  21  23
ENDBRANCH   6  21
TORSDOF 7
