REMARK  7 active torsions:
REMARK  status: ('A' for Active; 'I' for Inactive)
REMARK    1  A    between atoms: N1_2  and  C2_5 
REMARK    2  A    between atoms: C2_5  and  C3_6 
REMARK    3  A    between atoms: C3_6  and  O1_7 
REMARK    4  A    between atoms: O1_7  and  C4_8 
REMARK    5  A    between atoms: C7_12  and  O3_13 
REMARK    6  A    between atoms: C10_19  and  O6_20 
REMARK    7  A    between atoms: O6_20  and  C11_21 
ROOT
HETATM    1  C4  UNL     1       1.347  -1.070  -0.322  1.00  0.00     0.130 C 
HETATM    2  C5  UNL     1       1.171  -2.537  -0.039  1.00  0.00     0.068 C 
HETATM    3  C6  UNL     1      -0.015  -2.711   0.828  1.00  0.00     0.175 C 
HETATM    4  O2  UNL     1      -0.544  -3.960   1.056  1.00  0.00    -0.321 OA
HETATM    5  C7  UNL     1      -1.768  -3.369   0.626  1.00  0.00     0.320 A 
HETATM    6  O4  UNL     1      -1.862  -3.499  -0.727  1.00  0.00    -0.305 OA
HETATM    7  C8  UNL     1      -1.217  -2.380   0.011  1.00  0.00     0.203 A 
HETATM    8  C9  UNL     1      -1.134  -1.204  -0.806  1.00  0.00     0.176 C 
HETATM    9  O5  UNL     1      -2.316  -0.520  -0.820  1.00  0.00    -0.352 OA
HETATM   10  C10 UNL     1      -2.374   0.684  -0.194  1.00  0.00     0.270 C 
HETATM   11  C13 UNL     1      -1.636   0.586   1.121  1.00  0.00     0.062 C 
HETATM   12  C14 UNL     1      -0.166   0.503   0.762  1.00  0.00     0.014 C 
HETATM   13  C15 UNL     1       0.057  -0.302  -0.489  1.00  0.00     0.047 C 
ENDROOT
BRANCH   1  14
HETATM   14  O1  UNL     1       2.096  -0.520   0.706  1.00  0.00    -0.384 OA
BRANCH  14  15
HETATM   15  C3  UNL     1       3.307  -0.001   0.381  1.00  0.00     0.195 C 
BRANCH  15  16
HETATM   16  C2  UNL     1       3.172   1.138  -0.570  1.00  0.00     0.258 C 
BRANCH  16  17
HETATM   17  N1  UNL     1       4.425   1.748  -0.959  1.00  0.00    -0.077 N 
HETATM   18  C1  UNL     1       5.005   2.441   0.162  1.00  0.00     0.267 C 
ATOM     19  H12 UNL     1       4.318   2.356  -1.771  1.00  0.00     0.276 HD
ATOM     20  H11 UNL     1       5.070   1.070  -1.365  1.00  0.00     0.276 HD
ENDBRANCH  16  17
ENDBRANCH  15  16
ENDBRANCH  14  15
ENDBRANCH   1  14
BRANCH   5  21
HETATM   21  O3  UNL     1      -2.833  -3.603   1.464  1.00  0.00    -0.341 OA
ATOM     22  H3  UNL     1      -3.649  -3.209   1.177  1.00  0.00     0.215 HD
ENDBRANCH   5  21
BRANCH  10  23
HETATM   23  O6  UNL     1      -3.680   1.137  -0.059  1.00  0.00    -0.290 OA
BRANCH  23  24
HETATM   24  C11 UNL     1      -4.167   2.341  -0.546  1.00  0.00     0.257 C 
HETATM   25  C12 UNL     1      -5.599   2.724  -0.337  1.00  0.00     0.126 C 
HETATM   26  O7  UNL     1      -3.348   3.062  -1.154  1.00  0.00    -0.266 OA
ENDBRANCH  23  24
ENDBRANCH  10  23
TORSDOF 7
