REMARK  5 active torsions:
REMARK  status: ('A' for Active; 'I' for Inactive)
REMARK       I    between atoms: N1_2  and  C2_4 
REMARK    1  A    between atoms: C2_4  and  C3_6 
REMARK    2  A    between atoms: C6_9  and  N2_10 
REMARK       I    between atoms: N2_10  and  C7_12 
REMARK    3  A    between atoms: C7_12  and  C8_14 
REMARK       I    between atoms: N3_16  and  C10_18 
REMARK    4  A    between atoms: C10_18  and  C11_20 
REMARK    5  A    between atoms: C11_20  and  N4_22 
ROOT
HETATM    1  N2  UNL     1      -0.174  -0.970   0.897  1.00  0.00    -0.307 N 
ATOM      2  H2  UNL     1      -0.212  -1.829   1.445  1.00  0.00     0.170 HD
HETATM    3  C7  UNL     1      -1.388  -0.353   0.517  1.00  0.00     0.269 C 
HETATM    4  O2  UNL     1      -1.741   0.705   1.088  1.00  0.00    -0.266 OA
ENDROOT
BRANCH   1   5
HETATM    5  C6  UNL     1       0.971  -0.494   0.581  1.00  0.00     0.122 A 
HETATM    6  C5  UNL     1       2.116  -1.150   0.987  1.00  0.00     0.052 A 
HETATM    7  C4  UNL     1       3.388  -0.683   0.676  1.00  0.00     0.040 A 
HETATM    8  C3  UNL     1       3.476   0.471  -0.062  1.00  0.00     0.116 A 
HETATM    9  N6  UNL     1       2.337   1.082  -0.439  1.00  0.00    -0.294 N 
HETATM   10  N5  UNL     1       1.133   0.629  -0.137  1.00  0.00    -0.285 N 
ATOM     11  H6  UNL     1       2.407   1.940  -0.987  1.00  0.00     0.187 HD
ATOM     12  H5  UNL     1       0.311   1.142  -0.455  1.00  0.00     0.188 HD
BRANCH   8  13
HETATM   13  C2  UNL     1       4.786   0.995  -0.410  1.00  0.00     0.269 C 
HETATM   14  N1  UNL     1       6.008   0.391  -0.038  1.00  0.00    -0.360 N 
HETATM   15  C1  UNL     1       7.280   0.971  -0.422  1.00  0.00     0.149 C 
ATOM     16  H1  UNL     1       5.995  -0.469   0.511  1.00  0.00     0.162 HD
HETATM   17  O1  UNL     1       4.837   2.072  -1.098  1.00  0.00    -0.266 OA
ENDBRANCH   8  13
ENDBRANCH   1   5
BRANCH   3  18
HETATM   18  C8  UNL     1      -2.186  -0.972  -0.529  1.00  0.00     0.076 C 
HETATM   19  C9  UNL     1      -1.727  -2.239  -1.188  1.00  0.00     0.074 C 
HETATM   20  N3  UNL     1      -3.279  -0.434  -0.885  1.00  0.00    -0.324 N 
HETATM   21  C10 UNL     1      -3.860   0.744  -0.382  1.00  0.00     0.252 C 
ATOM     22  H3  UNL     1      -3.797  -0.912  -1.622  1.00  0.00     0.169 HD
HETATM   23  O3  UNL     1      -3.528   1.855  -0.857  1.00  0.00    -0.271 OA
BRANCH  21  24
HETATM   24  C11 UNL     1      -4.858   0.664   0.701  1.00  0.00     0.271 C 
HETATM   25  C12 UNL     1      -6.165   1.240   0.180  1.00  0.00     0.050 C 
BRANCH  24  26
HETATM   26  N4  UNL     1      -5.035  -0.729   1.052  1.00  0.00    -0.067 N 
ATOM     27  H43 UNL     1      -5.279  -1.309   0.249  1.00  0.00     0.275 HD
ATOM     28  H42 UNL     1      -4.157  -1.189   1.292  1.00  0.00     0.275 HD
ATOM     29  H41 UNL     1      -5.725  -0.784   1.801  1.00  0.00     0.275 HD
ENDBRANCH  24  26
ENDBRANCH  21  24
ENDBRANCH   3  18
TORSDOF 5
