REMARK  16 active torsions:
REMARK  status: ('A' for Active; 'I' for Inactive)
REMARK    1  A    between atoms: C2_2  and  C3_3 
REMARK    2  A    between atoms: C3_3  and  C4_4 
REMARK    3  A    between atoms: C4_4  and  C5_5 
REMARK    4  A    between atoms: C5_5  and  C6_6 
REMARK    5  A    between atoms: C6_6  and  N1_7 
REMARK    6  A    between atoms: N2_12  and  C8_13 
REMARK    7  A    between atoms: C8_13  and  C9_14 
REMARK    8  A    between atoms: C9_14  and  C10_15 
REMARK    9  A    between atoms: C10_15  and  N3_16 
REMARK   10  A    between atoms: N3_16  and  C11_19 
REMARK   11  A    between atoms: C11_19  and  C12_20 
REMARK   12  A    between atoms: C12_20  and  C13_21 
REMARK   13  A    between atoms: C13_21  and  N4_22 
REMARK   14  A    between atoms: C18_31  and  N7_32 
REMARK   15  A    between atoms: N8_35  and  C21_36 
REMARK   16  A    between atoms: C23_38  and  C24_39 
ROOT
HETATM    1  C1  UNL     1       2.106   3.455  -1.873  1.00  0.00     0.040 C 
HETATM    2  C2  UNL     1       2.174   3.480  -0.368  1.00  0.00     0.043 C 
HETATM    3  C7  UNL     1       2.788   2.202   0.117  1.00  0.00     0.156 C 
HETATM    4  N2  UNL     1       2.223   1.006  -0.462  1.00  0.00    -0.345 N 
HETATM    5  C15 UNL     1       0.848   0.602  -0.342  1.00  0.00     0.256 C 
HETATM    6  O1  UNL     1       0.596  -0.611  -0.331  1.00  0.00    -0.267 OA
HETATM    7  C16 UNL     1      -0.343   1.471  -0.230  1.00  0.00     0.060 A 
HETATM    8  C17 UNL     1      -1.537   0.798  -0.364  1.00  0.00     0.049 A 
HETATM    9  C18 UNL     1      -2.749   1.459  -0.280  1.00  0.00     0.040 A 
HETATM   10  C33 UNL     1      -2.688   2.832  -0.055  1.00  0.00     0.032 A 
HETATM   11  C34 UNL     1      -1.491   3.503   0.078  1.00  0.00     0.032 A 
HETATM   12  C35 UNL     1      -0.287   2.837  -0.006  1.00  0.00     0.044 A 
HETATM   13  N10 UNL     1       0.843   3.692   0.148  1.00  0.00    -0.379 N 
ATOM     14  H10 UNL     1       0.695   4.548   0.682  1.00  0.00     0.160 HD
ENDROOT
BRANCH   9  15
HETATM   15  N7  UNL     1      -3.989   0.786  -0.420  1.00  0.00    -0.298 N 
HETATM   16  C19 UNL     1      -5.233   1.391  -0.856  1.00  0.00     0.154 C 
HETATM   17  C20 UNL     1      -6.255   0.559  -0.087  1.00  0.00     0.155 C 
HETATM   18  N8  UNL     1      -5.693  -0.774  -0.361  1.00  0.00    -0.283 N 
HETATM   19  C32 UNL     1      -4.299  -0.600  -0.172  1.00  0.00     0.331 C 
HETATM   20  O2  UNL     1      -3.507  -1.514   0.152  1.00  0.00    -0.246 OA
BRANCH  18  21
HETATM   21  C21 UNL     1      -6.466  -1.877  -0.730  1.00  0.00     0.112 A 
HETATM   22  C22 UNL     1      -7.574  -2.211   0.014  1.00  0.00     0.061 A 
HETATM   23  C23 UNL     1      -8.420  -3.261  -0.272  1.00  0.00    -0.021 A 
HETATM   24  C30 UNL     1      -8.100  -4.011  -1.393  1.00  0.00     0.029 A 
HETATM   25  C31 UNL     1      -6.981  -3.684  -2.153  1.00  0.00     0.090 A 
HETATM   26  N9  UNL     1      -6.190  -2.646  -1.826  1.00  0.00    -0.352 N 
ATOM     27  H9  UNL     1      -5.376  -2.431  -2.402  1.00  0.00     0.166 HD
BRANCH  23  28
HETATM   28  C24 UNL     1      -9.568  -3.567   0.575  1.00  0.00    -0.026 A 
HETATM   29  C25 UNL     1      -9.454  -3.321   1.947  1.00  0.00     0.012 A 
HETATM   30  C26 UNL     1     -10.486  -3.579   2.794  1.00  0.00     0.001 A 
HETATM   31  C27 UNL     1     -11.669  -4.093   2.290  1.00  0.00     0.000 A 
HETATM   32  C28 UNL     1     -11.797  -4.345   0.917  1.00  0.00     0.001 A 
HETATM   33  C29 UNL     1     -10.739  -4.077   0.068  1.00  0.00     0.012 A 
ENDBRANCH  23  28
ENDBRANCH  18  21
ENDBRANCH   9  15
BRANCH   4  34
HETATM   34  C8  UNL     1       3.075   0.143  -1.223  1.00  0.00     0.128 C 
BRANCH  34  35
HETATM   35  C9  UNL     1       3.780  -0.922  -0.416  1.00  0.00     0.047 C 
BRANCH  35  36
HETATM   36  C10 UNL     1       4.672  -0.379   0.646  1.00  0.00     0.234 C 
BRANCH  36  37
HETATM   37  N3  UNL     1       5.340  -1.439   1.359  1.00  0.00    -0.075 N 
ATOM     38  H32 UNL     1       5.754  -1.108   2.231  1.00  0.00     0.277 HD
ATOM     39  H31 UNL     1       4.678  -2.109   1.750  1.00  0.00     0.277 HD
BRANCH  37  40
HETATM   40  C11 UNL     1       6.314  -2.080   0.514  1.00  0.00     0.234 C 
BRANCH  40  41
HETATM   41  C12 UNL     1       7.062  -3.093   1.371  1.00  0.00     0.047 C 
BRANCH  41  42
HETATM   42  C13 UNL     1       8.084  -3.784   0.512  1.00  0.00     0.123 C 
BRANCH  42  43
HETATM   43  N4  UNL     1       7.381  -4.468  -0.576  1.00  0.00    -0.367 N 
HETATM   44  C14 UNL     1       7.946  -5.449  -1.214  1.00  0.00     0.196 C 
HETATM   45  N5  UNL     1       9.255  -5.894  -0.885  1.00  0.00    -0.067 NA
HETATM   46  N6  UNL     1       7.251  -6.099  -2.259  1.00  0.00    -0.067 NA
ATOM     47  H4  UNL     1       6.440  -4.172  -0.835  1.00  0.00     0.161 HD
ENDBRANCH  42  43
ENDBRANCH  41  42
ENDBRANCH  40  41
ENDBRANCH  37  40
ENDBRANCH  36  37
ENDBRANCH  35  36
ENDBRANCH  34  35
ENDBRANCH   4  34
BRANCH   2  48
HETATM   48  C3  UNL     1       3.059   4.682  -0.011  1.00  0.00     0.032 C 
BRANCH  48  49
HETATM   49  C4  UNL     1       3.219   4.823   1.455  1.00  0.00     0.004 C 
BRANCH  49  50
HETATM   50  C5  UNL     1       4.104   5.955   1.837  1.00  0.00     0.027 C 
BRANCH  50  51
HETATM   51  C6  UNL     1       3.713   7.330   1.472  1.00  0.00     0.229 C 
BRANCH  51  52
HETATM   52  N1  UNL     1       3.582   7.664   0.101  1.00  0.00    -0.079 N 
ATOM     53  H13 UNL     1       4.451   7.431  -0.379  1.00  0.00     0.274 HD
ATOM     54  H12 UNL     1       2.932   7.010  -0.336  1.00  0.00     0.274 HD
ATOM     55  H11 UNL     1       3.312   8.615  -0.151  1.00  0.00     0.274 HD
ENDBRANCH  51  52
ENDBRANCH  50  51
ENDBRANCH  49  50
ENDBRANCH  48  49
ENDBRANCH   2  48
TORSDOF 16
