REMARK  21 active torsions:
REMARK  status: ('A' for Active; 'I' for Inactive)
REMARK    1  A    between atoms: C2_2  and  C3_3 
REMARK    2  A    between atoms: C3_3  and  C4_4 
REMARK    3  A    between atoms: C4_4  and  N1_5 
REMARK    4  A    between atoms: N1_5  and  C5_7 
REMARK    5  A    between atoms: C6_10  and  O1_11 
REMARK    6  A    between atoms: C7_13  and  C8_14 
REMARK    7  A    between atoms: C8_14  and  C9_15 
REMARK    8  A    between atoms: C9_15  and  C10_16 
REMARK    9  A    between atoms: C10_16  and  C11_17 
REMARK   10  A    between atoms: C11_17  and  C12_18 
REMARK   11  A    between atoms: C14_23  and  C15_24 
REMARK   12  A    between atoms: C15_24  and  C16_25 
REMARK   13  A    between atoms: C17_28  and  C18_29 
REMARK   14  A    between atoms: C18_29  and  C19_30 
REMARK   15  A    between atoms: C19_30  and  C20_31 
REMARK       I    between atoms: C20_31  and  N5_33 
REMARK   16  A    between atoms: N5_33  and  C21_34 
REMARK   17  A    between atoms: N5_33  and  C24_37 
REMARK   18  A    between atoms: N6_41  and  C28_42 
REMARK   19  A    between atoms: C28_42  and  C29_43 
REMARK   20  A    between atoms: C29_43  and  C30_44 
REMARK   21  A    between atoms: C33_47  and  O4_48 
ROOT
HETATM    1  C12 UNL     1       2.338  -0.146   0.804  1.00  0.00     0.085 A 
HETATM    2  N3  UNL     1       1.628  -1.180   1.294  1.00  0.00    -0.312 N 
ATOM      3  H3  UNL     1       2.065  -2.094   1.413  1.00  0.00     0.170 HD
HETATM    4  C13 UNL     1       0.340  -0.998   1.625  1.00  0.00     0.261 A 
HETATM    5  O2  UNL     1      -0.271  -2.009   2.079  1.00  0.00    -0.267 OA
HETATM    6  C14 UNL     1      -0.317   0.199   1.495  1.00  0.00     0.086 A 
HETATM    7  C33 UNL     1       0.436   1.268   0.982  1.00  0.00     0.157 A 
HETATM    8  N7  UNL     1       1.719   1.032   0.667  1.00  0.00    -0.326 N 
ATOM      9  H7  UNL     1       2.264   1.810   0.295  1.00  0.00     0.169 HD
ENDROOT
BRANCH   6  10
HETATM   10  C15 UNL     1      -1.676   0.407   1.902  1.00  0.00     0.070 C 
BRANCH  10  11
HETATM   11  C16 UNL     1      -2.808   0.299   1.269  1.00  0.00     0.108 A 
HETATM   12  N4  UNL     1      -3.993   0.566   1.909  1.00  0.00    -0.341 N 
HETATM   13  C17 UNL     1      -5.025   0.421   1.077  1.00  0.00     0.046 A 
ATOM     14  H4  UNL     1      -4.073   0.838   2.889  1.00  0.00     0.167 HD
HETATM   15  C27 UNL     1      -4.519   0.054  -0.127  1.00  0.00     0.121 A 
HETATM   16  N6  UNL     1      -3.145  -0.015   0.023  1.00  0.00    -0.341 N 
BRANCH  13  17
HETATM   17  C18 UNL     1      -6.309   0.602   1.362  1.00  0.00     0.013 C 
BRANCH  17  18
HETATM   18  C19 UNL     1      -7.366   0.406   0.335  1.00  0.00     0.132 C 
BRANCH  18  19
HETATM   19  C20 UNL     1      -8.513   1.315   0.561  1.00  0.00     0.224 C 
HETATM   20  O3  UNL     1      -8.470   2.136   1.545  1.00  0.00    -0.273 OA
HETATM   21  N5  UNL     1      -9.687   1.358  -0.234  1.00  0.00    -0.344 N 
BRANCH  21  22
HETATM   22  C21 UNL     1      -9.920   0.507  -1.386  1.00  0.00     0.079 C 
HETATM   23  C22 UNL     1      -9.881  -0.949  -1.052  1.00  0.00     0.032 C 
HETATM   24  C23 UNL     1      -8.861   0.783  -2.414  1.00  0.00     0.032 C 
ENDBRANCH  21  22
BRANCH  21  25
HETATM   25  C24 UNL     1     -10.753   2.307   0.094  1.00  0.00     0.079 C 
HETATM   26  C25 UNL     1     -10.264   3.719   0.089  1.00  0.00     0.032 C 
HETATM   27  C26 UNL     1     -11.295   2.004   1.497  1.00  0.00     0.032 C 
ENDBRANCH  21  25
ENDBRANCH  18  19
ENDBRANCH  17  18
ENDBRANCH  13  17
BRANCH  16  28
HETATM   28  C28 UNL     1      -2.330  -0.367  -1.079  1.00  0.00     0.130 C 
BRANCH  28  29
HETATM   29  C29 UNL     1      -1.981  -1.777  -1.359  1.00  0.00     0.024 C 
BRANCH  29  30
HETATM   30  C30 UNL     1      -3.075  -2.756  -1.606  1.00  0.00    -0.021 C 
HETATM   31  C31 UNL     1      -2.333  -4.092  -1.943  1.00  0.00     0.009 C 
HETATM   32  C32 UNL     1      -3.835  -3.132  -0.334  1.00  0.00     0.009 C 
ENDBRANCH  29  30
ENDBRANCH  28  29
ENDBRANCH  16  28
ENDBRANCH  10  11
ENDBRANCH   6  10
BRANCH   7  33
HETATM   33  O4  UNL     1      -0.184   2.500   0.832  1.00  0.00    -0.345 OA
ATOM     34  H4  UNL     1       0.325   3.223   0.485  1.00  0.00     0.219 HD
ENDBRANCH   7  33
BRANCH   1  35
HETATM   35  C11 UNL     1       3.791  -0.312   0.425  1.00  0.00     0.076 C 
BRANCH  35  36
HETATM   36  C10 UNL     1       4.558   0.007   1.691  1.00  0.00     0.008 C 
BRANCH  36  37
HETATM   37  C9  UNL     1       6.039  -0.083   1.553  1.00  0.00     0.006 C 
BRANCH  37  38
HETATM   38  C8  UNL     1       6.525   0.894   0.504  1.00  0.00     0.051 C 
BRANCH  38  39
HETATM   39  C7  UNL     1       8.023   0.711   0.467  1.00  0.00     0.037 A 
HETATM   40  C6  UNL     1       8.728  -0.310  -0.113  1.00  0.00     0.155 A 
HETATM   41  N2  UNL     1      10.029  -0.273  -0.022  1.00  0.00    -0.317 N 
HETATM   42  C5  UNL     1      10.596   0.746   0.623  1.00  0.00     0.146 A 
ATOM     43  H2  UNL     1      10.601  -1.009  -0.436  1.00  0.00     0.170 HD
HETATM   44  S1  UNL     1       9.262   1.682   1.120  1.00  0.00    -0.054 SA
BRANCH  40  45
HETATM   45  O1  UNL     1       8.029  -1.357  -0.783  1.00  0.00    -0.345 OA
ATOM     46  H1  UNL     1       7.082  -1.384  -0.849  1.00  0.00     0.219 HD
ENDBRANCH  40  45
BRANCH  42  47
HETATM   47  N1  UNL     1      11.880   0.960   0.822  1.00  0.00    -0.370 N 
ATOM     48  H1  UNL     1      12.159   1.793   1.340  1.00  0.00     0.161 HD
BRANCH  47  49
HETATM   49  C4  UNL     1      12.905   0.076   0.344  1.00  0.00     0.121 C 
BRANCH  49  50
HETATM   50  C3  UNL     1      13.173   0.367  -1.105  1.00  0.00     0.019 C 
BRANCH  50  51
HETATM   51  C2  UNL     1      14.252  -0.528  -1.680  1.00  0.00    -0.003 C 
HETATM   52  C1  UNL     1      15.563  -0.350  -0.942  1.00  0.00     0.005 C 
ENDBRANCH  50  51
ENDBRANCH  49  50
ENDBRANCH  47  49
ENDBRANCH  42  47
ENDBRANCH  38  39
ENDBRANCH  37  38
ENDBRANCH  36  37
ENDBRANCH  35  36
ENDBRANCH   1  35
TORSDOF 21
