REMARK  6 active torsions:
REMARK  status: ('A' for Active; 'I' for Inactive)
REMARK    1  A    between atoms: C3_5  and  O1_6 
REMARK    2  A    between atoms: O1_6  and  C4_7 
REMARK    3  A    between atoms: C4_7  and  N3_8 
REMARK    4  A    between atoms: N3_8  and  N4_9 
REMARK    5  A    between atoms: N4_9  and  O2_11 
REMARK    6  A    between atoms: C5_13  and  O3_14 
ROOT
HETATM    1  N1  UNL     1      -4.076   2.822  -0.520  1.00  0.00    -0.171 NA
HETATM    2  C1  UNL     1      -3.310   1.937  -0.435  1.00  0.00     0.190 C 
HETATM    3  N2  UNL     1      -2.388   0.886  -0.315  1.00  0.00    -0.256 N 
HETATM    4  C2  UNL     1      -1.124   1.027  -0.996  1.00  0.00     0.184 C 
HETATM    5  C3  UNL     1      -0.015   0.239  -0.336  1.00  0.00     0.179 C 
HETATM    6  C5  UNL     1      -0.382  -1.213  -0.156  1.00  0.00     0.160 C 
HETATM    7  C6  UNL     1      -1.280  -1.402   1.047  1.00  0.00     0.132 C 
HETATM    8  S1  UNL     1      -2.833  -0.513   0.648  1.00  0.00    -0.041 SA
ENDROOT
BRANCH   5   9
HETATM    9  O1  UNL     1       1.084   0.288  -1.228  1.00  0.00    -0.324 OA
BRANCH   9  10
HETATM   10  C4  UNL     1       2.272  -0.325  -0.920  1.00  0.00     0.348 C 
BRANCH  10  11
HETATM   11  N3  UNL     1       2.670  -0.349   0.264  1.00  0.00    -0.293 NA
BRANCH  11  12
HETATM   12  N4  UNL     1       3.036  -0.117   1.438  1.00  0.00    -0.141 N 
ATOM     13  H4  UNL     1       2.792  -0.718   2.225  1.00  0.00     0.231 HD
BRANCH  12  14
HETATM   14  O2  UNL     1       3.807   1.037   1.574  1.00  0.00    -0.264 OA
ATOM     15  H2  UNL     1       4.085   1.213   2.465  1.00  0.00     0.247 HD
ENDBRANCH  12  14
ENDBRANCH  11  12
ENDBRANCH  10  11
ENDBRANCH   9  10
ENDBRANCH   5   9
BRANCH   6  16
HETATM   16  O3  UNL     1      -0.975  -1.686  -1.323  1.00  0.00    -0.392 OA
ATOM     17  H3  UNL     1      -1.206  -2.600  -1.210  1.00  0.00     0.210 HD
ENDBRANCH   6  16
TORSDOF 6
