REMARK  3 active torsions:
REMARK  status: ('A' for Active; 'I' for Inactive)
REMARK    1  A    between atoms: C2_2  and  C5_6 
REMARK    2  A    between atoms: C7_8  and  C8_9 
REMARK    3  A    between atoms: C7_8  and  N3_17 
ROOT
HETATM    1  C1  UNL     1      -2.433  -1.725   1.324  1.00  0.00     0.031 C 
HETATM    2  C2  UNL     1      -2.435  -0.747   0.136  1.00  0.00     0.048 C 
HETATM    3  C3  UNL     1      -3.078  -1.576  -1.005  1.00  0.00     0.031 C 
HETATM    4  C4  UNL     1      -3.226   0.414   0.388  1.00  0.00     0.069 C 
HETATM    5  N1  UNL     1      -3.889   1.336   0.588  1.00  0.00    -0.196 NA
ENDROOT
BRANCH   2   6
HETATM    6  C5  UNL     1      -1.047  -0.517  -0.265  1.00  0.00     0.040 A 
HETATM    7  C6  UNL     1      -0.932   0.474  -1.462  1.00  0.00     0.043 A 
HETATM    8  C7  UNL     1      -0.174   0.622  -0.185  1.00  0.00     0.064 A 
BRANCH   8   9
HETATM    9  C8  UNL     1       1.344   0.323  -0.221  1.00  0.00     0.019 C 
HETATM   10  C9  UNL     1       1.746  -0.560   0.942  1.00  0.00     0.034 C 
HETATM   11  C10 UNL     1       3.255  -0.490   1.050  1.00  0.00     0.232 C 
HETATM   12  N2  UNL     1       3.843  -0.292  -0.235  1.00  0.00    -0.075 N 
HETATM   13  C11 UNL     1       3.125  -0.924  -1.318  1.00  0.00     0.232 C 
ATOM     14  H22 UNL     1       3.967   0.703  -0.421  1.00  0.00     0.277 HD
ATOM     15  H21 UNL     1       4.818  -0.590  -0.231  1.00  0.00     0.277 HD
HETATM   16  C12 UNL     1       1.756  -0.324  -1.515  1.00  0.00     0.034 C 
ENDBRANCH   8   9
BRANCH   8  17
HETATM   17  N3  UNL     1      -0.421   1.855   0.518  1.00  0.00    -0.276 N 
HETATM   18  C13 UNL     1      -0.595   3.041  -0.067  1.00  0.00     0.202 A 
HETATM   19  N4  UNL     1      -0.790   3.959   0.902  1.00  0.00    -0.346 N 
HETATM   20  C14 UNL     1      -0.734   3.328   2.084  1.00  0.00     0.198 A 
ATOM     21  H4  UNL     1      -0.951   4.956   0.761  1.00  0.00     0.167 HD
HETATM   22  N5  UNL     1      -0.506   2.035   1.812  1.00  0.00    -0.292 N 
ATOM     23  H5  UNL     1      -0.412   1.299   2.512  1.00  0.00     0.188 HD
ENDBRANCH   8  17
ENDBRANCH   2   6
TORSDOF 3
