REMARK  5 active torsions:
REMARK  status: ('A' for Active; 'I' for Inactive)
REMARK    1  A    between atoms: C2_2  and  C3_3 
REMARK    2  A    between atoms: C6_6  and  N1_7 
REMARK       I    between atoms: N1_7  and  C7_9 
REMARK    3  A    between atoms: C7_9  and  C8_11 
REMARK    4  A    between atoms: C8_11  and  N2_12 
REMARK    5  A    between atoms: C10_17  and  C11_18 
ROOT
HETATM    1  N2  UNL     1      -0.792  -0.043  -0.711  1.00  0.00    -0.265 N 
HETATM    2  N3  UNL     1      -0.925  -1.092   0.103  1.00  0.00    -0.019 NA
HETATM    3  N4  UNL     1      -1.988  -0.929   0.875  1.00  0.00    -0.281 N 
ATOM      4  H4  UNL     1      -2.313  -1.586   1.585  1.00  0.00     0.184 HD
HETATM    5  C9  UNL     1      -2.570   0.245   0.570  1.00  0.00     0.087 A 
HETATM    6  C10 UNL     1      -3.692   0.912   1.052  1.00  0.00     0.027 A 
HETATM    7  C16 UNL     1      -4.066   2.154   0.530  1.00  0.00    -0.047 A 
HETATM    8  C17 UNL     1      -5.259   2.806   1.082  1.00  0.00     0.049 C 
HETATM    9  C18 UNL     1      -3.289   2.692  -0.475  1.00  0.00     0.010 A 
HETATM   10  C19 UNL     1      -2.163   2.026  -0.961  1.00  0.00     0.034 A 
HETATM   11  C20 UNL     1      -1.808   0.802  -0.435  1.00  0.00     0.078 A 
ENDROOT
BRANCH   1  12
HETATM   12  C8  UNL     1       0.267   0.103  -1.686  1.00  0.00     0.250 C 
BRANCH  12  13
HETATM   13  C7  UNL     1       1.414   0.794  -1.055  1.00  0.00     0.242 C 
HETATM   14  N1  UNL     1       2.614   1.077  -1.792  1.00  0.00    -0.312 N 
ATOM     15  H1  UNL     1       2.685   1.948  -2.318  1.00  0.00     0.170 HD
HETATM   16  O1  UNL     1       1.333   1.140   0.152  1.00  0.00    -0.271 OA
BRANCH  14  17
HETATM   17  C6  UNL     1       3.591   0.260  -1.801  1.00  0.00     0.107 A 
HETATM   18  C5  UNL     1       4.720   0.581  -2.525  1.00  0.00     0.049 A 
HETATM   19  C4  UNL     1       5.752  -0.330  -2.508  1.00  0.00     0.012 A 
HETATM   20  C3  UNL     1       5.687  -1.506  -1.814  1.00  0.00    -0.043 A 
HETATM   21  C21 UNL     1       4.524  -1.782  -1.099  1.00  0.00     0.096 A 
HETATM   22  N6  UNL     1       3.502  -0.893  -1.108  1.00  0.00    -0.352 N 
ATOM     23  H6  UNL     1       2.652  -1.099  -0.583  1.00  0.00     0.166 HD
BRANCH  20  24
HETATM   24  C2  UNL     1       6.821  -2.455  -1.825  1.00  0.00     0.035 C 
HETATM   25  C1  UNL     1       7.725  -2.081  -0.659  1.00  0.00     0.010 C 
ENDBRANCH  20  24
ENDBRANCH  14  17
ENDBRANCH  12  13
ENDBRANCH   1  12
BRANCH   6  26
HETATM   26  C11 UNL     1      -4.500   0.323   2.117  1.00  0.00     0.045 A 
HETATM   27  C12 UNL     1      -5.555  -0.502   1.775  1.00  0.00     0.030 A 
HETATM   28  C13 UNL     1      -6.355  -1.087   2.740  1.00  0.00     0.004 A 
HETATM   29  C14 UNL     1      -6.101  -0.850   4.076  1.00  0.00     0.017 A 
HETATM   30  C15 UNL     1      -5.039  -0.022   4.376  1.00  0.00     0.088 A 
HETATM   31  N5  UNL     1      -4.272   0.539   3.421  1.00  0.00    -0.365 N 
ATOM     32  H5  UNL     1      -3.498   1.144   3.697  1.00  0.00     0.165 HD
ENDBRANCH   6  26
TORSDOF 5
