REMARK  6 active torsions:
REMARK  status: ('A' for Active; 'I' for Inactive)
REMARK    1  A    between atoms: C7_9  and  O3_10 
REMARK    2  A    between atoms: O3_10  and  C8_11 
REMARK    3  A    between atoms: C11_15  and  C12_16 
REMARK    4  A    between atoms: C13_17  and  C14_18 
REMARK    5  A    between atoms: C15_19  and  C16_20 
REMARK    6  A    between atoms: C16_20  and  O5_21 
ROOT
HETATM    1  C1  UNL     1      -4.603   0.881   1.629  1.00  0.00     0.025 C 
HETATM    2  C2  UNL     1      -4.053  -0.137   0.992  1.00  0.00     0.015 C 
HETATM    3  C3  UNL     1      -4.464  -1.540   1.099  1.00  0.00     0.289 C 
HETATM    4  O1  UNL     1      -5.605  -1.958   1.492  1.00  0.00    -0.260 OA
HETATM    5  O2  UNL     1      -3.378  -2.289   0.693  1.00  0.00    -0.311 OA
HETATM    6  C4  UNL     1      -2.738  -1.559  -0.325  1.00  0.00     0.149 C 
HETATM    7  C5  UNL     1      -2.940  -0.083   0.056  1.00  0.00     0.061 C 
HETATM    8  C6  UNL     1      -1.607   0.264   0.591  1.00  0.00     0.036 C 
HETATM    9  C7  UNL     1      -1.244   1.708   0.679  1.00  0.00     0.160 C 
HETATM   10  C10 UNL     1       0.185   1.713   1.164  1.00  0.00     0.013 C 
HETATM   11  C11 UNL     1       1.072   0.831   0.767  1.00  0.00    -0.055 C 
HETATM   12  C17 UNL     1       0.741  -0.256  -0.204  1.00  0.00     0.019 C 
HETATM   13  C18 UNL     1       1.365   0.146  -1.549  1.00  0.00     0.015 C 
HETATM   14  C19 UNL     1      -0.718  -0.413  -0.466  1.00  0.00     0.012 C 
HETATM   15  C20 UNL     1      -1.243  -1.798  -0.340  1.00  0.00    -0.015 C 
HETATM   16  C21 UNL     1      -0.843  -2.700  -1.482  1.00  0.00     0.018 C 
HETATM   17  C22 UNL     1      -0.791  -2.446   0.962  1.00  0.00     0.018 C 
ENDROOT
BRANCH  11  18
HETATM   18  C12 UNL     1       2.426   0.900   1.279  1.00  0.00     0.007 C 
HETATM   19  C13 UNL     1       3.406   0.061   0.948  1.00  0.00     0.000 C 
BRANCH  19  20
HETATM   20  C14 UNL     1       4.733   0.205   1.509  1.00  0.00    -0.002 C 
HETATM   21  C15 UNL     1       5.712  -0.605   1.202  1.00  0.00    -0.001 C 
BRANCH  21  22
HETATM   22  C16 UNL     1       5.620  -1.747   0.273  1.00  0.00     0.191 C 
BRANCH  22  23
HETATM   23  O5  UNL     1       6.507  -1.606  -0.806  1.00  0.00    -0.397 OA
ATOM     24  H5  UNL     1       6.448  -2.342  -1.404  1.00  0.00     0.209 HD
ENDBRANCH  22  23
ENDBRANCH  21  22
ENDBRANCH  19  20
ENDBRANCH  11  18
BRANCH   9  25
HETATM   25  O3  UNL     1      -1.233   2.374  -0.545  1.00  0.00    -0.312 OA
BRANCH  25  26
HETATM   26  C8  UNL     1      -2.000   3.519  -0.686  1.00  0.00     0.255 C 
HETATM   27  C9  UNL     1      -2.043   4.289  -1.962  1.00  0.00     0.126 C 
HETATM   28  O4  UNL     1      -2.704   3.978   0.252  1.00  0.00    -0.266 OA
ENDBRANCH  25  26
ENDBRANCH   9  25
TORSDOF 6
