REMARK  6 active torsions:
REMARK  status: ('A' for Active; 'I' for Inactive)
REMARK    1  A    between atoms: N1_1  and  N2_4 
REMARK       I    between atoms: N2_4  and  C1_6 
REMARK       I    between atoms: N4_8  and  C2_10 
REMARK    2  A    between atoms: C2_10  and  C3_12 
REMARK    3  A    between atoms: C3_12  and  N5_13 
REMARK    4  A    between atoms: N5_13  and  N6_14 
REMARK       I    between atoms: N6_14  and  C4_16 
REMARK    5  A    between atoms: C4_16  and  C5_18 
REMARK    6  A    between atoms: C5_18  and  N7_19 
ROOT
HETATM    1  C3  UNL     1       2.059  -0.876  -0.329  1.00  0.00     0.238 C 
ENDROOT
BRANCH   1   2
HETATM    2  C2  UNL     1       3.489  -0.713  -0.532  1.00  0.00     0.240 C 
HETATM    3  N4  UNL     1       4.110   0.508  -0.872  1.00  0.00    -0.299 N 
HETATM    4  C1  UNL     1       5.360   0.736  -0.596  1.00  0.00     0.209 C 
ATOM      5  H4  UNL     1       3.565   1.229  -1.346  1.00  0.00     0.171 HD
HETATM    6  N2  UNL     1       6.111  -0.262   0.054  1.00  0.00    -0.280 N 
HETATM    7  N3  UNL     1       5.941   1.971  -0.956  1.00  0.00    -0.062 NA
ATOM      8  H2  UNL     1       5.837  -0.524   1.001  1.00  0.00     0.189 HD
HETATM    9  O1  UNL     1       4.208  -1.756  -0.386  1.00  0.00    -0.272 OA
BRANCH   6  10
HETATM   10  N1  UNL     1       7.198  -0.912  -0.508  1.00  0.00    -0.343 N 
ATOM     11  H12 UNL     1       7.458  -0.638  -1.455  1.00  0.00     0.176 HD
ATOM     12  H11 UNL     1       7.742  -1.635  -0.037  1.00  0.00     0.176 HD
ENDBRANCH   6  10
ENDBRANCH   1   2
BRANCH   1  13
HETATM   13  N5  UNL     1       1.356   0.376  -0.537  1.00  0.00    -0.130 NA
BRANCH  13  14
HETATM   14  N6  UNL     1      -0.027   0.156  -0.357  1.00  0.00    -0.272 N 
HETATM   15  C4  UNL     1      -0.550   0.120   0.941  1.00  0.00     0.261 C 
HETATM   16  O2  UNL     1       0.277   0.310   1.908  1.00  0.00    -0.270 OA
ATOM     17  H6  UNL     1      -0.638   0.025  -1.163  1.00  0.00     0.185 HD
BRANCH  15  18
HETATM   18  C5  UNL     1      -1.955  -0.122   1.299  1.00  0.00     0.375 C 
BRANCH  18  19
HETATM   19  N7  UNL     1      -2.843  -0.304   0.164  1.00  0.00     0.097 N 
HETATM   20  C6  UNL     1      -4.058  -0.903   0.795  1.00  0.00     0.273 C 
HETATM   21  C7  UNL     1      -4.994  -1.228  -0.357  1.00  0.00     0.030 C 
HETATM   22  C8  UNL     1      -5.543   0.112  -0.798  1.00  0.00     0.003 C 
HETATM   23  C9  UNL     1      -4.468   1.093  -1.082  1.00  0.00     0.030 C 
HETATM   24  C10 UNL     1      -3.226   1.027  -0.289  1.00  0.00     0.273 C 
ENDBRANCH  18  19
ENDBRANCH  15  18
ENDBRANCH  13  14
ENDBRANCH   1  13
TORSDOF 6
