REMARK  7 active torsions:
REMARK  status: ('A' for Active; 'I' for Inactive)
REMARK    1  A    between atoms: C2_2  and  N1_3 
REMARK    2  A    between atoms: C3_5  and  C4_6 
REMARK    3  A    between atoms: C3_5  and  N4_12 
REMARK    4  A    between atoms: C4_6  and  N2_7 
REMARK       I    between atoms: N2_7  and  C5_9 
REMARK    5  A    between atoms: N4_12  and  N5_14 
REMARK       I    between atoms: N5_14  and  C6_16 
REMARK    6  A    between atoms: C6_16  and  C7_18 
REMARK    7  A    between atoms: C7_18  and  N6_19 
REMARK       I    between atoms: N6_19  and  C8_21 
ROOT
HETATM    1  N4  UNL     1      -0.288  -0.296   0.371  1.00  0.00    -0.285 N 
ATOM      2  H4  UNL     1      -0.335  -0.261   1.389  1.00  0.00     0.188 HD
ENDROOT
BRANCH   1   3
HETATM    3  C3  UNL     1      -1.486  -0.585  -0.374  1.00  0.00     0.110 C 
HETATM    4  N1  UNL     1      -1.703  -1.805  -0.612  1.00  0.00    -0.378 N 
ATOM      5  H1  UNL     1      -0.984  -2.442  -0.269  1.00  0.00     0.160 HD
BRANCH   4   6
HETATM    6  C2  UNL     1      -2.785  -2.434  -1.280  1.00  0.00     0.116 C 
HETATM    7  C1  UNL     1      -3.916  -2.814  -0.332  1.00  0.00     0.026 C 
ENDBRANCH   4   6
BRANCH   3   8
HETATM    8  C4  UNL     1      -2.423   0.469  -0.807  1.00  0.00     0.201 C 
BRANCH   8   9
HETATM    9  N2  UNL     1      -3.223   0.990   0.298  1.00  0.00    -0.338 N 
HETATM   10  C5  UNL     1      -4.156   1.999  -0.030  1.00  0.00     0.329 C 
HETATM   11  N3  UNL     1      -5.006   2.589   0.979  1.00  0.00    -0.040 NA
HETATM   12  O1  UNL     1      -4.327   2.457  -1.183  1.00  0.00    -0.251 OA
ATOM     13  H2  UNL     1      -3.114   0.645   1.252  1.00  0.00     0.164 HD
ENDBRANCH   8   9
ENDBRANCH   3   8
ENDBRANCH   1   3
BRANCH   1  14
HETATM   14  N5  UNL     1       0.933  -0.063  -0.258  1.00  0.00    -0.267 N 
HETATM   15  C6  UNL     1       2.153   0.049   0.445  1.00  0.00     0.253 C 
HETATM   16  O2  UNL     1       2.119  -0.071   1.697  1.00  0.00    -0.270 OA
ATOM     17  H5  UNL     1       0.947   0.031  -1.274  1.00  0.00     0.190 HD
BRANCH  15  18
HETATM   18  C7  UNL     1       3.395   0.299  -0.326  1.00  0.00     0.227 C 
BRANCH  18  19
HETATM   19  N6  UNL     1       4.573   0.378   0.485  1.00  0.00    -0.353 N 
HETATM   20  C8  UNL     1       5.820   0.619  -0.131  1.00  0.00     0.213 C 
HETATM   21  C9  UNL     1       7.089   0.712   0.611  1.00  0.00     0.117 C 
HETATM   22  O3  UNL     1       5.830   0.762  -1.397  1.00  0.00    -0.274 OA
ATOM     23  H6  UNL     1       4.511   0.261   1.496  1.00  0.00     0.162 HD
ENDBRANCH  18  19
ENDBRANCH  15  18
ENDBRANCH   1  14
TORSDOF 7
