REMARK  6 active torsions:
REMARK  status: ('A' for Active; 'I' for Inactive)
REMARK       I    between atoms: C1_4  and  N2_5 
REMARK       I    between atoms: C1_4  and  N4_12 
REMARK    1  A    between atoms: N2_5  and  C2_7 
REMARK    2  A    between atoms: C2_7  and  C3_8 
REMARK    3  A    between atoms: C3_8  and  C4_9 
REMARK    4  A    between atoms: N5_15  and  C7_16 
REMARK    5  A    between atoms: C7_16  and  C8_17 
REMARK       I    between atoms: C8_17  and  N6_19 
REMARK    6  A    between atoms: N6_19  and  N7_21 
ROOT
HETATM    1  N1  UNL     1       1.816  -2.029  -1.336  1.00  0.00    -0.235 N 
ATOM      2  H11 UNL     1       1.067  -2.577  -1.761  1.00  0.00     0.174 HD
ATOM      3  H12 UNL     1       2.783  -2.151  -1.636  1.00  0.00     0.174 HD
HETATM    4  C1  UNL     1       1.537  -1.183  -0.421  1.00  0.00     0.669 C 
HETATM    5  N2  UNL     1       2.572  -0.426   0.166  1.00  0.00    -0.226 N 
ATOM      6  H2  UNL     1       2.361   0.480   0.585  1.00  0.00     0.177 HD
HETATM    7  N4  UNL     1       0.201  -1.014  -0.006  1.00  0.00    -0.215 N 
HETATM    8  C5  UNL     1      -0.358   0.336  -0.072  1.00  0.00     0.160 C 
HETATM    9  C6  UNL     1      -1.600   0.212  -0.929  1.00  0.00     0.137 C 
HETATM   10  N5  UNL     1      -2.560  -0.676  -0.377  1.00  0.00    -0.401 N 
HETATM   11  C9  UNL     1      -2.057  -1.973  -0.102  1.00  0.00     0.137 C 
HETATM   12  C10 UNL     1      -0.679  -2.038   0.479  1.00  0.00     0.160 C 
ENDROOT
BRANCH   5  13
HETATM   13  C2  UNL     1       3.913  -0.916   0.179  1.00  0.00     0.147 C 
BRANCH  13  14
HETATM   14  C3  UNL     1       4.877   0.032   0.856  1.00  0.00     0.119 C 
BRANCH  14  15
HETATM   15  C4  UNL     1       4.919   1.351   0.181  1.00  0.00     0.232 C 
HETATM   16  N3  UNL     1       5.768   2.358   0.689  1.00  0.00    -0.062 NA
HETATM   17  O1  UNL     1       4.229   1.635  -0.840  1.00  0.00    -0.277 OA
ENDBRANCH  14  15
ENDBRANCH  13  14
ENDBRANCH   5  13
BRANCH  10  18
HETATM   18  C7  UNL     1      -3.485  -0.153   0.555  1.00  0.00     0.221 C 
BRANCH  18  19
HETATM   19  C8  UNL     1      -4.449   0.785  -0.070  1.00  0.00     0.253 C 
HETATM   20  O2  UNL     1      -4.390   1.031  -1.284  1.00  0.00    -0.270 OA
HETATM   21  N6  UNL     1      -5.469   1.432   0.693  1.00  0.00    -0.275 N 
ATOM     22  H6  UNL     1      -5.542   1.248   1.694  1.00  0.00     0.189 HD
BRANCH  21  23
HETATM   23  N7  UNL     1      -6.367   2.313   0.088  1.00  0.00    -0.343 N 
ATOM     24  H72 UNL     1      -6.280   2.486  -0.913  1.00  0.00     0.176 HD
ATOM     25  H71 UNL     1      -7.095   2.775   0.633  1.00  0.00     0.176 HD
ENDBRANCH  21  23
ENDBRANCH  18  19
ENDBRANCH  10  18
TORSDOF 6
