REMARK  16 active torsions:
REMARK  status: ('A' for Active; 'I' for Inactive)
REMARK    1  A    between atoms: C2_2  and  C3_3 
REMARK    2  A    between atoms: C3_3  and  O1_4 
REMARK    3  A    between atoms: C3_3  and  N1_6 
REMARK    4  A    between atoms: C6_9  and  N2_10 
REMARK    5  A    between atoms: C8_12  and  C9_13 
REMARK    6  A    between atoms: C15_21  and  C16_22 
REMARK    7  A    between atoms: C16_22  and  O4_23 
REMARK    8  A    between atoms: C16_22  and  N3_25 
REMARK    9  A    between atoms: N3_25  and  C17_27 
REMARK   10  A    between atoms: C17_27  and  C18_28 
REMARK   11  A    between atoms: C18_28  and  C19_29 
REMARK       I    between atoms: C19_29  and  N4_31 
REMARK   12  A    between atoms: N4_31  and  C20_33 
REMARK   13  A    between atoms: C20_33  and  C21_34 
REMARK   14  A    between atoms: C21_34  and  N5_35 
REMARK   15  A    between atoms: N5_35  and  C22_36 
REMARK   16  A    between atoms: N5_35  and  C24_38 
ROOT
HETATM    1  N2  UNL     1       4.774   0.759  -0.454  1.00  0.00    -0.344 N 
HETATM    2  C7  UNL     1       5.602   1.667  -1.021  1.00  0.00     0.111 A 
HETATM    3  C8  UNL     1       5.085   2.596  -1.891  1.00  0.00     0.076 A 
HETATM    4  C11 UNL     1       3.743   2.600  -2.180  1.00  0.00     0.200 A 
HETATM    5  O3  UNL     1       3.382   3.493  -2.990  1.00  0.00    -0.286 OA
HETATM    6  C12 UNL     1       2.846   1.675  -1.612  1.00  0.00     0.056 A 
HETATM    7  C13 UNL     1       1.512   1.534  -1.787  1.00  0.00    -0.024 A 
HETATM    8  C14 UNL     1       0.668   2.443  -2.671  1.00  0.00     0.050 C 
HETATM    9  C15 UNL     1       0.884   0.535  -1.110  1.00  0.00     0.064 A 
HETATM   10  S1  UNL     1       2.208  -0.190  -0.233  1.00  0.00    -0.067 SA
HETATM   11  C26 UNL     1       3.459   0.798  -0.765  1.00  0.00     0.092 A 
ENDROOT
BRANCH   9  12
HETATM   12  C16 UNL     1      -0.509   0.066  -1.028  1.00  0.00     0.153 C 
BRANCH  12  13
HETATM   13  O4  UNL     1      -0.716  -0.941  -0.206  1.00  0.00    -0.345 OA
ATOM     14  H4  UNL     1      -1.615  -1.244  -0.153  1.00  0.00     0.219 HD
ENDBRANCH  12  13
BRANCH  12  15
HETATM   15  N3  UNL     1      -1.639   0.507  -1.673  1.00  0.00    -0.369 N 
ATOM     16  H3  UNL     1      -1.562   1.276  -2.339  1.00  0.00     0.161 HD
BRANCH  15  17
HETATM   17  C17 UNL     1      -2.939  -0.091  -1.433  1.00  0.00     0.131 C 
BRANCH  17  18
HETATM   18  C18 UNL     1      -3.432   0.049  -0.021  1.00  0.00     0.122 C 
BRANCH  18  19
HETATM   19  C19 UNL     1      -4.793  -0.611   0.031  1.00  0.00     0.219 C 
HETATM   20  O5  UNL     1      -5.275  -1.123  -1.004  1.00  0.00    -0.274 OA
HETATM   21  N4  UNL     1      -5.514  -0.643   1.255  1.00  0.00    -0.359 N 
ATOM     22  H4  UNL     1      -5.069  -0.212   2.066  1.00  0.00     0.162 HD
BRANCH  21  23
HETATM   23  C20 UNL     1      -6.808  -1.224   1.456  1.00  0.00     0.142 C 
BRANCH  23  24
HETATM   24  C21 UNL     1      -7.825  -0.531   0.600  1.00  0.00     0.146 C 
BRANCH  24  25
HETATM   25  N5  UNL     1      -9.126  -1.060   0.783  1.00  0.00    -0.373 N 
BRANCH  25  26
HETATM   26  C22 UNL     1      -9.779  -0.850   2.010  1.00  0.00     0.058 C 
HETATM   27  C23 UNL     1     -10.179   0.565   2.310  1.00  0.00     0.055 C 
ENDBRANCH  25  26
BRANCH  25  28
HETATM   28  C24 UNL     1      -9.887  -1.223  -0.390  1.00  0.00     0.058 C 
HETATM   29  C25 UNL     1      -9.247  -2.341  -1.210  1.00  0.00     0.055 C 
ENDBRANCH  25  28
ENDBRANCH  24  25
ENDBRANCH  23  24
ENDBRANCH  21  23
ENDBRANCH  18  19
ENDBRANCH  17  18
ENDBRANCH  15  17
ENDBRANCH  12  15
ENDBRANCH   9  12
BRANCH   1  30
HETATM   30  C6  UNL     1       5.356  -0.178   0.435  1.00  0.00     0.093 C 
HETATM   31  C5  UNL     1       6.212  -1.212  -0.316  1.00  0.00     0.045 C 
HETATM   32  C4  UNL     1       6.685  -2.256   0.706  1.00  0.00     0.127 C 
HETATM   33  N1  UNL     1       6.777  -1.576   1.967  1.00  0.00    -0.362 N 
HETATM   34  C28 UNL     1       5.416  -1.346   2.567  1.00  0.00     0.127 C 
HETATM   35  C27 UNL     1       4.503  -0.876   1.413  1.00  0.00     0.045 C 
BRANCH  33  36
HETATM   36  C3  UNL     1       7.905  -1.091   2.648  1.00  0.00     0.137 C 
BRANCH  36  37
HETATM   37  C2  UNL     1       9.289  -1.057   2.283  1.00  0.00     0.045 C 
HETATM   38  C1  UNL     1       9.901  -1.444   1.212  1.00  0.00     0.015 C 
ENDBRANCH  36  37
BRANCH  36  39
HETATM   39  O1  UNL     1       7.671  -0.569   3.836  1.00  0.00    -0.346 OA
ATOM     40  H1  UNL     1       6.753  -0.592   4.078  1.00  0.00     0.219 HD
ENDBRANCH  36  39
ENDBRANCH  33  36
ENDBRANCH   1  30
BRANCH   3  41
HETATM   41  C9  UNL     1       5.984   3.597  -2.518  1.00  0.00     0.161 C 
HETATM   42  C10 UNL     1       7.444   3.560  -2.154  1.00  0.00     0.097 C 
HETATM   43  O2  UNL     1       5.503   4.421  -3.313  1.00  0.00    -0.293 OA
ENDBRANCH   3  41
TORSDOF 16
