REMARK  14 active torsions:
REMARK  status: ('A' for Active; 'I' for Inactive)
REMARK    1  A    between atoms: C2_2  and  C4_4 
REMARK    2  A    between atoms: C6_6  and  C7_7 
REMARK    3  A    between atoms: C7_7  and  N1_8 
REMARK       I    between atoms: N1_8  and  C8_10 
REMARK    4  A    between atoms: C8_10  and  C9_12 
REMARK    5  A    between atoms: C9_12  and  C10_13 
REMARK    6  A    between atoms: C10_13  and  N2_14 
REMARK    7  A    between atoms: N3_17  and  C13_18 
REMARK    8  A    between atoms: C13_18  and  C14_19 
REMARK    9  A    between atoms: N4_21  and  C16_22 
REMARK   10  A    between atoms: C16_22  and  C17_23 
REMARK   11  A    between atoms: C17_23  and  C18_24 
REMARK   12  A    between atoms: C18_24  and  N5_25 
REMARK   13  A    between atoms: C26_38  and  C27_39 
REMARK   14  A    between atoms: C32_44  and  O2_45 
ROOT
HETATM    1  N2  UNL     1      -0.266  -0.084  -0.060  1.00  0.00    -0.386 N 
HETATM    2  C11 UNL     1      -0.516   1.091  -0.667  1.00  0.00     0.152 C 
HETATM    3  C12 UNL     1       0.549   2.148  -0.231  1.00  0.00     0.292 C 
HETATM    4  N3  UNL     1       1.836   1.532   0.032  1.00  0.00     0.097 N 
HETATM    5  C24 UNL     1       1.752   0.571   1.091  1.00  0.00     0.292 C 
HETATM    6  C25 UNL     1       0.295   0.169   1.312  1.00  0.00     0.152 C 
ENDROOT
BRANCH   1   7
HETATM    7  C10 UNL     1      -0.658  -1.391  -0.174  1.00  0.00     0.091 C 
BRANCH   7   8
HETATM    8  C9  UNL     1      -2.007  -1.813   0.201  1.00  0.00     0.091 C 
BRANCH   8   9
HETATM    9  C8  UNL     1      -3.198  -1.574  -0.563  1.00  0.00     0.246 C 
HETATM   10  N1  UNL     1      -4.432  -1.235   0.026  1.00  0.00    -0.333 N 
ATOM     11  H1  UNL     1      -4.489  -1.002   1.017  1.00  0.00     0.168 HD
HETATM   12  O1  UNL     1      -3.138  -1.704  -1.837  1.00  0.00    -0.268 OA
BRANCH  10  13
HETATM   13  C7  UNL     1      -5.616  -1.224  -0.804  1.00  0.00     0.103 C 
BRANCH  13  14
HETATM   14  C6  UNL     1      -6.831  -0.660  -0.259  1.00  0.00    -0.013 A 
HETATM   15  C5  UNL     1      -6.898   0.753  -0.093  1.00  0.00     0.023 A 
HETATM   16  C4  UNL     1      -8.054   1.430   0.165  1.00  0.00    -0.021 A 
HETATM   17  C32 UNL     1      -9.230   0.708   0.282  1.00  0.00     0.072 A 
HETATM   18  C31 UNL     1      -9.189  -0.651   0.129  1.00  0.00     0.046 A 
HETATM   19  C26 UNL     1      -8.000  -1.342  -0.140  1.00  0.00    -0.036 A 
BRANCH  16  20
HETATM   20  C2  UNL     1      -8.133   2.876   0.198  1.00  0.00     0.013 C 
HETATM   21  C1  UNL     1      -6.849   3.559   0.505  1.00  0.00     0.015 C 
HETATM   22  C3  UNL     1      -9.228   3.487   1.022  1.00  0.00     0.015 C 
ENDBRANCH  16  20
BRANCH  17  23
HETATM   23  O2  UNL     1     -10.455   1.289   0.550  1.00  0.00    -0.360 OA
ATOM     24  H2  UNL     1     -11.262   0.794   0.630  1.00  0.00     0.217 HD
ENDBRANCH  17  23
BRANCH  19  25
HETATM   25  C27 UNL     1      -8.022  -2.806  -0.160  1.00  0.00    -0.023 C 
HETATM   26  C28 UNL     1      -7.618  -3.560  -1.367  1.00  0.00     0.019 C 
HETATM   27  C29 UNL     1      -7.164  -3.314   1.060  1.00  0.00     0.019 C 
HETATM   28  C30 UNL     1      -9.425  -3.280   0.228  1.00  0.00     0.019 C 
ENDBRANCH  19  25
ENDBRANCH  13  14
ENDBRANCH  10  13
ENDBRANCH   8   9
ENDBRANCH   7   8
ENDBRANCH   1   7
BRANCH   4  29
HETATM   29  C13 UNL     1       2.489   1.081  -1.150  1.00  0.00     0.332 C 
BRANCH  29  30
HETATM   30  C14 UNL     1       3.809   0.489  -0.939  1.00  0.00     0.072 A 
HETATM   31  C15 UNL     1       4.561   0.354   0.177  1.00  0.00     0.140 A 
HETATM   32  N4  UNL     1       5.731  -0.302  -0.117  1.00  0.00    -0.287 N 
HETATM   33  N7  UNL     1       5.701  -0.557  -1.384  1.00  0.00    -0.241 N 
HETATM   34  N8  UNL     1       4.561  -0.103  -1.933  1.00  0.00    -0.287 N 
ATOM     35  H7  UNL     1       6.441  -1.037  -1.897  1.00  0.00     0.208 HD
ATOM     36  H8  UNL     1       4.297  -0.182  -2.915  1.00  0.00     0.188 HD
BRANCH  32  37
HETATM   37  C16 UNL     1       6.708  -0.644   0.911  1.00  0.00     0.151 C 
BRANCH  37  38
HETATM   38  C17 UNL     1       7.635   0.518   1.152  1.00  0.00     0.052 C 
BRANCH  38  39
HETATM   39  C18 UNL     1       8.470   0.876  -0.045  1.00  0.00     0.274 C 
BRANCH  39  40
HETATM   40  N5  UNL     1       9.367  -0.252  -0.331  1.00  0.00     0.091 N 
HETATM   41  C19 UNL     1      10.212   0.068  -1.481  1.00  0.00     0.302 C 
HETATM   42  C20 UNL     1      11.299   1.016  -1.095  1.00  0.00     0.302 C 
HETATM   43  N6  UNL     1      12.114   0.551  -0.003  1.00  0.00     0.087 N 
HETATM   44  C21 UNL     1      12.058   1.512   1.071  1.00  0.00     0.310 C 
HETATM   45  C22 UNL     1      11.610  -0.745   0.458  1.00  0.00     0.302 C 
HETATM   46  C23 UNL     1      10.169  -0.486   0.869  1.00  0.00     0.302 C 
ENDBRANCH  39  40
ENDBRANCH  38  39
ENDBRANCH  37  38
ENDBRANCH  32  37
ENDBRANCH  29  30
ENDBRANCH   4  29
TORSDOF 14
