REMARK  10 active torsions:
REMARK  status: ('A' for Active; 'I' for Inactive)
REMARK    1  A    between atoms: C8_11  and  N2_12 
REMARK    2  A    between atoms: N2_12  and  C9_14 
REMARK    3  A    between atoms: C9_14  and  C10_15 
REMARK    4  A    between atoms: C10_15  and  C11_16 
REMARK    5  A    between atoms: N3_30  and  C20_31 
REMARK    6  A    between atoms: C20_31  and  C21_32 
REMARK    7  A    between atoms: C21_32  and  C22_33 
REMARK    8  A    between atoms: C22_33  and  O2_36 
REMARK    9  A    between atoms: C26_39  and  C27_40 
REMARK   10  A    between atoms: C27_40  and  O3_41 
ROOT
HETATM    1  C1  UNL     1      -3.366  -3.332  -0.773  1.00  0.00     0.032 C 
HETATM    2  C2  UNL     1      -1.979  -3.701  -0.301  1.00  0.00     0.075 C 
HETATM    3  C3  UNL     1      -1.949  -4.255   1.072  1.00  0.00     0.024 C 
HETATM    4  C4  UNL     1      -1.390  -3.382   2.138  1.00  0.00     0.007 C 
HETATM    5  C5  UNL     1      -1.333  -1.936   1.822  1.00  0.00     0.062 C 
HETATM    6  C6  UNL     1      -0.918  -1.615   0.411  1.00  0.00     0.145 C 
HETATM    7  N1  UNL     1      -0.983  -2.718  -0.481  1.00  0.00    -0.387 N 
ATOM      8  H1  UNL     1      -0.314  -2.799  -1.247  1.00  0.00     0.156 HD
HETATM    9  O1  UNL     1      -1.935  -0.718  -0.102  1.00  0.00    -0.317 OA
HETATM   10  C7  UNL     1      -2.133   0.472   0.526  1.00  0.00     0.108 A 
HETATM   11  C8  UNL     1      -3.348   1.116   0.530  1.00  0.00     0.065 A 
HETATM   12  C12 UNL     1      -3.461   2.309   1.187  1.00  0.00     0.077 A 
HETATM   13  C13 UNL     1      -2.381   2.895   1.851  1.00  0.00     0.157 A 
HETATM   14  F4  UNL     1      -2.544   4.087   2.490  1.00  0.00    -0.203 F 
HETATM   15  C14 UNL     1      -1.188   2.245   1.836  1.00  0.00     0.164 A 
HETATM   16  F5  UNL     1      -0.125   2.809   2.483  1.00  0.00    -0.202 F 
HETATM   17  C15 UNL     1      -1.063   1.025   1.168  1.00  0.00     0.020 A 
HETATM   18  C16 UNL     1       0.257   0.415   1.202  1.00  0.00     0.060 C 
HETATM   19  C17 UNL     1       0.378  -0.886   0.365  1.00  0.00     0.026 C 
HETATM   20  C18 UNL     1       0.658  -0.401  -1.045  1.00  0.00     0.060 C 
HETATM   21  C19 UNL     1       1.921   0.379  -1.138  1.00  0.00     0.064 C 
HETATM   22  N3  UNL     1       2.950   0.085  -0.233  1.00  0.00    -0.373 N 
HETATM   23  C25 UNL     1       2.657  -0.386   1.042  1.00  0.00     0.134 C 
HETATM   24  C26 UNL     1       1.598  -1.522   0.883  1.00  0.00     0.041 C 
ENDROOT
BRANCH  24  25
HETATM   25  C27 UNL     1       2.321  -2.567   0.147  1.00  0.00     0.171 C 
BRANCH  25  26
HETATM   26  O3  UNL     1       1.590  -3.701  -0.078  1.00  0.00    -0.400 OA
ATOM     27  H3  UNL     1       2.058  -4.377  -0.554  1.00  0.00     0.209 HD
ENDBRANCH  25  26
ENDBRANCH  24  25
BRANCH  22  28
HETATM   28  C20 UNL     1       4.273   0.374  -0.594  1.00  0.00     0.066 C 
BRANCH  28  29
HETATM   29  C21 UNL     1       4.489   1.865  -0.678  1.00  0.00     0.081 C 
BRANCH  29  30
HETATM   30  C22 UNL     1       5.892   2.224  -1.059  1.00  0.00     0.055 C 
HETATM   31  C23 UNL     1       6.059   3.725  -1.132  1.00  0.00     0.045 C 
HETATM   32  C24 UNL     1       6.249   1.657  -2.408  1.00  0.00     0.045 C 
BRANCH  30  33
HETATM   33  O2  UNL     1       6.783   1.734  -0.098  1.00  0.00    -0.390 OA
ATOM     34  H2  UNL     1       7.673   1.962  -0.340  1.00  0.00     0.210 HD
ENDBRANCH  30  33
ENDBRANCH  29  30
ENDBRANCH  28  29
ENDBRANCH  22  28
BRANCH  11  35
HETATM   35  N2  UNL     1      -4.449   0.527  -0.130  1.00  0.00    -0.387 N 
ATOM     36  H2  UNL     1      -4.310  -0.396  -0.541  1.00  0.00     0.159 HD
BRANCH  35  37
HETATM   37  C9  UNL     1      -5.760   1.129  -0.271  1.00  0.00     0.128 C 
BRANCH  37  38
HETATM   38  C10 UNL     1      -5.745   2.282  -1.225  1.00  0.00     0.137 C 
BRANCH  38  39
HETATM   39  C11 UNL     1      -7.136   2.904  -1.356  1.00  0.00     0.389 C 
HETATM   40  F1  UNL     1      -7.038   3.939  -2.236  1.00  0.00    -0.171 F 
HETATM   41  F2  UNL     1      -7.608   3.307  -0.127  1.00  0.00    -0.171 F 
HETATM   42  F3  UNL     1      -7.995   1.969  -1.883  1.00  0.00    -0.171 F 
ENDBRANCH  38  39
ENDBRANCH  37  38
ENDBRANCH  35  37
ENDBRANCH  11  35
TORSDOF 10
