REMARK  1 active torsions:
REMARK  status: ('A' for Active; 'I' for Inactive)
REMARK    1  A    between atoms: O1_1  and  N1_3 
ROOT
HETATM    1  N1  UNL     1      -1.452  -0.309  -0.005  1.00  0.00     0.004 NA
HETATM    2  N2  UNL     1      -0.467  -1.289   0.056  1.00  0.00    -0.228 N 
ATOM      3  H2  UNL     1      -0.768  -2.259   0.149  1.00  0.00     0.190 HD
HETATM    4  C1  UNL     1       0.919  -1.036  -0.002  1.00  0.00     0.341 C 
HETATM    5  O2  UNL     1       1.730  -2.011  -0.097  1.00  0.00    -0.245 OA
HETATM    6  N3  UNL     1       1.377   0.310   0.046  1.00  0.00    -0.259 N 
ATOM      7  H3  UNL     1       2.371   0.535   0.006  1.00  0.00     0.175 HD
HETATM    8  C2  UNL     1       0.384   1.333   0.152  1.00  0.00     0.341 C 
HETATM    9  O3  UNL     1       0.760   2.524   0.196  1.00  0.00    -0.245 OA
HETATM   10  N4  UNL     1      -0.988   0.963   0.203  1.00  0.00    -0.228 N 
ATOM     11  H4  UNL     1      -1.671   1.692   0.408  1.00  0.00     0.190 HD
ENDROOT
BRANCH   1  12
HETATM   12  O1  UNL     1      -2.203  -0.448  -1.116  1.00  0.00    -0.276 OA
ATOM     13  H1  UNL     1      -2.876   0.221  -1.158  1.00  0.00     0.241 HD
ENDBRANCH   1  12
TORSDOF 1
