REMARK  1 active torsions:
REMARK  status: ('A' for Active; 'I' for Inactive)
REMARK    1  A    between atoms: N3_4  and  C2_6 
ROOT
HETATM    1  C2  UNL     1      -0.569  -0.817  -0.693  1.00  0.00     0.125 C 
HETATM    2  C3  UNL     1       0.672  -0.410  -0.428  1.00  0.00     0.119 A 
HETATM    3  N4  UNL     1       1.106  -0.132   0.899  1.00  0.00    -0.313 N 
ATOM      4  H4  UNL     1       0.457  -0.245   1.678  1.00  0.00     0.169 HD
HETATM    5  C4  UNL     1       2.441   0.303   1.148  1.00  0.00     0.314 A 
HETATM    6  O1  UNL     1       2.792   0.541   2.341  1.00  0.00    -0.262 OA
HETATM    7  C5  UNL     1       3.414   0.481   0.077  1.00  0.00     0.316 A 
HETATM    8  O2  UNL     1       4.586   0.868   0.352  1.00  0.00    -0.262 OA
HETATM    9  N5  UNL     1       2.982   0.203  -1.249  1.00  0.00    -0.284 N 
ATOM     10  H5  UNL     1       3.631   0.315  -2.028  1.00  0.00     0.172 HD
HETATM   11  C6  UNL     1       1.644  -0.232  -1.497  1.00  0.00     0.276 A 
HETATM   12  O3  UNL     1       1.267  -0.476  -2.669  1.00  0.00    -0.266 OA
ENDROOT
BRANCH   1  13
HETATM   13  N3  UNL     1      -1.539  -1.001   0.322  1.00  0.00    -0.341 N 
HETATM   14  C1  UNL     1      -2.558  -0.237   0.442  1.00  0.00     0.200 C 
HETATM   15  N1  UNL     1      -2.717   0.828  -0.474  1.00  0.00    -0.067 NA
HETATM   16  N2  UNL     1      -3.515  -0.424   1.448  1.00  0.00    -0.067 NA
ATOM     17  H3  UNL     1      -1.421  -1.770   0.981  1.00  0.00     0.167 HD
ENDBRANCH   1  13
TORSDOF 1
