REMARK  2 active torsions:
REMARK  status: ('A' for Active; 'I' for Inactive)
REMARK    1  A    between atoms: N1_1  and  N2_4 
REMARK       I    between atoms: C1_6  and  N4_8 
REMARK    2  A    between atoms: N6_15  and  N7_16 
ROOT
HETATM    1  N2  UNL     1       2.411  -0.249   0.491  1.00  0.00    -0.279 N 
ATOM      2  H2  UNL     1       3.407  -0.233   0.272  1.00  0.00     0.189 HD
HETATM    3  C1  UNL     1       1.605  -0.177  -0.489  1.00  0.00     0.225 C 
HETATM    4  N3  UNL     1       2.160  -0.080  -1.804  1.00  0.00    -0.060 NA
HETATM    5  N4  UNL     1       0.192  -0.183  -0.396  1.00  0.00    -0.237 N 
HETATM    6  C2  UNL     1      -0.560  -1.414  -0.323  1.00  0.00     0.174 C 
HETATM    7  C3  UNL     1      -1.590  -1.248   0.767  1.00  0.00     0.146 C 
HETATM    8  N5  UNL     1      -2.495  -0.196   0.356  1.00  0.00    -0.339 N 
ATOM      9  H5  UNL     1      -3.504  -0.339   0.316  1.00  0.00     0.164 HD
HETATM   10  C4  UNL     1      -1.899   1.048   0.011  1.00  0.00     0.356 C 
HETATM   11  O1  UNL     1      -2.585   2.090   0.053  1.00  0.00    -0.243 OA
HETATM   12  N6  UNL     1      -0.509   1.024  -0.374  1.00  0.00    -0.144 N 
ENDROOT
BRANCH  12  13
HETATM   13  N7  UNL     1       0.071   2.236  -0.709  1.00  0.00    -0.319 N 
ATOM     14  H72 UNL     1       1.054   2.219  -0.981  1.00  0.00     0.179 HD
ATOM     15  H71 UNL     1      -0.441   3.118  -0.693  1.00  0.00     0.179 HD
ENDBRANCH  12  13
BRANCH   1  16
HETATM   16  N1  UNL     1       2.067  -0.347   1.823  1.00  0.00    -0.343 N 
ATOM     17  H12 UNL     1       1.067  -0.362   2.023  1.00  0.00     0.176 HD
ATOM     18  H11 UNL     1       2.714  -0.405   2.610  1.00  0.00     0.176 HD
ENDBRANCH   1  16
TORSDOF 2
