REMARK  11 active torsions:
REMARK  status: ('A' for Active; 'I' for Inactive)
REMARK    1  A    between atoms: O1_2  and  C2_3 
REMARK    2  A    between atoms: C5_6  and  C6_7 
REMARK    3  A    between atoms: C6_7  and  C7_8 
REMARK    4  A    between atoms: C7_8  and  O2_9 
REMARK    5  A    between atoms: O2_9  and  C8_10 
REMARK    6  A    between atoms: C11_13  and  N1_14 
REMARK    7  A    between atoms: N1_14  and  C12_16 
REMARK    8  A    between atoms: C13_19  and  C14_20 
REMARK    9  A    between atoms: C24_37  and  O3_38 
REMARK   10  A    between atoms: O3_38  and  C25_39 
REMARK   11  A    between atoms: C26_40  and  C27_41 
ROOT
HETATM    1  C8  UNL     1      -1.096  -1.580   0.054  1.00  0.00     0.068 A 
HETATM    2  C9  UNL     1      -2.173  -2.071  -0.734  1.00  0.00     0.039 A 
HETATM    3  C10 UNL     1      -3.433  -1.805  -0.388  1.00  0.00     0.033 A 
HETATM    4  C11 UNL     1      -3.796  -1.063   0.725  1.00  0.00     0.049 A 
HETATM    5  C22 UNL     1      -2.773  -0.580   1.516  1.00  0.00     0.033 A 
HETATM    6  C23 UNL     1      -1.468  -0.836   1.183  1.00  0.00     0.039 A 
ENDROOT
BRANCH   1   7
HETATM    7  O2  UNL     1       0.137  -1.838  -0.322  1.00  0.00    -0.351 OA
BRANCH   7   8
HETATM    8  C7  UNL     1       1.364  -2.080  -0.675  1.00  0.00     0.180 C 
BRANCH   8   9
HETATM    9  C6  UNL     1       2.094  -0.837  -1.155  1.00  0.00     0.068 C 
BRANCH   9  10
HETATM   10  C5  UNL     1       3.505  -0.959  -1.488  1.00  0.00    -0.021 A 
HETATM   11  C4  UNL     1       3.827  -1.232  -2.845  1.00  0.00     0.013 A 
HETATM   12  C3  UNL     1       5.175  -1.328  -3.226  1.00  0.00     0.037 A 
HETATM   13  C2  UNL     1       6.162  -1.167  -2.300  1.00  0.00     0.070 A 
HETATM   14  C33 UNL     1       5.797  -0.902  -0.977  1.00  0.00     0.075 A 
HETATM   15  C24 UNL     1       4.485  -0.796  -0.584  1.00  0.00     0.096 A 
BRANCH  13  16
HETATM   16  O1  UNL     1       7.488  -1.268  -2.703  1.00  0.00    -0.356 OA
HETATM   17  C1  UNL     1       8.503  -1.187  -1.710  1.00  0.00     0.210 C 
ENDBRANCH  13  16
BRANCH  15  18
HETATM   18  O3  UNL     1       4.176  -0.507   0.809  1.00  0.00    -0.260 OA
BRANCH  18  19
HETATM   19  C25 UNL     1       5.392  -0.097   1.460  1.00  0.00     0.065 C 
HETATM   20  C26 UNL     1       6.404   0.462   1.827  1.00  0.00    -0.036 C 
BRANCH  20  21
HETATM   21  C27 UNL     1       7.573   1.227   2.020  1.00  0.00     0.022 A 
HETATM   22  C28 UNL     1       7.451   2.638   1.952  1.00  0.00     0.021 A 
HETATM   23  C29 UNL     1       8.529   3.482   1.932  1.00  0.00     0.004 A 
HETATM   24  C30 UNL     1       9.800   2.993   1.981  1.00  0.00     0.042 A 
HETATM   25  C31 UNL     1       9.949   1.630   2.047  1.00  0.00     0.117 A 
HETATM   26  F6  UNL     1      11.243   1.165   2.070  1.00  0.00    -0.206 F 
HETATM   27  C32 UNL     1       8.850   0.754   2.069  1.00  0.00     0.062 A 
ENDBRANCH  20  21
ENDBRANCH  18  19
ENDBRANCH  15  18
ENDBRANCH   9  10
ENDBRANCH   8   9
ENDBRANCH   7   8
ENDBRANCH   1   7
BRANCH   4  28
HETATM   28  N1  UNL     1      -5.141  -0.861   1.018  1.00  0.00    -0.192 N 
ATOM     29  H1  UNL     1      -5.556  -1.407   1.773  1.00  0.00     0.184 HD
BRANCH  28  30
HETATM   30  C12 UNL     1      -5.891  -0.025   0.392  1.00  0.00     0.683 A 
HETATM   31  N2  UNL     1      -7.157   0.058   0.773  1.00  0.00    -0.191 N 
HETATM   32  C13 UNL     1      -8.026   0.882   0.190  1.00  0.00     0.067 A 
ATOM     33  H2  UNL     1      -7.478  -0.531   1.541  1.00  0.00     0.184 HD
HETATM   34  C20 UNL     1      -7.631   1.680  -0.835  1.00  0.00     0.049 A 
HETATM   35  C21 UNL     1      -6.310   1.612  -1.238  1.00  0.00     0.108 A 
HETATM   36  N3  UNL     1      -5.458   0.761  -0.630  1.00  0.00    -0.202 N 
ATOM     37  H3  UNL     1      -4.487   0.707  -0.937  1.00  0.00     0.183 HD
BRANCH  32  38
HETATM   38  C14 UNL     1      -9.454   0.785   0.492  1.00  0.00     0.075 A 
HETATM   39  C15 UNL     1     -10.071   1.225   1.602  1.00  0.00     0.173 A 
HETATM   40  F1  UNL     1      -9.446   1.892   2.583  1.00  0.00    -0.202 F 
HETATM   41  C16 UNL     1     -11.450   1.015   1.798  1.00  0.00     0.197 A 
HETATM   42  F2  UNL     1     -12.045   1.454   2.906  1.00  0.00    -0.199 F 
HETATM   43  C17 UNL     1     -12.146   0.367   0.837  1.00  0.00     0.199 A 
HETATM   44  F3  UNL     1     -13.487   0.125   0.983  1.00  0.00    -0.199 F 
HETATM   45  C18 UNL     1     -11.540  -0.098  -0.312  1.00  0.00     0.197 A 
HETATM   46  F4  UNL     1     -12.279  -0.737  -1.230  1.00  0.00    -0.199 F 
HETATM   47  C19 UNL     1     -10.209   0.111  -0.481  1.00  0.00     0.173 A 
HETATM   48  F5  UNL     1      -9.540  -0.308  -1.602  1.00  0.00    -0.202 F 
ENDBRANCH  32  38
ENDBRANCH  28  30
ENDBRANCH   4  28
TORSDOF 11
