REMARK  10 active torsions:
REMARK  status: ('A' for Active; 'I' for Inactive)
REMARK    1  A    between atoms: C7_8  and  C8_9 
REMARK    2  A    between atoms: C8_9  and  C9_10 
REMARK    3  A    between atoms: C8_9  and  C22_29 
REMARK    4  A    between atoms: C12_13  and  N1_14 
REMARK    5  A    between atoms: N1_14  and  C13_16 
REMARK    6  A    between atoms: C13_16  and  O1_17 
REMARK    7  A    between atoms: C13_16  and  C14_19 
REMARK    8  A    between atoms: C25_32  and  O2_33 
REMARK    9  A    between atoms: O2_33  and  S1_34 
REMARK   10  A    between atoms: S1_34  and  C26_37 
ROOT
HETATM    1  C1  UNL     1      -4.460   0.804   4.104  1.00  0.00     0.018 C 
HETATM    2  C2  UNL     1      -4.117   1.183   3.004  1.00  0.00    -0.071 C 
HETATM    3  C3  UNL     1      -3.721   1.658   1.689  1.00  0.00     0.094 A 
HETATM    4  C4  UNL     1      -4.297   2.841   1.206  1.00  0.00     0.138 A 
HETATM    5  F1  UNL     1      -5.198   3.505   1.970  1.00  0.00    -0.204 F 
HETATM    6  C5  UNL     1      -3.895   3.258  -0.045  1.00  0.00     0.044 A 
HETATM    7  C6  UNL     1      -2.971   2.520  -0.754  1.00  0.00     0.014 A 
HETATM    8  C7  UNL     1      -2.406   1.350  -0.269  1.00  0.00    -0.004 A 
HETATM    9  C28 UNL     1      -2.799   0.934   0.965  1.00  0.00     0.145 A 
HETATM   10  F4  UNL     1      -2.321  -0.192   1.559  1.00  0.00    -0.204 F 
ENDROOT
BRANCH   8  11
HETATM   11  C8  UNL     1      -1.432   0.630  -1.091  1.00  0.00     0.104 C 
BRANCH  11  12
HETATM   12  C9  UNL     1      -0.049   0.677  -0.543  1.00  0.00    -0.044 A 
HETATM   13  C10 UNL     1       0.972  -0.118  -1.017  1.00  0.00     0.010 A 
HETATM   14  C11 UNL     1       2.240  -0.077  -0.527  1.00  0.00     0.030 A 
HETATM   15  C12 UNL     1       2.594   0.798   0.514  1.00  0.00     0.034 A 
HETATM   16  C20 UNL     1       1.577   1.586   0.984  1.00  0.00     0.030 A 
HETATM   17  C21 UNL     1       0.277   1.553   0.492  1.00  0.00     0.010 A 
BRANCH  15  18
HETATM   18  N1  UNL     1       3.924   0.782   1.016  1.00  0.00    -0.336 N 
ATOM     19  H1  UNL     1       4.425  -0.106   1.015  1.00  0.00     0.168 HD
BRANCH  18  20
HETATM   20  C13 UNL     1       4.590   1.912   1.513  1.00  0.00     0.154 C 
BRANCH  20  21
HETATM   21  O1  UNL     1       3.913   3.025   1.461  1.00  0.00    -0.345 OA
ATOM     22  H1  UNL     1       4.364   3.790   1.798  1.00  0.00     0.219 HD
ENDBRANCH  20  21
BRANCH  20  23
HETATM   23  C14 UNL     1       5.909   2.015   2.063  1.00  0.00     0.058 A 
HETATM   24  C15 UNL     1       6.542   3.273   2.014  1.00  0.00     0.050 A 
HETATM   25 CL1  UNL     1       5.692   4.597   1.242  1.00  0.00    -0.083 Cl
HETATM   26  C16 UNL     1       7.775   3.518   2.525  1.00  0.00     0.025 A 
HETATM   27  C17 UNL     1       8.461   2.505   3.124  1.00  0.00     0.003 A 
HETATM   28  C18 UNL     1       7.882   1.266   3.194  1.00  0.00     0.025 A 
HETATM   29  C19 UNL     1       6.610   1.019   2.667  1.00  0.00     0.050 A 
HETATM   30 CL2  UNL     1       5.918  -0.574   2.843  1.00  0.00    -0.083 Cl
ENDBRANCH  20  23
ENDBRANCH  18  20
ENDBRANCH  15  18
ENDBRANCH  11  12
BRANCH  11  31
HETATM   31  C22 UNL     1      -1.867  -0.727  -1.515  1.00  0.00     0.022 A 
HETATM   32  C23 UNL     1      -1.467  -1.908  -0.947  1.00  0.00     0.029 A 
HETATM   33  C24 UNL     1      -1.939  -3.126  -1.411  1.00  0.00     0.041 A 
HETATM   34  C25 UNL     1      -2.827  -3.124  -2.466  1.00  0.00     0.104 A 
HETATM   35  C27 UNL     1      -3.237  -1.947  -3.047  1.00  0.00     0.126 A 
HETATM   36  N2  UNL     1      -2.749  -0.814  -2.556  1.00  0.00    -0.366 N 
ATOM     37  H2  UNL     1      -3.055   0.058  -2.988  1.00  0.00     0.165 HD
BRANCH  34  38
HETATM   38  O2  UNL     1      -3.336  -4.310  -2.976  1.00  0.00    -0.227 OA
BRANCH  38  39
HETATM   39  S1  UNL     1      -4.768  -5.025  -2.419  1.00  0.00     0.332 S 
HETATM   40  O3  UNL     1      -5.964  -4.126  -2.637  1.00  0.00    -0.193 OA
HETATM   41  O4  UNL     1      -4.720  -5.364  -0.960  1.00  0.00    -0.193 OA
BRANCH  39  42
HETATM   42  C26 UNL     1      -5.071  -6.493  -3.400  1.00  0.00     0.501 C 
HETATM   43  F2  UNL     1      -4.017  -7.373  -3.279  1.00  0.00    -0.195 F 
HETATM   44  F3  UNL     1      -6.236  -7.107  -3.019  1.00  0.00    -0.195 F 
ENDBRANCH  39  42
ENDBRANCH  38  39
ENDBRANCH  34  38
ENDBRANCH  11  31
ENDBRANCH   8  11
TORSDOF 10
