REMARK  9 active torsions:
REMARK  status: ('A' for Active; 'I' for Inactive)
REMARK    1  A    between atoms: C2_2  and  C3_3 
REMARK    2  A    between atoms: C3_3  and  C4_4 
REMARK    3  A    between atoms: C3_3  and  N4_17 
REMARK    4  A    between atoms: C4_4  and  C5_5 
REMARK    5  A    between atoms: C7_11  and  N3_12 
REMARK    6  A    between atoms: N3_12  and  C8_14 
REMARK    7  A    between atoms: C8_14  and  C9_15 
REMARK    8  A    between atoms: N4_17  and  C10_19 
REMARK    9  A    between atoms: C10_19  and  C11_20 
ROOT
HETATM    1  C3  UNL     1      -1.133  -1.139  -0.329  1.00  0.00     0.105 C 
ENDROOT
BRANCH   1   2
HETATM    2  C2  UNL     1      -0.847  -2.544  -0.532  1.00  0.00    -0.012 C 
HETATM    3  C1  UNL     1      -0.807  -3.271   0.620  1.00  0.00     0.009 C 
ENDBRANCH   1   2
BRANCH   1   4
HETATM    4  C4  UNL     1       0.170  -0.459   0.132  1.00  0.00     0.089 C 
BRANCH   4   5
HETATM    5  C5  UNL     1       1.260  -0.443  -0.843  1.00  0.00     0.056 A 
HETATM    6  N1  UNL     1       1.497  -1.036  -1.985  1.00  0.00    -0.353 N 
HETATM    7  C6  UNL     1       2.652  -0.674  -2.531  1.00  0.00     0.182 A 
ATOM      8  H1  UNL     1       0.860  -1.708  -2.412  1.00  0.00     0.166 HD
HETATM    9  N2  UNL     1       3.177   0.210  -1.671  1.00  0.00    -0.337 N 
HETATM   10  C7  UNL     1       2.381   0.399  -0.622  1.00  0.00     0.125 A 
ATOM     11  H2  UNL     1       4.073   0.678  -1.804  1.00  0.00     0.168 HD
BRANCH  10  12
HETATM   12  N3  UNL     1       2.471   1.303   0.438  1.00  0.00    -0.368 N 
ATOM     13  H3  UNL     1       1.627   1.370   1.007  1.00  0.00     0.161 HD
BRANCH  12  14
HETATM   14  C8  UNL     1       3.551   2.159   0.868  1.00  0.00     0.190 C 
BRANCH  14  15
HETATM   15  C9  UNL     1       4.411   1.452   1.811  1.00  0.00     0.250 C 
HETATM   16  O1  UNL     1       5.601   1.266   1.671  1.00  0.00    -0.305 OA
ENDBRANCH  14  15
ENDBRANCH  12  14
ENDBRANCH  10  12
ENDBRANCH   4   5
ENDBRANCH   1   4
BRANCH   1  17
HETATM   17  N4  UNL     1      -2.130  -0.603   0.396  1.00  0.00    -0.407 N 
ATOM     18  H4  UNL     1      -1.911  -0.016   1.201  1.00  0.00     0.154 HD
BRANCH  17  19
HETATM   19  C10 UNL     1      -3.508  -0.852   0.045  1.00  0.00     0.194 C 
BRANCH  19  20
HETATM   20  C11 UNL     1      -4.131   0.522   0.172  1.00  0.00     0.130 A 
HETATM   21  N5  UNL     1      -5.357   0.930   0.341  1.00  0.00    -0.271 N 
HETATM   22  N6  UNL     1      -5.386   2.280   0.245  1.00  0.00    -0.227 N 
ATOM     23  H5  UNL     1      -6.163   0.330   0.517  1.00  0.00     0.190 HD
HETATM   24  N7  UNL     1      -4.172   2.710   0.020  1.00  0.00    -0.227 N 
ATOM     25  H6  UNL     1      -6.217   2.865   0.334  1.00  0.00     0.210 HD
HETATM   26  N8  UNL     1      -3.386   1.667  -0.028  1.00  0.00    -0.271 N 
ATOM     27  H7  UNL     1      -3.890   3.683  -0.097  1.00  0.00     0.210 HD
ATOM     28  H8  UNL     1      -2.379   1.695  -0.188  1.00  0.00     0.190 HD
ENDBRANCH  19  20
ENDBRANCH  17  19
ENDBRANCH   1  17
TORSDOF 9
