REMARK  2 active torsions:
REMARK  status: ('A' for Active; 'I' for Inactive)
REMARK    1  A    between atoms: N1_2  and  C2_5 
REMARK    2  A    between atoms: C2_5  and  C3_6 
ROOT
HETATM    1  C3  UNL     1       0.812  -1.037  -0.437  1.00  0.00     0.076 C 
HETATM    2  C4  UNL     1       0.323  -1.426   0.915  1.00  0.00     0.036 C 
HETATM    3  C5  UNL     1      -1.194  -1.450   1.005  1.00  0.00     0.116 C 
HETATM    4  N2  UNL     1      -1.697  -0.133   0.908  1.00  0.00    -0.405 N 
ATOM      5  H2  UNL     1      -1.971   0.393   1.738  1.00  0.00     0.154 HD
HETATM    6  C6  UNL     1      -1.804   0.423  -0.381  1.00  0.00     0.067 C 
HETATM    7  C7  UNL     1      -2.920  -0.141  -1.225  1.00  0.00     0.050 C 
HETATM    8  C8  UNL     1      -2.041   1.915  -0.259  1.00  0.00     0.050 C 
HETATM    9  S1  UNL     1      -0.251   0.141  -1.280  1.00  0.00    -0.132 SA
ENDROOT
BRANCH   1  10
HETATM   10  C2  UNL     1       2.221  -0.500  -0.393  1.00  0.00     0.247 C 
BRANCH  10  11
HETATM   11  N1  UNL     1       2.355   0.666   0.433  1.00  0.00    -0.078 N 
HETATM   12  C1  UNL     1       3.746   1.080   0.391  1.00  0.00     0.267 C 
ATOM     13  H12 UNL     1       2.014   0.520   1.383  1.00  0.00     0.276 HD
ATOM     14  H11 UNL     1       1.711   1.413   0.172  1.00  0.00     0.276 HD
ENDBRANCH  10  11
ENDBRANCH   1  10
TORSDOF 2
