REMARK  12 active torsions:
REMARK  status: ('A' for Active; 'I' for Inactive)
REMARK    1  A    between atoms: C5_6  and  S1_7 
REMARK    2  A    between atoms: S1_7  and  C6_9 
REMARK    3  A    between atoms: C9_12  and  S2_13 
REMARK    4  A    between atoms: S2_13  and  N1_16 
REMARK    5  A    between atoms: N1_16  and  C10_18 
REMARK    6  A    between atoms: C10_18  and  C11_19 
REMARK    7  A    between atoms: C10_18  and  C26_43 
REMARK    8  A    between atoms: C11_19  and  S3_20 
REMARK    9  A    between atoms: S3_20  and  C12_21 
REMARK   10  A    between atoms: C13_26  and  C14_27 
REMARK   11  A    between atoms: C26_43  and  O5_44 
REMARK   12  A    between atoms: N6_46  and  O6_48 
ROOT
HETATM    1  C10 UNL     1       0.740  -0.851   3.112  1.00  0.00     0.179 C 
ENDROOT
BRANCH   1   2
HETATM    2  N1  UNL     1       1.518  -1.941   3.682  1.00  0.00    -0.302 N 
ATOM      3  H1  UNL     1       1.865  -1.934   4.641  1.00  0.00     0.173 HD
BRANCH   2   4
HETATM    4  S2  UNL     1       1.796  -3.227   2.604  1.00  0.00     0.259 S 
HETATM    5  O3  UNL     1       0.522  -3.892   2.163  1.00  0.00    -0.201 OA
HETATM    6  O4  UNL     1       2.651  -4.255   3.334  1.00  0.00    -0.201 OA
BRANCH   4   7
HETATM    7  C9  UNL     1       2.731  -2.649   1.246  1.00  0.00     0.079 A 
HETATM    8  C8  UNL     1       4.135  -2.700   1.289  1.00  0.00     0.027 A 
HETATM    9  C7  UNL     1       4.904  -2.262   0.240  1.00  0.00     0.023 A 
HETATM   10  C6  UNL     1       4.332  -1.746  -0.918  1.00  0.00     0.038 A 
HETATM   11  C28 UNL     1       2.951  -1.699  -0.952  1.00  0.00     0.023 A 
HETATM   12  C27 UNL     1       2.160  -2.141   0.107  1.00  0.00     0.027 A 
BRANCH  10  13
HETATM   13  S1  UNL     1       5.352  -1.207  -2.229  1.00  0.00     0.102 S 
HETATM   14  O2  UNL     1       6.620  -2.275  -2.497  1.00  0.00    -0.246 OA
BRANCH  13  15
HETATM   15  C5  UNL     1       5.840   0.436  -2.121  1.00  0.00     0.108 A 
HETATM   16  C4  UNL     1       5.905   1.217  -3.248  1.00  0.00     0.040 A 
HETATM   17  C3  UNL     1       6.304   2.536  -3.136  1.00  0.00     0.008 A 
HETATM   18  C2  UNL     1       6.634   3.068  -1.925  1.00  0.00     0.074 A 
HETATM   19  C1  UNL     1       6.559   2.256  -0.805  1.00  0.00     0.246 A 
HETATM   20  O1  UNL     1       6.859   2.715   0.346  1.00  0.00    -0.268 OA
HETATM   21  N7  UNL     1       6.167   0.978  -0.945  1.00  0.00    -0.316 N 
ATOM     22  H7  UNL     1       6.117   0.393  -0.111  1.00  0.00     0.169 HD
ENDBRANCH  13  15
ENDBRANCH  10  13
ENDBRANCH   4   7
ENDBRANCH   2   4
ENDBRANCH   1   2
BRANCH   1  23
HETATM   23  C11 UNL     1      -0.488  -0.632   3.966  1.00  0.00     0.116 C 
BRANCH  23  24
HETATM   24  S3  UNL     1      -1.484   0.678   3.295  1.00  0.00    -0.090 SA
BRANCH  24  25
HETATM   25  C12 UNL     1      -2.298   0.208   1.752  1.00  0.00     0.159 A 
HETATM   26  N2  UNL     1      -2.105  -0.990   1.177  1.00  0.00    -0.279 N 
HETATM   27  N3  UNL     1      -2.763  -1.359   0.066  1.00  0.00    -0.296 N 
ATOM     28  H2  UNL     1      -1.439  -1.639   1.596  1.00  0.00     0.189 HD
HETATM   29  C13 UNL     1      -3.657  -0.551  -0.541  1.00  0.00     0.086 A 
ATOM     30  H3  UNL     1      -2.581  -2.280  -0.332  1.00  0.00     0.187 HD
HETATM   31  C19 UNL     1      -3.864   0.685   0.038  1.00  0.00     0.073 A 
HETATM   32  C20 UNL     1      -4.828   1.590  -0.551  1.00  0.00    -0.007 A 
HETATM   33  N5  UNL     1      -3.180   1.037   1.171  1.00  0.00    -0.333 N 
HETATM   34  C21 UNL     1      -4.685   2.130  -1.798  1.00  0.00     0.014 A 
HETATM   35  C25 UNL     1      -5.956   1.937   0.167  1.00  0.00     0.014 A 
HETATM   36  C22 UNL     1      -5.648   3.001  -2.329  1.00  0.00     0.001 A 
HETATM   37  C23 UNL     1      -6.762   3.330  -1.594  1.00  0.00     0.000 A 
HETATM   38  C24 UNL     1      -6.909   2.795  -0.345  1.00  0.00     0.001 A 
ATOM     39  H5  UNL     1      -3.345   1.954   1.585  1.00  0.00     0.168 HD
BRANCH  29  40
HETATM   40  C14 UNL     1      -4.402  -0.955  -1.716  1.00  0.00    -0.003 A 
HETATM   41  C15 UNL     1      -3.787  -1.139  -2.917  1.00  0.00     0.031 A 
HETATM   42  C16 UNL     1      -4.528  -1.543  -4.035  1.00  0.00     0.088 A 
HETATM   43  N4  UNL     1      -5.875  -1.749  -3.913  1.00  0.00    -0.375 N 
HETATM   44  C17 UNL     1      -6.502  -1.576  -2.755  1.00  0.00     0.088 A 
ATOM     45  H4  UNL     1      -6.410  -2.042  -4.730  1.00  0.00     0.164 HD
HETATM   46  C18 UNL     1      -5.778  -1.180  -1.651  1.00  0.00     0.031 A 
ENDBRANCH  29  40
ENDBRANCH  24  25
ENDBRANCH  23  24
ENDBRANCH   1  23
BRANCH   1  47
HETATM   47  C26 UNL     1       1.619   0.361   3.235  1.00  0.00     0.160 C 
HETATM   48  N6  UNL     1       1.231   1.368   3.912  1.00  0.00    -0.249 N 
ATOM     49  H6  UNL     1       0.317   1.325   4.362  1.00  0.00     0.196 HD
BRANCH  47  50
HETATM   50  O5  UNL     1       2.855   0.406   2.623  1.00  0.00    -0.347 OA
ATOM     51  H5  UNL     1       3.411   1.172   2.701  1.00  0.00     0.219 HD
ENDBRANCH  47  50
BRANCH  48  52
HETATM   52  O6  UNL     1       1.975   2.499   4.065  1.00  0.00    -0.288 OA
ATOM     53  H6  UNL     1       1.686   3.250   4.570  1.00  0.00     0.244 HD
ENDBRANCH  48  52
ENDBRANCH   1  47
TORSDOF 12
