REMARK  9 active torsions:
REMARK  status: ('A' for Active; 'I' for Inactive)
REMARK    1  A    between atoms: N3_4  and  C2_6 
REMARK    2  A    between atoms: C2_6  and  C3_7 
REMARK    3  A    between atoms: C3_7  and  N4_8 
REMARK       I    between atoms: N4_8  and  C4_10 
REMARK    4  A    between atoms: N6_12  and  C5_14 
REMARK    5  A    between atoms: C5_14  and  C6_16 
REMARK    6  A    between atoms: C6_16  and  C7_17 
REMARK    7  A    between atoms: C7_17  and  C8_18 
REMARK    8  A    between atoms: C8_18  and  N7_19 
REMARK    9  A    between atoms: N7_19  and  C9_22 
ROOT
HETATM    1  N4  UNL     1      -3.716  -1.152   1.047  1.00  0.00    -0.363 N 
ATOM      2  H4  UNL     1      -3.781  -0.746   1.980  1.00  0.00     0.162 HD
HETATM    3  C4  UNL     1      -2.479  -1.309   0.395  1.00  0.00     0.189 C 
HETATM    4  N5  UNL     1      -1.901  -2.574   0.274  1.00  0.00    -0.064 NA
HETATM    5  N6  UNL     1      -1.884  -0.278  -0.087  1.00  0.00    -0.325 N 
ATOM      6  H6  UNL     1      -2.338   0.628   0.027  1.00  0.00     0.169 HD
ENDROOT
BRANCH   5   7
HETATM    7  C5  UNL     1      -0.662  -0.312  -0.755  1.00  0.00     0.079 C 
HETATM    8  S1  UNL     1      -0.698  -0.706  -2.361  1.00  0.00    -0.065 SA
BRANCH   7   9
HETATM    9  C6  UNL     1       0.648  -0.006  -0.112  1.00  0.00     0.071 C 
BRANCH   9  10
HETATM   10  C7  UNL     1       1.769  -0.492  -1.021  1.00  0.00     0.034 C 
BRANCH  10  11
HETATM   11  C8  UNL     1       3.097  -0.207  -0.424  1.00  0.00     0.233 C 
BRANCH  11  12
HETATM   12  N7  UNL     1       3.287   1.190  -0.233  1.00  0.00    -0.071 N 
ATOM     13  H72 UNL     1       3.046   1.701  -1.082  1.00  0.00     0.277 HD
ATOM     14  H71 UNL     1       2.580   1.562   0.401  1.00  0.00     0.277 HD
BRANCH  12  15
HETATM   15  C9  UNL     1       4.604   1.555   0.215  1.00  0.00     0.185 C 
HETATM   16  C10 UNL     1       5.011   1.012   1.534  1.00  0.00     0.033 C 
HETATM   17  C11 UNL     1       6.217   0.131   1.307  1.00  0.00     0.002 C 
HETATM   18  C12 UNL     1       6.761   0.456  -0.048  1.00  0.00     0.002 C 
HETATM   19  C13 UNL     1       5.698   1.221  -0.792  1.00  0.00     0.033 C 
ENDBRANCH  12  15
ENDBRANCH  11  12
ENDBRANCH  10  11
ENDBRANCH   9  10
ENDBRANCH   7   9
ENDBRANCH   5   7
BRANCH   1  20
HETATM   20  C3  UNL     1      -4.903  -1.600   0.320  1.00  0.00     0.142 C 
BRANCH  20  21
HETATM   21  C2  UNL     1      -5.068  -0.648  -0.855  1.00  0.00     0.141 C 
BRANCH  21  22
HETATM   22  N3  UNL     1      -5.262   0.727  -0.366  1.00  0.00    -0.365 N 
HETATM   23  C1  UNL     1      -6.512   1.036  -0.156  1.00  0.00     0.197 C 
HETATM   24  N1  UNL     1      -6.784   2.361   0.320  1.00  0.00    -0.067 NA
HETATM   25  N2  UNL     1      -7.580   0.139  -0.369  1.00  0.00    -0.067 NA
ATOM     26  H3  UNL     1      -4.492   1.377  -0.206  1.00  0.00     0.161 HD
ENDBRANCH  21  22
ENDBRANCH  20  21
ENDBRANCH   1  20
TORSDOF 9
