REMARK  3 active torsions:
REMARK  status: ('A' for Active; 'I' for Inactive)
REMARK    1  A    between atoms: C2_2  and  C4_5 
REMARK    2  A    between atoms: C4_5  and  N1_6 
REMARK       I    between atoms: N1_6  and  C5_8 
REMARK       I    between atoms: C5_8  and  N2_10 
REMARK    3  A    between atoms: C17_27  and  N5_28 
ROOT
HETATM    1  C4  UNL     1       2.586   0.745   0.162  1.00  0.00     0.180 C 
HETATM    2  C14 UNL     1       3.010   0.051   1.465  1.00  0.00     0.071 C 
HETATM    3  C15 UNL     1       4.448  -0.330   1.498  1.00  0.00     0.065 C 
HETATM    4  C16 UNL     1       4.673  -1.339   0.379  1.00  0.00     0.052 A 
HETATM    5  N4  UNL     1       5.277  -2.483   0.412  1.00  0.00    -0.338 N 
ATOM      6  H4  UNL     1       5.688  -2.824   1.281  1.00  0.00     0.168 HD
HETATM    7  C17 UNL     1       5.357  -3.213  -0.706  1.00  0.00     0.145 A 
HETATM    8  S1  UNL     1       4.537  -2.222  -1.843  1.00  0.00    -0.028 SA
HETATM    9  C18 UNL     1       4.135  -0.917  -0.810  1.00  0.00     0.139 A 
HETATM   10  O2  UNL     1       3.468   0.321  -0.901  1.00  0.00    -0.307 OA
ENDROOT
BRANCH   1  11
HETATM   11  C2  UNL     1       2.771   2.211   0.279  1.00  0.00     0.146 C 
HETATM   12  C1  UNL     1       2.006   2.992   1.263  1.00  0.00     0.057 C 
HETATM   13  C3  UNL     1       2.434   2.838  -1.107  1.00  0.00     0.057 C 
HETATM   14  F1  UNL     1       4.123   2.541   0.471  1.00  0.00    -0.238 F 
ENDBRANCH   1  11
BRANCH   1  15
HETATM   15  N1  UNL     1       1.273   0.322  -0.191  1.00  0.00    -0.308 N 
HETATM   16  C5  UNL     1       0.085   0.305   0.563  1.00  0.00     0.320 C 
HETATM   17  O1  UNL     1       0.144   0.702   1.774  1.00  0.00    -0.247 OA
HETATM   18  N2  UNL     1      -1.163  -0.133   0.035  1.00  0.00    -0.333 N 
HETATM   19  C6  UNL     1      -1.412  -0.603  -1.289  1.00  0.00     0.128 C 
HETATM   20  C13 UNL     1      -2.416  -0.190   0.735  1.00  0.00     0.137 C 
HETATM   21  C7  UNL     1      -2.722   0.137  -1.608  1.00  0.00     0.031 C 
HETATM   22  C8  UNL     1      -3.497  -0.131  -0.325  1.00  0.00    -0.019 C 
HETATM   23  C9  UNL     1      -4.211  -1.463  -0.463  1.00  0.00     0.039 C 
HETATM   24  C12 UNL     1      -4.523   0.920  -0.042  1.00  0.00     0.039 C 
HETATM   25  C10 UNL     1      -5.658  -1.213  -0.837  1.00  0.00     0.233 C 
HETATM   26  N3  UNL     1      -6.390  -0.564   0.232  1.00  0.00    -0.075 N 
HETATM   27  C11 UNL     1      -5.517   0.340   0.950  1.00  0.00     0.233 C 
ATOM     28  H32 UNL     1      -7.230  -0.095  -0.109  1.00  0.00     0.277 HD
ATOM     29  H31 UNL     1      -6.838  -1.238   0.853  1.00  0.00     0.277 HD
ATOM     30  H1  UNL     1       1.178  -0.025  -1.145  1.00  0.00     0.167 HD
ENDBRANCH   1  15
BRANCH   7  31
HETATM   31  N5  UNL     1       5.920  -4.385  -0.886  1.00  0.00    -0.380 N 
ATOM     32  H52 UNL     1       6.407  -4.974  -0.210  1.00  0.00     0.158 HD
ATOM     33  H51 UNL     1       5.981  -4.942  -1.739  1.00  0.00     0.158 HD
ENDBRANCH   7  31
TORSDOF 3
