REMARK  0 active torsions:
REMARK  status: ('A' for Active; 'I' for Inactive)
ROOT
HETATM    1  N1  UNL     1       5.263  -1.023   0.250  1.00  0.00    -0.379 N 
ATOM      2  H11 UNL     1       5.602  -1.970   0.081  1.00  0.00     0.158 HD
ATOM      3  H12 UNL     1       5.648  -0.141   0.588  1.00  0.00     0.158 HD
HETATM    4  C1  UNL     1       4.012  -0.892  -0.039  1.00  0.00     0.149 C 
HETATM    5  N2  UNL     1       3.536   0.439   0.198  1.00  0.00    -0.282 N 
ATOM      6  H2  UNL     1       4.236   1.169   0.065  1.00  0.00     0.184 HD
HETATM    7  N3  UNL     1       2.274   0.908   0.581  1.00  0.00    -0.107 NA
HETATM    8  C2  UNL     1       1.382   0.863  -0.553  1.00  0.00     0.235 C 
HETATM    9  C3  UNL     1       0.475   2.102  -0.541  1.00  0.00     0.055 C 
HETATM   10  C4  UNL     1      -0.359   2.141   0.702  1.00  0.00     0.030 C 
HETATM   11  C5  UNL     1      -1.678   2.750   0.571  1.00  0.00    -0.030 C 
HETATM   12  C6  UNL     1      -2.777   2.224   0.064  1.00  0.00    -0.031 C 
HETATM   13  C7  UNL     1      -2.903   0.854  -0.497  1.00  0.00     0.027 C 
HETATM   14  C8  UNL     1      -3.001  -0.180   0.601  1.00  0.00     0.004 C 
HETATM   15  C9  UNL     1      -2.728  -1.571   0.143  1.00  0.00     0.000 C 
HETATM   16  C10 UNL     1      -1.368  -1.839  -0.390  1.00  0.00     0.002 C 
HETATM   17  C11 UNL     1      -0.294  -2.001   0.642  1.00  0.00     0.033 C 
HETATM   18  C12 UNL     1       0.956  -1.345   0.086  1.00  0.00     0.133 C 
HETATM   19  C13 UNL     1       1.566  -2.331  -0.889  1.00  0.00     0.114 C 
HETATM   20  S1  UNL     1       3.340  -2.430  -0.629  1.00  0.00    -0.091 SA
HETATM   21  O1  UNL     1       0.583  -0.234  -0.604  1.00  0.00    -0.362 OA
ENDROOT
TORSDOF 0
