REMARK  4 active torsions:
REMARK  status: ('A' for Active; 'I' for Inactive)
REMARK    1  A    between atoms: N1_2  and  O1_3 
REMARK    2  A    between atoms: N1_2  and  C2_5 
REMARK    3  A    between atoms: C5_8  and  O2_9 
REMARK    4  A    between atoms: C13_18  and  O3_19 
ROOT
HETATM    1  C2  UNL     1      -1.740  -0.148   0.190  1.00  0.00     0.095 C 
HETATM    2  C3  UNL     1      -2.757   0.905   0.432  1.00  0.00     0.042 C 
HETATM    3  C4  UNL     1      -2.116   2.089  -0.317  1.00  0.00     0.035 C 
HETATM    4  C5  UNL     1      -0.612   1.773  -0.396  1.00  0.00     0.126 C 
HETATM    5  C6  UNL     1      -0.503   0.626   0.493  1.00  0.00     0.062 C 
HETATM    6  C7  UNL     1       0.666  -0.238   0.542  1.00  0.00     0.004 C 
HETATM    7  C8  UNL     1       1.785   0.572   1.223  1.00  0.00     0.013 C 
HETATM    8  C9  UNL     1       2.817   0.948   0.175  1.00  0.00     0.001 C 
HETATM    9  C10 UNL     1       3.510  -0.372  -0.150  1.00  0.00     0.000 C 
HETATM   10  C11 UNL     1       2.537  -1.238  -0.849  1.00  0.00     0.001 C 
HETATM   11  C12 UNL     1       1.104  -0.866  -0.725  1.00  0.00     0.013 C 
HETATM   12  C13 UNL     1       0.281  -1.282   1.611  1.00  0.00     0.190 C 
HETATM   13  S1  UNL     1      -1.562  -1.359   1.532  1.00  0.00    -0.108 SA
ENDROOT
BRANCH  12  14
HETATM   14  O3  UNL     1       0.842  -2.507   1.358  1.00  0.00    -0.384 OA
ATOM     15  H3  UNL     1       0.605  -3.150   2.016  1.00  0.00     0.211 HD
ENDBRANCH  12  14
BRANCH   1  16
HETATM   16  N1  UNL     1      -1.814  -0.846  -1.037  1.00  0.00    -0.184 NA
HETATM   17  C1  UNL     1      -3.005  -1.678  -1.025  1.00  0.00     0.145 C 
BRANCH  16  18
HETATM   18  O1  UNL     1      -1.949  -0.041  -2.116  1.00  0.00    -0.312 OA
ATOM     19  H1  UNL     1      -1.170   0.503  -2.124  1.00  0.00     0.237 HD
ENDBRANCH  16  18
ENDBRANCH   1  16
BRANCH   4  20
HETATM   20  O2  UNL     1       0.059   2.860   0.174  1.00  0.00    -0.395 OA
ATOM     21  H2  UNL     1       0.987   2.665   0.125  1.00  0.00     0.210 HD
ENDBRANCH   4  20
TORSDOF 4
