REMARK  3 active torsions:
REMARK  status: ('A' for Active; 'I' for Inactive)
REMARK    1  A    between atoms: C5_7  and  O3_8 
REMARK    2  A    between atoms: C6_10  and  C8_12 
REMARK    3  A    between atoms: C8_12  and  O4_13 
ROOT
HETATM    1  C1  UNL     1       2.712  -2.191   0.969  1.00  0.00     0.049 C 
HETATM    2  C2  UNL     1       1.732  -1.313   0.784  1.00  0.00     0.081 C 
HETATM    3  O1  UNL     1       0.570  -1.761   1.404  1.00  0.00    -0.202 OA
HETATM    4  O2  UNL     1      -0.602  -1.271   1.667  1.00  0.00    -0.219 OA
HETATM    5  C3  UNL     1      -1.339  -0.658   0.729  1.00  0.00     0.150 C 
HETATM    6  C4  UNL     1      -2.807  -0.919   1.107  1.00  0.00     0.055 C 
HETATM    7  C5  UNL     1      -1.178   0.854   0.860  1.00  0.00     0.171 C 
HETATM    8  C6  UNL     1       0.106   1.351   0.299  1.00  0.00     0.033 C 
HETATM    9  C7  UNL     1       0.969   1.772   1.505  1.00  0.00     0.023 C 
HETATM   10  C9  UNL     1       0.810   0.423  -0.621  1.00  0.00     0.145 C 
HETATM   11  O5  UNL     1       0.173  -0.666  -1.070  1.00  0.00    -0.371 OA
HETATM   12  C10 UNL     1      -1.062  -0.999  -0.695  1.00  0.00     0.090 C 
HETATM   13  C11 UNL     1      -2.046  -0.383  -1.658  1.00  0.00     0.049 C 
HETATM   14  C12 UNL     1      -1.296  -2.510  -0.842  1.00  0.00     0.049 C 
HETATM   15  C13 UNL     1       2.122  -0.119  -0.014  1.00  0.00     0.071 C 
HETATM   16  C14 UNL     1       3.073  -0.487  -1.137  1.00  0.00     0.020 C 
ENDROOT
BRANCH   8  17
HETATM   17  C8  UNL     1      -0.094   2.721  -0.384  1.00  0.00     0.178 C 
BRANCH  17  18
HETATM   18  O4  UNL     1       1.186   3.066  -0.863  1.00  0.00    -0.400 OA
ATOM     19  H4  UNL     1       1.063   3.909  -1.283  1.00  0.00     0.209 HD
ENDBRANCH  17  18
ENDBRANCH   8  17
BRANCH   7  20
HETATM   20  O3  UNL     1      -2.309   1.413   0.280  1.00  0.00    -0.391 OA
ATOM     21  H3  UNL     1      -2.209   2.354   0.362  1.00  0.00     0.210 HD
ENDBRANCH   7  20
TORSDOF 3
