REMARK  8 active torsions:
REMARK  status: ('A' for Active; 'I' for Inactive)
REMARK    1  A    between atoms: C10_12  and  O3_13 
REMARK    2  A    between atoms: O3_13  and  C11_14 
REMARK    3  A    between atoms: C11_14  and  O5_16 
REMARK    4  A    between atoms: O5_16  and  C12_17 
REMARK    5  A    between atoms: C14_19  and  C15_20 
REMARK    6  A    between atoms: C16_21  and  C18_23 
REMARK    7  A    between atoms: C18_23  and  C19_24 
REMARK    8  A    between atoms: C22_27  and  O6_28 
ROOT
HETATM    1  C1  UNL     1       0.747  -2.890  -1.459  1.00  0.00     0.028 C 
HETATM    2  C2  UNL     1      -0.334  -2.164  -1.654  1.00  0.00     0.037 C 
HETATM    3  C3  UNL     1      -1.625  -2.900  -1.806  1.00  0.00     0.291 C 
HETATM    4  O1  UNL     1      -1.454  -4.085  -2.286  1.00  0.00    -0.260 OA
HETATM    5  O2  UNL     1      -2.788  -2.330  -1.464  1.00  0.00    -0.317 OA
HETATM    6  C4  UNL     1      -3.642  -2.241  -0.424  1.00  0.00     0.187 C 
HETATM    7  C5  UNL     1      -3.125  -1.834   0.922  1.00  0.00    -0.025 C 
HETATM    8  C6  UNL     1      -4.382  -1.694   1.810  1.00  0.00     0.017 C 
HETATM    9  C7  UNL     1      -2.318  -2.919   1.592  1.00  0.00     0.017 C 
HETATM   10  C8  UNL     1      -2.452  -0.484   0.946  1.00  0.00     0.013 C 
HETATM   11  C9  UNL     1      -0.999  -0.539   1.276  1.00  0.00     0.034 C 
HETATM   12  C10 UNL     1      -0.252   0.502   0.459  1.00  0.00     0.144 C 
HETATM   13  C14 UNL     1       0.629  -0.119  -0.572  1.00  0.00     0.072 C 
HETATM   14  C22 UNL     1      -0.219  -0.712  -1.725  1.00  0.00     0.166 C 
ENDROOT
BRANCH  13  15
HETATM   15  C15 UNL     1       1.557   0.870  -1.129  1.00  0.00    -0.002 C 
HETATM   16  C16 UNL     1       2.878   0.893  -1.082  1.00  0.00    -0.024 C 
HETATM   17  C17 UNL     1       3.537   2.086  -1.793  1.00  0.00     0.057 C 
BRANCH  16  18
HETATM   18  C18 UNL     1       3.658  -0.001  -0.328  1.00  0.00    -0.145 C 
BRANCH  18  19
HETATM   19  C19 UNL     1       4.351  -0.795   0.342  1.00  0.00     0.049 C 
HETATM   20  C20 UNL     1       3.759  -1.841   1.264  1.00  0.00     0.022 C 
HETATM   21  C21 UNL     1       5.856  -0.828   0.376  1.00  0.00     0.022 C 
ENDBRANCH  18  19
ENDBRANCH  16  18
ENDBRANCH  13  15
BRANCH  12  22
HETATM   22  O3  UNL     1      -1.097   1.519  -0.030  1.00  0.00    -0.292 OA
BRANCH  22  23
HETATM   23  C11 UNL     1      -0.983   2.840   0.417  1.00  0.00     0.406 C 
HETATM   24  O4  UNL     1      -0.100   3.083   1.270  1.00  0.00    -0.229 OA
BRANCH  23  25
HETATM   25  O5  UNL     1      -1.829   3.849  -0.077  1.00  0.00    -0.298 OA
BRANCH  25  26
HETATM   26  C12 UNL     1      -1.568   5.139   0.482  1.00  0.00     0.176 C 
HETATM   27  C13 UNL     1      -2.478   6.189  -0.058  1.00  0.00     0.034 C 
ENDBRANCH  25  26
ENDBRANCH  23  25
ENDBRANCH  22  23
ENDBRANCH  12  22
BRANCH  14  28
HETATM   28  O6  UNL     1       0.557  -0.459  -2.888  1.00  0.00    -0.390 OA
ATOM     29  H6  UNL     1       0.632   0.487  -2.934  1.00  0.00     0.210 HD
ENDBRANCH  14  28
TORSDOF 8
