REMARK  5 active torsions:
REMARK  status: ('A' for Active; 'I' for Inactive)
REMARK    1  A    between atoms: C3_4  and  C4_5 
REMARK    2  A    between atoms: C3_4  and  C10_11 
REMARK    3  A    between atoms: C10_11  and  C11_12 
REMARK    4  A    between atoms: C11_12  and  O2_13 
REMARK    5  A    between atoms: N1_15  and  O3_17 
ROOT
HETATM    1  O1  UNL     1       1.899   0.769  -1.880  1.00  0.00    -0.290 OA
HETATM    2  C1  UNL     1       1.567  -0.024  -0.995  1.00  0.00     0.185 C 
HETATM    3  C2  UNL     1       0.303  -0.483  -0.411  1.00  0.00     0.057 C 
HETATM    4  C3  UNL     1      -0.896   0.045  -0.310  1.00  0.00    -0.011 C 
HETATM    5  S1  UNL     1       1.016  -2.031   0.116  1.00  0.00    -0.107 SA
HETATM    6  C16 UNL     1       2.402  -0.888  -0.114  1.00  0.00     0.079 C 
HETATM    7  C17 UNL     1       3.484  -1.548  -0.904  1.00  0.00     0.029 C 
HETATM    8  C18 UNL     1       4.660  -0.591  -1.010  1.00  0.00     0.002 C 
HETATM    9  C19 UNL     1       5.186  -0.453   0.424  1.00  0.00     0.000 C 
HETATM   10  C20 UNL     1       4.172   0.277   1.261  1.00  0.00     0.002 C 
HETATM   11  C21 UNL     1       2.790  -0.271   1.168  1.00  0.00     0.029 C 
ENDROOT
BRANCH   4  12
HETATM   12  C4  UNL     1      -1.027   1.383  -0.898  1.00  0.00    -0.027 A 
HETATM   13  C5  UNL     1      -1.933   1.709  -1.838  1.00  0.00     0.012 A 
HETATM   14  C6  UNL     1      -1.994   3.038  -2.288  1.00  0.00     0.001 A 
HETATM   15  C7  UNL     1      -1.145   3.972  -1.774  1.00  0.00     0.000 A 
HETATM   16  C8  UNL     1      -0.204   3.677  -0.812  1.00  0.00     0.001 A 
HETATM   17  C9  UNL     1      -0.171   2.352  -0.388  1.00  0.00     0.012 A 
ENDBRANCH   4  12
BRANCH   4  18
HETATM   18  C10 UNL     1      -1.985  -0.634   0.365  1.00  0.00     0.059 C 
HETATM   19  C12 UNL     1      -2.640   0.324   1.377  1.00  0.00     0.049 C 
HETATM   20  C13 UNL     1      -2.604  -0.252   2.767  1.00  0.00     0.169 C 
HETATM   21  O4  UNL     1      -3.041  -1.539   2.880  1.00  0.00    -0.391 OA
HETATM   22  C14 UNL     1      -2.959  -2.332   1.772  1.00  0.00     0.169 C 
HETATM   23  C15 UNL     1      -1.638  -1.920   1.049  1.00  0.00     0.049 C 
BRANCH  18  24
HETATM   24  C11 UNL     1      -3.068  -0.969  -0.588  1.00  0.00     0.149 C 
HETATM   25  N1  UNL     1      -2.787  -1.837  -1.512  1.00  0.00    -0.250 N 
ATOM     26  H1  UNL     1      -1.850  -2.238  -1.534  1.00  0.00     0.196 HD
BRANCH  24  27
HETATM   27  O2  UNL     1      -4.321  -0.411  -0.527  1.00  0.00    -0.347 OA
ATOM     28  H2  UNL     1      -5.016  -0.626  -1.138  1.00  0.00     0.219 HD
ENDBRANCH  24  27
BRANCH  25  29
HETATM   29  O3  UNL     1      -3.692  -2.238  -2.458  1.00  0.00    -0.288 OA
ATOM     30  H3  UNL     1      -3.486  -2.873  -3.134  1.00  0.00     0.244 HD
ENDBRANCH  25  29
ENDBRANCH  18  24
ENDBRANCH   4  18
TORSDOF 5
