REMARK  7 active torsions:
REMARK  status: ('A' for Active; 'I' for Inactive)
REMARK    1  A    between atoms: C2_2  and  C3_3 
REMARK    2  A    between atoms: C3_3  and  N1_4 
REMARK    3  A    between atoms: C7_8  and  C8_9 
REMARK    4  A    between atoms: C9_10  and  C10_11 
REMARK    5  A    between atoms: C13_16  and  N3_17 
REMARK    6  A    between atoms: C16_25  and  N5_26 
REMARK    7  A    between atoms: C17_31  and  C18_32 
ROOT
HETATM    1  C10 UNL     1       2.403  -0.459  -0.624  1.00  0.00     0.090 A 
HETATM    2  C11 UNL     1       3.063   0.031   0.474  1.00  0.00     0.070 A 
HETATM    3  C12 UNL     1       4.444   0.174   0.519  1.00  0.00     0.071 A 
HETATM    4  N2  UNL     1       5.060   0.665   1.631  1.00  0.00    -0.191 N 
ATOM      5  H2  UNL     1       4.508   0.934   2.445  1.00  0.00     0.184 HD
HETATM    6  C13 UNL     1       6.410   0.794   1.651  1.00  0.00     0.679 A 
HETATM    7  N4  UNL     1       7.095   0.429   0.561  1.00  0.00    -0.155 N 
ATOM      8  H4  UNL     1       8.110   0.527   0.578  1.00  0.00     0.187 HD
HETATM    9  C14 UNL     1       6.525  -0.060  -0.557  1.00  0.00     0.275 A 
HETATM   10  O1  UNL     1       7.191  -0.393  -1.562  1.00  0.00    -0.267 OA
HETATM   11  C15 UNL     1       5.151  -0.201  -0.602  1.00  0.00     0.103 A 
HETATM   12  C16 UNL     1       4.489  -0.693  -1.705  1.00  0.00     0.118 A 
HETATM   13  N6  UNL     1       3.151  -0.807  -1.688  1.00  0.00    -0.335 N 
ATOM     14  H6  UNL     1       2.681  -1.173  -2.516  1.00  0.00     0.168 HD
ENDROOT
BRANCH   1  15
HETATM   15  C9  UNL     1       0.970  -0.584  -0.603  1.00  0.00    -0.048 C 
HETATM   16  C8  UNL     1      -0.244  -0.678  -0.603  1.00  0.00    -0.092 C 
BRANCH  16  17
HETATM   17  C7  UNL     1      -1.680  -0.781  -0.628  1.00  0.00     0.099 C 
HETATM   18  C6  UNL     1      -2.174  -2.181  -0.908  1.00  0.00     0.021 C 
HETATM   19  C5  UNL     1      -3.656  -2.127  -0.969  1.00  0.00     0.031 C 
HETATM   20  C4  UNL     1      -4.320  -0.867  -0.599  1.00  0.00     0.273 C 
HETATM   21  N1  UNL     1      -3.693  -0.006   0.333  1.00  0.00     0.095 N 
HETATM   22  C17 UNL     1      -2.323  -0.335   0.645  1.00  0.00     0.248 C 
BRANCH  21  23
HETATM   23  C3  UNL     1      -3.725   1.395  -0.017  1.00  0.00     0.272 C 
BRANCH  23  24
HETATM   24  C2  UNL     1      -5.111   1.992   0.028  1.00  0.00     0.026 C 
HETATM   25  C1  UNL     1      -5.070   3.459  -0.342  1.00  0.00     0.007 C 
ENDBRANCH  23  24
ENDBRANCH  21  23
BRANCH  22  26
HETATM   26  C18 UNL     1      -2.289  -1.324   1.768  1.00  0.00     0.122 C 
HETATM   27 BR1  UNL     1      -0.496  -1.818   2.249  1.00  0.00    -0.094 Br
ENDBRANCH  22  26
ENDBRANCH  16  17
ENDBRANCH   1  15
BRANCH  12  28
HETATM   28  N5  UNL     1       5.167  -1.038  -2.743  1.00  0.00    -0.385 N 
ATOM     29  H52 UNL     1       6.183  -0.951  -2.756  1.00  0.00     0.157 HD
ATOM     30  H51 UNL     1       4.677  -1.402  -3.560  1.00  0.00     0.157 HD
ENDBRANCH  12  28
BRANCH   6  31
HETATM   31  N3  UNL     1       6.973   1.261   2.715  1.00  0.00    -0.234 N 
ATOM     32  H32 UNL     1       6.451   1.539   3.546  1.00  0.00     0.174 HD
ATOM     33  H31 UNL     1       7.988   1.358   2.730  1.00  0.00     0.174 HD
ENDBRANCH   6  31
TORSDOF 7
