REMARK  13 active torsions:
REMARK  status: ('A' for Active; 'I' for Inactive)
REMARK    1  A    between atoms: C4_4  and  O1_5 
REMARK    2  A    between atoms: O1_5  and  C5_6 
REMARK       I    between atoms: C5_6  and  N1_8 
REMARK    3  A    between atoms: N1_8  and  C6_10 
REMARK    4  A    between atoms: C6_10  and  C7_11 
REMARK    5  A    between atoms: C7_11  and  N2_12 
REMARK    6  A    between atoms: N2_12  and  C8_15 
REMARK    7  A    between atoms: C8_15  and  C9_16 
REMARK    8  A    between atoms: C9_16  and  C10_17 
REMARK    9  A    between atoms: C10_17  and  C11_18 
REMARK   10  A    between atoms: C13_25  and  N5_26 
REMARK   11  A    between atoms: N5_26  and  N6_28 
REMARK   12  A    between atoms: N6_28  and  O4_30 
REMARK   13  A    between atoms: O4_30  and  N7_31 
REMARK       I    between atoms: N7_31  and  C14_33 
ROOT
HETATM    1  C11 UNL     1       2.864  -0.628   0.019  1.00  0.00     0.059 A 
HETATM    2  N3  UNL     1       3.302  -1.761   0.646  1.00  0.00    -0.300 N 
ATOM      3  H3  UNL     1       3.309  -2.695   0.236  1.00  0.00     0.186 HD
HETATM    4  N4  UNL     1       3.719  -1.457   1.879  1.00  0.00    -0.264 N 
ATOM      5  H4  UNL     1       4.091  -2.128   2.551  1.00  0.00     0.190 HD
HETATM    6  C12 UNL     1       3.578  -0.143   2.106  1.00  0.00     0.290 A 
HETATM    7  O3  UNL     1       3.867   0.480   3.145  1.00  0.00    -0.264 OA
HETATM    8  C13 UNL     1       3.047   0.372   0.952  1.00  0.00     0.143 A 
ENDROOT
BRANCH   1   9
HETATM    9  C10 UNL     1       2.311  -0.525  -1.347  1.00  0.00     0.063 C 
BRANCH   9  10
HETATM   10  C9  UNL     1       0.781  -0.441  -1.261  1.00  0.00     0.033 C 
BRANCH  10  11
HETATM   11  C8  UNL     1       0.346  -1.705  -0.573  1.00  0.00     0.232 C 
BRANCH  11  12
HETATM   12  N2  UNL     1      -1.126  -1.726  -0.477  1.00  0.00    -0.074 N 
ATOM     13  H22 UNL     1      -1.568  -1.666  -1.394  1.00  0.00     0.277 HD
ATOM     14  H21 UNL     1      -1.494  -0.863  -0.076  1.00  0.00     0.277 HD
BRANCH  12  15
HETATM   15  C7  UNL     1      -1.554  -2.868   0.242  1.00  0.00     0.252 C 
BRANCH  15  16
HETATM   16  C6  UNL     1      -3.017  -3.010   0.386  1.00  0.00     0.152 C 
BRANCH  16  17
HETATM   17  N1  UNL     1      -3.675  -1.967   1.084  1.00  0.00    -0.335 N 
HETATM   18  C5  UNL     1      -3.828  -0.633   0.738  1.00  0.00     0.365 C 
HETATM   19  O2  UNL     1      -3.399  -0.126  -0.302  1.00  0.00    -0.238 OA
ATOM     20  H1  UNL     1      -4.098  -2.237   1.972  1.00  0.00     0.164 HD
BRANCH  18  21
HETATM   21  O1  UNL     1      -4.520   0.280   1.591  1.00  0.00    -0.274 OA
BRANCH  21  22
HETATM   22  C4  UNL     1      -4.658   1.595   1.216  1.00  0.00     0.149 C 
HETATM   23  C2  UNL     1      -5.693   2.007   0.514  1.00  0.00    -0.065 C 
HETATM   24  C1  UNL     1      -6.751   1.017   0.112  1.00  0.00     0.045 C 
HETATM   25  C3  UNL     1      -5.864   3.408   0.102  1.00  0.00     0.045 C 
ENDBRANCH  21  22
ENDBRANCH  18  21
ENDBRANCH  16  17
ENDBRANCH  15  16
ENDBRANCH  12  15
ENDBRANCH  11  12
ENDBRANCH  10  11
ENDBRANCH   9  10
ENDBRANCH   1   9
BRANCH   8  26
HETATM   26  N5  UNL     1       2.738   1.752   0.727  1.00  0.00    -0.272 N 
ATOM     27  H5  UNL     1       1.771   2.055   0.608  1.00  0.00     0.189 HD
BRANCH  26  28
HETATM   28  N6  UNL     1       3.716   2.615   0.677  1.00  0.00    -0.181 N 
ATOM     29  H6  UNL     1       3.536   3.605   0.513  1.00  0.00     0.218 HD
BRANCH  28  30
HETATM   30  O4  UNL     1       4.971   2.157   0.849  1.00  0.00    -0.137 OA
BRANCH  30  31
HETATM   31  N7  UNL     1       5.855   1.715  -0.067  1.00  0.00    -0.192 N 
HETATM   32  C14 UNL     1       7.134   2.308  -0.189  1.00  0.00     0.354 C 
HETATM   33  N8  UNL     1       8.060   1.832  -1.157  1.00  0.00    -0.038 NA
HETATM   34  O5  UNL     1       7.427   3.268   0.585  1.00  0.00    -0.249 OA
ATOM     35  H7  UNL     1       5.599   0.942  -0.681  1.00  0.00     0.201 HD
ENDBRANCH  30  31
ENDBRANCH  28  30
ENDBRANCH  26  28
ENDBRANCH   8  26
TORSDOF 13
