REMARK  15 active torsions:
REMARK  status: ('A' for Active; 'I' for Inactive)
REMARK    1  A    between atoms: C2_2  and  C14_16 
REMARK    2  A    between atoms: C3_3  and  C4_4 
REMARK    3  A    between atoms: C4_4  and  C5_5 
REMARK    4  A    between atoms: C5_5  and  C6_6 
REMARK    5  A    between atoms: C5_5  and  C8_10 
REMARK    6  A    between atoms: C6_6  and  C7_7 
REMARK    7  A    between atoms: C14_16  and  O3_17 
REMARK    8  A    between atoms: C14_16  and  C16_27 
REMARK    9  A    between atoms: O3_17  and  C15_18 
REMARK   10  A    between atoms: C15_18  and  N2_22 
REMARK   11  A    between atoms: N2_22  and  N3_24 
REMARK   12  A    between atoms: C16_27  and  O5_29 
REMARK   13  A    between atoms: O5_29  and  C17_30 
REMARK   14  A    between atoms: C17_30  and  C18_31 
REMARK   15  A    between atoms: C18_31  and  O6_32 
ROOT
HETATM    1  C14 UNL     1      -3.073   0.472  -0.715  1.00  0.00     0.260 C 
ENDROOT
BRANCH   1   2
HETATM    2  C2  UNL     1      -1.611   0.792  -0.773  1.00  0.00    -0.049 C 
HETATM    3  C1  UNL     1      -1.118   1.638  -1.874  1.00  0.00     0.046 C 
HETATM    4  C3  UNL     1      -0.803   0.348   0.152  1.00  0.00    -0.021 C 
BRANCH   4   5
HETATM    5  C4  UNL     1       0.647   0.567   0.297  1.00  0.00     0.033 C 
BRANCH   5   6
HETATM    6  C5  UNL     1       1.418  -0.760   0.293  1.00  0.00     0.003 C 
BRANCH   6   7
HETATM    7  C6  UNL     1       1.102  -1.378  -1.033  1.00  0.00     0.118 C 
BRANCH   7   8
HETATM    8  C7  UNL     1       1.678  -2.678  -1.315  1.00  0.00     0.172 C 
HETATM    9  O1  UNL     1       2.354  -3.297  -0.475  1.00  0.00    -0.648 OA
HETATM   10  O2  UNL     1       1.462  -3.242  -2.567  1.00  0.00    -0.648 OA
ENDBRANCH   7   8
ENDBRANCH   6   7
BRANCH   6  11
HETATM   11  C8  UNL     1       2.870  -0.530   0.582  1.00  0.00    -0.010 C 
HETATM   12  C9  UNL     1       3.573   0.345  -0.396  1.00  0.00     0.005 C 
HETATM   13  C10 UNL     1       4.795   1.025   0.190  1.00  0.00     0.000 C 
HETATM   14  C11 UNL     1       5.441   0.196   1.272  1.00  0.00     0.000 C 
HETATM   15  C12 UNL     1       4.497  -0.083   2.412  1.00  0.00     0.000 C 
HETATM   16  C13 UNL     1       3.048   0.034   2.006  1.00  0.00     0.005 C 
ENDBRANCH   6  11
ENDBRANCH   5   6
ENDBRANCH   4   5
ENDBRANCH   1   2
BRANCH   1  17
HETATM   17  O3  UNL     1      -3.778   1.604  -0.295  1.00  0.00    -0.301 OA
BRANCH  17  18
HETATM   18  C15 UNL     1      -3.855   2.782  -0.962  1.00  0.00     0.232 C 
HETATM   19  N1  UNL     1      -4.190   2.711  -2.217  1.00  0.00    -0.364 N 
ATOM     20  H12 UNL     1      -4.367   1.786  -2.609  1.00  0.00     0.159 HD
ATOM     21  H11 UNL     1      -4.248   3.597  -2.719  1.00  0.00     0.159 HD
BRANCH  18  22
HETATM   22  N2  UNL     1      -3.610   4.060  -0.421  1.00  0.00    -0.272 N 
ATOM     23  H2  UNL     1      -3.834   4.234   0.559  1.00  0.00     0.190 HD
BRANCH  22  24
HETATM   24  N3  UNL     1      -3.074   5.088  -1.181  1.00  0.00    -0.342 N 
ATOM     25  H32 UNL     1      -2.856   4.897  -2.159  1.00  0.00     0.176 HD
ATOM     26  H31 UNL     1      -2.897   6.013  -0.789  1.00  0.00     0.176 HD
ENDBRANCH  22  24
ENDBRANCH  18  22
ENDBRANCH  17  18
ENDBRANCH   1  17
BRANCH   1  27
HETATM   27  C16 UNL     1      -3.310  -0.625   0.299  1.00  0.00     0.293 C 
HETATM   28  O4  UNL     1      -3.979  -0.365   1.313  1.00  0.00    -0.262 OA
BRANCH  27  29
HETATM   29  O5  UNL     1      -2.799  -1.874   0.101  1.00  0.00    -0.317 OA
BRANCH  29  30
HETATM   30  C17 UNL     1      -2.952  -2.964   0.960  1.00  0.00     0.205 C 
BRANCH  30  31
HETATM   31  C18 UNL     1      -4.375  -3.361   1.177  1.00  0.00     0.191 C 
BRANCH  31  32
HETATM   32  O6  UNL     1      -4.369  -4.460   2.054  1.00  0.00    -0.399 OA
ATOM     33  H6  UNL     1      -5.274  -4.713   2.192  1.00  0.00     0.209 HD
ENDBRANCH  31  32
ENDBRANCH  30  31
ENDBRANCH  29  30
ENDBRANCH  27  29
ENDBRANCH   1  27
TORSDOF 15
