REMARK  11 active torsions:
REMARK  status: ('A' for Active; 'I' for Inactive)
REMARK    1  A    between atoms: N1_5  and  C5_6 
REMARK    2  A    between atoms: C5_6  and  C6_7 
REMARK    3  A    between atoms: C6_7  and  C7_8 
REMARK    4  A    between atoms: C7_8  and  O1_9 
REMARK    5  A    between atoms: O1_9  and  C8_10 
REMARK    6  A    between atoms: C12_14  and  C13_15 
REMARK    7  A    between atoms: C13_15  and  C14_16 
REMARK    8  A    between atoms: C17_19  and  C18_20 
REMARK    9  A    between atoms: C18_20  and  C19_21 
REMARK   10  A    between atoms: C23_28  and  C24_29 
REMARK   11  A    between atoms: C30_40  and  O6_41 
ROOT
HETATM    1  C8  UNL     1       2.854  -1.515   0.440  1.00  0.00     0.069 A 
HETATM    2  C9  UNL     1       2.037  -1.299   1.529  1.00  0.00     0.037 A 
HETATM    3  C10 UNL     1       0.847  -1.995   1.635  1.00  0.00     0.016 A 
HETATM    4  C11 UNL     1       0.427  -2.913   0.687  1.00  0.00    -0.006 A 
HETATM    5  C12 UNL     1      -0.759  -3.608   0.791  1.00  0.00     0.044 A 
HETATM    6  C29 UNL     1      -1.091  -4.506  -0.209  1.00  0.00     0.258 A 
HETATM    7  O5  UNL     1      -2.184  -5.162  -0.136  1.00  0.00    -0.267 OA
HETATM    8  N3  UNL     1      -0.287  -4.711  -1.268  1.00  0.00    -0.303 N 
ATOM      9  H3  UNL     1      -0.547  -5.376  -1.996  1.00  0.00     0.171 HD
HETATM   10  C30 UNL     1       0.863  -4.025  -1.350  1.00  0.00     0.154 A 
HETATM   11  C31 UNL     1       1.271  -3.105  -0.390  1.00  0.00     0.029 A 
HETATM   12  C32 UNL     1       2.456  -2.417  -0.503  1.00  0.00     0.053 A 
ENDROOT
BRANCH   5  13
HETATM   13  C13 UNL     1      -1.603  -3.379   1.929  1.00  0.00     0.029 C 
BRANCH  13  14
HETATM   14  C14 UNL     1      -2.680  -2.615   1.836  1.00  0.00    -0.035 A 
HETATM   15  C15 UNL     1      -3.510  -2.377   2.911  1.00  0.00     0.012 A 
HETATM   16  C16 UNL     1      -4.632  -1.577   2.806  1.00  0.00     0.012 A 
HETATM   17  C17 UNL     1      -4.964  -0.983   1.609  1.00  0.00    -0.035 A 
HETATM   18  C27 UNL     1      -4.146  -1.211   0.528  1.00  0.00     0.012 A 
HETATM   19  C28 UNL     1      -3.011  -2.021   0.639  1.00  0.00     0.012 A 
BRANCH  17  20
HETATM   20  C18 UNL     1      -6.046  -0.217   1.522  1.00  0.00     0.025 C 
BRANCH  20  21
HETATM   21  C19 UNL     1      -6.471   0.447   0.305  1.00  0.00    -0.006 A 
HETATM   22  C20 UNL     1      -7.106  -0.294  -0.661  1.00  0.00     0.019 A 
HETATM   23  C21 UNL     1      -7.383  -1.757  -0.527  1.00  0.00     0.069 C 
HETATM   24  N2  UNL     1      -7.511   0.317  -1.806  1.00  0.00    -0.326 N 
HETATM   25  C22 UNL     1      -7.314   1.629  -2.032  1.00  0.00     0.263 A 
ATOM     26  H2  UNL     1      -7.981  -0.239  -2.520  1.00  0.00     0.169 HD
HETATM   27  O2  UNL     1      -7.708   2.164  -3.116  1.00  0.00    -0.267 OA
HETATM   28  C23 UNL     1      -6.681   2.409  -1.087  1.00  0.00     0.115 A 
HETATM   29  C25 UNL     1      -6.262   1.788   0.090  1.00  0.00    -0.027 A 
HETATM   30  C26 UNL     1      -5.580   2.635   1.103  1.00  0.00     0.050 C 
BRANCH  28  31
HETATM   31  C24 UNL     1      -6.476   3.828  -1.343  1.00  0.00     0.215 C 
HETATM   32  O3  UNL     1      -5.445   4.295  -1.913  1.00  0.00    -0.644 OA
HETATM   33  O4  UNL     1      -7.444   4.752  -0.954  1.00  0.00    -0.644 OA
ENDBRANCH  28  31
ENDBRANCH  20  21
ENDBRANCH  17  20
ENDBRANCH  13  14
ENDBRANCH   5  13
BRANCH  10  34
HETATM   34  O6  UNL     1       1.721  -4.209  -2.431  1.00  0.00    -0.345 OA
ATOM     35  H6  UNL     1       2.535  -3.723  -2.489  1.00  0.00     0.219 HD
ENDBRANCH  10  34
BRANCH   1  36
HETATM   36  O1  UNL     1       4.066  -0.811   0.326  1.00  0.00    -0.351 OA
BRANCH  36  37
HETATM   37  C7  UNL     1       4.923  -1.017  -0.781  1.00  0.00     0.177 C 
BRANCH  37  38
HETATM   38  C6  UNL     1       6.135  -0.133  -0.634  1.00  0.00     0.047 C 
BRANCH  38  39
HETATM   39  C5  UNL     1       5.699   1.300  -0.590  1.00  0.00     0.130 C 
BRANCH  39  40
HETATM   40  N1  UNL     1       6.820   2.209  -0.450  1.00  0.00    -0.366 N 
HETATM   41  C4  UNL     1       7.253   2.573   0.762  1.00  0.00     0.091 A 
HETATM   42  C3  UNL     1       8.316   3.436   0.964  1.00  0.00     0.024 A 
HETATM   43  C2  UNL     1       8.982   3.961  -0.133  1.00  0.00    -0.059 A 
HETATM   44  C1  UNL     1      10.132   4.892  -0.004  1.00  0.00     0.048 C 
HETATM   45  C34 UNL     1       8.526   3.578  -1.377  1.00  0.00     0.024 A 
HETATM   46  C33 UNL     1       7.455   2.710  -1.525  1.00  0.00     0.091 A 
ENDBRANCH  39  40
ENDBRANCH  38  39
ENDBRANCH  37  38
ENDBRANCH  36  37
ENDBRANCH   1  36
TORSDOF 11
