REMARK  12 active torsions:
REMARK  status: ('A' for Active; 'I' for Inactive)
REMARK    1  A    between atoms: C2_2  and  O1_4 
REMARK    2  A    between atoms: O1_4  and  C4_5 
REMARK       I    between atoms: C4_5  and  N1_7 
REMARK    3  A    between atoms: N1_7  and  C5_9 
REMARK    4  A    between atoms: C5_9  and  C6_10 
REMARK    5  A    between atoms: C6_10  and  C7_11 
REMARK    6  A    between atoms: C7_11  and  C8_12 
REMARK    7  A    between atoms: C8_12  and  C9_13 
REMARK    8  A    between atoms: C10_14  and  O3_15 
REMARK    9  A    between atoms: C28_34  and  C29_35 
REMARK   10  A    between atoms: C29_35  and  N2_36 
REMARK   11  A    between atoms: N2_36  and  C30_38 
REMARK   12  A    between atoms: C30_38  and  C31_39 
ROOT
HETATM    1  C9  UNL     1      -0.571   0.315  -0.443  1.00  0.00     0.042 C 
HETATM    2  C10 UNL     1      -1.341  -0.524  -1.352  1.00  0.00     0.147 C 
HETATM    3  C11 UNL     1      -0.907  -1.143  -2.557  1.00  0.00     0.005 C 
HETATM    4  C12 UNL     1      -0.117  -2.207  -2.778  1.00  0.00    -0.002 C 
HETATM    5  C13 UNL     1       0.522  -3.013  -1.773  1.00  0.00    -0.000 C 
HETATM    6  C14 UNL     1       1.693  -2.782  -1.164  1.00  0.00     0.000 C 
HETATM    7  C15 UNL     1       2.615  -1.699  -1.356  1.00  0.00     0.000 C 
HETATM    8  C16 UNL     1       3.818  -1.628  -1.903  1.00  0.00     0.000 C 
HETATM    9  C17 UNL     1       4.631  -2.652  -2.490  1.00  0.00     0.000 C 
HETATM   10  C18 UNL     1       5.175  -3.640  -1.717  1.00  0.00     0.000 C 
HETATM   11  C19 UNL     1       5.028  -3.791  -0.297  1.00  0.00     0.000 C 
HETATM   12  C20 UNL     1       5.465  -3.075   0.715  1.00  0.00    -0.000 C 
HETATM   13  C21 UNL     1       6.241  -1.887   0.889  1.00  0.00    -0.004 C 
HETATM   14  C22 UNL     1       6.051  -0.616   1.091  1.00  0.00    -0.023 C 
HETATM   15  C23 UNL     1       4.877   0.250   1.247  1.00  0.00     0.054 C 
HETATM   16  C24 UNL     1       3.741  -0.405   1.838  1.00  0.00    -0.023 C 
HETATM   17  C25 UNL     1       2.545   0.053   2.140  1.00  0.00    -0.004 C 
HETATM   18  C26 UNL     1       1.880   1.312   2.030  1.00  0.00    -0.003 C 
HETATM   19  C27 UNL     1       1.322   2.129   1.202  1.00  0.00    -0.004 C 
HETATM   20  C28 UNL     1       0.982   2.343  -0.168  1.00  0.00     0.095 C 
HETATM   21  C32 UNL     1       1.957   2.168  -1.263  1.00  0.00     0.234 C 
HETATM   22  O5  UNL     1       3.176   2.439  -1.377  1.00  0.00    -0.272 OA
HETATM   23  N4  UNL     1       0.890   1.596  -2.027  1.00  0.00    -0.353 N 
ATOM     24  H4  UNL     1       0.808   1.303  -3.001  1.00  0.00     0.163 HD
HETATM   25  C33 UNL     1      -0.031   1.586  -0.907  1.00  0.00     0.114 C 
ENDROOT
BRANCH   1  26
HETATM   26  C8  UNL     1      -1.556   0.658   0.703  1.00  0.00     0.009 C 
BRANCH  26  27
HETATM   27  C7  UNL     1      -2.762   1.399   0.295  1.00  0.00     0.002 C 
BRANCH  27  28
HETATM   28  C6  UNL     1      -3.567   1.642   1.593  1.00  0.00     0.020 C 
BRANCH  28  29
HETATM   29  C5  UNL     1      -3.955   0.331   2.241  1.00  0.00     0.125 C 
BRANCH  29  30
HETATM   30  N1  UNL     1      -4.763  -0.453   1.336  1.00  0.00    -0.337 N 
HETATM   31  C4  UNL     1      -5.235  -1.717   1.753  1.00  0.00     0.360 C 
HETATM   32  O2  UNL     1      -4.971  -2.182   2.902  1.00  0.00    -0.239 OA
ATOM     33  H1  UNL     1      -4.990  -0.098   0.407  1.00  0.00     0.164 HD
BRANCH  31  34
HETATM   34  O1  UNL     1      -6.004  -2.469   0.892  1.00  0.00    -0.299 OA
BRANCH  34  35
HETATM   35  C2  UNL     1      -6.493  -3.736   1.282  1.00  0.00     0.125 C 
HETATM   36  C1  UNL     1      -5.917  -4.782   0.346  1.00  0.00     0.040 C 
HETATM   37  C3  UNL     1      -8.015  -3.720   1.145  1.00  0.00     0.040 C 
ENDBRANCH  34  35
ENDBRANCH  31  34
ENDBRANCH  29  30
ENDBRANCH  28  29
ENDBRANCH  27  28
ENDBRANCH  26  27
ENDBRANCH   1  26
BRANCH   2  38
HETATM   38  O3  UNL     1      -1.910  -1.571  -0.534  1.00  0.00    -0.391 OA
ATOM     39  H3  UNL     1      -2.412  -2.118  -1.127  1.00  0.00     0.210 HD
ENDBRANCH   2  38
BRANCH  20  40
HETATM   40  C29 UNL     1       0.560   3.889  -0.380  1.00  0.00     0.139 C 
BRANCH  40  41
HETATM   41  N2  UNL     1       1.734   4.595   0.010  1.00  0.00    -0.412 N 
ATOM     42  H2  UNL     1       2.573   4.101   0.313  1.00  0.00     0.153 HD
BRANCH  41  43
HETATM   43  C30 UNL     1       1.690   6.010  -0.040  1.00  0.00     0.213 C 
BRANCH  43  44
HETATM   44  C31 UNL     1       1.644   6.508  -1.421  1.00  0.00     0.248 C 
HETATM   45  N3  UNL     1       1.583   7.928  -1.680  1.00  0.00    -0.061 NA
HETATM   46  O4  UNL     1       1.655   5.729  -2.384  1.00  0.00    -0.275 OA
ENDBRANCH  43  44
ENDBRANCH  41  43
ENDBRANCH  40  41
ENDBRANCH  20  40
TORSDOF 12
