REMARK  5 active torsions:
REMARK  status: ('A' for Active; 'I' for Inactive)
REMARK    1  A    between atoms: N1_1  and  C1_4 
REMARK    2  A    between atoms: C5_18  and  N8_19 
REMARK    3  A    between atoms: N8_19  and  C6_21 
REMARK    4  A    between atoms: C6_21  and  C7_22 
REMARK    5  A    between atoms: C7_22  and  N9_23 
ROOT
HETATM    1  C1  UNL     1       2.206  -1.899   0.857  1.00  0.00     0.126 C 
HETATM    2  N2  UNL     1       1.157  -2.757   0.559  1.00  0.00    -0.082 NA
HETATM    3  C2  UNL     1       2.280  -0.467   0.884  1.00  0.00     0.079 A 
HETATM    4  C3  UNL     1       3.457   0.256   1.215  1.00  0.00     0.135 A 
HETATM    5 CL1  UNL     1       4.973  -0.514   1.629  1.00  0.00    -0.062 Cl
HETATM    6  N3  UNL     1       3.187   1.551   1.150  1.00  0.00    -0.267 N 
ATOM      7  H3  UNL     1       3.850   2.303   1.339  1.00  0.00     0.190 HD
HETATM    8  N4  UNL     1       1.922   1.715   0.801  1.00  0.00    -0.189 N 
HETATM    9  N5  UNL     1       1.203   2.813   0.612  1.00  0.00    -0.251 N 
ATOM     10  H5  UNL     1       1.652   3.719   0.742  1.00  0.00     0.192 HD
HETATM   11  C4  UNL     1      -0.082   2.782   0.259  1.00  0.00     0.210 A 
HETATM   12  N6  UNL     1      -0.845   3.972   0.058  1.00  0.00    -0.062 NA
HETATM   13  N7  UNL     1      -0.679   1.602   0.085  1.00  0.00    -0.314 N 
ATOM     14  H7  UNL     1      -1.662   1.578  -0.186  1.00  0.00     0.170 HD
HETATM   15  C5  UNL     1      -0.008   0.426   0.260  1.00  0.00     0.135 A 
HETATM   16  C8  UNL     1       1.337   0.501   0.630  1.00  0.00     0.135 A 
ENDROOT
BRANCH  15  17
HETATM   17  N8  UNL     1      -0.596  -0.684   0.089  1.00  0.00    -0.373 N 
ATOM     18  H8  UNL     1      -0.052  -1.535   0.231  1.00  0.00     0.161 HD
BRANCH  17  19
HETATM   19  C6  UNL     1      -1.949  -0.826  -0.283  1.00  0.00     0.148 C 
BRANCH  19  20
HETATM   20  C7  UNL     1      -2.104  -0.748  -1.789  1.00  0.00     0.249 C 
BRANCH  20  21
HETATM   21  N9  UNL     1      -3.509  -0.896  -2.091  1.00  0.00    -0.078 N 
ATOM     22  H93 UNL     1      -3.914  -1.744  -1.693  1.00  0.00     0.274 HD
ATOM     23  H92 UNL     1      -4.095  -0.223  -1.596  1.00  0.00     0.274 HD
ATOM     24  H91 UNL     1      -3.613  -0.844  -3.104  1.00  0.00     0.274 HD
ENDBRANCH  20  21
ENDBRANCH  19  20
ENDBRANCH  17  19
ENDBRANCH  15  17
BRANCH   1  25
HETATM   25  N1  UNL     1       3.339  -2.534   1.170  1.00  0.00    -0.387 N 
ATOM     26  H12 UNL     1       3.286  -3.552   1.151  1.00  0.00     0.157 HD
ATOM     27  H11 UNL     1       4.110  -1.903   1.389  1.00  0.00     0.157 HD
ENDBRANCH   1  25
TORSDOF 5
