REMARK  8 active torsions:
REMARK  status: ('A' for Active; 'I' for Inactive)
REMARK    1  A    between atoms: C3_3  and  C4_4 
REMARK    2  A    between atoms: C4_4  and  C5_5 
REMARK    3  A    between atoms: C6_6  and  C7_7 
REMARK    4  A    between atoms: C10_10  and  S1_11 
REMARK    5  A    between atoms: S1_11  and  N1_14 
REMARK    6  A    between atoms: N1_14  and  C11_16 
REMARK    7  A    between atoms: C11_16  and  C14_19 
REMARK    8  A    between atoms: C14_19  and  N2_20 
ROOT
HETATM    1  C1  UNL     1      -2.441  -2.313   3.653  1.00  0.00     0.112 C 
HETATM    2  C2  UNL     1      -2.626  -1.028   2.987  1.00  0.00    -0.111 C 
HETATM    3  C3  UNL     1      -2.762   0.031   2.429  1.00  0.00    -0.102 C 
ENDROOT
BRANCH   3   4
HETATM    4  C4  UNL     1      -2.952   1.365   1.747  1.00  0.00     0.136 C 
BRANCH   4   5
HETATM    5  C5  UNL     1      -3.660   1.187   0.489  1.00  0.00    -0.003 A 
HETATM    6  C6  UNL     1      -3.145   0.739  -0.702  1.00  0.00     0.054 A 
HETATM    7  N3  UNL     1      -4.158   0.609  -1.611  1.00  0.00    -0.335 N 
HETATM    8  C20 UNL     1      -4.022   0.232  -2.994  1.00  0.00     0.158 C 
HETATM    9  C21 UNL     1      -5.331   0.964  -1.035  1.00  0.00     0.123 A 
HETATM   10  C22 UNL     1      -5.028   1.334   0.293  1.00  0.00     0.040 A 
HETATM   11  N5  UNL     1      -6.590   0.998  -1.503  1.00  0.00    -0.333 N 
HETATM   12  C23 UNL     1      -6.048   1.742   1.121  1.00  0.00     0.020 A 
HETATM   13  C24 UNL     1      -5.810   2.147   2.506  1.00  0.00     0.069 C 
HETATM   14  N4  UNL     1      -7.316   1.764   0.606  1.00  0.00    -0.355 N 
HETATM   15  C25 UNL     1      -7.564   1.411  -0.635  1.00  0.00     0.184 A 
ATOM     16  H4  UNL     1      -8.089   2.062   1.201  1.00  0.00     0.166 HD
HETATM   17  C26 UNL     1      -6.966   0.606  -2.833  1.00  0.00     0.158 C 
BRANCH   6  18
HETATM   18  C7  UNL     1      -1.751   0.545  -1.077  1.00  0.00    -0.009 A 
HETATM   19  C8  UNL     1      -1.343  -0.554  -1.846  1.00  0.00     0.015 A 
HETATM   20  C9  UNL     1      -0.063  -0.722  -2.316  1.00  0.00     0.026 A 
HETATM   21  C10 UNL     1       0.846   0.252  -2.001  1.00  0.00     0.079 A 
HETATM   22  C18 UNL     1       0.494   1.348  -1.251  1.00  0.00     0.026 A 
HETATM   23  C19 UNL     1      -0.808   1.497  -0.787  1.00  0.00     0.015 A 
BRANCH  21  24
HETATM   24  S1  UNL     1       2.527   0.160  -2.551  1.00  0.00     0.259 S 
HETATM   25  O1  UNL     1       2.921   1.535  -2.890  1.00  0.00    -0.201 OA
HETATM   26  O2  UNL     1       2.430  -0.604  -3.884  1.00  0.00    -0.201 OA
BRANCH  24  27
HETATM   27  N1  UNL     1       3.368  -0.733  -1.473  1.00  0.00    -0.305 N 
ATOM     28  H1  UNL     1       3.116  -1.717  -1.380  1.00  0.00     0.173 HD
BRANCH  27  29
HETATM   29  C11 UNL     1       4.427  -0.245  -0.651  1.00  0.00     0.057 C 
HETATM   30  C12 UNL     1       3.810   0.870   0.168  1.00  0.00     0.040 C 
HETATM   31  C13 UNL     1       5.588   0.352  -1.397  1.00  0.00     0.040 C 
BRANCH  29  32
HETATM   32  C14 UNL     1       4.798  -1.449   0.155  1.00  0.00     0.266 C 
BRANCH  32  33
HETATM   33  N2  UNL     1       5.804  -1.472   1.091  1.00  0.00    -0.076 N 
HETATM   34  C15 UNL     1       5.512  -2.643   1.970  1.00  0.00     0.271 C 
HETATM   35  C16 UNL     1       5.992  -0.410   2.018  1.00  0.00     0.271 C 
HETATM   36  C17 UNL     1       7.130  -1.840   0.541  1.00  0.00     0.271 C 
ENDBRANCH  32  33
ENDBRANCH  29  32
ENDBRANCH  27  29
ENDBRANCH  24  27
ENDBRANCH  21  24
ENDBRANCH   6  18
ENDBRANCH   4   5
ENDBRANCH   3   4
TORSDOF 8
