REMARK  9 active torsions:
REMARK  status: ('A' for Active; 'I' for Inactive)
REMARK    1  A    between atoms: C2_2  and  C3_3 
REMARK    2  A    between atoms: C3_3  and  C4_4 
REMARK    3  A    between atoms: C4_4  and  C5_5 
REMARK    4  A    between atoms: C5_5  and  C6_6 
REMARK    5  A    between atoms: C6_6  and  N1_7 
REMARK    6  A    between atoms: N1_7  and  C8_9 
REMARK    7  A    between atoms: C12_16  and  O2_17 
REMARK    8  A    between atoms: C13_19  and  O3_20 
REMARK    9  A    between atoms: C14_22  and  O4_23 
ROOT
HETATM    1  C8  UNL     1      -1.111  -0.546   0.042  1.00  0.00     0.105 A 
HETATM    2  N2  UNL     1      -1.101  -0.622  -1.210  1.00  0.00    -0.377 N 
ATOM      3  H2  UNL     1      -0.263  -0.494  -1.778  1.00  0.00     0.160 HD
HETATM    4  C9  UNL     1      -2.379  -0.905  -1.749  1.00  0.00     0.131 A 
HETATM    5  C10 UNL     1      -3.302  -0.977  -0.591  1.00  0.00     0.071 A 
HETATM    6  C11 UNL     1      -2.461  -0.774   0.593  1.00  0.00     0.200 A 
HETATM    7  O1  UNL     1      -2.746   0.269   1.417  1.00  0.00    -0.345 OA
HETATM    8  C12 UNL     1      -4.004   0.714   1.553  1.00  0.00     0.288 C 
HETATM    9  C13 UNL     1      -5.035   0.159   0.635  1.00  0.00     0.202 C 
HETATM   10  C14 UNL     1      -4.385   0.084  -0.754  1.00  0.00     0.160 C 
ENDROOT
BRANCH   1  11
HETATM   11  N1  UNL     1       0.040  -0.269   0.876  1.00  0.00    -0.373 N 
HETATM   12  C7  UNL     1       0.142  -1.016   2.106  1.00  0.00     0.150 C 
BRANCH  11  13
HETATM   13  C6  UNL     1       1.029   0.708   0.488  1.00  0.00     0.123 C 
BRANCH  13  14
HETATM   14  C5  UNL     1       2.305  -0.045   0.182  1.00  0.00     0.020 C 
BRANCH  14  15
HETATM   15  C4  UNL     1       3.424   0.858  -0.239  1.00  0.00     0.002 C 
BRANCH  15  16
HETATM   16  C3  UNL     1       4.636  -0.011  -0.514  1.00  0.00    -0.000 C 
BRANCH  16  17
HETATM   17  C2  UNL     1       5.818   0.838  -0.948  1.00  0.00    -0.005 C 
HETATM   18  C1  UNL     1       6.982  -0.092  -1.201  1.00  0.00     0.005 C 
ENDBRANCH  16  17
ENDBRANCH  15  16
ENDBRANCH  14  15
ENDBRANCH  13  14
ENDBRANCH  11  13
ENDBRANCH   1  11
BRANCH  10  19
HETATM   19  O4  UNL     1      -5.347  -0.293  -1.671  1.00  0.00    -0.392 OA
ATOM     20  H4  UNL     1      -6.022   0.368  -1.773  1.00  0.00     0.210 HD
ENDBRANCH  10  19
BRANCH   8  21
HETATM   21  O2  UNL     1      -3.994   2.116   1.344  1.00  0.00    -0.368 OA
ATOM     22  H2  UNL     1      -4.885   2.431   1.440  1.00  0.00     0.212 HD
ENDBRANCH   8  21
BRANCH   9  23
HETATM   23  O3  UNL     1      -6.154   0.990   0.584  1.00  0.00    -0.388 OA
ATOM     24  H3  UNL     1      -6.812   0.636  -0.002  1.00  0.00     0.210 HD
ENDBRANCH   9  23
TORSDOF 9
