REMARK  6 active torsions:
REMARK  status: ('A' for Active; 'I' for Inactive)
REMARK    1  A    between atoms: C3_3  and  O1_4 
REMARK    2  A    between atoms: C3_3  and  C4_6 
REMARK    3  A    between atoms: C4_6  and  C5_8 
REMARK    4  A    between atoms: C5_8  and  C6_9 
REMARK    5  A    between atoms: C5_8  and  C9_12 
REMARK    6  A    between atoms: C14_19  and  C16_21 
ROOT
HETATM    1  C1  UNL     1      -1.584   1.073   4.273  1.00  0.00     0.015 C 
HETATM    2  C2  UNL     1      -2.145   0.657   3.290  1.00  0.00    -0.078 C 
HETATM    3  C3  UNL     1      -2.816   0.147   2.061  1.00  0.00     0.266 C 
ENDROOT
BRANCH   3   4
HETATM    4  O1  UNL     1      -2.551  -1.183   2.013  1.00  0.00    -0.376 OA
ATOM      5  H1  UNL     1      -2.979  -1.508   1.230  1.00  0.00     0.211 HD
ENDBRANCH   3   4
BRANCH   3   6
HETATM    6  C4  UNL     1      -2.480   0.972   0.901  1.00  0.00     0.175 C 
HETATM    7  O2  UNL     1      -2.711   2.190   1.131  1.00  0.00    -0.294 OA
BRANCH   6   8
HETATM    8  C5  UNL     1      -1.951   0.613  -0.406  1.00  0.00     0.121 C 
BRANCH   8   9
HETATM    9  C6  UNL     1      -2.777  -0.231  -1.300  1.00  0.00    -0.007 C 
HETATM   10  C7  UNL     1      -4.086   0.469  -1.583  1.00  0.00     0.010 C 
HETATM   11  C8  UNL     1      -2.890  -1.677  -1.013  1.00  0.00     0.010 C 
ENDBRANCH   8   9
BRANCH   8  12
HETATM   12  C9  UNL     1      -0.535   0.079  -0.229  1.00  0.00     0.370 C 
HETATM   13  O3  UNL     1       0.202   1.108   0.355  1.00  0.00    -0.350 OA
HETATM   14  C10 UNL     1       1.463   1.238  -0.192  1.00  0.00     0.136 C 
HETATM   15  C11 UNL     1       1.312   1.758  -1.611  1.00  0.00     0.063 C 
HETATM   16  C14 UNL     1       2.169  -0.100  -0.302  1.00  0.00     0.012 C 
HETATM   17  C12 UNL     1       0.416   0.776  -2.336  1.00  0.00     0.278 C 
HETATM   18  N1  UNL     1       0.073  -0.310  -1.478  1.00  0.00     0.118 N 
HETATM   19  C13 UNL     1       1.314  -1.013  -1.103  1.00  0.00     0.287 C 
HETATM   20  C15 UNL     1       3.483   0.084  -1.031  1.00  0.00     0.020 C 
BRANCH  16  21
HETATM   21  C16 UNL     1       2.462  -0.588   1.090  1.00  0.00    -0.010 C 
HETATM   22  C17 UNL     1       3.348   0.376   1.851  1.00  0.00     0.010 C 
HETATM   23  C18 UNL     1       3.163  -1.927   1.096  1.00  0.00     0.010 C 
ENDBRANCH  16  21
ENDBRANCH   8  12
ENDBRANCH   6   8
ENDBRANCH   3   6
TORSDOF 6
