REMARK  2 active torsions:
REMARK  status: ('A' for Active; 'I' for Inactive)
REMARK    1  A    between atoms: C2_2  and  C3_3 
REMARK    2  A    between atoms: C3_3  and  C4_4 
ROOT
HETATM    1  C4  UNL     1       0.378   0.464   0.042  1.00  0.00     0.026 C 
HETATM    2  S1  UNL     1       1.319   1.651  -0.940  1.00  0.00    -0.086 SA
HETATM    3  C5  UNL     1      -0.369  -0.424  -0.930  1.00  0.00     0.005 C 
HETATM    4  C6  UNL     1      -1.266  -1.411  -0.252  1.00  0.00     0.006 C 
HETATM    5  C7  UNL     1      -2.291  -0.749   0.634  1.00  0.00     0.001 C 
HETATM    6  C8  UNL     1      -1.686   0.363   1.459  1.00  0.00     0.006 C 
HETATM    7  C9  UNL     1      -0.787   1.232   0.643  1.00  0.00     0.005 C 
HETATM    8  C10 UNL     1      -1.495   1.682  -0.618  1.00  0.00     0.007 C 
HETATM    9  C11 UNL     1      -1.220   0.602  -1.651  1.00  0.00     0.007 C 
ENDROOT
BRANCH   1  10
HETATM   10  C3  UNL     1       1.163  -0.286   1.045  1.00  0.00     0.021 C 
BRANCH  10  11
HETATM   11  C2  UNL     1       2.268  -1.107   0.443  1.00  0.00    -0.003 C 
HETATM   12  C1  UNL     1       3.310  -0.353  -0.305  1.00  0.00     0.005 C 
ENDBRANCH  10  11
ENDBRANCH   1  10
TORSDOF 2
