REMARK  0 active torsions:
REMARK  status: ('A' for Active; 'I' for Inactive)
ROOT
HETATM    1  C1  UNL     1       1.692  -0.231   0.050  1.00  0.00     0.004 C 
HETATM    2  C2  UNL     1       1.128   1.115   0.259  1.00  0.00     0.025 C 
HETATM    3  C3  UNL     1      -0.307   1.262  -0.257  1.00  0.00     0.077 C 
HETATM    4  C4  UNL     1      -1.211   0.735   0.868  1.00  0.00     0.027 C 
HETATM    5  C5  UNL     1      -1.552  -0.700   0.442  1.00  0.00     0.027 C 
HETATM    6  C6  UNL     1      -0.593  -0.918  -0.741  1.00  0.00     0.077 C 
HETATM    7  C7  UNL     1       0.748  -1.337  -0.198  1.00  0.00     0.025 C 
HETATM    8  N1  UNL     1      -0.503   0.357  -1.277  1.00  0.00    -0.413 N 
ATOM      9  H1  UNL     1      -0.571   0.588  -2.268  1.00  0.00     0.154 HD
ENDROOT
TORSDOF 0
