REMARK  3 active torsions:
REMARK  status: ('A' for Active; 'I' for Inactive)
REMARK    1  A    between atoms: C1_2  and  C2_3 
REMARK    2  A    between atoms: C2_3  and  C3_4 
REMARK    3  A    between atoms: C3_4  and  N1_5 
ROOT
HETATM    1  N1  UNL     1       0.116  -0.628   0.058  1.00  0.00     0.090 N 
HETATM    2  C4  UNL     1      -0.422   0.286   1.034  1.00  0.00     0.274 C 
HETATM    3  C5  UNL     1      -1.771  -0.341   1.423  1.00  0.00     0.057 C 
HETATM    4  C6  UNL     1      -2.868   0.245   0.602  1.00  0.00     0.234 C 
HETATM    5  N2  UNL     1      -2.565   0.459  -0.783  1.00  0.00    -0.073 N 
ATOM      6  H21 UNL     1      -2.126   1.371  -0.913  1.00  0.00     0.277 HD
ATOM      7  H22 UNL     1      -3.423   0.599  -1.316  1.00  0.00     0.277 HD
HETATM    8  C7  UNL     1      -1.763  -0.573  -1.389  1.00  0.00     0.262 C 
HETATM    9  C8  UNL     1      -0.287  -0.264  -1.290  1.00  0.00     0.299 C 
ENDROOT
BRANCH   1  10
HETATM   10  C3  UNL     1       1.523  -0.878   0.160  1.00  0.00     0.273 C 
BRANCH  10  11
HETATM   11  C2  UNL     1       2.364   0.327  -0.233  1.00  0.00     0.045 C 
BRANCH  11  12
HETATM   12  C1  UNL     1       3.822  -0.083  -0.082  1.00  0.00     0.116 C 
HETATM   13 CL1  UNL     1       4.070  -0.507   1.626  1.00  0.00    -0.130 Cl
ENDBRANCH  11  12
ENDBRANCH  10  11
ENDBRANCH   1  10
TORSDOF 3
