REMARK  8 active torsions:
REMARK  status: ('A' for Active; 'I' for Inactive)
REMARK       I    between atoms: N1_2  and  C2_3 
REMARK       I    between atoms: N1_2  and  C3_6 
REMARK       I    between atoms: C3_6  and  N3_7 
REMARK       I    between atoms: C3_6  and  N4_11 
REMARK    1  A    between atoms: N4_11  and  N5_13 
REMARK    2  A    between atoms: N6_15  and  C4_17 
REMARK    3  A    between atoms: C5_20  and  N8_21 
REMARK    4  A    between atoms: N8_21  and  O2_23 
REMARK    5  A    between atoms: O2_23  and  C6_24 
REMARK    6  A    between atoms: C7_27  and  O3_28 
REMARK    7  A    between atoms: C8_30  and  O4_31 
REMARK    8  A    between atoms: C9_35  and  N11_36 
ROOT
HETATM    1  C4  UNL     1      -0.591  -1.728  -0.283  1.00  0.00     0.727 A 
HETATM    2  N7  UNL     1       0.161  -0.678  -0.650  1.00  0.00    -0.018 N 
ATOM      3  H7  UNL     1      -0.149  -0.085  -1.420  1.00  0.00     0.203 HD
HETATM    4  C5  UNL     1       1.306  -0.395  -0.027  1.00  0.00     0.731 A 
HETATM    5  N10 UNL     1       1.754  -1.146   0.989  1.00  0.00    -0.020 N 
ATOM      6  H10 UNL     1       2.632  -0.918   1.456  1.00  0.00     0.203 HD
HETATM    7  C9  UNL     1       1.028  -2.201   1.379  1.00  0.00     0.705 A 
HETATM    8  N12 UNL     1      -0.128  -2.473   0.739  1.00  0.00    -0.020 N 
ATOM      9  H12 UNL     1      -0.675  -3.278   1.042  1.00  0.00     0.203 HD
ENDROOT
BRANCH   1  10
HETATM   10  N6  UNL     1      -1.810  -2.016  -0.958  1.00  0.00    -0.117 N 
HETATM   11  N5  UNL     1      -2.580  -1.095  -1.328  1.00  0.00    -0.230 N 
ATOM     12  H5  UNL     1      -3.439  -1.368  -1.806  1.00  0.00     0.208 HD
ATOM     13  H6  UNL     1      -2.063  -2.986  -1.145  1.00  0.00     0.207 HD
BRANCH  11  14
HETATM   14  N4  UNL     1      -2.361   0.261  -1.141  1.00  0.00    -0.275 N 
HETATM   15  C3  UNL     1      -3.148   0.927  -0.110  1.00  0.00     0.407 C 
HETATM   16  N1  UNL     1      -4.564   0.793  -0.435  1.00  0.00    -0.296 N 
HETATM   17  N3  UNL     1      -2.805   2.323   0.021  1.00  0.00    -0.039 N 
HETATM   18  C1  UNL     1      -5.078   1.415  -1.640  1.00  0.00     0.158 C 
HETATM   19  C2  UNL     1      -5.423   0.067   0.415  1.00  0.00     0.333 C 
HETATM   20  N2  UNL     1      -4.925  -0.545   1.598  1.00  0.00    -0.040 NA
HETATM   21  O1  UNL     1      -6.641  -0.048   0.135  1.00  0.00    -0.251 OA
ATOM     22  H33 UNL     1      -3.060   2.860  -0.808  1.00  0.00     0.279 HD
ATOM     23  H32 UNL     1      -3.400   2.802   0.697  1.00  0.00     0.279 HD
ATOM     24  H31 UNL     1      -1.815   2.417   0.248  1.00  0.00     0.279 HD
ATOM     25  H4  UNL     1      -1.678   0.771  -1.701  1.00  0.00     0.185 HD
ENDBRANCH  11  14
ENDBRANCH   1  10
BRANCH   4  26
HETATM   26  N8  UNL     1       1.991   0.628  -0.420  1.00  0.00    -0.088 N 
ATOM     27  H8  UNL     1       1.634   1.187  -1.195  1.00  0.00     0.213 HD
BRANCH  26  28
HETATM   28  O2  UNL     1       3.180   0.994   0.162  1.00  0.00    -0.207 OA
BRANCH  28  29
HETATM   29  C6  UNL     1       4.413   0.572  -0.373  1.00  0.00     0.178 A 
HETATM   30  N9  UNL     1       4.766  -0.410  -1.051  1.00  0.00    -0.341 N 
HETATM   31  C7  UNL     1       6.113  -0.029  -1.123  1.00  0.00     0.256 A 
ATOM     32  H9  UNL     1       4.255  -1.210  -1.423  1.00  0.00     0.164 HD
HETATM   33  C8  UNL     1       5.747   1.142  -0.328  1.00  0.00     0.243 A 
BRANCH  31  34
HETATM   34  O3  UNL     1       7.020  -0.929  -0.538  1.00  0.00    -0.374 OA
ATOM     35  H3  UNL     1       7.933  -0.671  -0.587  1.00  0.00     0.212 HD
ENDBRANCH  31  34
BRANCH  33  36
HETATM   36  O4  UNL     1       5.890   2.375  -0.992  1.00  0.00    -0.383 OA
ATOM     37  H4  UNL     1       6.763   2.748  -0.963  1.00  0.00     0.210 HD
ENDBRANCH  33  36
ENDBRANCH  28  29
ENDBRANCH  26  28
ENDBRANCH   4  26
BRANCH   7  38
HETATM   38  N11 UNL     1       1.427  -2.959   2.365  1.00  0.00    -0.234 N 
ATOM     39 2H11 UNL     1       2.301  -2.753   2.849  1.00  0.00     0.174 HD
ATOM     40 1H11 UNL     1       0.874  -3.763   2.662  1.00  0.00     0.174 HD
ENDBRANCH   7  38
TORSDOF 8
