REMARK  9 active torsions:
REMARK  status: ('A' for Active; 'I' for Inactive)
REMARK    1  A    between atoms: N1_1  and  C1_4 
REMARK    2  A    between atoms: N4_13  and  C5_14 
REMARK    3  A    between atoms: C6_18  and  C7_19 
REMARK    4  A    between atoms: C6_18  and  O3_22 
REMARK    5  A    between atoms: C7_19  and  O2_20 
REMARK    6  A    between atoms: O3_22  and  C8_23 
REMARK    7  A    between atoms: C9_26  and  O5_27 
REMARK    8  A    between atoms: C9_26  and  C10_29 
REMARK    9  A    between atoms: C10_29  and  O6_30 
ROOT
HETATM    1  C5  UNL     1      -0.093   0.094   0.385  1.00  0.00     0.458 C 
HETATM    2  N5  UNL     1      -1.078  -0.763   1.022  1.00  0.00     0.012 N 
ATOM      3  H51 UNL     1      -1.220  -0.641   2.025  1.00  0.00     0.286 HD
ATOM      4  H52 UNL     1      -0.842  -1.751   1.116  1.00  0.00     0.286 HD
HETATM    5  C6  UNL     1      -2.233  -0.419   0.121  1.00  0.00     0.318 C 
HETATM    6  C9  UNL     1      -1.515  -0.667  -1.172  1.00  0.00     0.249 C 
HETATM    7  O7  UNL     1      -0.271  -0.020  -0.968  1.00  0.00    -0.298 OA
ENDROOT
BRANCH   1   8
HETATM    8  N4  UNL     1       1.251  -0.214   0.823  1.00  0.00    -0.221 N 
HETATM    9  N3  UNL     1       1.637  -1.011   1.794  1.00  0.00    -0.303 N 
HETATM   10  C4  UNL     1       2.963  -1.034   1.892  1.00  0.00     0.128 A 
ATOM     11  H3  UNL     1       1.004  -1.541   2.393  1.00  0.00     0.186 HD
HETATM   12  C3  UNL     1       3.463  -0.191   0.913  1.00  0.00     0.095 A 
HETATM   13  C2  UNL     1       4.741   0.176   0.544  1.00  0.00     0.275 A 
HETATM   14  C11 UNL     1       2.345   0.311   0.255  1.00  0.00     0.159 A 
HETATM   15  N2  UNL     1       4.864   1.037  -0.476  1.00  0.00    -0.155 N 
HETATM   16  O1  UNL     1       5.723  -0.299   1.162  1.00  0.00    -0.267 OA
HETATM   17  C1  UNL     1       3.768   1.512  -1.101  1.00  0.00     0.680 A 
ATOM     18  H2  UNL     1       5.791   1.334  -0.781  1.00  0.00     0.187 HD
HETATM   19  N7  UNL     1       2.516   1.167  -0.756  1.00  0.00    -0.174 N 
ATOM     20  H7  UNL     1       1.714   1.551  -1.255  1.00  0.00     0.186 HD
BRANCH  17  21
HETATM   21  N1  UNL     1       3.872   2.350  -2.095  1.00  0.00    -0.234 N 
ATOM     22  H12 UNL     1       4.822   2.612  -2.357  1.00  0.00     0.174 HD
ATOM     23  H11 UNL     1       3.043   2.709  -2.568  1.00  0.00     0.174 HD
ENDBRANCH  17  21
ENDBRANCH   1   8
BRANCH   5  24
HETATM   24  C7  UNL     1      -3.293  -1.368   0.488  1.00  0.00     0.239 C 
BRANCH  24  25
HETATM   25  O2  UNL     1      -4.486  -1.290  -0.190  1.00  0.00    -0.396 OA
ATOM     26  H2  UNL     1      -5.171  -1.904   0.047  1.00  0.00     0.209 HD
ENDBRANCH  24  25
ENDBRANCH   5  24
BRANCH   5  27
HETATM   27  O3  UNL     1      -2.395   0.916   0.330  1.00  0.00    -0.259 OA
BRANCH  27  28
HETATM   28  C8  UNL     1      -3.266   1.835  -0.151  1.00  0.00     0.375 C 
HETATM   29  N6  UNL     1      -3.196   3.208   0.252  1.00  0.00    -0.032 NA
HETATM   30  O4  UNL     1      -4.116   1.422  -0.952  1.00  0.00    -0.242 OA
ENDBRANCH  27  28
ENDBRANCH   5  27
BRANCH   6  31
HETATM   31  O5  UNL     1      -2.103  -0.042  -2.261  1.00  0.00    -0.360 OA
ATOM     32  H5  UNL     1      -1.648  -0.199  -3.080  1.00  0.00     0.213 HD
ENDBRANCH   6  31
BRANCH   6  33
HETATM   33  C10 UNL     1      -1.177  -2.103  -1.451  1.00  0.00     0.238 C 
BRANCH  33  34
HETATM   34  O6  UNL     1      -0.581  -2.731  -0.380  1.00  0.00    -0.395 OA
ATOM     35  H6  UNL     1      -0.367  -3.640  -0.557  1.00  0.00     0.209 HD
ENDBRANCH  33  34
ENDBRANCH   6  33
TORSDOF 9
