REMARK  7 active torsions:
REMARK  status: ('A' for Active; 'I' for Inactive)
REMARK    1  A    between atoms: O1_2  and  C2_3 
REMARK    2  A    between atoms: C2_3  and  C3_5 
REMARK    3  A    between atoms: C3_5  and  C4_6 
REMARK    4  A    between atoms: C4_6  and  N1_7 
REMARK    5  A    between atoms: C4_6  and  C7_12 
REMARK       I    between atoms: N1_7  and  C5_9 
REMARK       I    between atoms: C7_12  and  N2_14 
REMARK    6  A    between atoms: N2_14  and  C8_16 
REMARK    7  A    between atoms: C17_25  and  O5_26 
ROOT
HETATM    1  C8  UNL     1      -1.192  -1.396  -1.245  1.00  0.00     0.093 C 
HETATM    2  C9  UNL     1      -0.820  -2.857  -1.461  1.00  0.00     0.026 C 
HETATM    3  C10 UNL     1       0.645  -3.003  -1.017  1.00  0.00     0.008 C 
HETATM    4  C11 UNL     1       1.036  -1.593  -0.927  1.00  0.00     0.000 C 
HETATM    5  C12 UNL     1       2.395  -1.210  -0.516  1.00  0.00    -0.005 C 
HETATM    6  C13 UNL     1       2.884  -1.612   0.813  1.00  0.00     0.006 C 
HETATM    7  C14 UNL     1       3.108  -0.569   1.834  1.00  0.00     0.006 C 
HETATM    8  C15 UNL     1       3.374   0.805   1.354  1.00  0.00    -0.004 C 
HETATM    9  C16 UNL     1       4.484   1.483   2.146  1.00  0.00     0.037 C 
HETATM   10  C17 UNL     1       5.849   1.128   1.705  1.00  0.00     0.118 C 
HETATM   11  C18 UNL     1       5.958   0.118   0.629  1.00  0.00     0.032 C 
HETATM   12  C19 UNL     1       4.987   0.280  -0.496  1.00  0.00     0.012 C 
HETATM   13  C20 UNL     1       3.692   0.903  -0.098  1.00  0.00    -0.036 C 
HETATM   14  C21 UNL     1       3.728   2.363  -0.497  1.00  0.00     0.016 C 
HETATM   15  C22 UNL     1       2.523   0.262  -0.856  1.00  0.00    -0.002 C 
HETATM   16  C23 UNL     1       1.273   1.052  -0.768  1.00  0.00     0.006 C 
HETATM   17  C24 UNL     1       0.107   0.458  -0.100  1.00  0.00     0.012 C 
HETATM   18  C25 UNL     1      -0.124  -0.979  -0.218  1.00  0.00    -0.019 C 
HETATM   19  C26 UNL     1      -0.554  -1.591   1.063  1.00  0.00     0.018 C 
ENDROOT
BRANCH   1  20
HETATM   20  N2  UNL     1      -2.526  -1.351  -0.742  1.00  0.00    -0.354 N 
HETATM   21  C7  UNL     1      -3.568  -0.581  -1.331  1.00  0.00     0.241 C 
HETATM   22  O4  UNL     1      -3.277   0.091  -2.353  1.00  0.00    -0.271 OA
ATOM     23  H2  UNL     1      -2.746  -1.902   0.088  1.00  0.00     0.162 HD
BRANCH  21  24
HETATM   24  C4  UNL     1      -4.944  -0.542  -0.802  1.00  0.00     0.185 C 
BRANCH  24  25
HETATM   25  C3  UNL     1      -5.028  -0.205   0.642  1.00  0.00     0.146 C 
BRANCH  25  26
HETATM   26  C2  UNL     1      -4.628   1.156   1.018  1.00  0.00     0.260 C 
HETATM   27  O2  UNL     1      -4.201   1.945   0.147  1.00  0.00    -0.265 OA
BRANCH  26  28
HETATM   28  O1  UNL     1      -4.707   1.600   2.314  1.00  0.00    -0.326 OA
HETATM   29  C1  UNL     1      -4.320   2.924   2.695  1.00  0.00     0.213 C 
ENDBRANCH  26  28
ENDBRANCH  25  26
ENDBRANCH  24  25
BRANCH  24  30
HETATM   30  N1  UNL     1      -5.792   0.303  -1.572  1.00  0.00    -0.348 N 
HETATM   31  C5  UNL     1      -6.948  -0.204  -2.271  1.00  0.00     0.214 C 
HETATM   32  C6  UNL     1      -7.830   0.657  -3.069  1.00  0.00     0.117 C 
HETATM   33  O3  UNL     1      -7.158  -1.435  -2.158  1.00  0.00    -0.274 OA
ATOM     34  H1  UNL     1      -5.576   1.298  -1.632  1.00  0.00     0.163 HD
ENDBRANCH  24  30
ENDBRANCH  21  24
ENDBRANCH   1  20
BRANCH  10  35
HETATM   35  O5  UNL     1       6.558   0.632   2.824  1.00  0.00    -0.396 OA
ATOM     36  H5  UNL     1       7.436   0.404   2.540  1.00  0.00     0.210 HD
ENDBRANCH  10  35
TORSDOF 7
