REMARK  7 active torsions:
REMARK  status: ('A' for Active; 'I' for Inactive)
REMARK    1  A    between atoms: C3_3  and  O1_4 
REMARK    2  A    between atoms: C5_7  and  C6_8 
REMARK    3  A    between atoms: C16_19  and  N1_20 
REMARK    4  A    between atoms: C17_24  and  C18_25 
REMARK    5  A    between atoms: C18_25  and  C20_27 
REMARK    6  A    between atoms: C20_27  and  C22_29 
REMARK    7  A    between atoms: C23_30  and  C24_31 
ROOT
HETATM    1  C1  UNL     1      -4.621   2.882  -0.339  1.00  0.00     0.017 C 
HETATM    2  C2  UNL     1      -4.151   1.695  -0.674  1.00  0.00    -0.056 C 
HETATM    3  C3  UNL     1      -4.802   0.842  -1.710  1.00  0.00     0.148 C 
HETATM    4  C4  UNL     1      -5.029  -0.579  -1.257  1.00  0.00     0.053 C 
HETATM    5  C5  UNL     1      -4.269  -0.796   0.059  1.00  0.00     0.021 C 
HETATM    6  C7  UNL     1      -4.055  -2.225   0.390  1.00  0.00     0.018 C 
HETATM    7  C8  UNL     1      -2.537  -2.458   0.333  1.00  0.00     0.011 C 
HETATM    8  C9  UNL     1      -1.940  -1.067   0.652  1.00  0.00    -0.031 C 
HETATM    9  C10 UNL     1      -2.189  -0.887   2.131  1.00  0.00     0.016 C 
HETATM   10  C11 UNL     1      -2.882  -0.259  -0.157  1.00  0.00     0.018 C 
HETATM   11  C12 UNL     1      -2.914   1.213   0.032  1.00  0.00     0.022 C 
HETATM   12  C13 UNL     1      -1.772   1.923  -0.667  1.00  0.00     0.010 C 
HETATM   13  C14 UNL     1      -0.494   1.444  -0.002  1.00  0.00     0.008 C 
HETATM   14  C15 UNL     1      -0.132   0.121  -0.596  1.00  0.00     0.025 C 
HETATM   15  C16 UNL     1       1.352   0.169  -0.948  1.00  0.00     0.192 C 
HETATM   16  C17 UNL     1       2.104   0.287   0.329  1.00  0.00     0.021 C 
HETATM   17  C25 UNL     1       1.861  -0.932   1.139  1.00  0.00     0.008 C 
HETATM   18  C26 UNL     1       0.379  -1.066   1.501  1.00  0.00     0.011 C 
HETATM   19  C27 UNL     1      -0.506  -1.049   0.264  1.00  0.00    -0.031 C 
HETATM   20  C28 UNL     1      -0.170  -2.303  -0.525  1.00  0.00     0.016 C 
ENDROOT
BRANCH  16  21
HETATM   21  C18 UNL     1       3.460   0.812   0.346  1.00  0.00    -0.005 C 
HETATM   22  C19 UNL     1       3.512   2.257  -0.198  1.00  0.00     0.011 C 
BRANCH  21  23
HETATM   23  C20 UNL     1       4.618   0.106  -0.190  1.00  0.00     0.008 C 
HETATM   24  C21 UNL     1       4.590  -0.261  -1.666  1.00  0.00     0.014 C 
BRANCH  23  25
HETATM   25  C22 UNL     1       5.113  -1.076   0.533  1.00  0.00    -0.017 C 
HETATM   26  C23 UNL     1       6.102  -1.277   1.311  1.00  0.00     0.067 C 
BRANCH  26  27
HETATM   27  C24 UNL     1       7.101  -0.357   1.756  1.00  0.00     0.254 C 
HETATM   28  N2  UNL     1       7.147   0.995   1.389  1.00  0.00    -0.058 NA
HETATM   29  O3  UNL     1       8.025  -0.799   2.550  1.00  0.00    -0.272 OA
ENDBRANCH  26  27
ENDBRANCH  23  25
ENDBRANCH  21  23
ENDBRANCH  16  21
BRANCH  15  30
HETATM   30  N1  UNL     1       1.500   1.313  -1.840  1.00  0.00    -0.074 N 
ATOM     31  H13 UNL     1       0.885   1.282  -2.653  1.00  0.00     0.274 HD
ATOM     32  H12 UNL     1       1.141   2.186  -1.452  1.00  0.00     0.274 HD
ATOM     33  H11 UNL     1       2.492   1.345  -2.075  1.00  0.00     0.274 HD
ENDBRANCH  15  30
BRANCH   5  34
HETATM   34  C6  UNL     1      -5.047  -0.152   1.107  1.00  0.00     0.241 C 
HETATM   35  O2  UNL     1      -6.265  -0.179   1.126  1.00  0.00    -0.306 OA
ENDBRANCH   5  34
BRANCH   3  36
HETATM   36  O1  UNL     1      -6.052   1.388  -1.992  1.00  0.00    -0.391 OA
ATOM     37  H1  UNL     1      -6.467   0.845  -2.652  1.00  0.00     0.210 HD
ENDBRANCH   3  36
TORSDOF 7
