REMARK  4 active torsions:
REMARK  status: ('A' for Active; 'I' for Inactive)
REMARK       I    between atoms: C1_4  and  N3_6 
REMARK    1  A    between atoms: N4_9  and  C4_10 
REMARK    2  A    between atoms: C4_10  and  C5_11 
REMARK    3  A    between atoms: C5_11  and  C6_12 
REMARK    4  A    between atoms: C6_12  and  N5_13 
ROOT
HETATM    1  N1  UNL     1       4.250  -0.986   1.132  1.00  0.00    -0.374 N 
ATOM      2  H11 UNL     1       3.838  -1.861   1.457  1.00  0.00     0.158 HD
ATOM      3  H12 UNL     1       5.227  -0.777   1.339  1.00  0.00     0.158 HD
HETATM    4  C1  UNL     1       3.542  -0.152   0.467  1.00  0.00     0.184 C 
HETATM    5  N2  UNL     1       4.112   1.057   0.018  1.00  0.00    -0.064 NA
HETATM    6  N3  UNL     1       2.199  -0.439   0.182  1.00  0.00    -0.353 N 
HETATM    7  C2  UNL     1       1.739  -1.395  -0.813  1.00  0.00     0.156 C 
HETATM    8  C3  UNL     1       0.299  -1.719  -0.642  1.00  0.00     0.292 C 
HETATM    9  N4  UNL     1      -0.606  -0.555  -0.658  1.00  0.00     0.091 N 
HETATM   10  C7  UNL     1       0.137   0.620  -0.261  1.00  0.00     0.292 C 
HETATM   11  C8  UNL     1       1.079   0.218   0.884  1.00  0.00     0.156 C 
ENDROOT
BRANCH   9  12
HETATM   12  C4  UNL     1      -1.704  -0.780   0.219  1.00  0.00     0.274 C 
BRANCH  12  13
HETATM   13  C5  UNL     1      -2.973  -0.129  -0.150  1.00  0.00     0.057 C 
BRANCH  13  14
HETATM   14  C6  UNL     1      -3.004   1.352  -0.255  1.00  0.00     0.231 C 
BRANCH  14  15
HETATM   15  N5  UNL     1      -4.394   1.762  -0.610  1.00  0.00    -0.079 N 
ATOM     16  H53 UNL     1      -4.738   1.300  -1.452  1.00  0.00     0.274 HD
ATOM     17  H52 UNL     1      -5.090   1.398   0.041  1.00  0.00     0.274 HD
ATOM     18  H51 UNL     1      -4.415   2.779  -0.682  1.00  0.00     0.274 HD
ENDBRANCH  14  15
ENDBRANCH  13  14
ENDBRANCH  12  13
ENDBRANCH   9  12
TORSDOF 4
