REMARK  3 active torsions:
REMARK  status: ('A' for Active; 'I' for Inactive)
REMARK    1  A    between atoms: C1_2  and  C2_3 
REMARK    2  A    between atoms: C2_3  and  S1_4 
REMARK    3  A    between atoms: S1_4  and  C3_5 
ROOT
HETATM    1  C3  UNL     1       0.935  -0.435   0.468  1.00  0.00     0.052 C 
HETATM    2  C4  UNL     1       0.540  -1.855   0.867  1.00  0.00     0.016 C 
HETATM    3  C5  UNL     1      -0.798  -2.064   0.160  1.00  0.00     0.008 C 
HETATM    4  C6  UNL     1      -1.165  -0.736  -0.385  1.00  0.00     0.008 C 
HETATM    5  C7  UNL     1      -2.599  -0.339  -0.292  1.00  0.00     0.118 C 
HETATM    6  N2  UNL     1      -2.711   0.881  -1.033  1.00  0.00    -0.421 N 
ATOM      7  H2  UNL     1      -3.594   1.179  -1.447  1.00  0.00     0.153 HD
HETATM    8  C8  UNL     1      -1.530   1.650  -1.159  1.00  0.00     0.114 C 
HETATM    9  C9  UNL     1      -0.548   1.555  -0.025  1.00  0.00     0.025 C 
HETATM   10  C10 UNL     1      -0.438   0.201   0.579  1.00  0.00     0.006 C 
ENDROOT
BRANCH   1  11
HETATM   11  S1  UNL     1       2.153   0.296   1.546  1.00  0.00    -0.150 SA
BRANCH  11  12
HETATM   12  C2  UNL     1       3.552   0.954   0.576  1.00  0.00     0.197 C 
BRANCH  12  13
HETATM   13  C1  UNL     1       4.144  -0.197  -0.127  1.00  0.00     0.069 C 
HETATM   14  N1  UNL     1       4.853  -0.902  -0.698  1.00  0.00    -0.197 NA
ENDBRANCH  12  13
ENDBRANCH  11  12
ENDBRANCH   1  11
TORSDOF 3
