REMARK  13 active torsions:
REMARK  status: ('A' for Active; 'I' for Inactive)
REMARK    1  A    between atoms: N1_2  and  C2_3 
REMARK    2  A    between atoms: C2_3  and  C3_4 
REMARK    3  A    between atoms: C3_4  and  N2_5 
REMARK    4  A    between atoms: N2_5  and  C4_7 
REMARK    5  A    between atoms: C4_7  and  C5_8 
REMARK    6  A    between atoms: C5_8  and  C6_9 
REMARK    7  A    between atoms: C6_9  and  C7_10 
REMARK    8  A    between atoms: C7_10  and  N3_11 
REMARK    9  A    between atoms: N3_11  and  C8_13 
REMARK   10  A    between atoms: C8_13  and  C9_14 
REMARK   11  A    between atoms: C11_16  and  O1_17 
REMARK   12  A    between atoms: C12_19  and  C13_20 
REMARK   13  A    between atoms: C13_20  and  O2_21 
ROOT
HETATM    1  N3  UNL     1      -2.524   1.298  -0.383  1.00  0.00    -0.419 N 
ATOM      2  H3  UNL     1      -3.036   1.864  -1.060  1.00  0.00     0.153 HD
ENDROOT
BRANCH   1   3
HETATM    3  C7  UNL     1      -1.103   1.264  -0.357  1.00  0.00     0.113 C 
BRANCH   3   4
HETATM    4  C6  UNL     1      -0.592  -0.080  -0.754  1.00  0.00     0.021 C 
BRANCH   4   5
HETATM    5  C5  UNL     1       0.902  -0.142  -0.823  1.00  0.00     0.021 C 
BRANCH   5   6
HETATM    6  C4  UNL     1       1.594   0.190   0.450  1.00  0.00     0.119 C 
BRANCH   6   7
HETATM    7  N2  UNL     1       3.048   0.163   0.283  1.00  0.00    -0.398 N 
ATOM      8  H2  UNL     1       3.613   1.011   0.317  1.00  0.00     0.158 HD
BRANCH   7   9
HETATM    9  C3  UNL     1       3.615  -1.101   0.073  1.00  0.00     0.108 C 
BRANCH   9  10
HETATM   10  C2  UNL     1       5.008  -1.077  -0.396  1.00  0.00     0.218 C 
BRANCH  10  11
HETATM   11  N1  UNL     1       6.091  -0.577   0.301  1.00  0.00    -0.050 N 
HETATM   12  C1  UNL     1       6.995  -1.688   0.766  1.00  0.00     0.278 C 
HETATM   13  C14 UNL     1       6.151   0.545   1.135  1.00  0.00     0.244 C 
HETATM   14  C15 UNL     1       6.309   1.452  -0.038  1.00  0.00     0.057 C 
HETATM   15  C16 UNL     1       6.962   0.198  -0.645  1.00  0.00     0.244 C 
ENDBRANCH  10  11
ENDBRANCH   9  10
ENDBRANCH   7   9
ENDBRANCH   6   7
ENDBRANCH   5   6
ENDBRANCH   4   5
ENDBRANCH   3   4
ENDBRANCH   1   3
BRANCH   1  16
HETATM   16  C8  UNL     1      -3.189   0.504   0.582  1.00  0.00     0.147 C 
BRANCH  16  17
HETATM   17  C9  UNL     1      -4.686   0.675   0.562  1.00  0.00     0.206 C 
HETATM   18  C10 UNL     1      -5.338  -0.203   1.587  1.00  0.00     0.068 C 
HETATM   19  C11 UNL     1      -6.283  -1.047   0.761  1.00  0.00     0.153 C 
HETATM   20  C12 UNL     1      -6.609  -0.132  -0.407  1.00  0.00     0.238 C 
HETATM   21  N4  UNL     1      -5.275   0.377  -0.706  1.00  0.00    -0.061 N 
ATOM     22  H42 UNL     1      -5.273   1.164  -1.354  1.00  0.00     0.278 HD
ATOM     23  H41 UNL     1      -4.715  -0.253  -1.280  1.00  0.00     0.278 HD
BRANCH  19  24
HETATM   24  O1  UNL     1      -5.564  -2.114   0.241  1.00  0.00    -0.393 OA
ATOM     25  H1  UNL     1      -6.158  -2.644  -0.278  1.00  0.00     0.210 HD
ENDBRANCH  19  24
BRANCH  20  26
HETATM   26  C13 UNL     1      -7.470   1.037   0.003  1.00  0.00     0.199 C 
BRANCH  26  27
HETATM   27  O2  UNL     1      -8.771   0.656   0.307  1.00  0.00    -0.399 OA
ATOM     28  H2  UNL     1      -9.313   1.392   0.565  1.00  0.00     0.209 HD
ENDBRANCH  26  27
ENDBRANCH  20  26
ENDBRANCH  16  17
ENDBRANCH   1  16
TORSDOF 13
