REMARK  12 active torsions:
REMARK  status: ('A' for Active; 'I' for Inactive)
REMARK    1  A    between atoms: N2_5  and  C4_6 
REMARK    2  A    between atoms: C4_6  and  C5_7 
REMARK    3  A    between atoms: C5_7  and  C6_8 
REMARK    4  A    between atoms: C6_8  and  N3_9 
REMARK    5  A    between atoms: N3_9  and  C7_12 
REMARK    6  A    between atoms: C7_12  and  C8_13 
REMARK    7  A    between atoms: C8_13  and  C9_14 
REMARK    8  A    between atoms: C9_14  and  N4_15 
REMARK       I    between atoms: N4_15  and  C10_17 
REMARK       I    between atoms: C10_17  and  N6_21 
REMARK    9  A    between atoms: N6_21  and  C11_23 
REMARK   10  A    between atoms: C11_23  and  C12_24 
REMARK   11  A    between atoms: C12_24  and  N7_25 
REMARK   12  A    between atoms: C13_29  and  O1_30 
ROOT
HETATM    1  C7  UNL     1       1.713   1.601  -0.709  1.00  0.00     0.234 C 
ENDROOT
BRANCH   1   2
HETATM    2  N3  UNL     1       0.471   1.345   0.004  1.00  0.00    -0.075 N 
ATOM      3  H32 UNL     1      -0.058   2.193   0.208  1.00  0.00     0.277 HD
ATOM      4  H31 UNL     1       0.615   1.048   0.969  1.00  0.00     0.277 HD
BRANCH   2   5
HETATM    5  C6  UNL     1      -0.283   0.368  -0.798  1.00  0.00     0.234 C 
BRANCH   5   6
HETATM    6  C5  UNL     1      -1.605   0.211  -0.014  1.00  0.00     0.057 C 
BRANCH   6   7
HETATM    7  C4  UNL     1      -2.462  -0.781  -0.758  1.00  0.00     0.277 C 
BRANCH   7   8
HETATM    8  N2  UNL     1      -3.700  -0.948  -0.046  1.00  0.00     0.120 N 
HETATM    9  C3  UNL     1      -4.552  -1.952  -0.683  1.00  0.00     0.295 C 
HETATM   10  C2  UNL     1      -5.614  -2.320   0.337  1.00  0.00     0.146 C 
HETATM   11  N1  UNL     1      -6.318  -1.208   0.869  1.00  0.00    -0.411 N 
HETATM   12  C1  UNL     1      -7.619  -0.959   0.337  1.00  0.00     0.143 C 
HETATM   13  C14 UNL     1      -5.551  -0.032   1.132  1.00  0.00     0.180 C 
HETATM   14  C13 UNL     1      -4.506   0.250   0.047  1.00  0.00     0.374 C 
BRANCH  14  15
HETATM   15  O1  UNL     1      -5.168   0.532  -1.143  1.00  0.00    -0.366 OA
ATOM     16  H1  UNL     1      -5.697   1.319  -1.082  1.00  0.00     0.212 HD
ENDBRANCH  14  15
ENDBRANCH   7   8
ENDBRANCH   6   7
ENDBRANCH   5   6
ENDBRANCH   2   5
ENDBRANCH   1   2
BRANCH   1  17
HETATM   17  C8  UNL     1       2.546   2.623   0.047  1.00  0.00     0.048 C 
BRANCH  17  18
HETATM   18  C9  UNL     1       2.918   2.138   1.437  1.00  0.00     0.139 C 
BRANCH  18  19
HETATM   19  N4  UNL     1       3.718   0.916   1.275  1.00  0.00    -0.227 N 
HETATM   20  C10 UNL     1       5.015   1.104   0.704  1.00  0.00     0.667 C 
HETATM   21  N5  UNL     1       5.901   1.722   1.438  1.00  0.00    -0.235 N 
HETATM   22  N6  UNL     1       5.349   0.655  -0.585  1.00  0.00    -0.225 N 
ATOM     23  H52 UNL     1       5.659   2.048   2.374  1.00  0.00     0.174 HD
ATOM     24  H51 UNL     1       6.826   1.856   1.031  1.00  0.00     0.174 HD
ATOM     25  H6  UNL     1       4.726   0.844  -1.370  1.00  0.00     0.177 HD
ATOM     26  H4  UNL     1       3.372  -0.003   1.551  1.00  0.00     0.177 HD
BRANCH  22  27
HETATM   27  C11 UNL     1       6.576  -0.074  -0.795  1.00  0.00     0.165 C 
BRANCH  27  28
HETATM   28  C12 UNL     1       6.469  -1.430  -0.103  1.00  0.00     0.249 C 
BRANCH  28  29
HETATM   29  N7  UNL     1       7.673  -2.213  -0.286  1.00  0.00    -0.078 N 
ATOM     30  H73 UNL     1       7.906  -2.315  -1.274  1.00  0.00     0.274 HD
ATOM     31  H72 UNL     1       8.501  -1.702   0.019  1.00  0.00     0.274 HD
ATOM     32  H71 UNL     1       7.601  -3.119   0.177  1.00  0.00     0.274 HD
ENDBRANCH  28  29
ENDBRANCH  27  28
ENDBRANCH  22  27
ENDBRANCH  18  19
ENDBRANCH  17  18
ENDBRANCH   1  17
TORSDOF 12
