REMARK  15 active torsions:
REMARK  status: ('A' for Active; 'I' for Inactive)
REMARK    1  A    between atoms: C3_3  and  N1_4 
REMARK    2  A    between atoms: N1_4  and  C4_6 
REMARK    3  A    between atoms: C5_9  and  N3_10 
REMARK    4  A    between atoms: N3_10  and  C6_12 
REMARK    5  A    between atoms: C6_12  and  C7_13 
REMARK    6  A    between atoms: C7_13  and  C8_14 
REMARK    7  A    between atoms: C8_14  and  O1_15 
REMARK    8  A    between atoms: C9_19  and  N5_20 
REMARK    9  A    between atoms: N5_20  and  C10_22 
REMARK   10  A    between atoms: C10_22  and  C11_23 
REMARK   11  A    between atoms: C11_23  and  C12_24 
REMARK   12  A    between atoms: C12_24  and  C13_25 
REMARK   13  A    between atoms: C13_25  and  N6_26 
REMARK   14  A    between atoms: N6_26  and  C14_29 
REMARK   15  A    between atoms: C14_29  and  O2_30 
ROOT
HETATM    1  C1  UNL     1      -3.699   5.684  -0.889  1.00  0.00     0.014 C 
HETATM    2  C2  UNL     1      -2.906   5.147  -1.628  1.00  0.00    -0.097 C 
HETATM    3  C3  UNL     1      -1.937   4.489  -2.528  1.00  0.00     0.231 C 
ENDROOT
BRANCH   3   4
HETATM    4  N1  UNL     1      -0.943   3.806  -1.744  1.00  0.00    -0.215 N 
ATOM      5  H1  UNL     1      -0.026   4.241  -1.645  1.00  0.00     0.178 HD
BRANCH   4   6
HETATM    6  C4  UNL     1      -1.147   2.677  -1.161  1.00  0.00     0.708 A 
HETATM    7  N2  UNL     1      -2.341   2.021  -1.238  1.00  0.00    -0.021 N 
HETATM    8  C5  UNL     1      -2.515   0.843  -0.614  1.00  0.00     0.707 A 
ATOM      9  H2  UNL     1      -3.108   2.428  -1.773  1.00  0.00     0.203 HD
HETATM   10  N4  UNL     1      -1.497   0.322   0.084  1.00  0.00    -0.022 N 
HETATM   11  C9  UNL     1      -0.303   0.936   0.185  1.00  0.00     0.707 A 
ATOM     12  H4  UNL     1      -1.631  -0.572   0.556  1.00  0.00     0.203 HD
HETATM   13  N7  UNL     1      -0.151   2.122  -0.451  1.00  0.00    -0.021 N 
ATOM     14  H7  UNL     1       0.744   2.607  -0.389  1.00  0.00     0.203 HD
BRANCH   8  15
HETATM   15  N3  UNL     1      -3.621   0.225  -0.680  1.00  0.00    -0.225 N 
ATOM     16  H3  UNL     1      -4.352   0.677  -1.229  1.00  0.00     0.177 HD
BRANCH  15  17
HETATM   17  C6  UNL     1      -3.971  -1.023  -0.083  1.00  0.00     0.140 C 
BRANCH  17  18
HETATM   18  C7  UNL     1      -3.472  -2.224  -0.885  1.00  0.00     0.046 C 
BRANCH  18  19
HETATM   19  C8  UNL     1      -3.927  -3.464  -0.114  1.00  0.00     0.165 C 
BRANCH  19  20
HETATM   20  O1  UNL     1      -3.398  -3.479   1.152  1.00  0.00    -0.401 OA
ATOM     21  H1  UNL     1      -3.681  -4.249   1.631  1.00  0.00     0.209 HD
ENDBRANCH  19  20
ENDBRANCH  18  19
ENDBRANCH  17  18
ENDBRANCH  15  17
ENDBRANCH   8  15
BRANCH  11  22
HETATM   22  N5  UNL     1       0.700   0.501   0.828  1.00  0.00    -0.225 N 
ATOM     23  H5  UNL     1       1.534   1.088   0.807  1.00  0.00     0.177 HD
BRANCH  22  24
HETATM   24  C10 UNL     1       0.804  -0.711   1.579  1.00  0.00     0.138 C 
BRANCH  24  25
HETATM   25  C11 UNL     1       2.199  -1.275   1.338  1.00  0.00     0.022 C 
BRANCH  25  26
HETATM   26  C12 UNL     1       3.234  -0.250   1.812  1.00  0.00     0.029 C 
BRANCH  26  27
HETATM   27  C13 UNL     1       4.626  -0.773   1.590  1.00  0.00     0.235 C 
BRANCH  27  28
HETATM   28  N6  UNL     1       4.922  -1.058   0.227  1.00  0.00    -0.054 N 
ATOM     29  H62 UNL     1       4.229  -1.699  -0.160  1.00  0.00     0.279 HD
ATOM     30  H61 UNL     1       4.746  -0.238  -0.354  1.00  0.00     0.279 HD
BRANCH  28  31
HETATM   31  C14 UNL     1       6.239  -1.554  -0.001  1.00  0.00     0.396 C 
BRANCH  31  32
HETATM   32  O2  UNL     1       6.523  -1.829  -1.315  1.00  0.00    -0.375 OA
ATOM     33  H2  UNL     1       7.401  -2.160  -1.467  1.00  0.00     0.211 HD
ENDBRANCH  31  32
ENDBRANCH  28  31
ENDBRANCH  27  28
ENDBRANCH  26  27
ENDBRANCH  25  26
ENDBRANCH  24  25
ENDBRANCH  22  24
ENDBRANCH  11  22
ENDBRANCH   4   6
ENDBRANCH   3   4
TORSDOF 15
