REMARK  5 active torsions:
REMARK  status: ('A' for Active; 'I' for Inactive)
REMARK    1  A    between atoms: O1_2  and  S1_3 
REMARK    2  A    between atoms: S1_3  and  N1_5 
REMARK    3  A    between atoms: S1_3  and  N3_10 
REMARK    4  A    between atoms: N1_5  and  N2_7 
REMARK    5  A    between atoms: N3_10  and  N4_12 
ROOT
HETATM    1  S1  UNL     1      -1.132  -0.402   0.444  1.00  0.00     0.268 S 
HETATM    2  O2  UNL     1      -1.354   0.178   1.818  1.00  0.00    -0.195 OA
ENDROOT
BRANCH   1   3
HETATM    3  O1  UNL     1      -1.164   0.826  -0.693  1.00  0.00    -0.279 OA
HETATM    4  C1  UNL     1      -1.013   2.081  -0.122  1.00  0.00     0.225 C 
ENDBRANCH   1   3
BRANCH   1   5
HETATM    5  N1  UNL     1      -2.424  -1.285   0.187  1.00  0.00    -0.227 N 
ATOM      6  H1  UNL     1      -2.377  -2.276  -0.049  1.00  0.00     0.200 HD
BRANCH   5   7
HETATM    7  N2  UNL     1      -3.634  -0.594   0.310  1.00  0.00    -0.335 N 
ATOM      8  H22 UNL     1      -3.666   0.398   0.546  1.00  0.00     0.177 HD
ATOM      9  H21 UNL     1      -4.465  -1.162   0.145  1.00  0.00     0.177 HD
ENDBRANCH   5   7
ENDBRANCH   1   5
BRANCH   1  10
HETATM   10  N3  UNL     1       0.248  -1.384   0.340  1.00  0.00    -0.201 N 
ATOM     11  H3  UNL     1       0.115  -2.392   0.421  1.00  0.00     0.202 HD
BRANCH  10  12
HETATM   12  N4  UNL     1       1.549  -0.921   0.152  1.00  0.00    -0.181 N 
HETATM   13  C2  UNL     1       2.053   0.035  -0.629  1.00  0.00     0.153 A 
HETATM   14  C3  UNL     1       3.413   0.135  -0.456  1.00  0.00     0.125 A 
HETATM   15  N5  UNL     1       3.716  -0.792   0.458  1.00  0.00    -0.292 N 
HETATM   16  N6  UNL     1       2.587  -1.419   0.818  1.00  0.00     0.000 NA
ATOM     17  H5  UNL     1       4.649  -0.989   0.820  1.00  0.00     0.183 HD
ENDBRANCH  10  12
ENDBRANCH   1  10
TORSDOF 5
