REMARK  10 active torsions:
REMARK  status: ('A' for Active; 'I' for Inactive)
REMARK    1  A    between atoms: C2_2  and  C3_3 
REMARK    2  A    between atoms: C3_3  and  C4_4 
REMARK    3  A    between atoms: C4_4  and  C5_5 
REMARK    4  A    between atoms: C5_5  and  C6_6 
REMARK    5  A    between atoms: C6_6  and  C7_7 
REMARK    6  A    between atoms: C7_7  and  C8_8 
REMARK    7  A    between atoms: C8_8  and  C9_9 
REMARK    8  A    between atoms: C12_14  and  O3_15 
REMARK    9  A    between atoms: C14_18  and  O4_19 
REMARK   10  A    between atoms: C16_21  and  C17_22 
ROOT
HETATM    1  C9  UNL     1       0.293  -0.652  -0.140  1.00  0.00     0.143 C 
HETATM    2  O1  UNL     1      -0.210  -1.492   0.866  1.00  0.00    -0.311 OA
HETATM    3  C10 UNL     1      -1.473  -1.510   1.496  1.00  0.00     0.297 C 
HETATM    4  O2  UNL     1      -1.583  -1.959   2.648  1.00  0.00    -0.259 OA
HETATM    5  C11 UNL     1      -2.657  -1.005   0.803  1.00  0.00     0.087 A 
HETATM    6  C12 UNL     1      -3.711  -0.835   1.702  1.00  0.00     0.085 A 
HETATM    7  C13 UNL     1      -4.913  -0.361   1.229  1.00  0.00     0.075 A 
HETATM    8  C14 UNL     1      -5.055  -0.069  -0.091  1.00  0.00     0.082 A 
HETATM    9  C16 UNL     1      -4.029  -0.220  -1.049  1.00  0.00     0.019 A 
HETATM   10  C18 UNL     1      -2.842  -0.694  -0.549  1.00  0.00     0.043 A 
HETATM   11  C19 UNL     1      -1.806  -0.834  -1.553  1.00  0.00     0.167 C 
HETATM   12  O5  UNL     1      -2.304  -1.140  -2.693  1.00  0.00    -0.292 OA
HETATM   13  C20 UNL     1      -0.362  -0.685  -1.449  1.00  0.00     0.086 C 
HETATM   14  C21 UNL     1      -0.002   0.558  -2.287  1.00  0.00     0.021 C 
ENDROOT
BRANCH   1  15
HETATM   15  C8  UNL     1       0.355   0.737   0.467  1.00  0.00     0.033 C 
BRANCH  15  16
HETATM   16  C7  UNL     1       1.225   0.851   1.679  1.00  0.00     0.002 C 
BRANCH  16  17
HETATM   17  C6  UNL     1       2.645   0.469   1.331  1.00  0.00     0.000 C 
BRANCH  17  18
HETATM   18  C5  UNL     1       3.219   1.338   0.261  1.00  0.00     0.000 C 
BRANCH  18  19
HETATM   19  C4  UNL     1       4.625   0.962  -0.045  1.00  0.00     0.000 C 
BRANCH  19  20
HETATM   20  C3  UNL     1       4.748  -0.450  -0.533  1.00  0.00    -0.000 C 
BRANCH  20  21
HETATM   21  C2  UNL     1       6.245  -0.666  -0.820  1.00  0.00    -0.005 C 
HETATM   22  C1  UNL     1       6.978  -0.444   0.471  1.00  0.00     0.005 C 
ENDBRANCH  20  21
ENDBRANCH  19  20
ENDBRANCH  18  19
ENDBRANCH  17  18
ENDBRANCH  16  17
ENDBRANCH  15  16
ENDBRANCH   1  15
BRANCH   6  23
HETATM   23  O3  UNL     1      -3.536  -1.141   3.044  1.00  0.00    -0.360 OA
ATOM     24  H3  UNL     1      -4.253  -1.025   3.656  1.00  0.00     0.217 HD
ENDBRANCH   6  23
BRANCH   9  25
HETATM   25  C17 UNL     1      -4.181   0.104  -2.443  1.00  0.00     0.071 C 
HETATM   26 BR1  UNL     1      -5.246  -1.089  -3.530  1.00  0.00    -0.063 Br
ENDBRANCH   9  25
BRANCH   8  27
HETATM   27  O4  UNL     1      -6.259   0.413  -0.604  1.00  0.00    -0.355 OA
HETATM   28  C15 UNL     1      -7.397   0.628   0.206  1.00  0.00     0.210 C 
ENDBRANCH   8  27
TORSDOF 10
