REMARK  13 active torsions:
REMARK  status: ('A' for Active; 'I' for Inactive)
REMARK    1  A    between atoms: C6_7  and  N1_8 
REMARK    2  A    between atoms: N1_8  and  C7_10 
REMARK    3  A    between atoms: C7_10  and  O1_11 
REMARK    4  A    between atoms: C8_13  and  C9_14 
REMARK    5  A    between atoms: C9_14  and  C10_15 
REMARK    6  A    between atoms: C10_15  and  C11_16 
REMARK    7  A    between atoms: C11_16  and  C12_17 
REMARK    8  A    between atoms: C12_17  and  C13_18 
REMARK    9  A    between atoms: C13_18  and  C14_19 
REMARK   10  A    between atoms: C13_18  and  C20_28 
REMARK   11  A    between atoms: C15_20  and  O2_21 
REMARK   12  A    between atoms: C15_20  and  N2_23 
REMARK   13  A    between atoms: N2_23  and  C17_25 
ROOT
HETATM    1  C10 UNL     1      -0.928   0.757   0.966  1.00  0.00    -0.004 C 
ENDROOT
BRANCH   1   2
HETATM    2  C9  UNL     1      -1.335   1.881   0.155  1.00  0.00     0.004 C 
BRANCH   2   3
HETATM    3  C8  UNL     1      -2.384   2.172  -0.494  1.00  0.00     0.056 C 
HETATM    4  C7  UNL     1      -3.628   1.536  -0.722  1.00  0.00     0.140 C 
BRANCH   4   5
HETATM    5  N1  UNL     1      -4.081   0.316  -0.270  1.00  0.00    -0.337 N 
ATOM      6  H1  UNL     1      -3.469  -0.243   0.324  1.00  0.00     0.168 HD
BRANCH   5   7
HETATM    7  C6  UNL     1      -5.369  -0.198  -0.598  1.00  0.00     0.037 A 
HETATM    8  C5  UNL     1      -5.977   0.005  -1.792  1.00  0.00     0.071 A 
HETATM    9  C4  UNL     1      -7.258  -0.499  -2.028  1.00  0.00     0.119 A 
HETATM   10  C3  UNL     1      -7.894  -1.204  -1.033  1.00  0.00     0.049 A 
HETATM   11  F1  UNL     1      -7.872  -0.300  -3.218  1.00  0.00    -0.206 F 
HETATM   12  C2  UNL     1      -7.269  -1.411   0.189  1.00  0.00    -0.057 A 
HETATM   13  C1  UNL     1      -7.970  -2.179   1.257  1.00  0.00     0.048 C 
HETATM   14  C21 UNL     1      -6.010  -0.914   0.416  1.00  0.00     0.036 A 
ENDBRANCH   5   7
ENDBRANCH   4   5
BRANCH   4  15
HETATM   15  O1  UNL     1      -4.506   2.181  -1.474  1.00  0.00    -0.346 OA
ATOM     16  H1  UNL     1      -4.194   3.022  -1.786  1.00  0.00     0.219 HD
ENDBRANCH   4  15
ENDBRANCH   2   3
ENDBRANCH   1   2
BRANCH   1  17
HETATM   17  C11 UNL     1       0.251   0.664   1.572  1.00  0.00    -0.026 C 
BRANCH  17  18
HETATM   18  C12 UNL     1       1.317   1.627   1.546  1.00  0.00     0.046 C 
BRANCH  18  19
HETATM   19  C13 UNL     1       2.639   1.045   0.935  1.00  0.00     0.117 C 
BRANCH  19  20
HETATM   20  C14 UNL     1       2.317   0.630  -0.440  1.00  0.00     0.044 C 
HETATM   21  C15 UNL     1       3.307   0.057  -1.319  1.00  0.00     0.134 C 
BRANCH  21  22
HETATM   22  O2  UNL     1       2.964   0.171  -2.589  1.00  0.00    -0.346 OA
ATOM     23  H2  UNL     1       3.616  -0.206  -3.168  1.00  0.00     0.219 HD
ENDBRANCH  21  22
BRANCH  21  24
HETATM   24  N2  UNL     1       4.514  -0.575  -1.143  1.00  0.00    -0.363 N 
HETATM   25  C16 UNL     1       5.242  -0.969  -2.407  1.00  0.00     0.152 C 
BRANCH  24  26
HETATM   26  C17 UNL     1       5.223  -0.976   0.027  1.00  0.00     0.077 C 
HETATM   27  C18 UNL     1       6.603  -0.324   0.100  1.00  0.00     0.032 C 
HETATM   28  C19 UNL     1       5.504  -2.472  -0.007  1.00  0.00     0.032 C 
ENDBRANCH  24  26
ENDBRANCH  21  24
ENDBRANCH  19  20
BRANCH  19  29
HETATM   29  C20 UNL     1       3.675   2.075   1.081  1.00  0.00     0.181 C 
HETATM   30  O3  UNL     1       4.241   2.545   0.066  1.00  0.00    -0.647 OA
HETATM   31  O4  UNL     1       4.059   2.556   2.320  1.00  0.00    -0.647 OA
ENDBRANCH  19  29
ENDBRANCH  18  19
ENDBRANCH  17  18
ENDBRANCH   1  17
TORSDOF 13
