REMARK  5 active torsions:
REMARK  status: ('A' for Active; 'I' for Inactive)
REMARK    1  A    between atoms: N1_1  and  N2_4 
REMARK    2  A    between atoms: N2_4  and  C1_5 
REMARK    3  A    between atoms: C1_5  and  C2_6 
REMARK    4  A    between atoms: C2_6  and  N3_7 
REMARK    5  A    between atoms: N3_7  and  C3_9 
ROOT
HETATM    1  C3  UNL     1      -0.794  -0.141  -0.473  1.00  0.00     0.133 A 
HETATM    2  N4  UNL     1      -1.093  -1.386  -0.088  1.00  0.00    -0.337 N 
ATOM      3  H4  UNL     1      -0.433  -2.151  -0.227  1.00  0.00     0.168 HD
HETATM    4  C4  UNL     1      -2.290  -1.600   0.488  1.00  0.00     0.183 A 
HETATM    5  N5  UNL     1      -3.173  -0.610   0.680  1.00  0.00    -0.337 N 
ATOM      6  H5  UNL     1      -4.067  -0.824   1.121  1.00  0.00     0.168 HD
HETATM    7  C5  UNL     1      -2.913   0.670   0.305  1.00  0.00     0.138 A 
HETATM    8  N6  UNL     1      -3.595   1.829   0.373  1.00  0.00    -0.337 N 
ATOM      9  H6  UNL     1      -4.529   1.956   0.762  1.00  0.00     0.168 HD
HETATM   10  C6  UNL     1      -2.818   2.793  -0.168  1.00  0.00     0.182 A 
HETATM   11  N7  UNL     1      -1.667   2.223  -0.565  1.00  0.00    -0.346 N 
ATOM     12  H7  UNL     1      -0.891   2.713  -1.010  1.00  0.00     0.167 HD
HETATM   13  C7  UNL     1      -1.695   0.897  -0.283  1.00  0.00     0.122 A 
ENDROOT
BRANCH   1  14
HETATM   14  N3  UNL     1       0.314   0.135  -1.023  1.00  0.00    -0.373 N 
ATOM     15  H3  UNL     1       0.459   1.110  -1.287  1.00  0.00     0.161 HD
BRANCH  14  16
HETATM   16  C2  UNL     1       1.382  -0.767  -1.314  1.00  0.00     0.139 C 
BRANCH  16  17
HETATM   17  C1  UNL     1       2.329  -0.949  -0.155  1.00  0.00     0.153 C 
BRANCH  17  18
HETATM   18  N2  UNL     1       2.951   0.288   0.249  1.00  0.00    -0.147 NA
BRANCH  18  19
HETATM   19  N1  UNL     1       3.820   0.148   1.305  1.00  0.00    -0.348 N 
ATOM     20  H12 UNL     1       3.997  -0.753   1.750  1.00  0.00     0.172 HD
ATOM     21  H11 UNL     1       4.260   1.023   1.591  1.00  0.00     0.172 HD
ENDBRANCH  18  19
ENDBRANCH  17  18
ENDBRANCH  16  17
ENDBRANCH  14  16
ENDBRANCH   1  14
TORSDOF 5
