REMARK  4 active torsions:
REMARK  status: ('A' for Active; 'I' for Inactive)
REMARK    1  A    between atoms: C8_8  and  O1_9 
REMARK    2  A    between atoms: C10_12  and  O2_14 
REMARK    3  A    between atoms: C12_16  and  O3_17 
REMARK    4  A    between atoms: C14_20  and  O4_21 
ROOT
HETATM    1  C1  UNL     1       3.374  -0.605   1.916  1.00  0.00     0.046 C 
HETATM    2  C2  UNL     1       2.496  -0.664   0.936  1.00  0.00     0.040 C 
HETATM    3  C3  UNL     1       2.450   0.491   0.005  1.00  0.00     0.064 C 
HETATM    4  C4  UNL     1       1.899   1.655   0.751  1.00  0.00     0.007 C 
HETATM    5  C5  UNL     1       1.055   2.599  -0.036  1.00  0.00     0.007 C 
HETATM    6  C6  UNL     1      -0.095   1.974  -0.761  1.00  0.00     0.010 C 
HETATM    7  C7  UNL     1      -0.750   3.062  -1.600  1.00  0.00     0.012 C 
HETATM    8  C8  UNL     1      -1.089   1.376   0.202  1.00  0.00     0.124 C 
HETATM    9  C9  UNL     1      -1.821   0.172  -0.407  1.00  0.00     0.072 C 
HETATM   10  C10 UNL     1      -1.737  -1.036   0.449  1.00  0.00     0.082 C 
HETATM   11  C11 UNL     1      -3.172  -1.378   0.888  1.00  0.00     0.049 C 
HETATM   12  C12 UNL     1      -1.171  -2.264  -0.146  1.00  0.00     0.156 C 
HETATM   13  C13 UNL     1       0.017  -2.125  -1.025  1.00  0.00     0.095 C 
HETATM   14  C14 UNL     1       1.331  -2.471  -0.345  1.00  0.00     0.265 C 
HETATM   15  O5  UNL     1       1.656  -1.710   0.754  1.00  0.00    -0.326 OA
ENDROOT
BRANCH  10  16
HETATM   16  O2  UNL     1      -1.067  -0.797   1.673  1.00  0.00    -0.388 OA
ATOM     17  H2  UNL     1      -1.013  -1.571   2.221  1.00  0.00     0.210 HD
ENDBRANCH  10  16
BRANCH  12  18
HETATM   18  O3  UNL     1      -2.225  -2.964  -0.771  1.00  0.00    -0.392 OA
ATOM     19  H3  UNL     1      -1.861  -3.754  -1.154  1.00  0.00     0.210 HD
ENDBRANCH  12  18
BRANCH   8  20
HETATM   20  O1  UNL     1      -2.009   2.380   0.585  1.00  0.00    -0.395 OA
ATOM     21  H1  UNL     1      -2.635   2.003   1.192  1.00  0.00     0.210 HD
ENDBRANCH   8  20
BRANCH  14  22
HETATM   22  O4  UNL     1       2.354  -2.562  -1.301  1.00  0.00    -0.371 OA
ATOM     23  H4  UNL     1       3.176  -2.778  -0.876  1.00  0.00     0.212 HD
ENDBRANCH  14  22
TORSDOF 4
