REMARK  9 active torsions:
REMARK  status: ('A' for Active; 'I' for Inactive)
REMARK       I    between atoms: C1_2  and  N1_3 
REMARK    1  A    between atoms: C1_2  and  O4_27 
REMARK    2  A    between atoms: N1_3  and  C2_5 
REMARK    3  A    between atoms: C10_13  and  C11_14 
REMARK    4  A    between atoms: C11_14  and  O2_15 
REMARK    5  A    between atoms: C11_14  and  C12_17 
REMARK    6  A    between atoms: O4_27  and  C17_28 
REMARK    7  A    between atoms: C17_28  and  C18_29 
REMARK    8  A    between atoms: C18_29  and  C19_30 
REMARK    9  A    between atoms: C19_30  and  C20_31 
ROOT
HETATM    1  C2  UNL     1       0.379  -0.024  -0.458  1.00  0.00     0.091 C 
HETATM    2  C3  UNL     1      -0.148  -1.338   0.083  1.00  0.00     0.031 C 
HETATM    3  C4  UNL     1      -1.267  -1.154   1.048  1.00  0.00     0.003 C 
HETATM    4  C5  UNL     1      -0.888  -0.395   2.264  1.00  0.00     0.010 C 
HETATM    5  C6  UNL     1      -1.460   0.950   2.031  1.00  0.00    -0.013 C 
HETATM    6  C7  UNL     1      -0.805   1.731   0.934  1.00  0.00     0.011 C 
HETATM    7  C8  UNL     1      -0.674   1.018  -0.358  1.00  0.00     0.010 C 
HETATM    8  C9  UNL     1      -1.991   0.370  -0.754  1.00  0.00     0.023 C 
HETATM    9  C10 UNL     1      -2.481  -0.417   0.431  1.00  0.00     0.015 C 
HETATM   10  C16 UNL     1      -2.860   0.549   1.514  1.00  0.00     0.021 C 
ENDROOT
BRANCH   9  11
HETATM   11  C11 UNL     1      -3.530  -1.393   0.152  1.00  0.00     0.080 C 
BRANCH  11  12
HETATM   12  O2  UNL     1      -3.290  -2.655   0.381  1.00  0.00    -0.362 OA
ATOM     13  H2  UNL     1      -3.973  -3.290   0.199  1.00  0.00     0.217 HD
ENDBRANCH  11  12
BRANCH  11  14
HETATM   14  C12 UNL     1      -4.850  -1.130  -0.367  1.00  0.00     0.080 A 
HETATM   15  C13 UNL     1      -5.738  -2.188  -0.619  1.00  0.00     0.119 A 
HETATM   16  N2  UNL     1      -6.955  -1.952  -1.108  1.00  0.00    -0.368 N 
HETATM   17  C14 UNL     1      -7.414  -0.722  -1.390  1.00  0.00     0.162 A 
ATOM     18  H2  UNL     1      -7.570  -2.748  -1.277  1.00  0.00     0.164 HD
HETATM   19  C15 UNL     1      -6.564   0.329  -1.152  1.00  0.00     0.261 A 
HETATM   20  O3  UNL     1      -6.961   1.503  -1.406  1.00  0.00    -0.267 OA
HETATM   21  N3  UNL     1      -5.317   0.091  -0.652  1.00  0.00    -0.319 N 
ATOM     22  H3  UNL     1      -4.705   0.890  -0.486  1.00  0.00     0.169 HD
ENDBRANCH  11  14
ENDBRANCH   9  11
BRANCH   1  23
HETATM   23  N1  UNL     1       1.656   0.352   0.100  1.00  0.00    -0.332 N 
HETATM   24  C1  UNL     1       2.826   0.429  -0.709  1.00  0.00     0.360 C 
HETATM   25  O1  UNL     1       2.807   0.175  -1.943  1.00  0.00    -0.239 OA
ATOM     26  H1  UNL     1       1.722   0.567   1.095  1.00  0.00     0.165 HD
BRANCH  24  27
HETATM   27  O4  UNL     1       4.051   0.790  -0.170  1.00  0.00    -0.304 OA
BRANCH  27  28
HETATM   28  C17 UNL     1       5.203   0.856  -1.016  1.00  0.00     0.180 C 
BRANCH  28  29
HETATM   29  C18 UNL     1       6.416   1.286  -0.274  1.00  0.00     0.028 C 
BRANCH  29  30
HETATM   30  C19 UNL     1       6.868   0.484   0.867  1.00  0.00     0.013 C 
BRANCH  30  31
HETATM   31  C20 UNL     1       7.267  -0.921   0.598  1.00  0.00     0.085 C 
HETATM   32 BR1  UNL     1       5.885  -2.066  -0.064  1.00  0.00    -0.097 Br
ENDBRANCH  30  31
ENDBRANCH  29  30
ENDBRANCH  28  29
ENDBRANCH  27  28
ENDBRANCH  24  27
ENDBRANCH   1  23
TORSDOF 9
