REMARK  10 active torsions:
REMARK  status: ('A' for Active; 'I' for Inactive)
REMARK    1  A    between atoms: C3_3  and  C4_4 
REMARK    2  A    between atoms: C4_4  and  C5_5 
REMARK    3  A    between atoms: C5_5  and  N1_6 
REMARK    4  A    between atoms: N1_6  and  C6_8 
REMARK    5  A    between atoms: C7_11  and  N3_12 
REMARK    6  A    between atoms: N3_12  and  C8_14 
REMARK    7  A    between atoms: C8_14  and  C9_15 
REMARK    8  A    between atoms: C9_15  and  C10_16 
REMARK    9  A    between atoms: C10_16  and  C11_17 
REMARK   10  A    between atoms: N6_28  and  C18_29 
ROOT
HETATM    1  C1  UNL     1      -3.212   5.090  -2.997  1.00  0.00     0.112 C 
HETATM    2  C2  UNL     1      -3.809   4.008  -2.189  1.00  0.00    -0.111 C 
HETATM    3  C3  UNL     1      -4.299   3.139  -1.516  1.00  0.00    -0.105 C 
ENDROOT
BRANCH   3   4
HETATM    4  C4  UNL     1      -4.914   2.067  -0.701  1.00  0.00     0.114 C 
BRANCH   4   5
HETATM    5  C5  UNL     1      -3.905   0.991  -0.488  1.00  0.00     0.150 C 
BRANCH   5   6
HETATM    6  N1  UNL     1      -2.718   1.461   0.202  1.00  0.00    -0.225 N 
ATOM      7  H1  UNL     1      -2.602   2.460   0.369  1.00  0.00     0.177 HD
BRANCH   6   8
HETATM    8  C6  UNL     1      -1.803   0.641   0.610  1.00  0.00     0.681 A 
HETATM    9  N2  UNL     1      -0.759   1.148   1.226  1.00  0.00    -0.176 N 
HETATM   10  C7  UNL     1       0.233   0.315   1.674  1.00  0.00     0.132 A 
ATOM     11  H2  UNL     1      -0.687   2.155   1.370  1.00  0.00     0.186 HD
HETATM   12  C16 UNL     1       0.112  -1.044   1.465  1.00  0.00     0.071 A 
HETATM   13  C17 UNL     1       0.843  -2.155   1.741  1.00  0.00     0.127 A 
HETATM   14  C24 UNL     1      -1.022  -1.514   0.804  1.00  0.00     0.158 A 
HETATM   15  N5  UNL     1       0.169  -3.220   1.265  1.00  0.00    -0.302 N 
HETATM   16  N6  UNL     1      -0.959  -2.868   0.694  1.00  0.00    -0.237 N 
ATOM     17  H5  UNL     1       0.496  -4.183   1.339  1.00  0.00     0.186 HD
HETATM   18  N7  UNL     1      -1.982  -0.670   0.375  1.00  0.00    -0.174 N 
ATOM     19  H7  UNL     1      -2.812  -1.013  -0.109  1.00  0.00     0.186 HD
BRANCH  10  20
HETATM   20  N3  UNL     1       1.201   0.815   2.251  1.00  0.00    -0.375 N 
ATOM     21  H3  UNL     1       1.057   1.824   2.279  1.00  0.00     0.161 HD
BRANCH  20  22
HETATM   22  C8  UNL     1       2.394   0.549   2.869  1.00  0.00     0.121 C 
BRANCH  22  23
HETATM   23  C9  UNL     1       3.522   0.417   1.834  1.00  0.00     0.024 C 
BRANCH  23  24
HETATM   24  C10 UNL     1       3.636   1.701   1.076  1.00  0.00     0.041 C 
BRANCH  24  25
HETATM   25  C11 UNL     1       4.726   1.576   0.075  1.00  0.00    -0.043 A 
HETATM   26  C12 UNL     1       6.004   1.931   0.447  1.00  0.00     0.010 A 
HETATM   27  C13 UNL     1       7.034   1.823  -0.469  1.00  0.00     0.018 A 
HETATM   28  C14 UNL     1       6.794   1.363  -1.748  1.00  0.00     0.087 A 
HETATM   29  N4  UNL     1       5.536   1.023  -2.085  1.00  0.00    -0.375 N 
HETATM   30  C15 UNL     1       4.526   1.124  -1.204  1.00  0.00     0.094 A 
ATOM     31  H4  UNL     1       5.345   0.682  -3.027  1.00  0.00     0.164 HD
ENDBRANCH  24  25
ENDBRANCH  23  24
ENDBRANCH  22  23
ENDBRANCH  20  22
ENDBRANCH  10  20
BRANCH  16  32
HETATM   32  C18 UNL     1      -1.930  -3.720   0.080  1.00  0.00     0.080 A 
HETATM   33  C19 UNL     1      -3.214  -3.777   0.563  1.00  0.00     0.033 A 
HETATM   34  C20 UNL     1      -4.122  -4.607  -0.053  1.00  0.00     0.002 A 
HETATM   35  C21 UNL     1      -3.769  -5.378  -1.137  1.00  0.00     0.002 A 
HETATM   36  C22 UNL     1      -2.488  -5.331  -1.630  1.00  0.00     0.026 A 
HETATM   37  C23 UNL     1      -1.588  -4.495  -1.005  1.00  0.00     0.062 A 
HETATM   38 CL1  UNL     1       0.070  -4.440  -1.650  1.00  0.00    -0.082 Cl
ENDBRANCH  16  32
ENDBRANCH   6   8
ENDBRANCH   5   6
ENDBRANCH   4   5
ENDBRANCH   3   4
TORSDOF 10
