REMARK  9 active torsions:
REMARK  status: ('A' for Active; 'I' for Inactive)
REMARK    1  A    between atoms: C1_4  and  N2_5 
REMARK    2  A    between atoms: C1_4  and  C2_10 
REMARK    3  A    between atoms: N2_5  and  N3_7 
REMARK    4  A    between atoms: C2_10  and  O1_11 
REMARK    5  A    between atoms: C2_10  and  C7_22 
REMARK    6  A    between atoms: O1_11  and  C3_12 
REMARK    7  A    between atoms: C3_12  and  C4_13 
REMARK    8  A    between atoms: C4_13  and  C5_14 
REMARK    9  A    between atoms: N4_15  and  N5_17 
ROOT
HETATM    1  C2  UNL     1      -1.193   0.816   0.280  1.00  0.00     0.224 C 
ENDROOT
BRANCH   1   2
HETATM    2  C1  UNL     1      -2.093   2.003  -0.016  1.00  0.00     0.123 C 
HETATM    3  N1  UNL     1      -1.638   3.048  -0.609  1.00  0.00    -0.385 N 
ATOM      4  H12 UNL     1      -2.242   3.845  -0.808  1.00  0.00     0.157 HD
ATOM      5  H11 UNL     1      -0.659   3.052  -0.895  1.00  0.00     0.157 HD
BRANCH   2   6
HETATM    6  N2  UNL     1      -3.455   1.997   0.382  1.00  0.00    -0.293 N 
ATOM      7  H2  UNL     1      -3.770   1.320   1.077  1.00  0.00     0.187 HD
BRANCH   6   8
HETATM    8  N3  UNL     1      -4.361   2.889  -0.152  1.00  0.00    -0.344 N 
ATOM      9  H32 UNL     1      -4.029   3.560  -0.845  1.00  0.00     0.176 HD
ATOM     10  H31 UNL     1      -5.340   2.885   0.134  1.00  0.00     0.176 HD
ENDBRANCH   6   8
ENDBRANCH   2   6
ENDBRANCH   1   2
BRANCH   1  11
HETATM   11  O1  UNL     1      -0.015   0.962  -0.417  1.00  0.00    -0.373 OA
BRANCH  11  12
HETATM   12  C3  UNL     1       1.098   1.198   0.334  1.00  0.00     0.174 C 
BRANCH  12  13
HETATM   13  C4  UNL     1       1.474   0.097   1.266  1.00  0.00     0.072 C 
BRANCH  13  14
HETATM   14  C5  UNL     1       1.808  -1.183   0.592  1.00  0.00     0.082 C 
HETATM   15  N4  UNL     1       2.958  -1.291   0.028  1.00  0.00    -0.314 N 
ATOM     16  H4  UNL     1       3.219  -2.156  -0.445  1.00  0.00     0.185 HD
BRANCH  15  17
HETATM   17  N5  UNL     1       3.840  -0.223   0.068  1.00  0.00    -0.277 N 
HETATM   18  C6  UNL     1       5.100  -0.444  -0.026  1.00  0.00     0.215 C 
HETATM   19  N6  UNL     1       5.568  -1.771  -0.167  1.00  0.00    -0.065 NA
HETATM   20  N7  UNL     1       5.983   0.646   0.016  1.00  0.00    -0.065 NA
ATOM     21  H5  UNL     1       3.491   0.730   0.171  1.00  0.00     0.189 HD
ENDBRANCH  15  17
ENDBRANCH  13  14
ENDBRANCH  12  13
ENDBRANCH  11  12
ENDBRANCH   1  11
BRANCH   1  22
HETATM   22  C7  UNL     1      -1.885  -0.416  -0.149  1.00  0.00    -0.000 A 
HETATM   23  C8  UNL     1      -2.004  -1.497   0.727  1.00  0.00     0.013 A 
HETATM   24  C9  UNL     1      -2.658  -2.631   0.390  1.00  0.00     0.024 A 
HETATM   25  C10 UNL     1      -3.246  -2.774  -0.852  1.00  0.00     0.035 A 
HETATM   26 CL1  UNL     1      -4.080  -4.265  -1.233  1.00  0.00    -0.084 Cl
HETATM   27  C11 UNL     1      -3.155  -1.733  -1.751  1.00  0.00     0.048 A 
HETATM   28  C12 UNL     1      -2.472  -0.569  -1.377  1.00  0.00     0.044 A 
HETATM   29 CL2  UNL     1      -2.380   0.718  -2.588  1.00  0.00    -0.084 Cl
ENDBRANCH   1  22
TORSDOF 9
