REMARK  7 active torsions:
REMARK  status: ('A' for Active; 'I' for Inactive)
REMARK    1  A    between atoms: N1_2  and  C2_4 
REMARK    2  A    between atoms: C2_4  and  C3_5 
REMARK    3  A    between atoms: C2_4  and  C4_7 
REMARK    4  A    between atoms: C4_7  and  N2_8 
REMARK    5  A    between atoms: C4_7  and  C12_23 
REMARK       I    between atoms: N2_8  and  C5_10 
REMARK       I    between atoms: C5_10  and  N4_14 
REMARK    6  A    between atoms: N4_14  and  C6_16 
REMARK    7  A    between atoms: C14_28  and  O1_29 
ROOT
HETATM    1  C4  UNL     1      -1.170   0.281  -0.627  1.00  0.00     0.179 C 
ENDROOT
BRANCH   1   2
HETATM    2  C2  UNL     1      -1.564  -1.144  -0.350  1.00  0.00     0.117 C 
BRANCH   2   3
HETATM    3  N1  UNL     1      -1.482  -1.479   1.035  1.00  0.00    -0.418 N 
HETATM    4  C1  UNL     1      -1.385  -2.867   1.375  1.00  0.00     0.140 C 
ATOM      5  H1  UNL     1      -1.492  -0.757   1.756  1.00  0.00     0.153 HD
ENDBRANCH   2   3
BRANCH   2   6
HETATM    6  C3  UNL     1      -2.764  -1.610  -1.068  1.00  0.00     0.141 C 
HETATM    7 CL1  UNL     1      -2.890  -3.372  -1.047  1.00  0.00    -0.128 Cl
ENDBRANCH   2   6
ENDBRANCH   1   2
BRANCH   1   8
HETATM    8  N2  UNL     1       0.194   0.457  -0.187  1.00  0.00    -0.215 N 
HETATM    9  C5  UNL     1       1.236  -0.333  -0.754  1.00  0.00     0.672 C 
HETATM   10  N3  UNL     1       1.304  -0.518  -2.026  1.00  0.00    -0.235 N 
HETATM   11  N4  UNL     1       2.214  -0.929   0.065  1.00  0.00    -0.192 N 
ATOM     12  H32 UNL     1       0.596  -0.086  -2.619  1.00  0.00     0.174 HD
ATOM     13  H31 UNL     1       2.050  -1.083  -2.432  1.00  0.00     0.174 HD
ATOM     14  H4  UNL     1       1.929  -1.684   0.689  1.00  0.00     0.184 HD
ATOM     15  H2  UNL     1       0.412   1.148   0.531  1.00  0.00     0.178 HD
BRANCH  11  16
HETATM   16  C6  UNL     1       3.579  -0.531   0.066  1.00  0.00     0.049 A 
HETATM   17  C7  UNL     1       4.499  -1.164   0.888  1.00  0.00     0.033 A 
HETATM   18  C8  UNL     1       5.824  -0.799   0.908  1.00  0.00     0.044 A 
HETATM   19  C9  UNL     1       6.206   0.234   0.067  1.00  0.00     0.116 A 
HETATM   20  F1  UNL     1       7.505   0.641   0.041  1.00  0.00    -0.206 F 
HETATM   21  C10 UNL     1       5.315   0.875  -0.755  1.00  0.00     0.044 A 
HETATM   22  C11 UNL     1       3.976   0.493  -0.763  1.00  0.00     0.033 A 
ENDBRANCH  11  16
ENDBRANCH   1   8
BRANCH   1  23
HETATM   23  C12 UNL     1      -2.027   1.332  -0.066  1.00  0.00     0.348 C 
HETATM   24  N5  UNL     1      -3.390   1.327  -0.587  1.00  0.00    -0.042 N 
HETATM   25  C13 UNL     1      -4.032   2.274   0.276  1.00  0.00     0.295 C 
ATOM     26  H52 UNL     1      -3.474   1.521  -1.585  1.00  0.00     0.280 HD
ATOM     27  H51 UNL     1      -3.834   0.410  -0.633  1.00  0.00     0.280 HD
HETATM   28  C14 UNL     1      -3.143   2.323   1.505  1.00  0.00     0.285 C 
HETATM   29  O2  UNL     1      -2.107   1.418   1.295  1.00  0.00    -0.325 OA
BRANCH  28  30
HETATM   30  O1  UNL     1      -2.681   3.626   1.638  1.00  0.00    -0.369 OA
ATOM     31  H1  UNL     1      -2.125   3.657   2.407  1.00  0.00     0.212 HD
ENDBRANCH  28  30
ENDBRANCH   1  23
TORSDOF 7
