REMARK  4 active torsions:
REMARK  status: ('A' for Active; 'I' for Inactive)
REMARK    1  A    between atoms: N3_10  and  S1_12 
REMARK    2  A    between atoms: S1_12  and  N4_15 
REMARK    3  A    between atoms: N4_15  and  C4_17 
REMARK    4  A    between atoms: C4_17  and  C5_18 
ROOT
HETATM    1  S1  UNL     1      -0.008   0.724  -0.654  1.00  0.00     0.320 S 
HETATM    2  O3  UNL     1      -0.253   2.117  -0.133  1.00  0.00    -0.182 OA
HETATM    3  O4  UNL     1      -0.235   0.770  -2.154  1.00  0.00    -0.182 OA
ENDROOT
BRANCH   1   4
HETATM    4  N3  UNL     1      -1.021  -0.390   0.038  1.00  0.00    -0.248 N 
HETATM    5  C3  UNL     1      -2.273  -0.443   0.048  1.00  0.00     0.191 A 
HETATM    6  C2  UNL     1      -3.178   0.413  -0.517  1.00  0.00     0.304 A 
HETATM    7  N8  UNL     1      -2.847  -1.514   0.719  1.00  0.00    -0.288 N 
HETATM    8  N2  UNL     1      -4.527   0.224  -0.424  1.00  0.00    -0.259 N 
HETATM    9  O2  UNL     1      -2.747   1.419  -1.150  1.00  0.00    -0.263 OA
HETATM   10  N1  UNL     1      -5.029  -0.800   0.219  1.00  0.00    -0.248 N 
ATOM     11  H2  UNL     1      -5.157   0.895  -0.865  1.00  0.00     0.190 HD
HETATM   12  C1  UNL     1      -4.168  -1.660   0.785  1.00  0.00     0.340 A 
ATOM     13  H1  UNL     1      -6.037  -0.939   0.287  1.00  0.00     0.192 HD
HETATM   14  O1  UNL     1      -4.694  -2.640   1.400  1.00  0.00    -0.245 OA
ATOM     15  H8  UNL     1      -2.245  -2.202   1.170  1.00  0.00     0.172 HD
ATOM     16  H3  UNL     1      -0.553  -1.150   0.532  1.00  0.00     0.182 HD
ENDBRANCH   1   4
BRANCH   1  17
HETATM   17  N4  UNL     1       1.672   0.340  -0.475  1.00  0.00    -0.297 N 
ATOM     18  H4  UNL     1       2.202  -0.219  -1.144  1.00  0.00     0.174 HD
BRANCH  17  19
HETATM   19  C4  UNL     1       2.235   0.901   0.728  1.00  0.00     0.193 C 
BRANCH  19  20
HETATM   20  C5  UNL     1       3.661   0.528   0.800  1.00  0.00     0.062 A 
HETATM   21  C6  UNL     1       4.385  -0.229  -0.105  1.00  0.00     0.136 A 
HETATM   22  N5  UNL     1       5.656  -0.336   0.334  1.00  0.00    -0.296 N 
HETATM   23  N6  UNL     1       5.693   0.334   1.465  1.00  0.00    -0.243 N 
ATOM     24  H5  UNL     1       6.426  -0.832  -0.116  1.00  0.00     0.187 HD
HETATM   25  N7  UNL     1       4.540   0.854   1.769  1.00  0.00    -0.287 N 
ATOM     26  H6  UNL     1       6.530   0.434   2.039  1.00  0.00     0.208 HD
ATOM     27  H7  UNL     1       4.336   1.412   2.598  1.00  0.00     0.188 HD
ENDBRANCH  19  20
ENDBRANCH  17  19
ENDBRANCH   1  17
TORSDOF 4
