REMARK  7 active torsions:
REMARK  status: ('A' for Active; 'I' for Inactive)
REMARK    1  A    between atoms: N1_1  and  C1_5 
REMARK    2  A    between atoms: C1_5  and  C2_6 
REMARK    3  A    between atoms: C6_10  and  C7_11 
REMARK    4  A    between atoms: C7_11  and  N2_12 
REMARK    5  A    between atoms: N2_12  and  C8_15 
REMARK    6  A    between atoms: C8_15  and  C9_16 
REMARK    7  A    between atoms: C9_16  and  N3_17 
ROOT
HETATM    1  C7  UNL     1      -0.993   1.419   0.588  1.00  0.00     0.237 C 
ENDROOT
BRANCH   1   2
HETATM    2  C6  UNL     1      -2.284   0.988   0.032  1.00  0.00     0.017 C 
HETATM    3  C2  UNL     1      -2.889  -0.224   0.693  1.00  0.00     0.017 C 
HETATM    4  C3  UNL     1      -2.711  -1.375  -0.281  1.00  0.00     0.007 C 
HETATM    5  C4  UNL     1      -2.332  -0.792  -1.590  1.00  0.00     0.001 C 
HETATM    6  C5  UNL     1      -2.362   0.698  -1.417  1.00  0.00     0.007 C 
BRANCH   3   7
HETATM    7  C1  UNL     1      -4.383  -0.048   0.869  1.00  0.00     0.234 C 
BRANCH   7   8
HETATM    8  N1  UNL     1      -4.585   1.045   1.816  1.00  0.00    -0.079 N 
ATOM      9  H13 UNL     1      -4.094   0.903   2.699  1.00  0.00     0.274 HD
ATOM     10  H12 UNL     1      -4.113   1.905   1.538  1.00  0.00     0.274 HD
ATOM     11  H11 UNL     1      -5.591   1.164   1.935  1.00  0.00     0.274 HD
ENDBRANCH   7   8
ENDBRANCH   3   7
ENDBRANCH   1   2
BRANCH   1  12
HETATM   12  N2  UNL     1       0.061   0.451   0.590  1.00  0.00    -0.073 N 
ATOM     13  H22 UNL     1      -0.148  -0.303   1.245  1.00  0.00     0.277 HD
ATOM     14  H21 UNL     1       0.064  -0.075  -0.284  1.00  0.00     0.277 HD
BRANCH  12  15
HETATM   15  C8  UNL     1       1.347   0.992   0.849  1.00  0.00     0.262 C 
BRANCH  15  16
HETATM   16  C9  UNL     1       2.445   0.034   1.123  1.00  0.00     0.299 C 
BRANCH  16  17
HETATM   17  N3  UNL     1       2.726  -0.987   0.219  1.00  0.00     0.090 N 
HETATM   18  C10 UNL     1       4.056  -1.528   0.577  1.00  0.00     0.272 C 
HETATM   19  C11 UNL     1       4.999  -0.564  -0.187  1.00  0.00     0.032 C 
HETATM   20  C12 UNL     1       4.104   0.076  -1.244  1.00  0.00     0.032 C 
HETATM   21  C13 UNL     1       2.875  -0.780  -1.151  1.00  0.00     0.272 C 
ENDBRANCH  16  17
ENDBRANCH  15  16
ENDBRANCH  12  15
ENDBRANCH   1  12
TORSDOF 7
