REMARK  7 active torsions:
REMARK  status: ('A' for Active; 'I' for Inactive)
REMARK    1  A    between atoms: C2_2  and  C3_3 
REMARK    2  A    between atoms: C3_3  and  N1_4 
REMARK    3  A    between atoms: N2_7  and  N3_8 
REMARK    4  A    between atoms: N3_8  and  C5_10 
REMARK    5  A    between atoms: C6_13  and  N5_14 
REMARK    6  A    between atoms: C7_19  and  N7_20 
REMARK    7  A    between atoms: N7_20  and  C8_22 
ROOT
HETATM    1  C5  UNL     1      -0.684  -0.118  -0.120  1.00  0.00     0.726 A 
HETATM    2  N4  UNL     1      -0.393  -1.189   0.630  1.00  0.00    -0.020 N 
ATOM      3  H4  UNL     1       0.577  -1.451   0.808  1.00  0.00     0.203 HD
HETATM    4  C6  UNL     1      -1.400  -1.910   1.142  1.00  0.00     0.705 A 
HETATM    5  N6  UNL     1      -2.679  -1.534   0.886  1.00  0.00    -0.022 N 
ATOM      6  H6  UNL     1      -3.436  -2.092   1.282  1.00  0.00     0.203 HD
HETATM    7  C7  UNL     1      -2.999  -0.467   0.139  1.00  0.00     0.707 A 
HETATM    8  N8  UNL     1      -1.967   0.233  -0.359  1.00  0.00    -0.020 N 
ATOM      9  H8  UNL     1      -2.157   1.054  -0.934  1.00  0.00     0.203 HD
ENDROOT
BRANCH   1  10
HETATM   10  N3  UNL     1       0.257   0.590  -0.622  1.00  0.00    -0.116 N 
ATOM     11  H3  UNL     1       0.026   1.404  -1.192  1.00  0.00     0.206 HD
BRANCH  10  12
HETATM   12  N2  UNL     1       1.602   0.260  -0.398  1.00  0.00    -0.138 N 
HETATM   13  C4  UNL     1       2.533   0.362   0.673  1.00  0.00     0.356 A 
HETATM   14  N1  UNL     1       3.562  -0.233  -0.105  1.00  0.00    -0.244 N 
HETATM   15  O1  UNL     1       2.434   0.819   1.854  1.00  0.00    -0.244 OA
HETATM   16  C10 UNL     1       2.633  -0.336  -1.175  1.00  0.00     0.356 A 
HETATM   17  O2  UNL     1       2.758  -0.799  -2.350  1.00  0.00    -0.244 OA
BRANCH  14  18
HETATM   18  C3  UNL     1       4.968  -0.584   0.114  1.00  0.00     0.165 C 
BRANCH  18  19
HETATM   19  C2  UNL     1       5.842   0.535  -0.258  1.00  0.00    -0.017 C 
HETATM   20  C1  UNL     1       5.361   1.672  -0.720  1.00  0.00     0.008 C 
ENDBRANCH  18  19
ENDBRANCH  14  18
ENDBRANCH  10  12
ENDBRANCH   1  10
BRANCH   4  21
HETATM   21  N5  UNL     1      -1.166  -2.969   1.883  1.00  0.00    -0.234 N 
ATOM     22  H52 UNL     1      -0.205  -3.252   2.075  1.00  0.00     0.174 HD
ATOM     23  H51 UNL     1      -1.932  -3.518   2.273  1.00  0.00     0.174 HD
ENDBRANCH   4  21
BRANCH   7  24
HETATM   24  N7  UNL     1      -4.219  -0.169  -0.063  1.00  0.00    -0.225 N 
ATOM     25  H7  UNL     1      -4.917  -0.776   0.367  1.00  0.00     0.177 HD
BRANCH  24  26
HETATM   26  C8  UNL     1      -4.707   0.928  -0.830  1.00  0.00     0.133 C 
HETATM   27  C9  UNL     1      -6.030   1.372  -0.192  1.00  0.00     0.027 C 
ENDBRANCH  24  26
ENDBRANCH   7  24
TORSDOF 7
