REMARK  6 active torsions:
REMARK  status: ('A' for Active; 'I' for Inactive)
REMARK    1  A    between atoms: N1_1  and  C1_5 
REMARK    2  A    between atoms: C1_5  and  C2_6 
REMARK    3  A    between atoms: C2_6  and  C3_7 
REMARK    4  A    between atoms: C5_9  and  N2_10 
REMARK    5  A    between atoms: N2_10  and  S1_12 
REMARK    6  A    between atoms: S1_12  and  C6_15 
ROOT
HETATM    1  C3  UNL     1      -1.983   0.741   0.257  1.00  0.00     0.019 A 
HETATM    2  C4  UNL     1      -1.198  -0.313  -0.079  1.00  0.00     0.074 A 
HETATM    3  C5  UNL     1       0.208  -0.285  -0.084  1.00  0.00     0.120 A 
HETATM    4  N5  UNL     1       0.749   0.880   0.272  1.00  0.00    -0.294 N 
ATOM      5  H5  UNL     1       1.765   0.964   0.288  1.00  0.00     0.172 HD
HETATM    6  C9  UNL     1      -0.008   1.970   0.618  1.00  0.00     0.326 A 
HETATM    7  O3  UNL     1       0.636   3.002   0.932  1.00  0.00    -0.247 OA
HETATM    8  N6  UNL     1      -1.350   1.890   0.607  1.00  0.00    -0.312 N 
ATOM      9  H6  UNL     1      -1.903   2.707   0.866  1.00  0.00     0.170 HD
ENDROOT
BRANCH   3  10
HETATM   10  N2  UNL     1       0.805  -1.321  -0.412  1.00  0.00    -0.264 N 
ATOM     11  H2  UNL     1       0.129  -2.052  -0.633  1.00  0.00     0.180 HD
BRANCH  10  12
HETATM   12  S1  UNL     1       2.339  -1.902  -0.608  1.00  0.00     0.281 S 
HETATM   13  O1  UNL     1       2.583  -2.136  -2.106  1.00  0.00    -0.199 OA
HETATM   14  O2  UNL     1       2.547  -3.250   0.070  1.00  0.00    -0.199 OA
BRANCH  12  15
HETATM   15  C6  UNL     1       3.648  -0.882  -0.069  1.00  0.00     0.165 A 
HETATM   16  C7  UNL     1       4.116  -0.875   1.224  1.00  0.00     0.132 A 
HETATM   17  N3  UNL     1       5.122   0.006   1.259  1.00  0.00    -0.359 N 
HETATM   18  C8  UNL     1       5.303   0.549   0.044  1.00  0.00     0.181 A 
ATOM     19  H3  UNL     1       5.672   0.232   2.088  1.00  0.00     0.166 HD
HETATM   20  N4  UNL     1       4.389  -0.007  -0.761  1.00  0.00    -0.341 N 
ATOM     21  H4  UNL     1       4.274   0.204  -1.752  1.00  0.00     0.167 HD
ENDBRANCH  12  15
ENDBRANCH  10  12
ENDBRANCH   3  10
BRANCH   1  22
HETATM   22  C2  UNL     1      -3.446   0.751   0.275  1.00  0.00     0.084 C 
BRANCH  22  23
HETATM   23  C1  UNL     1      -4.097  -0.522  -0.114  1.00  0.00     0.235 C 
BRANCH  23  24
HETATM   24  N1  UNL     1      -5.540  -0.335  -0.041  1.00  0.00    -0.079 N 
ATOM     25  H13 UNL     1      -5.848   0.002   0.871  1.00  0.00     0.274 HD
ATOM     26  H12 UNL     1      -5.863   0.458  -0.596  1.00  0.00     0.274 HD
ATOM     27  H11 UNL     1      -5.988  -1.211  -0.309  1.00  0.00     0.274 HD
ENDBRANCH  23  24
ENDBRANCH  22  23
ENDBRANCH   1  22
TORSDOF 6
