REMARK  6 active torsions:
REMARK  status: ('A' for Active; 'I' for Inactive)
REMARK    1  A    between atoms: N1_1  and  S1_4 
REMARK    2  A    between atoms: S1_4  and  C1_6 
REMARK    3  A    between atoms: C4_9  and  C5_10 
REMARK    4  A    between atoms: C5_10  and  O3_12 
REMARK    5  A    between atoms: O3_12  and  N2_13 
REMARK    6  A    between atoms: N2_13  and  C6_15 
ROOT
HETATM    1  N2  UNL     1      -0.889   2.467   0.023  1.00  0.00    -0.239 N 
ATOM      2  H2  UNL     1      -0.671   3.455  -0.109  1.00  0.00     0.196 HD
ENDROOT
BRANCH   1   3
HETATM    3  O3  UNL     1       0.158   1.592   0.199  1.00  0.00    -0.193 OA
BRANCH   3   4
HETATM    4  C5  UNL     1       1.137   1.369  -0.748  1.00  0.00     0.315 C 
HETATM    5  O2  UNL     1       1.060   2.004  -1.824  1.00  0.00    -0.257 OA
BRANCH   4   6
HETATM    6  C4  UNL     1       2.235   0.412  -0.489  1.00  0.00     0.041 A 
HETATM    7  C3  UNL     1       3.167   0.241  -1.468  1.00  0.00     0.019 A 
HETATM    8  C2  UNL     1       4.235  -0.679  -1.250  1.00  0.00     0.024 A 
HETATM    9  C1  UNL     1       4.262  -1.329  -0.088  1.00  0.00     0.052 A 
HETATM   10  C14 UNL     1       3.368  -1.188   0.897  1.00  0.00     0.024 A 
HETATM   11  C13 UNL     1       2.302  -0.274   0.687  1.00  0.00     0.019 A 
BRANCH   9  12
HETATM   12  S1  UNL     1       5.493  -2.568   0.130  1.00  0.00     0.144 S 
HETATM   13  O1  UNL     1       6.243  -1.271   0.722  1.00  0.00    -0.230 OA
BRANCH  12  14
HETATM   14  N1  UNL     1       5.673  -3.754  -0.064  1.00  0.00    -0.346 N 
ATOM     15  H12 UNL     1       6.386  -4.472   0.062  1.00  0.00     0.166 HD
ATOM     16  H11 UNL     1       5.198  -4.575  -0.439  1.00  0.00     0.166 HD
ENDBRANCH  12  14
ENDBRANCH   9  12
ENDBRANCH   4   6
ENDBRANCH   3   4
ENDBRANCH   1   3
BRANCH   1  17
HETATM   17  C6  UNL     1      -2.116   2.118   0.015  1.00  0.00     0.156 A 
HETATM   18  N3  UNL     1      -3.047   3.037  -0.161  1.00  0.00    -0.335 N 
HETATM   19  C7  UNL     1      -4.358   2.723  -0.178  1.00  0.00     0.182 A 
ATOM     20  H3  UNL     1      -2.767   4.010  -0.287  1.00  0.00     0.168 HD
HETATM   21  N4  UNL     1      -4.696   1.440  -0.009  1.00  0.00    -0.350 N 
HETATM   22  C8  UNL     1      -3.791   0.468   0.174  1.00  0.00     0.064 A 
ATOM     23  H4  UNL     1      -5.685   1.190  -0.020  1.00  0.00     0.166 HD
HETATM   24  C9  UNL     1      -4.155  -0.857   0.347  1.00  0.00     0.033 A 
HETATM   25  C12 UNL     1      -2.443   0.789   0.191  1.00  0.00     0.105 A 
HETATM   26  C10 UNL     1      -3.160  -1.781   0.527  1.00  0.00     0.019 A 
HETATM   27  C11 UNL     1      -1.828  -1.431   0.540  1.00  0.00     0.088 A 
HETATM   28  N5  UNL     1      -1.482  -0.155   0.372  1.00  0.00    -0.361 N 
ATOM     29  H5  UNL     1      -0.498   0.113   0.379  1.00  0.00     0.165 HD
ENDBRANCH   1  17
TORSDOF 6
