REMARK  3 active torsions:
REMARK  status: ('A' for Active; 'I' for Inactive)
REMARK    1  A    between atoms: O1_2  and  C2_3 
REMARK    2  A    between atoms: C2_3  and  C3_5 
REMARK    3  A    between atoms: C13_19  and  O4_20 
ROOT
HETATM    1  C3  UNL     1       1.289  -0.059   0.143  1.00  0.00     0.073 A 
HETATM    2  C4  UNL     1       0.253  -0.438  -0.729  1.00  0.00     0.036 A 
HETATM    3  C5  UNL     1      -1.079  -0.294  -0.403  1.00  0.00     0.017 A 
HETATM    4  C6  UNL     1      -1.935  -0.729  -1.404  1.00  0.00     0.170 C 
HETATM    5  F1  UNL     1      -1.315  -1.436  -2.406  1.00  0.00    -0.202 F 
HETATM    6  C7  UNL     1      -3.284  -0.548  -1.512  1.00  0.00     0.206 C 
HETATM    7  F2  UNL     1      -3.798  -0.985  -2.697  1.00  0.00    -0.198 F 
HETATM    8  C8  UNL     1      -4.160   0.007  -0.597  1.00  0.00     0.230 C 
HETATM    9  O3  UNL     1      -5.337   0.149  -0.972  1.00  0.00    -0.284 OA
HETATM   10  C9  UNL     1      -3.929   0.437   0.693  1.00  0.00     0.065 C 
HETATM   11 BR1  UNL     1      -5.449   1.045   1.676  1.00  0.00    -0.047 Br
HETATM   12  C10 UNL     1      -2.707   0.467   1.333  1.00  0.00     0.035 C 
HETATM   13  C11 UNL     1      -1.424   0.241   0.821  1.00  0.00    -0.019 A 
HETATM   14  C12 UNL     1      -0.442   0.615   1.680  1.00  0.00     0.050 A 
HETATM   15  C13 UNL     1       0.927   0.465   1.340  1.00  0.00     0.082 A 
ENDROOT
BRANCH   1  16
HETATM   16  C2  UNL     1       2.642  -0.265  -0.326  1.00  0.00     0.295 C 
HETATM   17  O2  UNL     1       2.868  -0.767  -1.476  1.00  0.00    -0.259 OA
BRANCH  16  18
HETATM   18  O1  UNL     1       3.746   0.051   0.401  1.00  0.00    -0.322 OA
HETATM   19  C1  UNL     1       5.081  -0.132  -0.014  1.00  0.00     0.213 C 
ENDBRANCH  16  18
ENDBRANCH   1  16
BRANCH  15  20
HETATM   20  O4  UNL     1       1.849   0.863   2.256  1.00  0.00    -0.360 OA
ATOM     21  H4  UNL     1       1.595   1.230   3.095  1.00  0.00     0.217 HD
ENDBRANCH  15  20
TORSDOF 3
