REMARK  7 active torsions:
REMARK  status: ('A' for Active; 'I' for Inactive)
REMARK    1  A    between atoms: C2_2  and  N1_3 
REMARK       I    between atoms: N1_3  and  C3_4 
REMARK    2  A    between atoms: N3_6  and  O1_8 
REMARK    3  A    between atoms: C4_10  and  C5_11 
REMARK    4  A    between atoms: C5_11  and  O2_12 
REMARK    5  A    between atoms: C5_11  and  C6_14 
REMARK    6  A    between atoms: C6_14  and  N4_15 
REMARK    7  A    between atoms: C8_20  and  N6_21 
ROOT
HETATM    1  C1  UNL     1      -2.298  -0.907   1.937  1.00  0.00     0.063 C 
HETATM    2  C2  UNL     1      -1.661  -0.658   0.532  1.00  0.00     0.179 C 
HETATM    3  C4  UNL     1      -0.182  -0.765   0.788  1.00  0.00     0.201 C 
HETATM    4  O3  UNL     1       0.243  -2.034   1.150  1.00  0.00    -0.355 OA
HETATM    5  C9  UNL     1      -0.463  -3.057   0.575  1.00  0.00     0.342 C 
HETATM    6  O4  UNL     1      -1.137  -2.717  -0.568  1.00  0.00    -0.325 OA
HETATM    7  C10 UNL     1      -2.172  -1.843  -0.282  1.00  0.00     0.229 A 
HETATM    8  C11 UNL     1      -3.497  -2.353  -0.200  1.00  0.00     0.244 A 
HETATM    9  O5  UNL     1      -3.016  -1.541  -1.366  1.00  0.00    -0.345 OA
ENDROOT
BRANCH   3  10
HETATM   10  C5  UNL     1       0.725  -0.173  -0.224  1.00  0.00     0.179 C 
BRANCH  10  11
HETATM   11  O2  UNL     1       0.860  -0.859  -1.409  1.00  0.00    -0.391 OA
ATOM     12  H2  UNL     1       1.441  -0.480  -2.058  1.00  0.00     0.210 HD
ENDBRANCH  10  11
BRANCH  10  13
HETATM   13  C6  UNL     1       2.121  -0.149   0.420  1.00  0.00     0.314 C 
BRANCH  13  14
HETATM   14  N4  UNL     1       3.095   0.512  -0.414  1.00  0.00     0.175 N 
HETATM   15  C7  UNL     1       2.900   1.920  -0.563  1.00  0.00     0.512 A 
HETATM   16  N5  UNL     1       4.075   2.168   0.209  1.00  0.00     0.007 N 
HETATM   17  C8  UNL     1       4.307   0.755   0.315  1.00  0.00     0.618 A 
ATOM     18  H52 UNL     1       4.806   2.778  -0.157  1.00  0.00     0.283 HD
ATOM     19  H51 UNL     1       4.019   2.740   1.052  1.00  0.00     0.283 HD
BRANCH  17  20
HETATM   20  N6  UNL     1       5.506   0.295  -0.374  1.00  0.00    -0.023 N 
ATOM     21  H63 UNL     1       5.425  -0.692  -0.619  1.00  0.00     0.279 HD
ATOM     22  H62 UNL     1       5.561   0.698  -1.309  1.00  0.00     0.279 HD
ATOM     23  H61 UNL     1       6.367   0.468   0.144  1.00  0.00     0.279 HD
ENDBRANCH  17  20
ENDBRANCH  13  14
ENDBRANCH  10  13
ENDBRANCH   3  10
BRANCH   2  24
HETATM   24  N1  UNL     1      -2.085   0.563   0.122  1.00  0.00    -0.397 NA
HETATM   25  C3  UNL     1      -2.516   1.804  -0.294  1.00  0.00     0.282 C 
HETATM   26  N2  UNL     1      -3.857   2.004  -0.749  1.00  0.00    -0.048 NA
HETATM   27  N3  UNL     1      -1.749   2.828  -0.286  1.00  0.00    -0.230 N 
ATOM     28  H3  UNL     1      -0.786   2.738   0.037  1.00  0.00     0.198 HD
BRANCH  27  29
HETATM   29  O1  UNL     1      -2.214   4.040  -0.707  1.00  0.00    -0.287 OA
ATOM     30  H1  UNL     1      -1.644   4.800  -0.701  1.00  0.00     0.244 HD
ENDBRANCH  27  29
ENDBRANCH   2  24
TORSDOF 7
