REMARK  3 active torsions:
REMARK  status: ('A' for Active; 'I' for Inactive)
REMARK    1  A    between atoms: C3_4  and  O2_5 
REMARK    2  A    between atoms: C5_9  and  C6_10 
REMARK    3  A    between atoms: C6_10  and  C7_11 
ROOT
HETATM    1  C1  UNL     1      -0.415   2.302  -0.358  1.00  0.00     0.042 C 
HETATM    2  C2  UNL     1      -0.739   1.015   0.416  1.00  0.00     0.149 C 
HETATM    3  O1  UNL     1      -2.052   0.730   0.172  1.00  0.00    -0.352 OA
HETATM    4  C3  UNL     1      -2.437  -0.560   0.333  1.00  0.00     0.280 C 
HETATM    5  C4  UNL     1      -1.457  -1.487   0.929  1.00  0.00     0.228 C 
HETATM    6  O3  UNL     1      -0.144  -1.226   0.705  1.00  0.00    -0.379 OA
HETATM    7  C5  UNL     1       0.138  -0.106  -0.031  1.00  0.00     0.151 C 
ENDROOT
BRANCH   7   8
HETATM    8  C6  UNL     1       1.611   0.203   0.108  1.00  0.00     0.045 C 
BRANCH   8   9
HETATM    9  C7  UNL     1       2.414  -0.990  -0.369  1.00  0.00     0.088 C 
HETATM   10  S1  UNL     1       4.174  -0.746  -0.255  1.00  0.00    -0.098 SA
ENDBRANCH   8   9
ENDBRANCH   7   8
BRANCH   4  11
HETATM   11  O2  UNL     1      -2.911  -1.026  -0.915  1.00  0.00    -0.369 OA
ATOM     12  H2  UNL     1      -3.181  -1.930  -0.802  1.00  0.00     0.212 HD
ENDBRANCH   4  11
TORSDOF 3
