REMARK  4 active torsions:
REMARK  status: ('A' for Active; 'I' for Inactive)
REMARK    1  A    between atoms: O1_2  and  C2_3 
REMARK    2  A    between atoms: N2_7  and  C4_9 
REMARK    3  A    between atoms: C4_9  and  C5_10 
REMARK    4  A    between atoms: C5_10  and  O2_11 
ROOT
HETATM    1  C2  UNL     1      -1.854   0.559  -0.275  1.00  0.00     0.167 A 
HETATM    2  N1  UNL     1      -0.603   0.238  -0.677  1.00  0.00    -0.321 N 
ATOM      3  H1  UNL     1      -0.180   0.799  -1.416  1.00  0.00     0.169 HD
HETATM    4  C3  UNL     1       0.113  -0.765  -0.169  1.00  0.00     0.110 A 
HETATM    5  N2  UNL     1       1.288  -1.095  -0.520  1.00  0.00    -0.374 N 
ATOM      6  H2  UNL     1       1.705  -1.889  -0.035  1.00  0.00     0.161 HD
HETATM    7  C6  UNL     1      -0.469  -1.535   0.845  1.00  0.00     0.005 A 
HETATM    8  C7  UNL     1       0.267  -2.676   1.465  1.00  0.00     0.054 C 
HETATM    9  C8  UNL     1      -1.740  -1.258   1.297  1.00  0.00     0.069 A 
HETATM   10 CL1  UNL     1      -2.490  -2.223   2.578  1.00  0.00    -0.082 Cl
HETATM   11  C9  UNL     1      -2.403  -0.210   0.720  1.00  0.00     0.107 A 
HETATM   12 CL2  UNL     1      -4.014   0.162   1.275  1.00  0.00    -0.078 Cl
ENDROOT
BRANCH   5  13
HETATM   13  C4  UNL     1       2.083  -0.467  -1.524  1.00  0.00     0.147 C 
BRANCH  13  14
HETATM   14  C5  UNL     1       2.904   0.649  -0.905  1.00  0.00     0.183 C 
BRANCH  14  15
HETATM   15  O2  UNL     1       3.729   0.112   0.073  1.00  0.00    -0.399 OA
ATOM     16  H2  UNL     1       4.243   0.811   0.461  1.00  0.00     0.209 HD
ENDBRANCH  14  15
ENDBRANCH  13  14
ENDBRANCH   5  13
BRANCH   1  17
HETATM   17  O1  UNL     1      -2.550   1.620  -0.846  1.00  0.00    -0.339 OA
HETATM   18  C1  UNL     1      -2.326   2.924  -0.341  1.00  0.00     0.211 C 
ENDBRANCH   1  17
TORSDOF 4
