REMARK  4 active torsions:
REMARK  status: ('A' for Active; 'I' for Inactive)
REMARK    1  A    between atoms: C2_2  and  C3_3 
REMARK    2  A    between atoms: C3_3  and  C4_4 
REMARK    3  A    between atoms: C4_4  and  N1_6 
REMARK    4  A    between atoms: C8_11  and  O1_12 
ROOT
HETATM    1  N1  UNL     1       0.779   0.055   0.057  1.00  0.00    -0.361 N 
HETATM    2  C6  UNL     1       1.328  -0.449   1.326  1.00  0.00     0.170 C 
HETATM    3  C7  UNL     1       2.804  -0.507   0.989  1.00  0.00     0.161 C 
HETATM    4 CL1  UNL     1       3.820  -0.610   2.421  1.00  0.00    -0.097 Cl
HETATM    5 CL2  UNL     1       3.048  -1.864  -0.120  1.00  0.00    -0.097 Cl
HETATM    6  C8  UNL     1       2.967   0.827   0.268  1.00  0.00     0.225 C 
HETATM    7  C9  UNL     1       1.770   0.831  -0.603  1.00  0.00     0.105 C 
HETATM    8  N2  UNL     1       1.615   1.409  -1.740  1.00  0.00    -0.387 N 
ATOM      9  H21 UNL     1       2.326   1.966  -2.214  1.00  0.00     0.157 HD
ATOM     10  H22 UNL     1       0.790   1.412  -2.340  1.00  0.00     0.157 HD
ENDROOT
BRANCH   1  11
HETATM   11  C4  UNL     1      -0.577  -0.257  -0.350  1.00  0.00     0.081 C 
HETATM   12  C5  UNL     1      -0.815  -1.757  -0.419  1.00  0.00     0.032 C 
BRANCH  11  13
HETATM   13  C3  UNL     1      -1.493   0.295   0.726  1.00  0.00     0.024 C 
BRANCH  13  14
HETATM   14  C2  UNL     1      -2.946   0.015   0.388  1.00  0.00    -0.003 C 
HETATM   15  C1  UNL     1      -3.266   0.678  -0.934  1.00  0.00     0.005 C 
ENDBRANCH  13  14
ENDBRANCH  11  13
ENDBRANCH   1  11
BRANCH   6  16
HETATM   16  O1  UNL     1       4.153   0.909  -0.425  1.00  0.00    -0.385 OA
ATOM     17  H1  UNL     1       4.255   1.740  -0.874  1.00  0.00     0.210 HD
ENDBRANCH   6  16
TORSDOF 4
