REMARK  5 active torsions:
REMARK  status: ('A' for Active; 'I' for Inactive)
REMARK    1  A    between atoms: C1_2  and  S2_4 
REMARK    2  A    between atoms: S2_4  and  C2_5 
REMARK    3  A    between atoms: C2_5  and  C3_6 
REMARK    4  A    between atoms: C5_10  and  N3_11 
REMARK    5  A    between atoms: N3_11  and  C6_13 
ROOT
HETATM    1  C3  UNL     1       1.080   0.893  -0.291  1.00  0.00     0.011 A 
HETATM    2  C4  UNL     1       0.231   0.317  -1.201  1.00  0.00     0.105 A 
HETATM    3  N2  UNL     1      -1.039   0.284  -0.904  1.00  0.00    -0.346 N 
ATOM      4  H2  UNL     1      -1.711  -0.133  -1.548  1.00  0.00     0.167 HD
HETATM    5  C5  UNL     1      -1.444   0.802   0.251  1.00  0.00     0.145 A 
HETATM    6  S3  UNL     1       0.007   1.359   0.951  1.00  0.00    -0.057 SA
ENDROOT
BRANCH   5   7
HETATM    7  N3  UNL     1      -2.679   0.858   0.717  1.00  0.00    -0.364 N 
ATOM      8  H3  UNL     1      -2.876   1.283   1.623  1.00  0.00     0.162 HD
BRANCH   7   9
HETATM    9  C6  UNL     1      -3.748   0.302  -0.089  1.00  0.00     0.103 A 
HETATM   10  C7  UNL     1      -4.138  -1.124   0.039  1.00  0.00     0.049 A 
HETATM   11  C8  UNL     1      -4.988  -0.078   0.711  1.00  0.00     0.107 A 
HETATM   12 CL1  UNL     1      -4.833  -0.090   2.500  1.00  0.00    -0.123 Cl
ENDBRANCH   7   9
ENDBRANCH   5   7
BRANCH   1  13
HETATM   13  C2  UNL     1       2.574   1.052  -0.402  1.00  0.00     0.129 C 
BRANCH  13  14
HETATM   14  S2  UNL     1       3.308  -0.420   0.321  1.00  0.00    -0.098 SA
BRANCH  14  15
HETATM   15  C1  UNL     1       5.094  -0.371   0.259  1.00  0.00     0.149 C 
HETATM   16  N1  UNL     1       5.863  -1.429   0.775  1.00  0.00    -0.082 NA
HETATM   17  S1  UNL     1       5.849   0.902  -0.396  1.00  0.00    -0.056 SA
ENDBRANCH  14  15
ENDBRANCH  13  14
ENDBRANCH   1  13
TORSDOF 5
