REMARK  4 active torsions:
REMARK  status: ('A' for Active; 'I' for Inactive)
REMARK    1  A    between atoms: C1_2  and  C2_3 
REMARK       I    between atoms: C1_2  and  N5_16 
REMARK    2  A    between atoms: C2_3  and  S1_4 
REMARK    3  A    between atoms: S1_4  and  C3_5 
REMARK    4  A    between atoms: N4_10  and  C4_11 
ROOT
HETATM    1  O1  UNL     1      -0.508   1.217   0.269  1.00  0.00    -0.273 OA
HETATM    2  C1  UNL     1       0.171   0.286  -0.222  1.00  0.00     0.229 C 
HETATM    3  N5  UNL     1       1.577   0.274  -0.159  1.00  0.00    -0.351 N 
HETATM    4  C9  UNL     1       2.264   1.367   0.491  1.00  0.00     0.131 C 
HETATM    5  C10 UNL     1       3.438   1.713  -0.379  1.00  0.00     0.088 C 
HETATM    6  C11 UNL     1       4.430   0.553  -0.364  1.00  0.00     0.166 C 
HETATM    7  C12 UNL     1       3.781  -0.788  -0.373  1.00  0.00     0.088 C 
HETATM    8  C13 UNL     1       2.318  -0.794  -0.727  1.00  0.00     0.131 C 
HETATM    9  O2  UNL     1       5.242   0.768  -1.483  1.00  0.00    -0.355 OA
HETATM   10  C14 UNL     1       6.266  -0.131  -1.628  1.00  0.00     0.173 C 
HETATM   11  C15 UNL     1       6.916  -0.463  -0.303  1.00  0.00     0.053 C 
HETATM   12  C16 UNL     1       6.477   0.529   0.747  1.00  0.00     0.173 C 
HETATM   13  O3  UNL     1       5.128   0.684   0.836  1.00  0.00    -0.355 OA
ENDROOT
BRANCH   2  14
HETATM   14  C2  UNL     1      -0.527  -0.839  -0.891  1.00  0.00     0.185 C 
BRANCH  14  15
HETATM   15  S1  UNL     1      -2.308  -0.654  -0.885  1.00  0.00    -0.082 SA
BRANCH  15  16
HETATM   16  C3  UNL     1      -2.971  -0.748   0.771  1.00  0.00     0.173 A 
HETATM   17  N1  UNL     1      -2.294  -0.933   1.917  1.00  0.00    -0.265 N 
HETATM   18  N2  UNL     1      -3.139  -0.946   2.950  1.00  0.00    -0.007 NA
ATOM     19  H1  UNL     1      -1.283  -1.047   1.987  1.00  0.00     0.186 HD
HETATM   20  N3  UNL     1      -4.353  -0.767   2.430  1.00  0.00    -0.004 NA
HETATM   21  N4  UNL     1      -4.267  -0.646   1.116  1.00  0.00    -0.251 N 
BRANCH  21  22
HETATM   22  C4  UNL     1      -5.326  -0.437   0.142  1.00  0.00     0.108 C 
HETATM   23  C5  UNL     1      -5.682   1.047   0.049  1.00  0.00     0.027 C 
HETATM   24  C6  UNL     1      -6.996   0.985  -0.709  1.00  0.00     0.002 C 
HETATM   25  C7  UNL     1      -7.682  -0.240  -0.175  1.00  0.00     0.002 C 
HETATM   26  C8  UNL     1      -6.625  -1.055   0.557  1.00  0.00     0.027 C 
ENDBRANCH  21  22
ENDBRANCH  15  16
ENDBRANCH  14  15
ENDBRANCH   2  14
TORSDOF 4
