REMARK  11 active torsions:
REMARK  status: ('A' for Active; 'I' for Inactive)
REMARK    1  A    between atoms: C1_2  and  C2_7 
REMARK    2  A    between atoms: N2_3  and  O1_5 
REMARK    3  A    between atoms: C5_10  and  C6_11 
REMARK    4  A    between atoms: C6_11  and  C7_12 
REMARK    5  A    between atoms: C7_12  and  N3_13 
REMARK    6  A    between atoms: N3_13  and  C8_16 
REMARK    7  A    between atoms: C8_16  and  C9_17 
REMARK    8  A    between atoms: C9_17  and  N4_18 
REMARK    9  A    between atoms: N4_18  and  S1_20 
REMARK   10  A    between atoms: S1_20  and  C10_23 
REMARK   11  A    between atoms: C10_23  and  C11_24 
ROOT
HETATM    1  N3  UNL     1       0.444   0.504  -0.298  1.00  0.00    -0.070 N 
ATOM      2  H31 UNL     1       1.277   0.775   0.225  1.00  0.00     0.277 HD
ATOM      3  H32 UNL     1      -0.060  -0.003   0.429  1.00  0.00     0.277 HD
ENDROOT
BRANCH   1   4
HETATM    4  C7  UNL     1       0.789  -0.371  -1.366  1.00  0.00     0.237 C 
BRANCH   4   5
HETATM    5  C6  UNL     1       1.495  -1.588  -0.840  1.00  0.00     0.066 C 
BRANCH   5   6
HETATM    6  C5  UNL     1       2.727  -1.197  -0.136  1.00  0.00    -0.057 A 
HETATM    7  C4  UNL     1       2.784  -0.966   1.218  1.00  0.00     0.008 A 
HETATM    8  C3  UNL     1       3.966  -0.596   1.872  1.00  0.00     0.015 A 
HETATM    9  C2  UNL     1       5.152  -0.439   1.197  1.00  0.00     0.007 A 
HETATM   10  C18 UNL     1       5.076  -0.677  -0.178  1.00  0.00     0.015 A 
HETATM   11  C17 UNL     1       3.922  -1.040  -0.826  1.00  0.00     0.008 A 
BRANCH   9  12
HETATM   12  C1  UNL     1       6.417  -0.063   1.772  1.00  0.00     0.146 C 
HETATM   13  N1  UNL     1       7.555   0.040   0.863  1.00  0.00    -0.080 NA
HETATM   14  N2  UNL     1       6.635   0.184   2.981  1.00  0.00    -0.255 N 
ATOM     15  H2  UNL     1       7.605   0.431   3.176  1.00  0.00     0.195 HD
BRANCH  14  16
HETATM   16  O1  UNL     1       5.858   0.190   4.064  1.00  0.00    -0.288 OA
ATOM     17  H1  UNL     1       6.023   0.377   4.981  1.00  0.00     0.244 HD
ENDBRANCH  14  16
ENDBRANCH   9  12
ENDBRANCH   5   6
ENDBRANCH   4   5
ENDBRANCH   1   4
BRANCH   1  18
HETATM   18  C8  UNL     1      -0.303   1.681  -0.709  1.00  0.00     0.277 C 
BRANCH  18  19
HETATM   19  C9  UNL     1      -1.702   1.303  -1.182  1.00  0.00     0.100 C 
BRANCH  19  20
HETATM   20  N4  UNL     1      -2.461   2.410  -1.585  1.00  0.00    -0.294 N 
ATOM     21  H4  UNL     1      -2.059   3.346  -1.536  1.00  0.00     0.177 HD
BRANCH  20  22
HETATM   22  S1  UNL     1      -4.030   2.203  -2.149  1.00  0.00     0.253 S 
HETATM   23  O2  UNL     1      -4.052   1.540  -3.529  1.00  0.00    -0.201 OA
HETATM   24  O3  UNL     1      -4.527   3.627  -2.506  1.00  0.00    -0.201 OA
BRANCH  22  25
HETATM   25  C10 UNL     1      -5.211   1.551  -1.089  1.00  0.00     0.143 C 
BRANCH  25  26
HETATM   26  C11 UNL     1      -5.097   0.255  -0.491  1.00  0.00    -0.024 A 
HETATM   27  C12 UNL     1      -5.386  -0.915  -1.199  1.00  0.00     0.012 A 
HETATM   28  C13 UNL     1      -5.335  -2.165  -0.608  1.00  0.00     0.001 A 
HETATM   29  C14 UNL     1      -4.993  -2.298   0.720  1.00  0.00     0.000 A 
HETATM   30  C15 UNL     1      -4.703  -1.160   1.440  1.00  0.00     0.001 A 
HETATM   31  C16 UNL     1      -4.758   0.095   0.832  1.00  0.00     0.012 A 
ENDBRANCH  25  26
ENDBRANCH  22  25
ENDBRANCH  20  22
ENDBRANCH  19  20
ENDBRANCH  18  19
ENDBRANCH   1  18
TORSDOF 11
