REMARK  5 active torsions:
REMARK  status: ('A' for Active; 'I' for Inactive)
REMARK    1  A    between atoms: N2_5  and  C4_6 
REMARK    2  A    between atoms: C4_6  and  C5_7 
REMARK    3  A    between atoms: C5_7  and  C6_8 
REMARK    4  A    between atoms: C6_8  and  N3_9 
REMARK    5  A    between atoms: C11_18  and  N5_19 
ROOT
HETATM    1  N3  UNL     1       1.212  -0.623   0.431  1.00  0.00    -0.376 N 
ATOM      2  H3  UNL     1       1.178  -1.593   0.745  1.00  0.00     0.161 HD
HETATM    3  C7  UNL     1       2.364  -0.095   0.330  1.00  0.00     0.117 C 
HETATM    4  C8  UNL     1       2.406   1.207  -0.092  1.00  0.00     0.054 C 
HETATM    5  C9  UNL     1       3.456   1.806  -0.755  1.00  0.00     0.079 C 
HETATM    6  C10 UNL     1       4.757   1.385  -0.905  1.00  0.00     0.259 C 
HETATM    7  O1  UNL     1       5.531   2.069  -1.627  1.00  0.00    -0.268 OA
HETATM    8  N4  UNL     1       5.316   0.277  -0.341  1.00  0.00    -0.156 N 
ATOM      9  H4  UNL     1       6.327   0.196  -0.448  1.00  0.00     0.187 HD
HETATM   10  C11 UNL     1       4.732  -0.715   0.330  1.00  0.00     0.680 C 
HETATM   11  N6  UNL     1       3.410  -0.872   0.646  1.00  0.00    -0.177 N 
ATOM     12  H6  UNL     1       3.189  -1.698   1.201  1.00  0.00     0.185 HD
ENDROOT
BRANCH   1  13
HETATM   13  C6  UNL     1      -0.053   0.011   0.146  1.00  0.00     0.123 C 
BRANCH  13  14
HETATM   14  C5  UNL     1      -0.669   0.623   1.373  1.00  0.00     0.040 C 
BRANCH  14  15
HETATM   15  C4  UNL     1      -1.973   1.310   1.098  1.00  0.00     0.131 C 
BRANCH  15  16
HETATM   16  N2  UNL     1      -2.927   0.357   0.573  1.00  0.00    -0.351 N 
HETATM   17  C3  UNL     1      -3.771  -0.413   1.329  1.00  0.00     0.109 A 
HETATM   18  C2  UNL     1      -4.535  -1.172   0.470  1.00  0.00     0.108 A 
HETATM   19  N1  UNL     1      -4.179  -0.886  -0.793  1.00  0.00    -0.356 N 
HETATM   20  C1  UNL     1      -4.746  -1.473  -2.006  1.00  0.00     0.156 C 
HETATM   21  C12 UNL     1      -3.211   0.035  -0.705  1.00  0.00     0.184 A 
ENDBRANCH  15  16
ENDBRANCH  14  15
ENDBRANCH  13  14
ENDBRANCH   1  13
BRANCH  10  22
HETATM   22  N5  UNL     1       5.529  -1.657   0.736  1.00  0.00    -0.234 N 
ATOM     23  H52 UNL     1       6.515  -1.540   0.500  1.00  0.00     0.174 HD
ATOM     24  H51 UNL     1       5.082  -2.416   1.250  1.00  0.00     0.174 HD
ENDBRANCH  10  22
TORSDOF 5
