REMARK  1 active torsions:
REMARK  status: ('A' for Active; 'I' for Inactive)
REMARK       I    between atoms: C1_2  and  N2_4 
REMARK    1  A    between atoms: N2_4  and  C2_6 
ROOT
HETATM    1  C2  UNL     1      -0.101   0.198   0.071  1.00  0.00     0.157 A 
HETATM    2  C3  UNL     1      -1.057  -0.704  -0.194  1.00  0.00     0.140 A 
HETATM    3  N3  UNL     1      -1.362  -1.946  -0.599  1.00  0.00    -0.292 N 
ATOM      4  H3  UNL     1      -0.794  -2.742  -0.888  1.00  0.00     0.187 HD
HETATM    5  N4  UNL     1      -2.667  -1.763  -0.488  1.00  0.00    -0.282 N 
ATOM      6  H4  UNL     1      -3.506  -2.322  -0.643  1.00  0.00     0.188 HD
HETATM    7  C4  UNL     1      -2.391  -0.497  -0.074  1.00  0.00     0.168 A 
HETATM    8  N5  UNL     1      -2.880   0.627   0.322  1.00  0.00    -0.268 N 
ATOM      9  H5  UNL     1      -3.885   0.774   0.411  1.00  0.00     0.190 HD
HETATM   10  N6  UNL     1      -1.964   1.628   0.622  1.00  0.00    -0.239 N 
ATOM     11  H6  UNL     1      -2.320   2.530   0.938  1.00  0.00     0.208 HD
HETATM   12  N7  UNL     1      -0.560   1.460   0.511  1.00  0.00    -0.269 N 
ATOM     13  H7  UNL     1       0.088   2.214   0.738  1.00  0.00     0.190 HD
ENDROOT
BRANCH   1  14
HETATM   14  N2  UNL     1       1.263  -0.120  -0.088  1.00  0.00    -0.294 N 
HETATM   15  C1  UNL     1       2.385   0.670   0.133  1.00  0.00     0.334 C 
HETATM   16  N1  UNL     1       3.702   0.140  -0.095  1.00  0.00    -0.040 NA
HETATM   17  O1  UNL     1       2.332   1.845   0.529  1.00  0.00    -0.251 OA
ATOM     18  H2  UNL     1       1.455  -1.068  -0.412  1.00  0.00     0.172 HD
ENDBRANCH   1  14
TORSDOF 1
