REMARK  9 active torsions:
REMARK  status: ('A' for Active; 'I' for Inactive)
REMARK    1  A    between atoms: C7_11  and  C8_12 
REMARK    2  A    between atoms: C8_12  and  O1_13 
REMARK    3  A    between atoms: C8_12  and  N1_15 
REMARK    4  A    between atoms: N1_15  and  C9_17 
REMARK    5  A    between atoms: C9_17  and  C10_18 
REMARK    6  A    between atoms: C10_18  and  C11_19 
REMARK    7  A    between atoms: C11_19  and  N2_20 
REMARK    8  A    between atoms: C12_21  and  O2_22 
REMARK    9  A    between atoms: C15_26  and  O3_27 
ROOT
HETATM    1  N1  UNL     1       2.421  -1.037   0.991  1.00  0.00    -0.370 N 
ATOM      2  H1  UNL     1       2.990  -0.679   1.758  1.00  0.00     0.161 HD
ENDROOT
BRANCH   1   3
HETATM    3  C8  UNL     1       2.899  -0.720  -0.280  1.00  0.00     0.148 C 
BRANCH   3   4
HETATM    4  C7  UNL     1       4.032   0.057  -0.677  1.00  0.00     0.045 A 
HETATM    5  C2  UNL     1       4.600   1.050   0.039  1.00  0.00    -0.022 A 
HETATM    6  C1  UNL     1       4.056   1.577   1.292  1.00  0.00     0.051 C 
HETATM    7  C3  UNL     1       5.766   1.709  -0.413  1.00  0.00     0.064 A 
HETATM    8 CL1  UNL     1       6.501   2.992   0.517  1.00  0.00    -0.082 Cl
HETATM    9  C4  UNL     1       6.344   1.347  -1.601  1.00  0.00     0.079 A 
HETATM   10 CL2  UNL     1       7.798   2.159  -2.178  1.00  0.00    -0.081 Cl
HETATM   11  C5  UNL     1       5.786   0.349  -2.341  1.00  0.00     0.080 A 
HETATM   12 CL3  UNL     1       6.518  -0.123  -3.867  1.00  0.00    -0.081 Cl
HETATM   13  C6  UNL     1       4.654  -0.283  -1.889  1.00  0.00     0.072 A 
HETATM   14 CL4  UNL     1       3.981  -1.567  -2.894  1.00  0.00    -0.081 Cl
ENDBRANCH   3   4
BRANCH   3  15
HETATM   15  O1  UNL     1       2.212  -1.210  -1.274  1.00  0.00    -0.346 OA
ATOM     16  H1  UNL     1       1.459  -1.726  -1.010  1.00  0.00     0.219 HD
ENDBRANCH   3  15
ENDBRANCH   1   3
BRANCH   1  17
HETATM   17  C9  UNL     1       1.282  -1.770   1.399  1.00  0.00     0.123 C 
BRANCH  17  18
HETATM   18  C10 UNL     1      -0.075  -1.263   1.176  1.00  0.00     0.040 C 
BRANCH  18  19
HETATM   19  C11 UNL     1      -0.586  -0.950  -0.164  1.00  0.00     0.135 C 
BRANCH  19  20
HETATM   20  N2  UNL     1      -2.011  -0.524  -0.047  1.00  0.00    -0.308 N 
HETATM   21  C12 UNL     1      -3.051  -1.368  -0.114  1.00  0.00     0.151 A 
HETATM   22  C13 UNL     1      -4.228  -0.655   0.031  1.00  0.00     0.007 A 
HETATM   23  C14 UNL     1      -3.881   0.664   0.190  1.00  0.00     0.007 A 
HETATM   24  C19 UNL     1      -5.664  -1.099   0.037  1.00  0.00     0.070 C 
HETATM   25  C15 UNL     1      -2.506   0.693   0.135  1.00  0.00     0.151 A 
HETATM   26  C16 UNL     1      -4.948   1.691   0.370  1.00  0.00     0.070 C 
HETATM   27  C17 UNL     1      -6.137   1.260  -0.421  1.00  0.00    -0.026 C 
HETATM   28  C18 UNL     1      -6.468  -0.009  -0.576  1.00  0.00    -0.026 C 
BRANCH  21  29
HETATM   29  O2  UNL     1      -3.018  -2.753  -0.298  1.00  0.00    -0.345 OA
ATOM     30  H2  UNL     1      -3.755  -3.351  -0.345  1.00  0.00     0.219 HD
ENDBRANCH  21  29
BRANCH  25  31
HETATM   31  O3  UNL     1      -1.726   1.847   0.253  1.00  0.00    -0.345 OA
ATOM     32  H3  UNL     1      -2.081   2.719   0.383  1.00  0.00     0.219 HD
ENDBRANCH  25  31
ENDBRANCH  19  20
ENDBRANCH  18  19
ENDBRANCH  17  18
ENDBRANCH   1  17
TORSDOF 9
