REMARK  8 active torsions:
REMARK  status: ('A' for Active; 'I' for Inactive)
REMARK    1  A    between atoms: C2_2  and  N1_5 
REMARK    2  A    between atoms: N1_5  and  C5_7 
REMARK    3  A    between atoms: C5_7  and  C6_11 
REMARK    4  A    between atoms: C6_11  and  N3_14 
REMARK    5  A    between atoms: N3_14  and  S1_16 
REMARK    6  A    between atoms: S1_16  and  N4_19 
REMARK       I    between atoms: C9_21  and  N6_23 
REMARK    7  A    between atoms: N6_23  and  C10_25 
REMARK    8  A    between atoms: C10_25  and  C11_26 
ROOT
HETATM    1  N3  UNL     1      -0.165   0.163   0.630  1.00  0.00    -0.286 N 
ATOM      2  H3  UNL     1      -0.291   1.081   0.205  1.00  0.00     0.175 HD
ENDROOT
BRANCH   1   3
HETATM    3  C6  UNL     1      -1.193  -0.852   0.593  1.00  0.00     0.092 C 
HETATM    4  C7  UNL     1      -0.699  -2.096  -0.126  1.00  0.00     0.047 C 
HETATM    5  C8  UNL     1      -1.598  -1.245   1.991  1.00  0.00     0.047 C 
BRANCH   3   6
HETATM    6  C5  UNL     1      -2.330  -0.307  -0.172  1.00  0.00     0.100 C 
HETATM    7  N2  UNL     1      -2.678  -0.861  -1.271  1.00  0.00    -0.387 N 
ATOM      8  H22 UNL     1      -3.464  -0.484  -1.800  1.00  0.00     0.157 HD
ATOM      9  H21 UNL     1      -2.160  -1.675  -1.600  1.00  0.00     0.157 HD
BRANCH   6  10
HETATM   10  N1  UNL     1      -3.046   0.818   0.283  1.00  0.00    -0.370 N 
ATOM     11  H1  UNL     1      -2.551   1.499   0.859  1.00  0.00     0.161 HD
BRANCH  10  12
HETATM   12  C2  UNL     1      -4.434   1.065  -0.015  1.00  0.00     0.020 C 
HETATM   13  C1  UNL     1      -4.698   1.178  -1.513  1.00  0.00     0.037 C 
HETATM   14  C3  UNL     1      -5.338  -0.020   0.515  1.00  0.00     0.037 C 
HETATM   15  C4  UNL     1      -4.829   2.375   0.627  1.00  0.00     0.037 C 
ENDBRANCH  10  12
ENDBRANCH   6  10
ENDBRANCH   3   6
ENDBRANCH   1   3
BRANCH   1  16
HETATM   16  S1  UNL     1       1.264  -0.276   1.428  1.00  0.00     0.322 S 
HETATM   17  O1  UNL     1       1.990   0.920   2.013  1.00  0.00    -0.182 OA
HETATM   18  O2  UNL     1       1.017  -1.293   2.471  1.00  0.00    -0.182 OA
BRANCH  16  19
HETATM   19  N4  UNL     1       2.364  -0.976   0.265  1.00  0.00    -0.241 N 
HETATM   20  C9  UNL     1       2.683  -0.331  -0.786  1.00  0.00     0.199 C 
HETATM   21  N5  UNL     1       2.151   0.950  -1.017  1.00  0.00    -0.063 NA
HETATM   22  N6  UNL     1       3.572  -0.901  -1.722  1.00  0.00    -0.358 N 
ATOM     23  H6  UNL     1       3.382  -1.812  -2.139  1.00  0.00     0.162 HD
ATOM     24  H4  UNL     1       2.752  -1.905   0.428  1.00  0.00     0.183 HD
BRANCH  22  25
HETATM   25  C10 UNL     1       4.774  -0.147  -2.076  1.00  0.00     0.187 C 
BRANCH  25  26
HETATM   26  C11 UNL     1       5.584   0.071  -0.852  1.00  0.00     0.070 A 
HETATM   27  C12 UNL     1       6.560  -0.775  -0.413  1.00  0.00     0.036 A 
HETATM   28  C13 UNL     1       7.081  -0.238   0.745  1.00  0.00     0.027 A 
HETATM   29  C14 UNL     1       6.384   0.930   0.957  1.00  0.00     0.142 A 
HETATM   30  O3  UNL     1       5.508   1.069  -0.016  1.00  0.00    -0.325 OA
ENDBRANCH  25  26
ENDBRANCH  22  25
ENDBRANCH  16  19
ENDBRANCH   1  16
TORSDOF 8
