REMARK  14 active torsions:
REMARK  status: ('A' for Active; 'I' for Inactive)
REMARK    1  A    between atoms: C4_6  and  C5_7 
REMARK       I    between atoms: C5_7  and  N1_9 
REMARK    2  A    between atoms: N1_9  and  C6_11 
REMARK    3  A    between atoms: C6_11  and  C7_12 
REMARK    4  A    between atoms: C7_12  and  C8_13 
REMARK    5  A    between atoms: C8_13  and  C9_14 
REMARK    6  A    between atoms: C9_14  and  C10_15 
REMARK    7  A    between atoms: C10_15  and  N2_16 
REMARK    8  A    between atoms: N2_16  and  C11_17 
REMARK    9  A    between atoms: N2_16  and  C13_20 
REMARK   10  A    between atoms: C11_17  and  C12_18 
REMARK   11  A    between atoms: C13_20  and  C14_21 
REMARK   12  A    between atoms: C15_23  and  O3_24 
REMARK   13  A    between atoms: O3_24  and  C16_25 
REMARK   14  A    between atoms: C28_42  and  O7_43 
ROOT
HETATM    1  C1  UNL     1      -4.010  -2.603  -0.131  1.00  0.00     0.024 C 
HETATM    2  C2  UNL     1      -3.817  -2.009   1.065  1.00  0.00    -0.005 C 
HETATM    3  C3  UNL     1      -2.724  -1.144   1.319  1.00  0.00     0.215 C 
HETATM    4  O1  UNL     1      -2.981   0.098   1.282  1.00  0.00    -0.280 OA
HETATM    5  S1  UNL     1      -0.952  -1.263   1.698  1.00  0.00    -0.070 SA
HETATM    6  C4  UNL     1      -0.122   0.144   0.801  1.00  0.00     0.179 C 
HETATM    7  C15 UNL     1      -0.243   0.096  -0.676  1.00  0.00     0.187 C 
HETATM    8  C18 UNL     1      -0.700   1.305  -1.390  1.00  0.00     0.188 A 
HETATM    9  O5  UNL     1      -1.667   2.184  -0.731  1.00  0.00    -0.367 OA
HETATM   10  C19 UNL     1      -1.931   1.580  -1.968  1.00  0.00     0.087 A 
HETATM   11  C20 UNL     1      -1.954   2.711  -3.047  1.00  0.00     0.049 C 
HETATM   12  C21 UNL     1      -3.017   0.645  -2.227  1.00  0.00     0.044 C 
HETATM   13  C22 UNL     1      -4.443   0.990  -2.065  1.00  0.00     0.032 C 
HETATM   14  C23 UNL     1      -4.884   1.812  -0.960  1.00  0.00    -0.002 C 
HETATM   15  C24 UNL     1      -5.790   1.618  -0.009  1.00  0.00     0.004 C 
HETATM   16  C25 UNL     1      -5.886   2.819   0.943  1.00  0.00     0.068 C 
HETATM   17  N3  UNL     1      -6.649   0.568   0.289  1.00  0.00    -0.331 N 
ATOM     18  H3  UNL     1      -7.621   0.843   0.150  1.00  0.00     0.168 HD
HETATM   19  C26 UNL     1      -6.563  -0.782   0.733  1.00  0.00     0.229 C 
HETATM   20  O6  UNL     1      -6.998  -1.581  -0.192  1.00  0.00    -0.273 OA
HETATM   21  C27 UNL     1      -6.118  -1.407   1.950  1.00  0.00     0.115 C 
HETATM   22  C28 UNL     1      -6.943  -2.617   2.434  1.00  0.00     0.132 C 
HETATM   23  C29 UNL     1      -5.870  -3.446   1.668  1.00  0.00     0.043 C 
HETATM   24  C30 UNL     1      -4.968  -2.349   1.997  1.00  0.00     0.040 C 
ENDROOT
BRANCH   6  25
HETATM   25  C5  UNL     1       1.171   0.371   1.397  1.00  0.00     0.234 C 
HETATM   26  O2  UNL     1       1.539  -0.335   2.388  1.00  0.00    -0.272 OA
HETATM   27  N1  UNL     1       2.038   1.363   0.910  1.00  0.00    -0.360 N 
ATOM     28  H1  UNL     1       1.768   1.933   0.108  1.00  0.00     0.162 HD
BRANCH  27  29
HETATM   29  C6  UNL     1       3.318   1.570   1.555  1.00  0.00     0.122 C 
BRANCH  29  30
HETATM   30  C7  UNL     1       4.045   2.671   0.829  1.00  0.00     0.020 C 
BRANCH  30  31
HETATM   31  C8  UNL     1       4.288   2.270  -0.586  1.00  0.00     0.003 C 
BRANCH  31  32
HETATM   32  C9  UNL     1       5.135   1.026  -0.708  1.00  0.00     0.020 C 
BRANCH  32  33
HETATM   33  C10 UNL     1       6.498   1.265  -0.056  1.00  0.00     0.122 C 
BRANCH  33  34
HETATM   34  N2  UNL     1       7.351   0.144  -0.172  1.00  0.00    -0.391 N 
BRANCH  34  35
HETATM   35  C11 UNL     1       8.678   0.335   0.204  1.00  0.00     0.073 C 
BRANCH  35  36
HETATM   36  C12 UNL     1       8.919   0.562   1.654  1.00  0.00     0.159 C 
HETATM   37 CL1  UNL     1       8.224   2.033   2.337  1.00  0.00    -0.125 Cl
ENDBRANCH  35  36
ENDBRANCH  34  35
BRANCH  34  38
HETATM   38  C13 UNL     1       6.727  -1.069   0.216  1.00  0.00     0.137 C 
BRANCH  38  39
HETATM   39  C14 UNL     1       7.656  -2.268   0.133  1.00  0.00     0.134 C 
HETATM   40 CL2  UNL     1       8.252  -2.521  -1.500  1.00  0.00    -0.129 Cl
ENDBRANCH  38  39
ENDBRANCH  34  38
ENDBRANCH  33  34
ENDBRANCH  32  33
ENDBRANCH  31  32
ENDBRANCH  30  31
ENDBRANCH  29  30
ENDBRANCH  27  29
ENDBRANCH   6  25
BRANCH   7  41
HETATM   41  O3  UNL     1      -0.735  -1.135  -1.169  1.00  0.00    -0.312 OA
BRANCH  41  42
HETATM   42  C16 UNL     1       0.007  -2.093  -1.817  1.00  0.00     0.255 C 
HETATM   43  C17 UNL     1      -0.610  -3.357  -2.299  1.00  0.00     0.126 C 
HETATM   44  O4  UNL     1       1.230  -1.876  -1.994  1.00  0.00    -0.266 OA
ENDBRANCH  41  42
ENDBRANCH   7  41
BRANCH  22  45
HETATM   45  O7  UNL     1      -8.203  -2.692   1.905  1.00  0.00    -0.395 OA
ATOM     46  H7  UNL     1      -8.711  -3.437   2.203  1.00  0.00     0.210 HD
ENDBRANCH  22  45
TORSDOF 14
