REMARK  15 active torsions:
REMARK  status: ('A' for Active; 'I' for Inactive)
REMARK    1  A    between atoms: C2_2  and  C3_3 
REMARK    2  A    between atoms: C3_3  and  C4_4 
REMARK    3  A    between atoms: C4_4  and  C5_5 
REMARK    4  A    between atoms: C5_5  and  O1_6 
REMARK    5  A    between atoms: O1_6  and  C6_7 
REMARK       I    between atoms: C6_7  and  N1_9 
REMARK       I    between atoms: N2_12  and  C9_13 
REMARK    6  A    between atoms: C9_13  and  C10_15 
REMARK    7  A    between atoms: C10_15  and  N3_16 
REMARK    8  A    between atoms: C10_15  and  C17_27 
REMARK       I    between atoms: N3_16  and  C11_18 
REMARK    9  A    between atoms: C11_18  and  O5_20 
REMARK   10  A    between atoms: O5_20  and  N4_21 
REMARK   11  A    between atoms: C18_28  and  O6_29 
REMARK   12  A    between atoms: O6_29  and  C19_30 
REMARK   13  A    between atoms: C22_33  and  C23_34 
REMARK       I    between atoms: C23_34  and  N5_36 
REMARK       I    between atoms: N5_36  and  C24_38 
REMARK   14  A    between atoms: C24_38  and  C25_40 
REMARK   15  A    between atoms: C25_40  and  C27_42 
ROOT
HETATM    1  C10 UNL     1      -0.716   0.847   1.570  1.00  0.00     0.186 C 
ENDROOT
BRANCH   1   2
HETATM    2  C9  UNL     1       0.589   0.624   2.298  1.00  0.00     0.243 C 
HETATM    3  N2  UNL     1       1.815   0.368   1.708  1.00  0.00    -0.347 N 
HETATM    4  C8  UNL     1       1.975   0.380   0.277  1.00  0.00     0.146 C 
HETATM    5  C32 UNL     1       2.974   0.071   2.517  1.00  0.00     0.146 C 
HETATM    6  C7  UNL     1       3.254  -0.320  -0.146  1.00  0.00     0.148 C 
HETATM    7  N1  UNL     1       4.388   0.230   0.588  1.00  0.00    -0.325 N 
HETATM    8  C6  UNL     1       5.643   0.312  -0.071  1.00  0.00     0.362 C 
HETATM    9  C33 UNL     1       4.238   0.684   1.950  1.00  0.00     0.148 C 
HETATM   10  O2  UNL     1       6.668   0.781   0.528  1.00  0.00    -0.238 OA
HETATM   11  O3  UNL     1       0.512   0.690   3.560  1.00  0.00    -0.271 OA
BRANCH   8  12
HETATM   12  O1  UNL     1       5.806  -0.107  -1.372  1.00  0.00    -0.304 OA
BRANCH  12  13
HETATM   13  C5  UNL     1       7.006  -0.068  -2.109  1.00  0.00     0.180 C 
BRANCH  13  14
HETATM   14  C4  UNL     1       8.120  -0.877  -1.537  1.00  0.00     0.027 C 
BRANCH  14  15
HETATM   15  C3  UNL     1       9.317  -0.716  -2.453  1.00  0.00     0.002 C 
BRANCH  15  16
HETATM   16  C2  UNL     1      10.514  -1.494  -1.971  1.00  0.00    -0.004 C 
HETATM   17  C1  UNL     1      10.128  -2.961  -1.919  1.00  0.00     0.005 C 
ENDBRANCH  15  16
ENDBRANCH  14  15
ENDBRANCH  13  14
ENDBRANCH  12  13
ENDBRANCH   8  12
ENDBRANCH   1   2
BRANCH   1  18
HETATM   18  N3  UNL     1      -1.225   2.069   2.241  1.00  0.00    -0.322 N 
HETATM   19  C11 UNL     1      -1.523   3.246   1.533  1.00  0.00     0.383 C 
HETATM   20  O4  UNL     1      -1.383   3.353   0.281  1.00  0.00    -0.236 OA
ATOM     21  H3  UNL     1      -1.363   2.054   3.251  1.00  0.00     0.165 HD
BRANCH  19  22
HETATM   22  O5  UNL     1      -1.992   4.344   2.207  1.00  0.00    -0.175 OA
BRANCH  22  23
HETATM   23  N4  UNL     1      -2.323   5.538   1.669  1.00  0.00    -0.242 N 
HETATM   24  C12 UNL     1      -3.431   5.510   0.824  1.00  0.00     0.096 C 
HETATM   25  C13 UNL     1      -3.337   6.291  -0.450  1.00  0.00     0.047 C 
HETATM   26  C14 UNL     1      -2.560   7.578  -0.285  1.00  0.00     0.010 C 
HETATM   27  C15 UNL     1      -1.181   7.156   0.198  1.00  0.00     0.047 C 
HETATM   28  C16 UNL     1      -1.329   6.498   1.521  1.00  0.00     0.096 C 
ENDBRANCH  22  23
ENDBRANCH  19  22
ENDBRANCH   1  18
BRANCH   1  29
HETATM   29  C17 UNL     1      -1.601  -0.296   1.922  1.00  0.00     0.055 C 
HETATM   30  C18 UNL     1      -1.151  -1.678   1.576  1.00  0.00     0.129 C 
HETATM   31  C21 UNL     1      -2.386  -2.475   2.193  1.00  0.00     0.047 C 
HETATM   32  C22 UNL     1      -3.530  -1.646   1.746  1.00  0.00     0.089 C 
HETATM   33  C29 UNL     1      -2.989  -0.301   1.372  1.00  0.00    -0.027 C 
HETATM   34  C30 UNL     1      -2.986  -0.098  -0.132  1.00  0.00     0.016 C 
HETATM   35  C31 UNL     1      -3.866   0.748   2.048  1.00  0.00     0.016 C 
BRANCH  30  36
HETATM   36  O6  UNL     1      -1.099  -2.008   0.253  1.00  0.00    -0.386 OA
BRANCH  36  37
HETATM   37  C19 UNL     1      -0.109  -2.860  -0.147  1.00  0.00     0.163 C 
HETATM   38  C20 UNL     1      -0.176  -4.231   0.540  1.00  0.00     0.033 C 
ENDBRANCH  36  37
ENDBRANCH  30  36
BRANCH  32  39
HETATM   39  C23 UNL     1      -4.333  -2.303   0.678  1.00  0.00     0.229 C 
HETATM   40  O7  UNL     1      -3.950  -3.450   0.330  1.00  0.00    -0.273 OA
HETATM   41  N5  UNL     1      -5.450  -1.744   0.060  1.00  0.00    -0.297 N 
HETATM   42  C24 UNL     1      -6.270  -2.300  -0.929  1.00  0.00     0.228 C 
ATOM     43  H5  UNL     1      -5.704  -0.806   0.369  1.00  0.00     0.171 HD
HETATM   44  O8  UNL     1      -7.281  -1.606  -1.326  1.00  0.00    -0.273 OA
BRANCH  42  45
HETATM   45  C25 UNL     1      -6.116  -3.606  -1.590  1.00  0.00     0.074 C 
HETATM   46  C26 UNL     1      -7.449  -4.008  -2.260  1.00  0.00     0.020 C 
BRANCH  45  47
HETATM   47  C27 UNL     1      -5.182  -3.395  -2.794  1.00  0.00     0.009 C 
HETATM   48  C28 UNL     1      -4.960  -4.676  -3.533  1.00  0.00     0.006 C 
ENDBRANCH  45  47
ENDBRANCH  42  45
ENDBRANCH  32  39
ENDBRANCH   1  29
TORSDOF 15
