REMARK  3 active torsions:
REMARK  status: ('A' for Active; 'I' for Inactive)
REMARK    1  A    between atoms: C2_2  and  C4_4 
REMARK    2  A    between atoms: C4_4  and  N1_6 
REMARK       I    between atoms: N1_6  and  C6_8 
REMARK       I    between atoms: C6_8  and  N2_10 
REMARK    3  A    between atoms: N3_13  and  C9_14 
ROOT
HETATM    1  N1  UNL     1      -1.503  -0.389  -0.295  1.00  0.00    -0.338 N 
ATOM      2  H1  UNL     1      -1.149  -1.090   0.356  1.00  0.00     0.164 HD
HETATM    3  C6  UNL     1      -0.602   0.513  -0.878  1.00  0.00     0.318 C 
HETATM    4  O1  UNL     1      -1.102   1.366  -1.683  1.00  0.00    -0.247 OA
HETATM    5  N2  UNL     1       0.803   0.555  -0.651  1.00  0.00    -0.331 N 
HETATM    6  C7  UNL     1       1.634   1.518  -1.283  1.00  0.00     0.147 C 
HETATM    7  C8  UNL     1       2.937   1.787  -0.605  1.00  0.00     0.145 C 
HETATM    8  N3  UNL     1       3.469   0.622   0.087  1.00  0.00    -0.353 N 
HETATM    9  C10 UNL     1       2.800  -0.609  -0.191  1.00  0.00     0.100 C 
HETATM   10  C11 UNL     1       3.322  -1.830   0.457  1.00  0.00     0.034 C 
HETATM   11  C12 UNL     1       1.356  -0.416   0.250  1.00  0.00     0.152 C 
ENDROOT
BRANCH   1  12
HETATM   12  C4  UNL     1      -2.915  -0.357  -0.588  1.00  0.00     0.085 C 
HETATM   13  C5  UNL     1      -3.364  -1.698  -1.165  1.00  0.00     0.032 C 
BRANCH  12  14
HETATM   14  C2  UNL     1      -3.732  -0.123   0.661  1.00  0.00    -0.000 C 
HETATM   15  C1  UNL     1      -3.380   1.181   1.331  1.00  0.00     0.011 C 
HETATM   16  C3  UNL     1      -5.195  -0.048   0.268  1.00  0.00     0.011 C 
ENDBRANCH  12  14
ENDBRANCH   1  12
BRANCH   8  17
HETATM   17  C9  UNL     1       4.570   0.819   0.945  1.00  0.00     0.183 C 
HETATM   18  N4  UNL     1       5.191  -0.237   1.687  1.00  0.00    -0.070 NA
HETATM   19  S1  UNL     1       5.232   2.296   1.164  1.00  0.00    -0.044 SA
ENDBRANCH   8  17
TORSDOF 3
