REMARK  4 active torsions:
REMARK  status: ('A' for Active; 'I' for Inactive)
REMARK    1  A    between atoms: N1_1  and  C1_5 
REMARK    2  A    between atoms: C1_5  and  C2_6 
REMARK    3  A    between atoms: C5_10  and  N2_11 
REMARK       I    between atoms: N2_11  and  C6_13 
REMARK       I    between atoms: C6_13  and  N3_15 
REMARK    4  A    between atoms: N3_15  and  C7_17 
ROOT
HETATM    1  N2  UNL     1       1.773   0.019   0.195  1.00  0.00    -0.337 N 
ATOM      2  H2  UNL     1       1.666  -0.558   1.029  1.00  0.00     0.164 HD
HETATM    3  C6  UNL     1       0.618   0.573  -0.409  1.00  0.00     0.317 C 
HETATM    4  O1  UNL     1       0.774   1.283  -1.435  1.00  0.00    -0.247 OA
HETATM    5  N3  UNL     1      -0.696   0.375   0.073  1.00  0.00    -0.329 N 
ATOM      6  H3  UNL     1      -0.819  -0.204   0.904  1.00  0.00     0.165 HD
ENDROOT
BRANCH   1   7
HETATM    7  C5  UNL     1       3.091   0.246  -0.332  1.00  0.00     0.101 C 
HETATM    8  C2  UNL     1       3.772  -1.057  -0.621  1.00  0.00     0.044 C 
HETATM    9  C3  UNL     1       5.145  -0.693  -1.164  1.00  0.00     0.082 C 
HETATM   10  S1  UNL     1       5.610   0.622   0.036  1.00  0.00    -0.167 SA
HETATM   11  C4  UNL     1       3.942   0.939   0.739  1.00  0.00     0.099 C 
BRANCH   8  12
HETATM   12  C1  UNL     1       3.993  -1.881   0.629  1.00  0.00     0.237 C 
BRANCH  12  13
HETATM   13  N1  UNL     1       4.746  -3.071   0.275  1.00  0.00    -0.079 N 
ATOM     14  H13 UNL     1       4.302  -3.606  -0.472  1.00  0.00     0.274 HD
ATOM     15  H12 UNL     1       5.618  -2.852  -0.207  1.00  0.00     0.274 HD
ATOM     16  H11 UNL     1       4.895  -3.626   1.117  1.00  0.00     0.274 HD
ENDBRANCH  12  13
ENDBRANCH   8  12
ENDBRANCH   1   7
BRANCH   5  17
HETATM   17  C7  UNL     1      -1.883   0.947  -0.544  1.00  0.00     0.156 C 
HETATM   18  C8  UNL     1      -2.596  -0.240  -1.291  1.00  0.00     0.064 C 
HETATM   19  C9  UNL     1      -3.888  -0.638  -0.574  1.00  0.00    -0.028 C 
HETATM   20  C10 UNL     1      -4.984   0.276  -0.404  1.00  0.00    -0.030 C 
HETATM   21  C11 UNL     1      -5.144   1.151   0.832  1.00  0.00     0.038 C 
HETATM   22  C12 UNL     1      -3.898   2.069   1.064  1.00  0.00     0.086 C 
HETATM   23  C13 UNL     1      -2.865   1.548   0.261  1.00  0.00    -0.157 C 
ENDBRANCH   5  17
TORSDOF 4
