REMARK  3 active torsions:
REMARK  status: ('A' for Active; 'I' for Inactive)
REMARK    1  A    between atoms: S1_2  and  N1_4 
REMARK    2  A    between atoms: S1_2  and  C6_11 
REMARK    3  A    between atoms: N1_4  and  C1_6 
ROOT
HETATM    1  N1  UNL     1      -0.081  -0.182   1.260  1.00  0.00    -0.314 N 
ATOM      2  H1  UNL     1      -0.360   0.250   2.141  1.00  0.00     0.172 HD
ENDROOT
BRANCH   1   3
HETATM    3  S1  UNL     1       1.451  -0.861   0.920  1.00  0.00     0.231 S 
HETATM    4  O1  UNL     1       1.249  -2.308   0.556  1.00  0.00    -0.206 OA
HETATM    5  O2  UNL     1       2.274  -0.798   2.177  1.00  0.00    -0.206 OA
BRANCH   3   6
HETATM    6  C6  UNL     1       2.275  -0.034  -0.414  1.00  0.00     0.129 A 
HETATM    7  C7  UNL     1       3.293   0.989  -0.174  1.00  0.00     0.023 A 
HETATM    8  C8  UNL     1       3.762  -0.415  -0.533  1.00  0.00     0.023 A 
ENDBRANCH   3   6
ENDBRANCH   1   3
BRANCH   1   9
HETATM    9  C1  UNL     1      -0.913  -0.324   0.086  1.00  0.00     0.092 C 
HETATM   10  C2  UNL     1      -2.137  -1.161   0.384  1.00  0.00     0.026 C 
HETATM   11  C3  UNL     1      -3.155  -0.114   0.810  1.00  0.00     0.002 C 
HETATM   12  C4  UNL     1      -2.940   0.953  -0.242  1.00  0.00     0.002 C 
HETATM   13  C5  UNL     1      -1.421   0.989  -0.432  1.00  0.00     0.026 C 
ENDBRANCH   1   9
TORSDOF 3
