REMARK  10 active torsions:
REMARK  status: ('A' for Active; 'I' for Inactive)
REMARK    1  A    between atoms: C2_9  and  S1_10 
REMARK    2  A    between atoms: S1_10  and  C3_11 
REMARK    3  A    between atoms: C3_11  and  C4_12 
REMARK    4  A    between atoms: C4_12  and  C5_13 
REMARK    5  A    between atoms: C5_13  and  C6_14 
REMARK    6  A    between atoms: C6_14  and  N5_15 
REMARK    7  A    between atoms: C6_14  and  C7_19 
REMARK       I    between atoms: C7_19  and  N6_21 
REMARK       I    between atoms: N6_21  and  C8_23 
REMARK       I    between atoms: C8_23  and  N7_24 
REMARK       I    between atoms: C8_23  and  N8_28 
REMARK    8  A    between atoms: N9_32  and  N10_34 
REMARK    9  A    between atoms: C9_35  and  C10_36 
REMARK   10  A    between atoms: C14_42  and  N12_43 
ROOT
HETATM    1  C4  UNL     1      -0.900   0.620  -0.420  1.00  0.00     0.016 C 
HETATM    2  N9  UNL     1       0.069   1.399  -0.772  1.00  0.00    -0.297 N 
ATOM      3  H9  UNL     1       0.142   2.305  -0.310  1.00  0.00     0.187 HD
ENDROOT
BRANCH   1   4
HETATM    4  C3  UNL     1      -1.828   1.084   0.622  1.00  0.00     0.136 C 
BRANCH   4   5
HETATM    5  S1  UNL     1      -1.407   2.706   1.289  1.00  0.00    -0.085 SA
BRANCH   5   6
HETATM    6  C2  UNL     1      -1.649   4.012   0.137  1.00  0.00     0.178 A 
HETATM    7  N1  UNL     1      -1.370   5.313   0.447  1.00  0.00    -0.259 N 
HETATM    8  C1  UNL     1      -0.847   5.827   1.691  1.00  0.00     0.181 C 
HETATM    9  N2  UNL     1      -1.655   6.068  -0.590  1.00  0.00    -0.224 N 
HETATM   10  N3  UNL     1      -2.110   5.294  -1.557  1.00  0.00    -0.226 N 
ATOM     11  H2  UNL     1      -1.543   7.081  -0.639  1.00  0.00     0.210 HD
HETATM   12  N4  UNL     1      -2.103   4.043  -1.106  1.00  0.00    -0.263 N 
ATOM     13  H3  UNL     1      -2.412   5.600  -2.482  1.00  0.00     0.210 HD
ATOM     14  H4  UNL     1      -2.403   3.227  -1.640  1.00  0.00     0.190 HD
ENDBRANCH   5   6
ENDBRANCH   4   5
ENDBRANCH   1   4
BRANCH   1  15
HETATM   15  C5  UNL     1      -1.010  -0.698  -1.030  1.00  0.00     0.097 C 
BRANCH  15  16
HETATM   16  C6  UNL     1      -2.320  -1.093  -1.598  1.00  0.00     0.280 C 
BRANCH  16  17
HETATM   17  N5  UNL     1      -2.854  -0.280  -2.637  1.00  0.00    -0.066 N 
ATOM     18  H53 UNL     1      -2.901   0.688  -2.319  1.00  0.00     0.275 HD
ATOM     19  H52 UNL     1      -2.170  -0.200  -3.389  1.00  0.00     0.275 HD
ATOM     20  H51 UNL     1      -3.756  -0.552  -3.028  1.00  0.00     0.275 HD
ENDBRANCH  16  17
BRANCH  16  21
HETATM   21  C7  UNL     1      -3.362  -1.430  -0.562  1.00  0.00     0.251 C 
HETATM   22  O1  UNL     1      -4.540  -1.000  -0.671  1.00  0.00    -0.271 OA
HETATM   23  N6  UNL     1      -3.059  -2.237   0.561  1.00  0.00    -0.310 N 
HETATM   24  C8  UNL     1      -4.068  -2.541   1.529  1.00  0.00     0.482 C 
ATOM     25  H6  UNL     1      -2.115  -2.604   0.681  1.00  0.00     0.166 HD
HETATM   26  N7  UNL     1      -3.716  -2.159   2.879  1.00  0.00    -0.033 N 
HETATM   27  N8  UNL     1      -4.253  -3.997   1.532  1.00  0.00    -0.033 N 
ATOM     28  H73 UNL     1      -2.823  -2.573   3.148  1.00  0.00     0.278 HD
ATOM     29  H72 UNL     1      -3.466  -1.171   2.919  1.00  0.00     0.278 HD
ATOM     30  H71 UNL     1      -4.435  -2.376   3.569  1.00  0.00     0.278 HD
ATOM     31  H83 UNL     1      -4.463  -4.373   0.607  1.00  0.00     0.278 HD
ATOM     32  H82 UNL     1      -3.384  -4.508   1.690  1.00  0.00     0.278 HD
ATOM     33  H81 UNL     1      -4.972  -4.214   2.222  1.00  0.00     0.278 HD
ENDBRANCH  16  21
ENDBRANCH  15  16
ENDBRANCH   1  15
BRANCH   2  34
HETATM   34  N10 UNL     1       1.030   1.083  -1.749  1.00  0.00    -0.210 N 
HETATM   35  C9  UNL     1       2.189   0.422  -1.508  1.00  0.00     0.157 A 
HETATM   36  N14 UNL     1       2.787   0.311  -2.723  1.00  0.00    -0.281 N 
HETATM   37  N15 UNL     1       2.042   0.866  -3.629  1.00  0.00    -0.273 N 
ATOM     38  H14 UNL     1       3.685  -0.140  -2.897  1.00  0.00     0.188 HD
HETATM   39  C17 UNL     1       0.911   1.374  -3.059  1.00  0.00     0.214 A 
ATOM     40  H15 UNL     1       2.269   0.915  -4.622  1.00  0.00     0.189 HD
HETATM   41  S2  UNL     1      -0.276   2.171  -3.852  1.00  0.00    -0.037 SA
BRANCH  35  42
HETATM   42  C10 UNL     1       2.726  -0.083  -0.242  1.00  0.00     0.040 A 
HETATM   43  C11 UNL     1       2.321   0.121   1.043  1.00  0.00     0.104 A 
HETATM   44  N11 UNL     1       3.104  -0.572   1.909  1.00  0.00    -0.364 N 
HETATM   45  C12 UNL     1       4.044  -1.248   1.206  1.00  0.00     0.048 A 
ATOM     46  H11 UNL     1       3.001  -0.582   2.924  1.00  0.00     0.165 HD
HETATM   47  C13 UNL     1       5.071  -2.088   1.569  1.00  0.00     0.078 A 
HETATM   48  C16 UNL     1       3.816  -0.949  -0.140  1.00  0.00     0.021 A 
HETATM   49  C14 UNL     1       5.889  -2.647   0.623  1.00  0.00     0.100 A 
HETATM   50  N13 UNL     1       5.682  -2.370  -0.662  1.00  0.00    -0.352 N 
HETATM   51  C15 UNL     1       4.682  -1.551  -1.031  1.00  0.00     0.104 A 
ATOM     52  H13 UNL     1       6.287  -2.782  -1.372  1.00  0.00     0.166 HD
BRANCH  49  53
HETATM   53  N12 UNL     1       6.872  -3.449   0.953  1.00  0.00    -0.385 N 
ATOM     54 2H12 UNL     1       7.031  -3.661   1.938  1.00  0.00     0.157 HD
ATOM     55 1H12 UNL     1       7.481  -3.865   0.249  1.00  0.00     0.157 HD
ENDBRANCH  49  53
ENDBRANCH  35  42
ENDBRANCH   2  34
TORSDOF 10
