REMARK  9 active torsions:
REMARK  status: ('A' for Active; 'I' for Inactive)
REMARK    1  A    between atoms: C3_5  and  C4_6 
REMARK    2  A    between atoms: C4_6  and  C5_7 
REMARK    3  A    between atoms: C7_11  and  N3_12 
REMARK    4  A    between atoms: C8_17  and  O1_18 
REMARK    5  A    between atoms: C9_22  and  N6_23 
REMARK    6  A    between atoms: N6_23  and  C10_25 
REMARK    7  A    between atoms: C10_25  and  C11_26 
REMARK    8  A    between atoms: C13_30  and  O2_31 
REMARK    9  A    between atoms: C17_35  and  O3_36 
ROOT
HETATM    1  C1  UNL     1       2.151   1.710  -3.047  1.00  0.00     0.047 C 
HETATM    2  C2  UNL     1       1.906   1.325  -1.792  1.00  0.00     0.068 A 
HETATM    3  N1  UNL     1       2.726   0.667  -0.955  1.00  0.00    -0.340 N 
ATOM      4  H1  UNL     1       3.674   0.369  -1.183  1.00  0.00     0.167 HD
HETATM    5  C3  UNL     1       2.119   0.458   0.225  1.00  0.00     0.108 A 
HETATM    6  N5  UNL     1       0.897   0.998   0.120  1.00  0.00    -0.327 N 
ATOM      7  H5  UNL     1       0.194   1.000   0.859  1.00  0.00     0.169 HD
HETATM    8  C9  UNL     1       0.733   1.537  -1.102  1.00  0.00     0.129 A 
ENDROOT
BRANCH   8   9
HETATM    9  N6  UNL     1      -0.423   2.223  -1.631  1.00  0.00    -0.370 N 
ATOM     10  H6  UNL     1      -0.389   2.593  -2.581  1.00  0.00     0.161 HD
BRANCH   9  11
HETATM   11  C10 UNL     1      -1.620   2.399  -0.855  1.00  0.00     0.164 C 
BRANCH  11  12
HETATM   12  C11 UNL     1      -2.406   1.199  -0.599  1.00  0.00     0.009 A 
HETATM   13  C12 UNL     1      -2.048  -0.011  -1.125  1.00  0.00     0.102 A 
HETATM   14  N7  UNL     1      -2.752  -1.153  -0.935  1.00  0.00    -0.346 N 
HETATM   15  C13 UNL     1      -3.868  -1.135  -0.196  1.00  0.00     0.150 A 
ATOM     16  H7  UNL     1      -2.432  -2.026  -1.355  1.00  0.00     0.167 HD
HETATM   17  C15 UNL     1      -4.277   0.060   0.359  1.00  0.00     0.023 A 
HETATM   18  C16 UNL     1      -5.522   0.063   1.178  1.00  0.00     0.056 C 
HETATM   19  C17 UNL     1      -3.572   1.234   0.177  1.00  0.00     0.087 A 
BRANCH  15  20
HETATM   20  O2  UNL     1      -4.609  -2.314   0.009  1.00  0.00    -0.340 OA
HETATM   21  C14 UNL     1      -4.172  -3.512  -0.565  1.00  0.00     0.211 C 
ENDBRANCH  15  20
BRANCH  19  22
HETATM   22  O3  UNL     1      -3.984   2.423   0.732  1.00  0.00    -0.355 OA
HETATM   23  C18 UNL     1      -3.610   2.897   1.995  1.00  0.00     0.210 C 
ENDBRANCH  19  22
ENDBRANCH  11  12
ENDBRANCH   9  11
ENDBRANCH   8   9
BRANCH   5  24
HETATM   24  C4  UNL     1       2.652  -0.171   1.287  1.00  0.00     0.065 C 
BRANCH  24  25
HETATM   25  C5  UNL     1       3.996  -0.706   1.249  1.00  0.00     0.035 A 
HETATM   26  C6  UNL     1       5.067   0.063   1.653  1.00  0.00     0.122 A 
HETATM   27  N2  UNL     1       6.334  -0.396   1.633  1.00  0.00    -0.201 N 
HETATM   28  C7  UNL     1       6.556  -1.665   1.196  1.00  0.00     0.677 A 
ATOM     29  H2  UNL     1       7.108   0.194   1.938  1.00  0.00     0.183 HD
HETATM   30  N4  UNL     1       5.523  -2.431   0.798  1.00  0.00    -0.170 N 
HETATM   31  C8  UNL     1       4.250  -1.995   0.809  1.00  0.00     0.167 A 
ATOM     32  H4  UNL     1       5.713  -3.380   0.475  1.00  0.00     0.186 HD
BRANCH  28  33
HETATM   33  N3  UNL     1       7.775  -2.074   1.189  1.00  0.00    -0.234 N 
ATOM     34  H32 UNL     1       8.558  -1.494   1.491  1.00  0.00     0.174 HD
ATOM     35  H31 UNL     1       7.941  -3.025   0.861  1.00  0.00     0.174 HD
ENDBRANCH  28  33
BRANCH  31  36
HETATM   36  O1  UNL     1       3.177  -2.772   0.402  1.00  0.00    -0.345 OA
ATOM     37  H1  UNL     1       3.351  -3.656   0.100  1.00  0.00     0.219 HD
ENDBRANCH  31  36
ENDBRANCH  24  25
ENDBRANCH   5  24
TORSDOF 9
