REMARK  5 active torsions:
REMARK  status: ('A' for Active; 'I' for Inactive)
REMARK    1  A    between atoms: C2_3  and  N2_4 
REMARK    2  A    between atoms: N2_4  and  C3_7 
REMARK    3  A    between atoms: C3_7  and  C4_8 
REMARK    4  A    between atoms: C4_8  and  C5_9 
REMARK    5  A    between atoms: C8_12  and  N3_13 
REMARK       I    between atoms: N3_13  and  C9_15 
REMARK       I    between atoms: C9_15  and  N4_16 
REMARK       I    between atoms: C9_15  and  N5_20 
ROOT
HETATM    1  N1  UNL     1       7.678  -1.355  -0.718  1.00  0.00    -0.196 NA
HETATM    2  C1  UNL     1       6.641  -0.942  -0.478  1.00  0.00     0.086 C 
HETATM    3  C2  UNL     1       5.309  -0.390  -0.149  1.00  0.00     0.355 C 
ENDROOT
BRANCH   3   4
HETATM    4  N2  UNL     1       4.344  -1.459  -0.122  1.00  0.00    -0.063 N 
ATOM      5  H22 UNL     1       4.309  -1.951  -1.015  1.00  0.00     0.278 HD
ATOM      6  H21 UNL     1       4.657  -2.228   0.471  1.00  0.00     0.278 HD
BRANCH   4   7
HETATM    7  C3  UNL     1       3.045  -0.991   0.269  1.00  0.00     0.239 C 
BRANCH   7   8
HETATM    8  C4  UNL     1       2.462  -0.116  -0.792  1.00  0.00     0.084 C 
BRANCH   8   9
HETATM    9  C5  UNL     1       1.097   0.372  -0.370  1.00  0.00     0.013 A 
HETATM   10  C6  UNL     1      -0.114  -0.218  -0.638  1.00  0.00     0.044 A 
HETATM   11  C7  UNL     1      -1.136   0.523  -0.072  1.00  0.00     0.054 A 
HETATM   12  C8  UNL     1      -2.506   0.393  -0.030  1.00  0.00     0.119 A 
HETATM   13  C11 UNL     1      -0.497   1.592   0.553  1.00  0.00     0.120 A 
HETATM   14  N6  UNL     1      -3.179   1.339   0.636  1.00  0.00    -0.338 N 
HETATM   15  C10 UNL     1      -2.599   2.386   1.254  1.00  0.00     0.183 A 
ATOM     16  H6  UNL     1      -4.195   1.262   0.678  1.00  0.00     0.168 HD
HETATM   17  N7  UNL     1      -1.266   2.495   1.201  1.00  0.00    -0.338 N 
ATOM     18  H7  UNL     1      -0.816   3.285   1.664  1.00  0.00     0.168 HD
HETATM   19  N8  UNL     1       0.827   1.469   0.354  1.00  0.00    -0.345 N 
ATOM     20  H8  UNL     1       1.529   2.120   0.705  1.00  0.00     0.167 HD
BRANCH  12  21
HETATM   21  N3  UNL     1      -3.043  -0.601  -0.623  1.00  0.00    -0.326 N 
HETATM   22  C9  UNL     1      -4.458  -0.880  -0.675  1.00  0.00     0.481 C 
HETATM   23  N4  UNL     1      -4.653  -2.203  -0.068  1.00  0.00    -0.033 N 
HETATM   24  N5  UNL     1      -5.287   0.028   0.042  1.00  0.00    -0.033 N 
ATOM     25  H43 UNL     1      -4.084  -2.931  -0.500  1.00  0.00     0.278 HD
ATOM     26  H42 UNL     1      -4.263  -2.275   0.872  1.00  0.00     0.278 HD
ATOM     27  H41 UNL     1      -5.653  -2.400  -0.105  1.00  0.00     0.278 HD
ATOM     28  H53 UNL     1      -4.979   0.091   1.012  1.00  0.00     0.278 HD
ATOM     29  H52 UNL     1      -5.108   0.983  -0.267  1.00  0.00     0.278 HD
ATOM     30  H51 UNL     1      -6.287  -0.169   0.005  1.00  0.00     0.278 HD
ATOM     31  H3  UNL     1      -2.420  -1.253  -1.100  1.00  0.00     0.164 HD
ENDBRANCH  12  21
ENDBRANCH   8   9
ENDBRANCH   7   8
ENDBRANCH   4   7
ENDBRANCH   3   4
TORSDOF 5
