REMARK  11 active torsions:
REMARK  status: ('A' for Active; 'I' for Inactive)
REMARK    1  A    between atoms: C5_5  and  C6_6 
REMARK    2  A    between atoms: C6_6  and  C7_7 
REMARK    3  A    between atoms: C7_7  and  C8_8 
REMARK    4  A    between atoms: C8_8  and  O1_9 
REMARK    5  A    between atoms: C8_8  and  N1_11 
REMARK    6  A    between atoms: N1_11  and  C10_13 
REMARK    7  A    between atoms: C10_13  and  C11_14 
REMARK       I    between atoms: C11_14  and  N2_16 
REMARK    8  A    between atoms: N2_16  and  C12_18 
REMARK    9  A    between atoms: C22_28  and  N3_29 
REMARK       I    between atoms: N3_29  and  C23_31 
REMARK   10  A    between atoms: C23_31  and  C24_33 
REMARK   11  A    between atoms: N4_37  and  O4_38 
ROOT
HETATM    1  C6  UNL     1      -0.936  -0.513   0.717  1.00  0.00     0.018 C 
ENDROOT
BRANCH   1   2
HETATM    2  C5  UNL     1      -1.626  -1.611   0.069  1.00  0.00    -0.009 A 
HETATM    3  C4  UNL     1      -0.941  -2.839   0.120  1.00  0.00     0.014 A 
HETATM    4  C3  UNL     1      -1.466  -3.967  -0.456  1.00  0.00     0.007 A 
HETATM    5  C2  UNL     1      -2.675  -3.944  -1.102  1.00  0.00    -0.060 A 
HETATM    6  C1  UNL     1      -3.256  -5.155  -1.734  1.00  0.00     0.048 C 
HETATM    7  C30 UNL     1      -3.344  -2.715  -1.140  1.00  0.00     0.037 A 
HETATM    8  C22 UNL     1      -2.845  -1.563  -0.569  1.00  0.00     0.045 A 
BRANCH   8   9
HETATM    9  N3  UNL     1      -3.701  -0.450  -0.497  1.00  0.00    -0.322 N 
HETATM   10  C23 UNL     1      -4.705  -0.039  -1.367  1.00  0.00     0.258 C 
HETATM   11  O3  UNL     1      -4.862  -0.774  -2.423  1.00  0.00    -0.267 OA
ATOM     12  H3  UNL     1      -3.565   0.148   0.318  1.00  0.00     0.169 HD
BRANCH  10  13
HETATM   13  C24 UNL     1      -5.596   1.078  -1.286  1.00  0.00     0.057 A 
HETATM   14  C25 UNL     1      -5.971   1.675  -2.508  1.00  0.00     0.020 A 
HETATM   15  C26 UNL     1      -6.771   2.787  -2.514  1.00  0.00     0.021 A 
HETATM   16  C27 UNL     1      -7.236   3.362  -1.354  1.00  0.00     0.123 A 
HETATM   17  N4  UNL     1      -6.874   2.784  -0.206  1.00  0.00    -0.240 N 
HETATM   18  C28 UNL     1      -6.078   1.674  -0.174  1.00  0.00     0.051 A 
HETATM   19  C29 UNL     1      -5.806   1.105   1.175  1.00  0.00     0.072 C 
BRANCH  17  20
HETATM   20  O4  UNL     1      -7.330   3.343   0.978  1.00  0.00    -0.283 OA
ATOM     21  H4  UNL     1      -7.072   2.932   1.795  1.00  0.00     0.245 HD
ENDBRANCH  17  20
ENDBRANCH  10  13
ENDBRANCH   8   9
ENDBRANCH   1   2
BRANCH   1  22
HETATM   22  C7  UNL     1      -1.060   0.764   0.527  1.00  0.00     0.056 C 
BRANCH  22  23
HETATM   23  C8  UNL     1      -0.440   1.903   1.114  1.00  0.00     0.137 C 
BRANCH  23  24
HETATM   24  O1  UNL     1      -0.877   3.047   0.594  1.00  0.00    -0.346 OA
ATOM     25  H1  UNL     1      -0.463   3.807   0.986  1.00  0.00     0.219 HD
ENDBRANCH  23  24
BRANCH  23  26
HETATM   26  N1  UNL     1       0.512   2.089   2.100  1.00  0.00    -0.358 N 
HETATM   27  C9  UNL     1       0.886   3.512   2.377  1.00  0.00     0.152 C 
BRANCH  26  28
HETATM   28  C10 UNL     1       1.140   1.070   2.856  1.00  0.00     0.227 C 
BRANCH  28  29
HETATM   29  C11 UNL     1       2.387   0.524   2.265  1.00  0.00     0.240 C 
HETATM   30  O2  UNL     1       2.980  -0.383   2.895  1.00  0.00    -0.271 OA
HETATM   31  N2  UNL     1       2.919   0.977   1.051  1.00  0.00    -0.325 N 
ATOM     32  H2  UNL     1       2.419   1.716   0.557  1.00  0.00     0.169 HD
BRANCH  31  33
HETATM   33  C12 UNL     1       4.109   0.474   0.463  1.00  0.00     0.047 A 
HETATM   34  C13 UNL     1       5.333   1.071   0.788  1.00  0.00    -0.034 A 
HETATM   35  C14 UNL     1       5.371   2.213   1.739  1.00  0.00     0.050 C 
HETATM   36  C15 UNL     1       6.523   0.630   0.249  1.00  0.00     0.016 A 
HETATM   37  C16 UNL     1       6.504  -0.434  -0.638  1.00  0.00    -0.055 A 
HETATM   38  C17 UNL     1       7.821  -0.890  -1.208  1.00  0.00     0.049 C 
HETATM   39  C18 UNL     1       5.315  -1.049  -0.983  1.00  0.00    -0.048 A 
HETATM   40  C19 UNL     1       5.339  -2.187  -1.939  1.00  0.00     0.049 C 
HETATM   41  C20 UNL     1       4.156  -0.574  -0.420  1.00  0.00    -0.028 A 
HETATM   42  C21 UNL     1       2.890  -1.242  -0.798  1.00  0.00     0.051 C 
ENDBRANCH  31  33
ENDBRANCH  28  29
ENDBRANCH  26  28
ENDBRANCH  23  26
ENDBRANCH  22  23
ENDBRANCH   1  22
TORSDOF 11
