REMARK  2 active torsions:
REMARK  status: ('A' for Active; 'I' for Inactive)
REMARK    1  A    between atoms: C4_4  and  O1_5 
REMARK    2  A    between atoms: O1_5  and  N1_6 
ROOT
HETATM    1  N1  UNL     1       0.307  -0.290   1.160  1.00  0.00    -0.275 N 
ATOM      2  H1  UNL     1       0.149  -0.548   2.134  1.00  0.00     0.193 HD
HETATM    3  C5  UNL     1       1.486  -0.189   0.710  1.00  0.00     0.013 C 
HETATM    4  C6  UNL     1       2.712  -0.426   1.518  1.00  0.00     0.082 C 
HETATM    5  C7  UNL     1       3.865  -0.535   0.513  1.00  0.00     0.238 C 
HETATM    6  N2  UNL     1       4.047   0.680  -0.219  1.00  0.00    -0.074 N 
ATOM      7  H21 UNL     1       4.710   0.546  -0.983  1.00  0.00     0.277 HD
ATOM      8  H22 UNL     1       4.564   1.362   0.336  1.00  0.00     0.277 HD
HETATM    9  C8  UNL     1       2.812   1.247  -0.707  1.00  0.00     0.238 C 
HETATM   10  C9  UNL     1       1.725   0.190  -0.720  1.00  0.00     0.082 C 
ENDROOT
BRANCH   1  11
HETATM   11  O1  UNL     1      -0.755  -0.049   0.327  1.00  0.00    -0.275 OA
BRANCH  11  12
HETATM   12  C4  UNL     1      -2.039  -0.445   0.774  1.00  0.00     0.152 C 
HETATM   13  C3  UNL     1      -2.607  -1.370  -0.278  1.00  0.00     0.034 C 
HETATM   14  C2  UNL     1      -3.775  -0.632  -0.870  1.00  0.00     0.003 C 
HETATM   15  C1  UNL     1      -3.428   0.838  -0.627  1.00  0.00     0.003 C 
HETATM   16  C10 UNL     1      -2.905   0.795   0.777  1.00  0.00     0.034 C 
ENDBRANCH  11  12
ENDBRANCH   1  11
TORSDOF 2
