REMARK  3 active torsions:
REMARK  status: ('A' for Active; 'I' for Inactive)
REMARK    1  A    between atoms: C2_2  and  C4_10 
REMARK    2  A    between atoms: N1_3  and  N2_5 
REMARK    3  A    between atoms: N2_5  and  C3_7 
ROOT
HETATM    1  C1  UNL     1       1.421   1.353  -0.588  1.00  0.00     0.068 C 
HETATM    2  C2  UNL     1       1.159   0.329   0.445  1.00  0.00     0.029 C 
HETATM    3  N1  UNL     1       2.148  -0.125   1.129  1.00  0.00    -0.305 N 
ATOM      4  H1  UNL     1       1.959  -0.832   1.840  1.00  0.00     0.186 HD
ENDROOT
BRANCH   2   5
HETATM    5  C4  UNL     1      -0.217  -0.162   0.685  1.00  0.00     0.172 C 
HETATM    6  O1  UNL     1      -0.986   0.925   1.091  1.00  0.00    -0.380 OA
HETATM    7  C5  UNL     1      -2.221   0.544   1.579  1.00  0.00     0.169 C 
HETATM    8  C6  UNL     1      -3.201   0.550   0.436  1.00  0.00     0.031 C 
HETATM    9  C7  UNL     1      -2.830  -0.367  -0.680  1.00  0.00    -0.012 C 
HETATM   10  C8  UNL     1      -1.585   0.148  -1.397  1.00  0.00     0.012 C 
HETATM   11  C10 UNL     1      -2.039  -1.562  -0.266  1.00  0.00     0.012 C 
HETATM   12  C9  UNL     1      -0.775  -0.790  -0.573  1.00  0.00     0.021 C 
ENDBRANCH   2   5
BRANCH   3  13
HETATM   13  N2  UNL     1       3.450   0.292   0.953  1.00  0.00    -0.279 N 
ATOM     14  H2  UNL     1       3.841   0.954   1.623  1.00  0.00     0.189 HD
BRANCH  13  15
HETATM   15  C3  UNL     1       4.271  -0.153  -0.111  1.00  0.00     0.199 C 
HETATM   16  N3  UNL     1       3.756  -1.084  -1.071  1.00  0.00    -0.068 NA
HETATM   17  S1  UNL     1       5.794   0.364  -0.278  1.00  0.00    -0.043 SA
ENDBRANCH  13  15
ENDBRANCH   3  13
TORSDOF 3
