REMARK  7 active torsions:
REMARK  status: ('A' for Active; 'I' for Inactive)
REMARK    1  A    between atoms: C2_2  and  C4_4 
REMARK    2  A    between atoms: C4_4  and  C5_5 
REMARK    3  A    between atoms: C7_10  and  C8_11 
REMARK    4  A    between atoms: C8_11  and  C9_12 
REMARK    5  A    between atoms: C13_19  and  C14_20 
REMARK    6  A    between atoms: C14_20  and  C15_21 
REMARK    7  A    between atoms: C19_28  and  C20_29 
ROOT
HETATM    1  C5  UNL     1       3.115  -1.143  -0.755  1.00  0.00     0.177 C 
HETATM    2  N1  UNL     1       2.206  -0.986   0.340  1.00  0.00    -0.346 N 
ATOM      3  H1  UNL     1       1.830  -1.857   0.714  1.00  0.00     0.163 HD
HETATM    4  C6  UNL     1       1.751   0.175   0.980  1.00  0.00     0.241 C 
HETATM    5  O1  UNL     1       1.868   0.318   2.229  1.00  0.00    -0.271 OA
HETATM    6  C7  UNL     1       1.086   1.361   0.299  1.00  0.00     0.177 C 
HETATM    7  N2  UNL     1       0.199   1.975   1.289  1.00  0.00    -0.346 N 
ATOM      8  H2  UNL     1       0.517   2.825   1.754  1.00  0.00     0.163 HD
HETATM    9  C12 UNL     1      -1.079   1.459   1.643  1.00  0.00     0.241 C 
HETATM   10  O2  UNL     1      -1.350   1.330   2.898  1.00  0.00    -0.271 OA
HETATM   11  C13 UNL     1      -2.130   1.050   0.717  1.00  0.00     0.177 C 
HETATM   12  N3  UNL     1      -2.926   0.019   1.373  1.00  0.00    -0.347 N 
ATOM     13  H3  UNL     1      -3.625   0.322   2.051  1.00  0.00     0.163 HD
HETATM   14  C18 UNL     1      -2.800  -1.362   1.139  1.00  0.00     0.222 C 
HETATM   15  O3  UNL     1      -2.799  -2.162   2.128  1.00  0.00    -0.273 OA
HETATM   16  C19 UNL     1      -2.665  -1.956  -0.218  1.00  0.00     0.081 C 
HETATM   17  C23 UNL     1      -1.316  -2.668  -0.380  1.00  0.00     0.024 C 
HETATM   18  C24 UNL     1      -0.650  -2.091  -1.574  1.00  0.00     0.104 C 
HETATM   19  C25 UNL     1       0.549  -2.814  -2.057  1.00  0.00     0.224 C 
HETATM   20  O4  UNL     1       0.575  -4.061  -1.935  1.00  0.00    -0.273 OA
HETATM   21  N4  UNL     1       1.681  -2.185  -2.654  1.00  0.00    -0.296 N 
ATOM     22  H4  UNL     1       1.964  -2.526  -3.572  1.00  0.00     0.171 HD
HETATM   23  C26 UNL     1       2.452  -1.133  -2.099  1.00  0.00     0.247 C 
HETATM   24  O5  UNL     1       2.579  -0.090  -2.834  1.00  0.00    -0.271 OA
ENDROOT
BRANCH   1  25
HETATM   25  C4  UNL     1       4.062  -2.319  -0.643  1.00  0.00     0.038 C 
BRANCH  25  26
HETATM   26  C2  UNL     1       4.975  -2.283   0.509  1.00  0.00    -0.020 C 
HETATM   27  C1  UNL     1       4.381  -2.283   1.867  1.00  0.00     0.009 C 
HETATM   28  C3  UNL     1       6.070  -3.341   0.361  1.00  0.00     0.009 C 
ENDBRANCH  25  26
ENDBRANCH   1  25
BRANCH   6  29
HETATM   29  C8  UNL     1       2.117   2.358  -0.118  1.00  0.00     0.038 C 
BRANCH  29  30
HETATM   30  C9  UNL     1       1.663   3.570  -0.843  1.00  0.00    -0.020 C 
HETATM   31  C10 UNL     1       2.902   4.415  -1.180  1.00  0.00     0.009 C 
HETATM   32  C11 UNL     1       0.701   4.480  -0.180  1.00  0.00     0.009 C 
ENDBRANCH  29  30
ENDBRANCH   6  29
BRANCH  11  33
HETATM   33  C14 UNL     1      -2.957   2.174   0.214  1.00  0.00     0.038 C 
BRANCH  33  34
HETATM   34  C15 UNL     1      -3.728   3.013   1.142  1.00  0.00    -0.020 C 
HETATM   35  C16 UNL     1      -3.005   3.797   2.168  1.00  0.00     0.009 C 
HETATM   36  C17 UNL     1      -4.486   4.041   0.268  1.00  0.00     0.009 C 
ENDBRANCH  33  34
ENDBRANCH  11  33
BRANCH  16  37
HETATM   37  C20 UNL     1      -3.811  -2.885  -0.528  1.00  0.00    -0.010 C 
HETATM   38  C21 UNL     1      -3.947  -4.036   0.398  1.00  0.00     0.010 C 
HETATM   39  C22 UNL     1      -3.807  -3.360  -1.951  1.00  0.00     0.010 C 
ENDBRANCH  16  37
TORSDOF 7
