REMARK  11 active torsions:
REMARK  status: ('A' for Active; 'I' for Inactive)
REMARK    1  A    between atoms: C2_2  and  C3_3 
REMARK    2  A    between atoms: C3_3  and  C5_5 
REMARK    3  A    between atoms: C7_7  and  O1_8 
REMARK    4  A    between atoms: O1_8  and  C8_9 
REMARK    5  A    between atoms: C10_14  and  C11_15 
REMARK    6  A    between atoms: C14_20  and  O4_21 
REMARK    7  A    between atoms: C15_23  and  C16_24 
REMARK    8  A    between atoms: C16_24  and  C17_25 
REMARK    9  A    between atoms: C20_30  and  O5_31 
REMARK   10  A    between atoms: C21_35  and  C22_36 
REMARK   11  A    between atoms: C25_39  and  O6_40 
ROOT
HETATM    1  C5  UNL     1      -2.393  -0.209  -0.763  1.00  0.00     0.089 C 
HETATM    2  C6  UNL     1      -2.355   0.798  -1.881  1.00  0.00     0.066 C 
HETATM    3  C7  UNL     1      -1.494   2.032  -1.621  1.00  0.00     0.206 C 
HETATM    4  C9  UNL     1      -0.050   1.813  -1.644  1.00  0.00     0.179 C 
HETATM    5  O3  UNL     1       0.407   1.520  -2.780  1.00  0.00    -0.293 OA
HETATM    6  C10 UNL     1       0.973   1.873  -0.587  1.00  0.00     0.159 C 
HETATM    7  N2  UNL     1       2.227   1.265  -0.997  1.00  0.00    -0.361 N 
ATOM      8  H2  UNL     1       2.810   1.906  -1.535  1.00  0.00     0.162 HD
HETATM    9  C14 UNL     1       2.812   0.044  -0.836  1.00  0.00     0.135 C 
HETATM   10  C15 UNL     1       2.594  -1.080   0.105  1.00  0.00     0.159 C 
HETATM   11  N3  UNL     1       2.456  -2.329  -0.688  1.00  0.00    -0.345 N 
ATOM     12  H3  UNL     1       2.869  -2.262  -1.618  1.00  0.00     0.163 HD
HETATM   13  C20 UNL     1       1.889  -3.559  -0.434  1.00  0.00     0.214 C 
HETATM   14  N4  UNL     1       0.525  -3.957  -0.263  1.00  0.00    -0.344 N 
ATOM     15  H4  UNL     1       0.323  -4.582   0.518  1.00  0.00     0.164 HD
HETATM   16  C21 UNL     1      -0.601  -3.559  -1.092  1.00  0.00     0.163 C 
HETATM   17  C25 UNL     1      -0.630  -2.092  -1.316  1.00  0.00     0.135 C 
HETATM   18  N5  UNL     1      -1.204  -1.027  -0.684  1.00  0.00    -0.368 N 
ATOM     19  H5  UNL     1      -0.609  -0.710   0.082  1.00  0.00     0.161 HD
ENDROOT
BRANCH   1  20
HETATM   20  C3  UNL     1      -2.730   0.523   0.517  1.00  0.00     0.004 C 
HETATM   21  C4  UNL     1      -4.082   1.197   0.401  1.00  0.00     0.012 C 
BRANCH  20  22
HETATM   22  C2  UNL     1      -2.791  -0.391   1.729  1.00  0.00     0.002 C 
HETATM   23  C1  UNL     1      -3.084   0.419   2.945  1.00  0.00     0.005 C 
ENDBRANCH  20  22
ENDBRANCH   1  20
BRANCH   3  24
HETATM   24  O1  UNL     1      -1.859   2.963  -2.691  1.00  0.00    -0.293 OA
BRANCH  24  25
HETATM   25  C8  UNL     1      -2.564   4.099  -2.488  1.00  0.00     0.373 C 
HETATM   26  N1  UNL     1      -2.852   4.948  -3.612  1.00  0.00    -0.032 NA
HETATM   27  O2  UNL     1      -2.966   4.421  -1.340  1.00  0.00    -0.242 OA
ENDBRANCH  24  25
ENDBRANCH   3  24
BRANCH  17  28
HETATM   28  O6  UNL     1       0.087  -1.814  -2.385  1.00  0.00    -0.348 OA
ATOM     29  H6  UNL     1       0.068  -0.875  -2.528  1.00  0.00     0.219 HD
ENDBRANCH  17  28
BRANCH  16  30
HETATM   30  C22 UNL     1      -1.831  -4.222  -0.600  1.00  0.00     0.008 C 
HETATM   31  C23 UNL     1      -3.073  -3.903  -1.395  1.00  0.00     0.012 C 
HETATM   32  C24 UNL     1      -2.121  -4.060   0.853  1.00  0.00     0.012 C 
ENDBRANCH  16  30
BRANCH   6  33
HETATM   33  C11 UNL     1       1.242   3.286  -0.073  1.00  0.00     0.007 C 
HETATM   34  C12 UNL     1       2.332   3.220   1.010  1.00  0.00     0.012 C 
HETATM   35  C13 UNL     1       0.053   3.899   0.627  1.00  0.00     0.012 C 
ENDBRANCH   6  33
BRANCH  13  36
HETATM   36  O5  UNL     1       2.666  -4.623  -0.314  1.00  0.00    -0.333 OA
ATOM     37  H5  UNL     1       2.275  -5.471  -0.139  1.00  0.00     0.220 HD
ENDBRANCH  13  36
BRANCH   9  38
HETATM   38  O4  UNL     1       3.774  -0.220  -1.680  1.00  0.00    -0.348 OA
ATOM     39  H4  UNL     1       4.182  -1.071  -1.568  1.00  0.00     0.219 HD
ENDBRANCH   9  38
BRANCH  10  40
HETATM   40  C16 UNL     1       3.737  -1.345   1.007  1.00  0.00     0.037 C 
BRANCH  40  41
HETATM   41  C17 UNL     1       4.315  -0.383   1.926  1.00  0.00    -0.020 C 
HETATM   42  C18 UNL     1       5.418  -1.233   2.681  1.00  0.00     0.009 C 
HETATM   43  C19 UNL     1       5.211   0.688   1.286  1.00  0.00     0.009 C 
ENDBRANCH  40  41
ENDBRANCH  10  40
TORSDOF 11
