REMARK  0 active torsions:
REMARK  status: ('A' for Active; 'I' for Inactive)
ROOT
HETATM    1  O1  UNL     1       1.942   1.859  -0.800  1.00  0.00    -0.234 OA
HETATM    2  S1  UNL     1       1.387   1.088   0.366  1.00  0.00     0.136 S 
HETATM    3  C1  UNL     1       1.426  -0.707   0.048  1.00  0.00     0.363 C 
HETATM    4  N1  UNL     1       0.123  -1.185   0.432  1.00  0.00    -0.061 N 
ATOM      5  H11 UNL     1      -0.072  -1.021   1.420  1.00  0.00     0.278 HD
ATOM      6  H12 UNL     1       0.074  -2.204   0.441  1.00  0.00     0.278 HD
HETATM    7  C2  UNL     1      -0.867  -0.605  -0.416  1.00  0.00     0.253 C 
HETATM    8  C3  UNL     1      -1.220   0.812  -0.081  1.00  0.00     0.157 C 
HETATM    9  N2  UNL     1      -0.264   1.486   0.737  1.00  0.00    -0.338 N 
ATOM     10  H2  UNL     1      -0.526   2.142   1.473  1.00  0.00     0.169 HD
ENDROOT
TORSDOF 0
