REMARK  5 active torsions:
REMARK  status: ('A' for Active; 'I' for Inactive)
REMARK    1  A    between atoms: C6_6  and  C7_7 
REMARK    2  A    between atoms: C7_7  and  C8_8 
REMARK    3  A    between atoms: C8_8  and  C9_9 
REMARK    4  A    between atoms: C19_22  and  C20_23 
REMARK    5  A    between atoms: C21_24  and  C22_25 
ROOT
HETATM    1  C1  UNL     1      -0.244  -0.478  -2.415  1.00  0.00     0.020 C 
HETATM    2  C2  UNL     1      -0.507  -1.027  -1.031  1.00  0.00    -0.016 C 
HETATM    3  C3  UNL     1       0.503  -1.977  -0.604  1.00  0.00     0.014 C 
HETATM    4  C4  UNL     1       0.822  -1.955   0.886  1.00  0.00     0.002 C 
HETATM    5  C5  UNL     1       1.242  -0.658   1.414  1.00  0.00     0.017 C 
HETATM    6  C6  UNL     1       0.596   0.529   0.562  1.00  0.00     0.061 C 
HETATM    7  C15 UNL     1      -0.661   0.080   0.036  1.00  0.00     0.013 C 
HETATM    8  C16 UNL     1      -1.602   0.945  -0.692  1.00  0.00     0.011 C 
HETATM    9  C17 UNL     1      -2.649  -0.094  -1.148  1.00  0.00     0.035 C 
HETATM   10  C18 UNL     1      -1.933  -1.437  -0.979  1.00  0.00    -0.071 C 
HETATM   11  C19 UNL     1      -2.561  -2.563  -0.794  1.00  0.00     0.003 C 
ENDROOT
BRANCH   6  12
HETATM   12  C7  UNL     1       1.278   1.545   0.618  1.00  0.00    -0.150 C 
BRANCH  12  13
HETATM   13  C8  UNL     1       2.083   2.754   0.679  1.00  0.00     0.058 C 
BRANCH  13  14
HETATM   14  C9  UNL     1       3.074   2.581   1.646  1.00  0.00    -0.053 C 
HETATM   15  C10 UNL     1       3.990   2.444   2.528  1.00  0.00     0.000 C 
HETATM   16  C11 UNL     1       5.065   1.312   2.263  1.00  0.00     0.150 C 
HETATM   17  N1  UNL     1       5.601   1.554   0.936  1.00  0.00    -0.358 N 
HETATM   18  C12 UNL     1       5.619   2.814   0.331  1.00  0.00     0.218 C 
ATOM     19  H1  UNL     1       5.985   0.763   0.418  1.00  0.00     0.162 HD
HETATM   20  O1  UNL     1       6.096   2.912  -0.814  1.00  0.00    -0.274 OA
HETATM   21  C13 UNL     1       5.112   4.071   0.929  1.00  0.00     0.107 C 
HETATM   22  C14 UNL     1       3.669   4.182   0.852  1.00  0.00     0.048 C 
ENDBRANCH  13  14
ENDBRANCH  12  13
ENDBRANCH   6  12
BRANCH  11  23
HETATM   23  C20 UNL     1      -3.999  -2.567  -0.808  1.00  0.00    -0.003 C 
HETATM   24  C21 UNL     1      -4.728  -3.655  -0.608  1.00  0.00    -0.022 C 
BRANCH  24  25
HETATM   25  C22 UNL     1      -6.224  -3.593  -0.619  1.00  0.00     0.008 A 
HETATM   26  C23 UNL     1      -6.799  -3.199  -1.963  1.00  0.00     0.009 A 
HETATM   27  C24 UNL     1      -6.915  -2.269  -0.814  1.00  0.00     0.009 A 
ENDBRANCH  24  25
ENDBRANCH  11  23
TORSDOF 5
