REMARK  3 active torsions:
REMARK  status: ('A' for Active; 'I' for Inactive)
REMARK    1  A    between atoms: C1_4  and  C2_5 
REMARK    2  A    between atoms: C4_11  and  O1_12 
REMARK    3  A    between atoms: C5_14  and  O2_15 
ROOT
HETATM    1  C2  UNL     1       1.027   0.042  -0.037  1.00  0.00     0.168 C 
HETATM    2  N2  UNL     1       0.934   0.624  -1.338  1.00  0.00    -0.328 N 
ATOM      3  H2  UNL     1       1.739   0.614  -1.964  1.00  0.00     0.180 HD
HETATM    4  N3  UNL     1      -0.128   1.140  -1.700  1.00  0.00    -0.337 N 
ATOM      5  H3  UNL     1      -0.217   1.562  -2.624  1.00  0.00     0.179 HD
HETATM    6  C3  UNL     1      -1.228   1.130  -0.790  1.00  0.00     0.173 C 
HETATM    7  C4  UNL     1      -1.434  -0.298  -0.326  1.00  0.00     0.168 C 
HETATM    8  C5  UNL     1      -0.149  -0.872   0.238  1.00  0.00     0.177 C 
ENDROOT
BRANCH   1   9
HETATM    9  C1  UNL     1       2.292  -0.717   0.037  1.00  0.00     0.082 C 
HETATM   10  N1  UNL     1       3.348  -0.186   0.492  1.00  0.00    -0.409 N 
ATOM     11  H12 UNL     1       3.307   0.783   0.808  1.00  0.00     0.155 HD
ATOM     12  H11 UNL     1       4.222  -0.710   0.543  1.00  0.00     0.155 HD
ENDBRANCH   1   9
BRANCH   8  13
HETATM   13  O2  UNL     1      -0.302  -0.958   1.620  1.00  0.00    -0.390 OA
ATOM     14  H2  UNL     1      -1.040  -1.531   1.792  1.00  0.00     0.210 HD
ENDBRANCH   8  13
BRANCH   7  15
HETATM   15  O1  UNL     1      -2.437  -0.359   0.615  1.00  0.00    -0.391 OA
ATOM     16  H1  UNL     1      -2.566  -1.254   0.906  1.00  0.00     0.210 HD
ENDBRANCH   7  15
TORSDOF 3
