REMARK  17 active torsions:
REMARK  status: ('A' for Active; 'I' for Inactive)
REMARK    1  A    between atoms: N1_2  and  C3_4 
REMARK    2  A    between atoms: C5_7  and  C6_8 
REMARK    3  A    between atoms: C8_11  and  C9_12 
REMARK    4  A    between atoms: C9_12  and  C10_14 
REMARK    5  A    between atoms: C10_14  and  C11_15 
REMARK    6  A    between atoms: C11_15  and  C20_44 
REMARK    7  A    between atoms: N2_16  and  N3_18 
REMARK       I    between atoms: N3_18  and  C12_20 
REMARK    8  A    between atoms: C12_20  and  C13_22 
REMARK    9  A    between atoms: C13_22  and  N4_23 
REMARK   10  A    between atoms: C13_22  and  C19_39 
REMARK   11  A    between atoms: N4_23  and  C14_25 
REMARK   12  A    between atoms: C16_29  and  O5_30 
REMARK   13  A    between atoms: C16_29  and  C17_32 
REMARK   14  A    between atoms: C18_35  and  O8_36 
REMARK   15  A    between atoms: C19_39  and  O10_40 
REMARK   16  A    between atoms: C19_39  and  O11_42 
REMARK   17  A    between atoms: C21_45  and  C22_46 
ROOT
HETATM    1  C11 UNL     1       0.486  -1.405   0.426  1.00  0.00     0.040 C 
HETATM    2  N2  UNL     1      -0.078  -1.352  -0.713  1.00  0.00    -0.301 N 
ATOM      3  H2  UNL     1      -0.076  -2.220  -1.248  1.00  0.00     0.186 HD
ENDROOT
BRANCH   2   4
HETATM    4  N3  UNL     1      -0.690  -0.280  -1.318  1.00  0.00    -0.268 N 
HETATM    5  C12 UNL     1      -2.089  -0.323  -1.621  1.00  0.00     0.263 C 
HETATM    6  O4  UNL     1      -2.735  -1.364  -1.312  1.00  0.00    -0.269 OA
ATOM      7  H3  UNL     1      -0.145   0.550  -1.552  1.00  0.00     0.190 HD
BRANCH   5   8
HETATM    8  C13 UNL     1      -2.767   0.806  -2.270  1.00  0.00     0.233 C 
BRANCH   8   9
HETATM    9  N4  UNL     1      -4.210   0.509  -2.365  1.00  0.00    -0.339 N 
ATOM     10  H4  UNL     1      -4.663   0.441  -3.276  1.00  0.00     0.164 HD
BRANCH   9  11
HETATM   11  C14 UNL     1      -4.954   0.320  -1.184  1.00  0.00     0.218 C 
HETATM   12  N5  UNL     1      -5.648  -0.762  -0.982  1.00  0.00    -0.353 N 
HETATM   13  C15 UNL     1      -6.406  -0.924   0.251  1.00  0.00     0.177 C 
ATOM     14  H5  UNL     1      -5.661  -1.498  -1.688  1.00  0.00     0.163 HD
HETATM   15  C16 UNL     1      -7.076   0.398   0.634  1.00  0.00     0.212 C 
HETATM   16  C18 UNL     1      -6.126   1.556   0.586  1.00  0.00     0.313 C 
HETATM   17  O9  UNL     1      -4.974   1.297  -0.179  1.00  0.00    -0.287 OA
BRANCH  15  18
HETATM   18  O5  UNL     1      -8.102   0.607  -0.276  1.00  0.00    -0.373 OA
ATOM     19  H5  UNL     1      -8.518   1.427  -0.038  1.00  0.00     0.211 HD
ENDBRANCH  15  18
BRANCH  15  20
HETATM   20  C17 UNL     1      -7.625   0.261   2.002  1.00  0.00     0.216 C 
HETATM   21  O6  UNL     1      -8.866   0.342   2.169  1.00  0.00    -0.646 OA
HETATM   22  O7  UNL     1      -6.824   0.045   3.112  1.00  0.00    -0.646 OA
ENDBRANCH  15  20
BRANCH  16  23
HETATM   23  O8  UNL     1      -5.722   1.956   1.870  1.00  0.00    -0.367 OA
ATOM     24  H8  UNL     1      -5.120   2.690   1.840  1.00  0.00     0.212 HD
ENDBRANCH  16  23
ENDBRANCH   9  11
ENDBRANCH   8   9
BRANCH   8  25
HETATM   25  C19 UNL     1      -2.221   0.972  -3.693  1.00  0.00     0.285 C 
BRANCH  25  26
HETATM   26  O10 UNL     1      -2.949   2.039  -4.270  1.00  0.00    -0.369 OA
ATOM     27  H10 UNL     1      -2.611   2.142  -5.152  1.00  0.00     0.212 HD
ENDBRANCH  25  26
BRANCH  25  28
HETATM   28  O11 UNL     1      -0.892   1.297  -3.720  1.00  0.00    -0.369 OA
ATOM     29  H11 UNL     1      -0.554   1.400  -4.602  1.00  0.00     0.212 HD
ENDBRANCH  25  28
ENDBRANCH   8  25
ENDBRANCH   5   8
ENDBRANCH   2   4
BRANCH   1  30
HETATM   30  C10 UNL     1       0.489  -0.140   1.208  1.00  0.00     0.138 C 
BRANCH  30  31
HETATM   31  C9  UNL     1       1.786   0.493   1.424  1.00  0.00     0.147 C 
HETATM   32  O3  UNL     1       1.778   1.347   2.347  1.00  0.00    -0.296 OA
BRANCH  31  33
HETATM   33  C8  UNL     1       3.063   0.306   0.758  1.00  0.00     0.151 C 
HETATM   34  C7  UNL     1       3.054   0.676  -0.707  1.00  0.00     0.011 C 
HETATM   35  C5  UNL     1       4.214   0.963  -1.295  1.00  0.00     0.047 C 
HETATM   36  C4  UNL     1       5.494   0.938  -0.600  1.00  0.00     0.192 C 
HETATM   37  C3  UNL     1       5.511   0.871   0.869  1.00  0.00     0.225 C 
HETATM   38  O1  UNL     1       6.539   0.975  -1.298  1.00  0.00    -0.289 OA
HETATM   39  C25 UNL     1       4.131   1.165   1.343  1.00  0.00     0.171 C 
HETATM   40  O13 UNL     1       3.976   2.051   2.143  1.00  0.00    -0.294 OA
BRANCH  35  41
HETATM   41  C6  UNL     1       4.165   1.322  -2.732  1.00  0.00     0.273 C 
HETATM   42  O2  UNL     1       5.219   1.606  -3.360  1.00  0.00    -0.301 OA
ENDBRANCH  35  41
BRANCH  37  43
HETATM   43  N1  UNL     1       6.452   1.759   1.480  1.00  0.00    -0.404 N 
HETATM   44  C1  UNL     1       6.203   3.142   1.237  1.00  0.00     0.144 C 
HETATM   45  C2  UNL     1       7.813   1.341   1.371  1.00  0.00     0.144 C 
ENDBRANCH  37  43
ENDBRANCH  31  33
ENDBRANCH  30  31
ENDBRANCH   1  30
BRANCH   1  46
HETATM   46  C20 UNL     1       1.091  -2.624   0.903  1.00  0.00    -0.014 C 
HETATM   47  C21 UNL     1       1.154  -3.717   0.205  1.00  0.00    -0.001 C 
HETATM   48  C23 UNL     1       1.833  -4.957   0.818  1.00  0.00     0.128 C 
HETATM   49  S1  UNL     1       0.710  -5.565   2.147  1.00  0.00    -0.093 SA
HETATM   50  S2  UNL     1       0.555  -3.758   3.343  1.00  0.00    -0.093 SA
HETATM   51  C24 UNL     1       1.615  -2.622   2.337  1.00  0.00     0.127 C 
BRANCH  47  52
HETATM   52  C22 UNL     1       0.636  -3.868  -1.129  1.00  0.00     0.267 C 
HETATM   53  O12 UNL     1       0.811  -5.052  -1.632  1.00  0.00    -0.302 OA
ENDBRANCH  47  52
ENDBRANCH   1  46
TORSDOF 17
