REMARK  7 active torsions:
REMARK  status: ('A' for Active; 'I' for Inactive)
REMARK    1  A    between atoms: C2_2  and  C5_5 
REMARK       I    between atoms: C5_5  and  N1_7 
REMARK    2  A    between atoms: N1_7  and  C6_9 
REMARK    3  A    between atoms: C6_9  and  N2_11 
REMARK    4  A    between atoms: N2_11  and  C7_13 
REMARK    5  A    between atoms: C7_13  and  C8_14 
REMARK       I    between atoms: C8_14  and  N3_16 
REMARK    6  A    between atoms: N3_16  and  C9_18 
REMARK    7  A    between atoms: C16_25  and  C17_26 
ROOT
HETATM    1  C7  UNL     1      -0.339   0.129   0.157  1.00  0.00     0.113 C 
HETATM    2  C14 UNL     1      -0.569   0.798   1.468  1.00  0.00     0.041 C 
HETATM    3  C15 UNL     1      -1.077   2.203   1.090  1.00  0.00     0.008 C 
HETATM    4  C16 UNL     1      -1.944   1.863  -0.070  1.00  0.00    -0.008 C 
HETATM    5  C22 UNL     1      -1.142   0.937  -0.895  1.00  0.00     0.046 C 
ENDROOT
BRANCH   1   6
HETATM    6  N2  UNL     1       1.053   0.172  -0.187  1.00  0.00    -0.349 N 
ATOM      7  H2  UNL     1       1.310   0.675  -1.036  1.00  0.00     0.163 HD
BRANCH   6   8
HETATM    8  C6  UNL     1       2.100  -0.426   0.555  1.00  0.00     0.175 C 
HETATM    9  S1  UNL     1       1.851  -1.253   1.950  1.00  0.00    -0.041 SA
BRANCH   8  10
HETATM   10  N1  UNL     1       3.458  -0.334   0.131  1.00  0.00    -0.303 N 
HETATM   11  C5  UNL     1       4.544  -0.903   0.835  1.00  0.00     0.231 C 
HETATM   12  O1  UNL     1       4.368  -1.539   1.905  1.00  0.00    -0.272 OA
ATOM     13  H1  UNL     1       3.658   0.172  -0.732  1.00  0.00     0.171 HD
BRANCH  11  14
HETATM   14  C2  UNL     1       5.938  -0.760   0.320  1.00  0.00     0.030 C 
HETATM   15  C1  UNL     1       6.892  -1.452   1.253  1.00  0.00     0.025 C 
HETATM   16  C3  UNL     1       6.077  -1.391  -1.047  1.00  0.00     0.025 C 
HETATM   17  C4  UNL     1       6.259   0.719   0.296  1.00  0.00     0.025 C 
ENDBRANCH  11  14
ENDBRANCH   8  10
ENDBRANCH   6   8
ENDBRANCH   1   6
BRANCH   1  18
HETATM   18  C8  UNL     1      -0.795  -1.292   0.108  1.00  0.00     0.246 C 
HETATM   19  O2  UNL     1       0.012  -2.167  -0.291  1.00  0.00    -0.271 OA
HETATM   20  N3  UNL     1      -2.117  -1.667   0.502  1.00  0.00    -0.354 N 
ATOM     21  H3  UNL     1      -2.769  -0.953   0.826  1.00  0.00     0.162 HD
BRANCH  20  22
HETATM   22  C9  UNL     1      -2.539  -3.051   0.446  1.00  0.00     0.084 C 
HETATM   23  C10 UNL     1      -3.083  -3.539   1.769  1.00  0.00     0.025 C 
HETATM   24  C11 UNL     1      -4.536  -3.890   1.526  1.00  0.00     0.002 C 
HETATM   25  C12 UNL     1      -4.512  -4.279   0.061  1.00  0.00     0.002 C 
HETATM   26  C13 UNL     1      -3.703  -3.151  -0.540  1.00  0.00     0.025 C 
ENDBRANCH  20  22
ENDBRANCH   1  18
BRANCH   4  27
HETATM   27  C17 UNL     1      -2.398   3.102  -0.798  1.00  0.00    -0.010 C 
HETATM   28  C18 UNL     1      -1.285   3.933  -1.344  1.00  0.00     0.005 C 
HETATM   29  C19 UNL     1      -2.061   4.916  -2.233  1.00  0.00     0.000 C 
HETATM   30  C20 UNL     1      -3.295   4.160  -2.684  1.00  0.00     0.000 C 
HETATM   31  C21 UNL     1      -3.208   2.784  -2.020  1.00  0.00     0.005 C 
ENDBRANCH   4  27
TORSDOF 7
