REMARK  6 active torsions:
REMARK  status: ('A' for Active; 'I' for Inactive)
REMARK    1  A    between atoms: N1_1  and  C1_5 
REMARK    2  A    between atoms: C1_5  and  C2_6 
REMARK    3  A    between atoms: C2_6  and  C3_7 
REMARK    4  A    between atoms: C6_10  and  N2_11 
REMARK       I    between atoms: N2_11  and  C7_13 
REMARK    5  A    between atoms: C7_13  and  C8_15 
REMARK    6  A    between atoms: C18_25  and  C19_26 
ROOT
HETATM    1  C3  UNL     1      -2.802  -0.561  -0.966  1.00  0.00    -0.002 C 
HETATM    2  C4  UNL     1      -2.075   0.285  -1.935  1.00  0.00     0.007 C 
HETATM    3  C5  UNL     1      -0.683  -0.029  -2.271  1.00  0.00     0.026 C 
HETATM    4  C6  UNL     1       0.057  -1.100  -1.594  1.00  0.00     0.097 C 
HETATM    5  C18 UNL     1      -0.803  -1.995  -0.752  1.00  0.00     0.116 C 
HETATM    6  C20 UNL     1      -1.898  -1.268  -0.051  1.00  0.00     0.021 C 
ENDROOT
BRANCH   4   7
HETATM    7  N2  UNL     1       1.144  -0.522  -0.802  1.00  0.00    -0.355 N 
HETATM    8  C7  UNL     1       2.450  -1.013  -0.781  1.00  0.00     0.226 C 
HETATM    9  O1  UNL     1       2.745  -2.016  -1.469  1.00  0.00    -0.273 OA
ATOM     10  H2  UNL     1       0.933   0.294  -0.227  1.00  0.00     0.162 HD
BRANCH   8  11
HETATM   11  C8  UNL     1       3.504  -0.369   0.036  1.00  0.00     0.042 C 
HETATM   12  C9  UNL     1       4.464  -1.395   0.620  1.00  0.00     0.024 C 
HETATM   13  C10 UNL     1       5.611  -0.686   1.262  1.00  0.00    -0.013 C 
HETATM   14  C11 UNL     1       6.382   0.169   0.274  1.00  0.00     0.009 C 
HETATM   15  C15 UNL     1       5.146   0.188   2.379  1.00  0.00     0.009 C 
HETATM   16  C12 UNL     1       5.421   1.224  -0.224  1.00  0.00    -0.013 C 
HETATM   17  C13 UNL     1       4.878   2.094   0.890  1.00  0.00     0.009 C 
HETATM   18  C17 UNL     1       4.277   0.550  -0.901  1.00  0.00     0.024 C 
HETATM   19  C14 UNL     1       4.131   1.172   1.846  1.00  0.00    -0.013 C 
HETATM   20  C16 UNL     1       2.978   0.477   1.154  1.00  0.00     0.024 C 
ENDBRANCH   8  11
ENDBRANCH   4   7
BRANCH   5  21
HETATM   21  C19 UNL     1      -1.281  -3.240  -1.452  1.00  0.00     0.393 C 
HETATM   22  F1  UNL     1      -2.076  -3.982  -0.600  1.00  0.00    -0.171 F 
HETATM   23  F2  UNL     1      -1.983  -3.019  -2.608  1.00  0.00    -0.171 F 
HETATM   24  F3  UNL     1      -0.170  -4.006  -1.850  1.00  0.00    -0.171 F 
ENDBRANCH   5  21
BRANCH   1  25
HETATM   25  C2  UNL     1      -3.930   0.153  -0.252  1.00  0.00     0.011 C 
HETATM   26  C21 UNL     1      -3.432   1.293   0.604  1.00  0.00     0.015 C 
HETATM   27  C22 UNL     1      -4.578   1.933   1.385  1.00  0.00     0.028 C 
HETATM   28  C23 UNL     1      -5.454   0.952   2.073  1.00  0.00     0.232 C 
HETATM   29  N3  UNL     1      -5.804  -0.182   1.291  1.00  0.00    -0.074 N 
HETATM   30  C24 UNL     1      -4.677  -0.835   0.666  1.00  0.00     0.243 C 
ATOM     31  H32 UNL     1      -6.341  -0.848   1.846  1.00  0.00     0.277 HD
ATOM     32  H31 UNL     1      -6.506   0.067   0.594  1.00  0.00     0.277 HD
BRANCH  25  33
HETATM   33  C1  UNL     1      -4.990   0.677  -1.175  1.00  0.00     0.241 C 
BRANCH  33  34
HETATM   34  N1  UNL     1      -4.596   1.627  -2.142  1.00  0.00    -0.079 N 
ATOM     35  H13 UNL     1      -4.134   2.410  -1.679  1.00  0.00     0.274 HD
ATOM     36  H12 UNL     1      -3.825   1.249  -2.692  1.00  0.00     0.274 HD
ATOM     37  H11 UNL     1      -5.317   1.983  -2.770  1.00  0.00     0.274 HD
ENDBRANCH  33  34
ENDBRANCH  25  33
ENDBRANCH   1  25
TORSDOF 6
