REMARK  7 active torsions:
REMARK  status: ('A' for Active; 'I' for Inactive)
REMARK    1  A    between atoms: C2_2  and  C4_4 
REMARK    2  A    between atoms: C7_7  and  N1_8 
REMARK    3  A    between atoms: N1_8  and  C8_11 
REMARK    4  A    between atoms: C8_11  and  C9_12 
REMARK    5  A    between atoms: C10_16  and  C11_17 
REMARK    6  A    between atoms: C11_17  and  N3_18 
REMARK    7  A    between atoms: C16_24  and  O3_25 
ROOT
HETATM    1  C9  UNL     1      -1.048   0.165  -0.380  1.00  0.00     0.137 A 
HETATM    2  O1  UNL     1      -1.609  -0.766  -1.089  1.00  0.00    -0.237 OA
HETATM    3  N2  UNL     1      -2.912  -0.672  -1.034  1.00  0.00    -0.261 N 
ATOM      4  H2  UNL     1      -3.562  -1.296  -1.513  1.00  0.00     0.194 HD
HETATM    5  C10 UNL     1      -3.272   0.361  -0.259  1.00  0.00     0.096 A 
HETATM    6  C16 UNL     1      -2.065   0.905   0.167  1.00  0.00     0.125 A 
ENDROOT
BRANCH   1   7
HETATM    7  C8  UNL     1       0.409   0.450  -0.147  1.00  0.00     0.302 C 
BRANCH   7   8
HETATM    8  N1  UNL     1       1.246  -0.481  -0.839  1.00  0.00    -0.065 N 
ATOM      9  H12 UNL     1       1.033  -0.524  -1.836  1.00  0.00     0.278 HD
ATOM     10  H11 UNL     1       1.026  -1.448  -0.601  1.00  0.00     0.278 HD
BRANCH   8  11
HETATM   11  C7  UNL     1       2.617  -0.163  -0.593  1.00  0.00     0.186 C 
HETATM   12  C6  UNL     1       3.024  -0.274   0.863  1.00  0.00     0.034 C 
HETATM   13  C5  UNL     1       4.536  -0.260   1.001  1.00  0.00     0.011 C 
HETATM   14  C4  UNL     1       5.181   0.461  -0.167  1.00  0.00     0.013 C 
HETATM   15  C18 UNL     1       4.881  -0.169  -1.493  1.00  0.00     0.011 C 
HETATM   16  C17 UNL     1       3.600  -0.993  -1.378  1.00  0.00     0.034 C 
BRANCH  14  17
HETATM   17  C2  UNL     1       6.646   0.453   0.031  1.00  0.00    -0.089 C 
HETATM   18  C1  UNL     1       7.275   1.608   0.191  1.00  0.00     0.014 C 
HETATM   19  C3  UNL     1       7.443  -0.797   0.057  1.00  0.00     0.043 C 
ENDBRANCH  14  17
ENDBRANCH   8  11
ENDBRANCH   7   8
ENDBRANCH   1   7
BRANCH   6  20
HETATM   20  O3  UNL     1      -1.950   2.008   1.000  1.00  0.00    -0.356 OA
ATOM     21  H3  UNL     1      -2.654   2.521   1.379  1.00  0.00     0.218 HD
ENDBRANCH   6  20
BRANCH   5  22
HETATM   22  C11 UNL     1      -4.602   0.888   0.106  1.00  0.00     0.334 C 
BRANCH  22  23
HETATM   23  N3  UNL     1      -5.716   0.174  -0.431  1.00  0.00     0.098 N 
HETATM   24  C12 UNL     1      -6.909   0.935  -0.019  1.00  0.00     0.299 C 
HETATM   25  C13 UNL     1      -8.021   0.034   0.448  1.00  0.00     0.198 C 
HETATM   26  O2  UNL     1      -8.103  -1.030  -0.447  1.00  0.00    -0.388 OA
HETATM   27  C14 UNL     1      -7.050  -1.880  -0.142  1.00  0.00     0.198 C 
HETATM   28  C15 UNL     1      -5.828  -1.099   0.304  1.00  0.00     0.299 C 
ENDBRANCH  22  23
ENDBRANCH   5  22
TORSDOF 7
