REMARK  7 active torsions:
REMARK  status: ('A' for Active; 'I' for Inactive)
REMARK    1  A    between atoms: N1_2  and  C3_4 
REMARK    2  A    between atoms: C6_13  and  N5_14 
REMARK    3  A    between atoms: N5_14  and  C7_16 
REMARK    4  A    between atoms: C16_29  and  C17_30 
REMARK    5  A    between atoms: C17_30  and  C18_31 
REMARK    6  A    between atoms: C21_34  and  C22_35 
REMARK    7  A    between atoms: C27_40  and  N7_41 
ROOT
HETATM    1  C3  UNL     1      -3.210  -2.194  -2.143  1.00  0.00     0.125 A 
HETATM    2  N2  UNL     1      -4.465  -2.070  -2.370  1.00  0.00    -0.328 N 
ATOM      3  H2  UNL     1      -4.976  -2.638  -3.046  1.00  0.00     0.169 HD
HETATM    4  C4  UNL     1      -5.070  -1.054  -1.576  1.00  0.00     0.121 A 
HETATM    5  N3  UNL     1      -6.350  -0.597  -1.497  1.00  0.00    -0.338 N 
ATOM      6  H3  UNL     1      -7.088  -0.997  -2.077  1.00  0.00     0.168 HD
HETATM    7  C5  UNL     1      -6.611   0.392  -0.636  1.00  0.00     0.183 A 
HETATM    8  N4  UNL     1      -5.656   0.939   0.142  1.00  0.00    -0.338 N 
ATOM      9  H4  UNL     1      -5.907   1.692   0.783  1.00  0.00     0.168 HD
HETATM   10  C6  UNL     1      -4.387   0.519   0.094  1.00  0.00     0.120 A 
HETATM   11  C13 UNL     1      -4.084  -0.512  -0.795  1.00  0.00     0.076 A 
HETATM   12  C14 UNL     1      -2.839  -1.231  -1.132  1.00  0.00     0.181 A 
HETATM   13  N6  UNL     1      -1.835  -0.285  -1.540  1.00  0.00    -0.327 N 
ATOM     14  H6  UNL     1      -2.056   0.598  -2.001  1.00  0.00     0.165 HD
HETATM   15  C15 UNL     1      -0.505  -0.693  -1.242  1.00  0.00     0.260 C 
HETATM   16  O1  UNL     1       0.413  -0.442  -2.091  1.00  0.00    -0.267 OA
HETATM   17  C16 UNL     1      -0.385  -1.351   0.016  1.00  0.00     0.072 C 
HETATM   18  S1  UNL     1      -2.065  -1.962   0.338  1.00  0.00    -0.079 SA
ENDROOT
BRANCH   1  19
HETATM   19  N1  UNL     1      -2.419  -3.164  -2.843  1.00  0.00    -0.376 N 
HETATM   20  C1  UNL     1      -1.525  -4.059  -2.142  1.00  0.00     0.150 C 
HETATM   21  C2  UNL     1      -2.522  -3.249  -4.293  1.00  0.00     0.150 C 
ENDBRANCH   1  19
BRANCH  10  22
HETATM   22  N5  UNL     1      -3.446   0.991   0.796  1.00  0.00    -0.342 N 
ATOM     23  H5  UNL     1      -2.504   0.612   0.697  1.00  0.00     0.167 HD
BRANCH  22  24
HETATM   24  C7  UNL     1      -3.689   2.054   1.730  1.00  0.00     0.033 A 
HETATM   25  C8  UNL     1      -3.579   3.377   1.384  1.00  0.00     0.031 A 
HETATM   26  C9  UNL     1      -3.816   4.371   2.298  1.00  0.00     0.026 A 
HETATM   27  C10 UNL     1      -4.171   4.029   3.582  1.00  0.00     0.034 A 
HETATM   28 CL1  UNL     1      -4.482   5.306   4.774  1.00  0.00    -0.084 Cl
HETATM   29  C11 UNL     1      -4.292   2.710   3.967  1.00  0.00     0.026 A 
HETATM   30  C12 UNL     1      -4.046   1.743   3.022  1.00  0.00     0.031 A 
ENDBRANCH  22  24
ENDBRANCH  10  22
BRANCH  17  31
HETATM   31  C17 UNL     1       0.620  -1.531   0.811  1.00  0.00     0.035 C 
BRANCH  31  32
HETATM   32  C18 UNL     1       1.975  -1.082   0.610  1.00  0.00    -0.035 A 
HETATM   33  C19 UNL     1       2.762  -1.403  -0.440  1.00  0.00     0.012 A 
HETATM   34  C20 UNL     1       4.051  -0.873  -0.550  1.00  0.00     0.013 A 
HETATM   35  C21 UNL     1       4.571  -0.008   0.406  1.00  0.00    -0.024 A 
HETATM   36  C28 UNL     1       3.749   0.296   1.459  1.00  0.00     0.013 A 
HETATM   37  C29 UNL     1       2.480  -0.213   1.582  1.00  0.00     0.012 A 
BRANCH  35  38
HETATM   38  C22 UNL     1       5.896   0.552   0.232  1.00  0.00     0.007 A 
HETATM   39  C23 UNL     1       6.164   1.252  -0.957  1.00  0.00     0.015 A 
HETATM   40  C24 UNL     1       7.344   1.857  -1.231  1.00  0.00     0.001 A 
HETATM   41  C25 UNL     1       8.361   1.795  -0.299  1.00  0.00     0.002 A 
HETATM   42  C26 UNL     1       8.141   1.120   0.876  1.00  0.00     0.037 A 
HETATM   43  C27 UNL     1       6.913   0.493   1.153  1.00  0.00     0.114 A 
BRANCH  43  44
HETATM   44  N7  UNL     1       6.784  -0.185   2.376  1.00  0.00    -0.115 N 
HETATM   45  O2  UNL     1       7.472   0.237   3.360  1.00  0.00    -0.532 OA
HETATM   46  O3  UNL     1       5.994  -1.254   2.631  1.00  0.00    -0.532 OA
ENDBRANCH  43  44
ENDBRANCH  35  38
ENDBRANCH  31  32
ENDBRANCH  17  31
TORSDOF 7
