REMARK  6 active torsions:
REMARK  status: ('A' for Active; 'I' for Inactive)
REMARK    1  A    between atoms: C8_10  and  N1_11 
REMARK       I    between atoms: N1_11  and  C9_13 
REMARK    2  A    between atoms: C9_13  and  C10_15 
REMARK    3  A    between atoms: C16_21  and  C17_22 
REMARK    4  A    between atoms: C23_33  and  O4_34 
REMARK    5  A    between atoms: O4_34  and  C24_35 
REMARK    6  A    between atoms: C30_41  and  O5_42 
ROOT
HETATM    1  C1  UNL     1       4.279  -4.653   1.050  1.00  0.00     0.010 C 
HETATM    2  C2  UNL     1       4.583  -3.632  -0.025  1.00  0.00    -0.014 C 
HETATM    3  C3  UNL     1       3.577  -3.732  -1.169  1.00  0.00     0.023 C 
HETATM    4  C4  UNL     1       2.648  -2.540  -0.894  1.00  0.00     0.092 C 
HETATM    5  S1  UNL     1       1.541  -3.057   0.440  1.00  0.00    -0.121 SA
HETATM    6  C5  UNL     1       0.066  -2.012   0.333  1.00  0.00     0.021 A 
HETATM    7  C6  UNL     1      -0.930  -2.655   0.991  1.00  0.00     0.064 A 
HETATM    8  C7  UNL     1      -2.145  -2.053   1.057  1.00  0.00     0.145 A 
HETATM    9  F1  UNL     1      -3.131  -2.733   1.731  1.00  0.00    -0.204 F 
HETATM   10  C8  UNL     1      -2.352  -0.850   0.485  1.00  0.00     0.086 A 
HETATM   11  C16 UNL     1      -1.358  -0.110  -0.222  1.00  0.00     0.024 A 
HETATM   12  C21 UNL     1      -0.149  -0.762  -0.262  1.00  0.00     0.070 A 
HETATM   13  C22 UNL     1       0.737   0.106  -1.022  1.00  0.00     0.298 C 
HETATM   14  O2  UNL     1       0.151   0.675  -1.926  1.00  0.00    -0.259 OA
HETATM   15  O3  UNL     1       2.112   0.354  -0.851  1.00  0.00    -0.282 OA
HETATM   16  C23 UNL     1       3.161  -0.202  -0.055  1.00  0.00     0.305 C 
HETATM   17  C30 UNL     1       3.652  -1.500  -0.510  1.00  0.00     0.121 C 
HETATM   18  C31 UNL     1       4.496  -2.206   0.496  1.00  0.00     0.048 C 
ENDROOT
BRANCH  10  19
HETATM   19  N1  UNL     1      -3.654  -0.292   0.601  1.00  0.00    -0.323 N 
HETATM   20  C9  UNL     1      -4.683  -0.628  -0.319  1.00  0.00     0.226 C 
HETATM   21  O1  UNL     1      -4.464  -1.448  -1.276  1.00  0.00    -0.273 OA
ATOM     22  H1  UNL     1      -3.853   0.361   1.358  1.00  0.00     0.169 HD
BRANCH  20  23
HETATM   23  C10 UNL     1      -6.047  -0.063  -0.231  1.00  0.00     0.078 C 
HETATM   24  C11 UNL     1      -6.701  -0.403   1.100  1.00  0.00     0.014 C 
HETATM   25  C12 UNL     1      -8.015   0.349   1.142  1.00  0.00     0.001 C 
HETATM   26  C13 UNL     1      -8.932  -0.220   0.088  1.00  0.00     0.000 C 
HETATM   27  C14 UNL     1      -8.288   0.030  -1.262  1.00  0.00     0.001 C 
HETATM   28  C15 UNL     1      -6.926  -0.584  -1.365  1.00  0.00     0.014 C 
ENDBRANCH  20  23
ENDBRANCH  10  19
BRANCH  11  29
HETATM   29  C17 UNL     1      -1.689   1.179  -0.727  1.00  0.00     0.011 A 
HETATM   30  C18 UNL     1      -2.472   1.514  -1.772  1.00  0.00     0.121 A 
HETATM   31  N2  UNL     1      -2.570   2.857  -1.837  1.00  0.00    -0.310 N 
HETATM   32  N3  UNL     1      -1.863   3.391  -0.853  1.00  0.00    -0.307 N 
ATOM     33  H2  UNL     1      -3.103   3.378  -2.533  1.00  0.00     0.186 HD
HETATM   34  C19 UNL     1      -1.713   4.807  -0.582  1.00  0.00     0.177 C 
HETATM   35  C20 UNL     1      -1.320   2.366  -0.169  1.00  0.00     0.123 A 
ENDBRANCH  11  29
BRANCH  16  36
HETATM   36  O4  UNL     1       4.180   0.746  -0.123  1.00  0.00    -0.352 OA
BRANCH  36  37
HETATM   37  C24 UNL     1       4.463   1.371   1.067  1.00  0.00     0.124 C 
HETATM   38  C25 UNL     1       5.936   1.236   1.357  1.00  0.00     0.032 C 
HETATM   39  C26 UNL     1       6.643   1.440   0.023  1.00  0.00     0.002 C 
HETATM   40  C27 UNL     1       6.182   2.721  -0.641  1.00  0.00     0.000 C 
HETATM   41  C28 UNL     1       5.421   3.574   0.361  1.00  0.00     0.002 C 
HETATM   42  C29 UNL     1       4.160   2.870   0.811  1.00  0.00     0.032 C 
ENDBRANCH  36  37
ENDBRANCH  16  36
BRANCH  17  43
HETATM   43  O5  UNL     1       4.443  -1.301  -1.664  1.00  0.00    -0.384 OA
ATOM     44  H5  UNL     1       5.081  -0.640  -1.420  1.00  0.00     0.210 HD
ENDBRANCH  17  43
TORSDOF 6
