REMARK  1 active torsions:
REMARK  status: ('A' for Active; 'I' for Inactive)
REMARK    1  A    between atoms: O1_2  and  N1_3 
ROOT
HETATM    1  N1  UNL     1       4.329   0.335   0.301  1.00  0.00    -0.273 N 
ATOM      2  H1  UNL     1       4.757   1.256   0.395  1.00  0.00     0.193 HD
HETATM    3  C2  UNL     1       3.102   0.273  -0.060  1.00  0.00     0.034 C 
HETATM    4  C3  UNL     1       2.374   1.527  -0.319  1.00  0.00     0.059 C 
HETATM    5  C4  UNL     1       0.900   1.420  -0.188  1.00  0.00     0.043 C 
HETATM    6  C5  UNL     1       0.229   2.684   0.295  1.00  0.00     0.174 C 
HETATM    7  F1  UNL     1       0.342   2.714   1.672  1.00  0.00    -0.249 F 
HETATM    8  C6  UNL     1      -1.237   2.583  -0.067  1.00  0.00     0.019 C 
HETATM    9  C7  UNL     1      -1.829   3.985  -0.133  1.00  0.00     0.013 C 
HETATM   10  C8  UNL     1      -1.995   1.752   0.943  1.00  0.00     0.034 C 
HETATM   11  C9  UNL     1      -3.377   1.500   0.476  1.00  0.00    -0.030 C 
HETATM   12  C10 UNL     1      -3.764   0.388  -0.122  1.00  0.00    -0.031 C 
HETATM   13  C11 UNL     1      -2.759  -0.684  -0.347  1.00  0.00     0.027 C 
HETATM   14  C12 UNL     1      -2.732  -1.669   0.794  1.00  0.00     0.004 C 
HETATM   15  C13 UNL     1      -2.548  -3.090   0.338  1.00  0.00     0.001 C 
HETATM   16  C14 UNL     1      -1.365  -3.343  -0.509  1.00  0.00     0.010 C 
HETATM   17  C15 UNL     1      -0.144  -2.534  -0.176  1.00  0.00     0.111 C 
HETATM   18  C16 UNL     1       0.573  -2.058  -1.385  1.00  0.00     0.259 C 
HETATM   19  O2  UNL     1       0.239  -2.505  -2.509  1.00  0.00    -0.265 OA
HETATM   20  O3  UNL     1       1.579  -1.148  -1.265  1.00  0.00    -0.316 OA
HETATM   21  C17 UNL     1       2.488  -1.059  -0.194  1.00  0.00     0.233 C 
ENDROOT
BRANCH   1  22
HETATM   22  O1  UNL     1       5.097  -0.764   0.567  1.00  0.00    -0.285 OA
HETATM   23  C1  UNL     1       6.479  -0.835   0.275  1.00  0.00     0.237 C 
ENDBRANCH   1  22
TORSDOF 1
