REMARK  5 active torsions:
REMARK  status: ('A' for Active; 'I' for Inactive)
REMARK    1  A    between atoms: C2_3  and  N2_4 
REMARK    2  A    between atoms: C3_8  and  C4_9 
REMARK    3  A    between atoms: C5_10  and  C6_11 
REMARK    4  A    between atoms: C6_11  and  O1_12 
REMARK    5  A    between atoms: O1_12  and  N3_13 
ROOT
HETATM    1  N1  UNL     1      -0.587   1.757   2.342  1.00  0.00    -0.194 NA
HETATM    2  C1  UNL     1      -0.749   0.889   1.590  1.00  0.00     0.103 C 
HETATM    3  C2  UNL     1      -0.931  -0.201   0.669  1.00  0.00     0.255 C 
HETATM    4  C3  UNL     1      -0.255   0.009  -0.666  1.00  0.00     0.254 C 
HETATM    5  O2  UNL     1      -0.889  -0.952  -1.453  1.00  0.00    -0.340 OA
HETATM    6  C7  UNL     1      -2.229  -0.620  -1.240  1.00  0.00     0.269 C 
HETATM    7  O3  UNL     1      -2.491   0.534  -1.921  1.00  0.00    -0.361 OA
HETATM    8  C8  UNL     1      -3.250   1.366  -1.151  1.00  0.00     0.171 C 
HETATM    9  C9  UNL     1      -3.150   0.912   0.278  1.00  0.00     0.039 C 
HETATM   10  C10 UNL     1      -2.389  -0.363   0.227  1.00  0.00     0.097 C 
ENDROOT
BRANCH   3  11
HETATM   11  N2  UNL     1      -0.529  -1.475   1.219  1.00  0.00    -0.053 N 
ATOM     12  H23 UNL     1       0.433  -1.439   1.556  1.00  0.00     0.276 HD
ATOM     13  H22 UNL     1      -1.008  -1.659   2.101  1.00  0.00     0.276 HD
ATOM     14  H21 UNL     1      -0.658  -2.248   0.566  1.00  0.00     0.276 HD
ENDBRANCH   3  11
BRANCH   4  15
HETATM   15  C4  UNL     1       1.174  -0.244  -0.516  1.00  0.00    -0.068 C 
HETATM   16  C5  UNL     1       2.360  -0.433  -0.391  1.00  0.00    -0.075 C 
BRANCH  16  17
HETATM   17  C6  UNL     1       3.803  -0.640  -0.235  1.00  0.00     0.294 C 
BRANCH  17  18
HETATM   18  O1  UNL     1       4.389   0.520   0.319  1.00  0.00    -0.275 OA
BRANCH  18  19
HETATM   19  N3  UNL     1       5.716   0.305   0.453  1.00  0.00    -0.310 N 
ATOM     20  H32 UNL     1       6.199  -0.555   0.193  1.00  0.00     0.184 HD
ATOM     21  H31 UNL     1       6.139   1.143   0.853  1.00  0.00     0.184 HD
ENDBRANCH  18  19
ENDBRANCH  17  18
ENDBRANCH  16  17
ENDBRANCH   4  15
TORSDOF 5
