REMARK  6 active torsions:
REMARK  status: ('A' for Active; 'I' for Inactive)
REMARK    1  A    between atoms: C2_2  and  N1_3 
REMARK    2  A    between atoms: C3_4  and  O1_5 
REMARK    3  A    between atoms: C6_9  and  O2_10 
REMARK    4  A    between atoms: C7_12  and  C8_13 
REMARK    5  A    between atoms: C8_13  and  C9_14 
REMARK    6  A    between atoms: C9_14  and  C10_15 
ROOT
HETATM    1  N1  UNL     1      -1.441  -2.847  -0.344  1.00  0.00    -0.308 N 
HETATM    2  C3  UNL     1      -0.107  -2.690  -0.291  1.00  0.00     0.151 A 
HETATM    3  C4  UNL     1       0.207  -1.355  -0.262  1.00  0.00     0.008 A 
HETATM    4  C5  UNL     1      -0.979  -0.671  -0.298  1.00  0.00     0.009 A 
HETATM    5  C6  UNL     1      -1.969  -1.596  -0.347  1.00  0.00     0.151 A 
HETATM    6  C7  UNL     1      -0.890   0.847  -0.268  1.00  0.00     0.032 C 
HETATM    7  C11 UNL     1       0.132   1.151  -1.321  1.00  0.00    -0.036 C 
HETATM    8  C12 UNL     1      -0.324   0.339  -2.552  1.00  0.00     0.016 C 
HETATM    9  C13 UNL     1       0.251   2.544  -1.810  1.00  0.00     0.016 C 
HETATM   10  C14 UNL     1       1.533   0.644  -0.889  1.00  0.00     0.002 C 
HETATM   11  C15 UNL     1       2.393   1.705  -0.322  1.00  0.00     0.006 C 
HETATM   12  C16 UNL     1       2.919   1.477   1.071  1.00  0.00     0.005 C 
HETATM   13  C17 UNL     1       3.281   0.026   1.287  1.00  0.00    -0.018 C 
HETATM   14  C18 UNL     1       3.990  -0.191   2.580  1.00  0.00     0.010 C 
HETATM   15  C19 UNL     1       1.908  -0.651   1.260  1.00  0.00     0.014 C 
HETATM   16  C20 UNL     1       1.516  -0.664  -0.204  1.00  0.00     0.029 C 
ENDROOT
BRANCH   6  17
HETATM   17  C8  UNL     1      -2.224   1.430  -0.447  1.00  0.00     0.020 C 
BRANCH  17  18
HETATM   18  C9  UNL     1      -2.456   2.886  -0.406  1.00  0.00     0.114 C 
BRANCH  18  19
HETATM   19  C10 UNL     1      -2.118   3.544   0.875  1.00  0.00     0.172 C 
HETATM   20  O3  UNL     1      -1.698   2.874   1.827  1.00  0.00    -0.648 OA
HETATM   21  O4  UNL     1      -2.276   4.905   0.991  1.00  0.00    -0.648 OA
ENDBRANCH  18  19
ENDBRANCH  17  18
ENDBRANCH   6  17
BRANCH   5  22
HETATM   22  O2  UNL     1      -3.306  -1.335  -0.394  1.00  0.00    -0.345 OA
ATOM     23  H2  UNL     1      -3.675  -0.460  -0.396  1.00  0.00     0.219 HD
ENDBRANCH   5  22
BRANCH   2  24
HETATM   24  O1  UNL     1       0.764  -3.796  -0.273  1.00  0.00    -0.345 OA
ATOM     25  H1  UNL     1       1.707  -3.685  -0.236  1.00  0.00     0.219 HD
ENDBRANCH   2  24
BRANCH   1  26
HETATM   26  C2  UNL     1      -2.177  -4.107  -0.388  1.00  0.00     0.129 C 
HETATM   27  C1  UNL     1      -2.517  -4.620   0.976  1.00  0.00     0.027 C 
ENDBRANCH   1  26
TORSDOF 6
