REMARK  4 active torsions:
REMARK  status: ('A' for Active; 'I' for Inactive)
REMARK    1  A    between atoms: C4_4  and  C5_5 
REMARK    2  A    between atoms: C5_5  and  C6_6 
REMARK    3  A    between atoms: C6_6  and  C7_7 
REMARK    4  A    between atoms: C8_8  and  C9_9 
ROOT
HETATM    1  C9  UNL     1      -1.822  -0.354   0.950  1.00  0.00     0.077 A 
HETATM    2  C10 UNL     1      -2.910  -1.084   0.164  1.00  0.00    -0.033 A 
HETATM    3  C11 UNL     1      -3.046  -2.454  -0.098  1.00  0.00     0.009 A 
HETATM    4  C12 UNL     1      -4.097  -2.943  -0.850  1.00  0.00     0.001 A 
HETATM    5  C13 UNL     1      -5.045  -2.052  -1.360  1.00  0.00     0.001 A 
HETATM    6  C14 UNL     1      -4.892  -0.712  -1.090  1.00  0.00     0.015 A 
HETATM    7  C15 UNL     1      -3.821  -0.239  -0.328  1.00  0.00     0.006 A 
HETATM    8  C16 UNL     1      -3.427   1.094   0.119  1.00  0.00     0.093 A 
HETATM    9  O1  UNL     1      -3.821   2.349   0.039  1.00  0.00    -0.321 OA
HETATM   10  C17 UNL     1      -3.017   3.128   0.689  1.00  0.00     0.143 A 
HETATM   11  C18 UNL     1      -2.008   2.378   1.251  1.00  0.00     0.035 A 
HETATM   12  C19 UNL     1      -2.282   1.048   0.871  1.00  0.00    -0.009 A 
ENDROOT
BRANCH   1  13
HETATM   13  C8  UNL     1      -0.539  -0.696   0.301  1.00  0.00    -0.017 C 
HETATM   14  C7  UNL     1       0.789  -0.325   0.742  1.00  0.00    -0.029 C 
BRANCH  14  15
HETATM   15  C6  UNL     1       1.205   1.095   0.905  1.00  0.00     0.031 C 
BRANCH  15  16
HETATM   16  C5  UNL     1       2.679   1.214   1.288  1.00  0.00     0.042 C 
BRANCH  16  17
HETATM   17  C4  UNL     1       3.604   0.639   0.298  1.00  0.00    -0.058 A 
HETATM   18  C3  UNL     1       4.086   1.372  -0.788  1.00  0.00     0.007 A 
HETATM   19  C2  UNL     1       4.968   0.817  -1.692  1.00  0.00     0.001 A 
HETATM   20  C1  UNL     1       5.406  -0.476  -1.558  1.00  0.00     0.000 A 
HETATM   21  C21 UNL     1       4.942  -1.215  -0.492  1.00  0.00     0.001 A 
HETATM   22  C20 UNL     1       4.067  -0.655   0.398  1.00  0.00     0.007 A 
ENDBRANCH  16  17
ENDBRANCH  15  16
ENDBRANCH  14  15
ENDBRANCH   1  13
TORSDOF 4
