REMARK  1 active torsions:
REMARK  status: ('A' for Active; 'I' for Inactive)
REMARK    1  A    between atoms: N1_2  and  C2_4 
ROOT
HETATM    1  C2  UNL     1      -0.172  -0.272   0.275  1.00  0.00     0.045 C 
HETATM    2  C3  UNL     1       0.076  -1.637   0.924  1.00  0.00     0.040 C 
HETATM    3  C4  UNL     1       0.866   0.650   0.860  1.00  0.00     0.058 C 
HETATM    4  C5  UNL     1       2.097   0.199   0.059  1.00  0.00     0.170 C 
HETATM    5  O1  UNL     1       1.663  -0.582  -0.972  1.00  0.00    -0.389 OA
HETATM    6  C6  UNL     1       0.283  -0.320  -1.152  1.00  0.00     0.197 C 
ENDROOT
BRANCH   1   7
HETATM    7  N1  UNL     1      -1.511   0.064   0.444  1.00  0.00    -0.415 N 
HETATM    8  C1  UNL     1      -2.037   1.172  -0.270  1.00  0.00     0.140 C 
ATOM      9  H1  UNL     1      -2.106  -0.477   1.071  1.00  0.00     0.153 HD
ENDBRANCH   1   7
TORSDOF 1
