REMARK  6 active torsions:
REMARK  status: ('A' for Active; 'I' for Inactive)
REMARK       I    between atoms: C2_2  and  N1_4 
REMARK    1  A    between atoms: N1_4  and  N2_6 
REMARK    2  A    between atoms: N2_6  and  C3_8 
REMARK    3  A    between atoms: C3_8  and  O2_9 
REMARK    4  A    between atoms: C3_8  and  C4_11 
REMARK    5  A    between atoms: N4_14  and  N5_15 
REMARK    6  A    between atoms: C7_21  and  N8_22 
ROOT
HETATM    1  C4  UNL     1      -0.356   0.208   0.000  1.00  0.00     0.105 A 
HETATM    2  C5  UNL     1      -1.507  -0.561  -0.237  1.00  0.00     0.174 A 
HETATM    3  N3  UNL     1      -1.453  -1.913  -0.645  1.00  0.00    -0.078 NA
HETATM    4  N4  UNL     1      -2.591   0.186  -0.018  1.00  0.00    -0.179 N 
HETATM    5  N7  UNL     1      -2.221   1.387   0.345  1.00  0.00    -0.262 N 
ATOM      6  H7  UNL     1      -2.849   2.158   0.573  1.00  0.00     0.191 HD
HETATM    7  C7  UNL     1      -0.826   1.442   0.369  1.00  0.00     0.133 A 
ENDROOT
BRANCH   1   8
HETATM    8  C3  UNL     1       1.000  -0.231  -0.121  1.00  0.00     0.172 C 
BRANCH   8   9
HETATM    9  N2  UNL     1       2.205   0.431   0.080  1.00  0.00    -0.277 N 
ATOM     10  H2  UNL     1       2.195   1.410   0.365  1.00  0.00     0.189 HD
BRANCH   9  11
HETATM   11  N1  UNL     1       3.448  -0.225  -0.103  1.00  0.00    -0.268 N 
HETATM   12  C2  UNL     1       4.511  -0.063   0.830  1.00  0.00     0.232 C 
HETATM   13  C1  UNL     1       5.805  -0.760   0.622  1.00  0.00     0.119 C 
HETATM   14  O1  UNL     1       4.417   0.660   1.855  1.00  0.00    -0.272 OA
ATOM     15  H1  UNL     1       3.583  -0.824  -0.918  1.00  0.00     0.190 HD
ENDBRANCH   9  11
ENDBRANCH   8   9
BRANCH   8  16
HETATM   16  O2  UNL     1       1.150  -1.475  -0.487  1.00  0.00    -0.344 OA
ATOM     17  H2  UNL     1       0.326  -1.928  -0.624  1.00  0.00     0.219 HD
ENDBRANCH   8  16
ENDBRANCH   1   8
BRANCH   7  18
HETATM   18  N8  UNL     1      -0.263   2.524   0.693  1.00  0.00    -0.384 N 
ATOM     19  H82 UNL     1       0.756   2.564   0.711  1.00  0.00     0.157 HD
ATOM     20  H81 UNL     1      -0.613   3.442   0.968  1.00  0.00     0.157 HD
ENDBRANCH   7  18
BRANCH   4  21
HETATM   21  N5  UNL     1      -3.903  -0.287  -0.175  1.00  0.00    -0.276 N 
HETATM   22  C6  UNL     1      -4.776   0.392  -0.852  1.00  0.00     0.208 C 
HETATM   23  N6  UNL     1      -6.081  -0.152  -0.965  1.00  0.00    -0.095 NA
ATOM     24  H5  UNL     1      -4.173  -1.175   0.248  1.00  0.00     0.189 HD
ENDBRANCH   4  21
TORSDOF 6
