REMARK  2 active torsions:
REMARK  status: ('A' for Active; 'I' for Inactive)
REMARK    1  A    between atoms: C3_3  and  C4_4 
REMARK    2  A    between atoms: N1_9  and  O1_11 
ROOT
HETATM    1  C1  UNL     1       4.349   1.143   0.259  1.00  0.00     0.112 C 
HETATM    2  C2  UNL     1       2.956   0.789  -0.073  1.00  0.00    -0.108 C 
HETATM    3  C3  UNL     1       1.810   0.513  -0.329  1.00  0.00    -0.063 C 
ENDROOT
BRANCH   3   4
HETATM    4  C4  UNL     1       0.397   0.195  -0.635  1.00  0.00     0.166 C 
HETATM    5  F1  UNL     1       0.136   0.758  -1.870  1.00  0.00    -0.229 F 
HETATM    6  C5  UNL     1      -0.505   0.802   0.444  1.00  0.00     0.063 C 
HETATM    7  C6  UNL     1      -1.931   0.637   0.032  1.00  0.00     0.058 C 
HETATM    8  C7  UNL     1      -2.176  -0.821  -0.178  1.00  0.00     0.010 C 
HETATM    9  N1  UNL     1      -3.359  -1.217  -0.534  1.00  0.00    -0.277 N 
HETATM   10  C8  UNL     1      -1.059  -1.742   0.031  1.00  0.00     0.058 C 
ATOM     11  H1  UNL     1      -3.536  -2.211  -0.679  1.00  0.00     0.193 HD
HETATM   12  C9  UNL     1       0.209  -1.288  -0.659  1.00  0.00     0.063 C 
BRANCH   9  13
HETATM   13  O1  UNL     1      -4.368  -0.317  -0.716  1.00  0.00    -0.290 OA
ATOM     14  H1  UNL     1      -5.234  -0.607  -0.977  1.00  0.00     0.244 HD
ENDBRANCH   9  13
ENDBRANCH   3   4
TORSDOF 2
