REMARK  9 active torsions:
REMARK  status: ('A' for Active; 'I' for Inactive)
REMARK    1  A    between atoms: C2_2  and  C3_3 
REMARK    2  A    between atoms: C3_3  and  C4_4 
REMARK    3  A    between atoms: C4_4  and  C5_5 
REMARK    4  A    between atoms: C5_5  and  C6_6 
REMARK    5  A    between atoms: C8_8  and  C9_9 
REMARK    6  A    between atoms: C14_16  and  O1_17 
REMARK    7  A    between atoms: C17_23  and  C18_24 
REMARK    8  A    between atoms: C18_24  and  C21_27 
REMARK    9  A    between atoms: C22_29  and  O3_30 
ROOT
HETATM    1  C6  UNL     1       1.134  -0.069  -0.542  1.00  0.00    -0.024 A 
HETATM    2  C7  UNL     1      -0.077  -0.727  -0.488  1.00  0.00     0.023 A 
HETATM    3  C8  UNL     1      -1.215  -0.085  -0.060  1.00  0.00    -0.003 A 
HETATM    4  C16 UNL     1      -1.144   1.234   0.320  1.00  0.00     0.032 A 
HETATM    5 BR1  UNL     1      -2.748   2.094   0.900  1.00  0.00    -0.049 Br
HETATM    6  C17 UNL     1       0.068   1.926   0.277  1.00  0.00     0.008 A 
HETATM    7  C22 UNL     1       1.202   1.276  -0.154  1.00  0.00     0.080 A 
ENDROOT
BRANCH   3   8
HETATM    8  C9  UNL     1      -2.510  -0.802  -0.009  1.00  0.00     0.025 A 
HETATM    9  C10 UNL     1      -3.317  -0.780  -1.125  1.00  0.00     0.018 A 
HETATM   10  C11 UNL     1      -2.924  -0.064  -2.362  1.00  0.00     0.069 C 
HETATM   11  N1  UNL     1      -4.504  -1.440  -1.071  1.00  0.00    -0.360 N 
HETATM   12  C12 UNL     1      -4.913  -2.106   0.022  1.00  0.00     0.041 A 
ATOM     13  H1  UNL     1      -5.108  -1.429  -1.893  1.00  0.00     0.165 HD
HETATM   14  C13 UNL     1      -6.205  -2.834   0.105  1.00  0.00     0.071 C 
HETATM   15  C14 UNL     1      -4.093  -2.120   1.135  1.00  0.00     0.113 A 
HETATM   16  C15 UNL     1      -2.858  -1.459   1.141  1.00  0.00     0.094 A 
HETATM   17  N2  UNL     1      -2.002  -1.453   2.251  1.00  0.00    -0.098 NA
BRANCH  15  18
HETATM   18  O1  UNL     1      -4.471  -2.787   2.272  1.00  0.00    -0.357 OA
ATOM     19  H1  UNL     1      -3.908  -2.797   3.037  1.00  0.00     0.218 HD
ENDBRANCH  15  18
ENDBRANCH   3   8
BRANCH   1  20
HETATM   20  C5  UNL     1       2.350  -0.790  -0.983  1.00  0.00     0.041 C 
BRANCH  20  21
HETATM   21  C4  UNL     1       3.173  -1.201   0.223  1.00  0.00     0.005 C 
BRANCH  21  22
HETATM   22  C3  UNL     1       4.422  -1.934  -0.176  1.00  0.00    -0.000 C 
BRANCH  22  23
HETATM   23  C2  UNL     1       5.327  -1.101  -1.050  1.00  0.00    -0.005 C 
HETATM   24  C1  UNL     1       6.537  -1.933  -1.378  1.00  0.00     0.005 C 
ENDBRANCH  22  23
ENDBRANCH  21  22
ENDBRANCH  20  21
ENDBRANCH   1  20
BRANCH   6  25
HETATM   25  C18 UNL     1       0.030   3.343   0.698  1.00  0.00     0.037 C 
HETATM   26  C19 UNL     1      -0.440   3.456   2.156  1.00  0.00     0.027 C 
HETATM   27  C20 UNL     1      -0.906   4.158  -0.190  1.00  0.00     0.027 C 
BRANCH  25  28
HETATM   28  C21 UNL     1       1.368   3.952   0.617  1.00  0.00     0.244 C 
HETATM   29  O2  UNL     1       1.607   4.798  -0.224  1.00  0.00    -0.306 OA
ENDBRANCH  25  28
ENDBRANCH   6  25
BRANCH   7  30
HETATM   30  O3  UNL     1       2.418   1.944  -0.213  1.00  0.00    -0.360 OA
ATOM     31  H3  UNL     1       2.464   2.856   0.050  1.00  0.00     0.217 HD
ENDBRANCH   7  30
TORSDOF 9
