REMARK  8 active torsions:
REMARK  status: ('A' for Active; 'I' for Inactive)
REMARK    1  A    between atoms: N1_1  and  C1_5 
REMARK    2  A    between atoms: C1_5  and  C2_6 
REMARK    3  A    between atoms: C1_5  and  C3_9 
REMARK    4  A    between atoms: N2_11  and  C5_12 
REMARK    5  A    between atoms: C6_13  and  O3_14 
REMARK    6  A    between atoms: C9_20  and  N4_21 
REMARK    7  A    between atoms: C10_28  and  O5_29 
REMARK    8  A    between atoms: C11_31  and  O6_32 
ROOT
HETATM    1  C5  UNL     1      -0.308   0.711  -0.960  1.00  0.00     0.171 C 
HETATM    2  C6  UNL     1      -0.695  -0.554  -1.688  1.00  0.00     0.162 C 
HETATM    3  C7  UNL     1      -1.972  -0.292  -2.436  1.00  0.00     0.176 C 
HETATM    4  N3  UNL     1      -3.142  -0.352  -1.596  1.00  0.00    -0.097 NA
HETATM    5  O4  UNL     1      -3.123   0.669  -0.687  1.00  0.00    -0.264 OA
HETATM    6  C8  UNL     1      -2.367   0.341   0.430  1.00  0.00     0.216 C 
HETATM    7  C9  UNL     1      -2.592  -1.002   1.023  1.00  0.00     0.426 C 
HETATM    8  N5  UNL     1      -2.894  -0.456   2.342  1.00  0.00    -0.014 N 
ATOM      9  H51 UNL     1      -2.250  -0.584   3.123  1.00  0.00     0.282 HD
ATOM     10  H52 UNL     1      -3.638  -0.852   2.916  1.00  0.00     0.282 HD
HETATM   11  C10 UNL     1      -3.049   0.833   1.712  1.00  0.00     0.365 C 
HETATM   12  C11 UNL     1      -0.975   0.859   0.370  1.00  0.00     0.190 C 
ENDROOT
BRANCH   1  13
HETATM   13  N2  UNL     1       1.127   0.758  -0.804  1.00  0.00    -0.277 N 
HETATM   14  C4  UNL     1       1.867  -0.126  -0.135  1.00  0.00     0.141 A 
HETATM   15  C3  UNL     1       3.181   0.278  -0.225  1.00  0.00     0.085 A 
HETATM   16  N7  UNL     1       3.183   1.400  -0.952  1.00  0.00    -0.286 N 
HETATM   17  N6  UNL     1       1.950   1.668  -1.287  1.00  0.00    -0.240 N 
ATOM     18  H7  UNL     1       4.005   1.951  -1.201  1.00  0.00     0.188 HD
ATOM     19  H6  UNL     1       1.663   2.471  -1.846  1.00  0.00     0.208 HD
BRANCH  15  20
HETATM   20  C1  UNL     1       4.347  -0.389   0.359  1.00  0.00     0.335 C 
BRANCH  20  21
HETATM   21  N1  UNL     1       5.391  -0.434  -0.639  1.00  0.00    -0.060 N 
ATOM     22  H13 UNL     1       5.768   0.497  -0.819  1.00  0.00     0.275 HD
ATOM     23  H12 UNL     1       6.231  -0.883  -0.273  1.00  0.00     0.275 HD
ATOM     24  H11 UNL     1       5.084  -0.879  -1.504  1.00  0.00     0.275 HD
ENDBRANCH  20  21
BRANCH  20  25
HETATM   25  C2  UNL     1       4.792   0.256   1.611  1.00  0.00     0.210 C 
HETATM   26  O1  UNL     1       3.993   0.362   2.557  1.00  0.00    -0.646 OA
HETATM   27  O2  UNL     1       6.083   0.731   1.715  1.00  0.00    -0.646 OA
ENDBRANCH  20  25
ENDBRANCH  15  20
ENDBRANCH   1  13
BRANCH   2  28
HETATM   28  O3  UNL     1       0.304  -0.762  -2.667  1.00  0.00    -0.392 OA
ATOM     29  H3  UNL     1       0.061  -1.558  -3.125  1.00  0.00     0.210 HD
ENDBRANCH   2  28
BRANCH  12  30
HETATM   30  O6  UNL     1      -0.247   0.306   1.414  1.00  0.00    -0.390 OA
ATOM     31  H6  UNL     1      -0.671   0.400   2.259  1.00  0.00     0.210 HD
ENDBRANCH  12  30
BRANCH   7  32
HETATM   32  N4  UNL     1      -3.796  -1.682   0.530  1.00  0.00    -0.047 N 
ATOM     33  H43 UNL     1      -4.618  -1.092   0.660  1.00  0.00     0.276 HD
ATOM     34  H42 UNL     1      -3.782  -1.739  -0.488  1.00  0.00     0.276 HD
ATOM     35  H41 UNL     1      -3.951  -2.604   0.937  1.00  0.00     0.276 HD
ENDBRANCH   7  32
BRANCH  11  36
HETATM   36  O5  UNL     1      -4.343   1.266   1.512  1.00  0.00    -0.367 OA
ATOM     37  H5  UNL     1      -4.766   1.571   2.306  1.00  0.00     0.212 HD
ENDBRANCH  11  36
TORSDOF 8
