REMARK  17 active torsions:
REMARK  status: ('A' for Active; 'I' for Inactive)
REMARK    1  A    between atoms: C5_5  and  C6_6 
REMARK    2  A    between atoms: C6_6  and  N1_7 
REMARK    3  A    between atoms: N1_7  and  C7_9 
REMARK    4  A    between atoms: C7_9  and  C8_10 
REMARK    5  A    between atoms: C11_13  and  N2_14 
REMARK    6  A    between atoms: N2_14  and  C12_17 
REMARK    7  A    between atoms: C12_17  and  C13_18 
REMARK    8  A    between atoms: C13_18  and  C14_19 
REMARK    9  A    between atoms: C14_19  and  N3_20 
REMARK   10  A    between atoms: N3_20  and  C15_22 
REMARK   11  A    between atoms: C15_22  and  C16_23 
REMARK   12  A    between atoms: C16_23  and  C17_24 
REMARK   13  A    between atoms: C17_24  and  C18_25 
REMARK   14  A    between atoms: C18_25  and  N4_26 
REMARK   15  A    between atoms: N4_26  and  C19_28 
REMARK   16  A    between atoms: C19_28  and  C20_29 
REMARK   17  A    between atoms: C20_29  and  N5_30 
ROOT
HETATM    1  N2  UNL     1      -0.535   1.495  -0.590  1.00  0.00    -0.071 N 
ATOM      2  H21 UNL     1      -0.652   2.504  -0.494  1.00  0.00     0.277 HD
ATOM      3  H22 UNL     1      -0.330   1.436  -1.587  1.00  0.00     0.277 HD
ENDROOT
BRANCH   1   4
HETATM    4  C11 UNL     1      -1.762   0.822  -0.295  1.00  0.00     0.186 C 
HETATM    5  C10 UNL     1      -2.904   1.838  -0.341  1.00  0.00     0.034 C 
HETATM    6  C9  UNL     1      -3.876   1.322  -1.388  1.00  0.00     0.012 C 
HETATM    7  C8  UNL     1      -3.695  -0.170  -1.249  1.00  0.00     0.026 C 
HETATM    8  C21 UNL     1      -2.140  -0.242  -1.258  1.00  0.00     0.042 C 
BRANCH   7   9
HETATM    9  C7  UNL     1      -4.163  -0.626   0.106  1.00  0.00     0.060 C 
BRANCH   9  10
HETATM   10  N1  UNL     1      -5.510  -0.352   0.390  1.00  0.00    -0.396 N 
ATOM     11  H1  UNL     1      -5.775   0.340   1.091  1.00  0.00     0.159 HD
BRANCH  10  12
HETATM   12  C6  UNL     1      -6.489  -1.080  -0.341  1.00  0.00     0.183 C 
BRANCH  12  13
HETATM   13  C5  UNL     1      -7.840  -0.625   0.172  1.00  0.00     0.070 A 
HETATM   14  C4  UNL     1      -8.958  -0.276  -0.525  1.00  0.00     0.037 A 
HETATM   15  C3  UNL     1      -9.910   0.060   0.428  1.00  0.00     0.035 A 
HETATM   16  C2  UNL     1      -9.324  -0.102   1.656  1.00  0.00     0.049 A 
HETATM   17  C1  UNL     1      -9.926   0.127   3.013  1.00  0.00     0.076 C 
HETATM   18  O1  UNL     1      -8.099  -0.507   1.473  1.00  0.00    -0.318 OA
ENDBRANCH  12  13
ENDBRANCH  10  12
ENDBRANCH   9  10
ENDBRANCH   7   9
ENDBRANCH   1   4
BRANCH   1  19
HETATM   19  C12 UNL     1       0.585   1.052   0.173  1.00  0.00     0.237 C 
BRANCH  19  20
HETATM   20  C13 UNL     1       1.085  -0.295  -0.250  1.00  0.00     0.072 C 
BRANCH  20  21
HETATM   21  C14 UNL     1       2.215  -0.829   0.571  1.00  0.00     0.061 C 
BRANCH  21  22
HETATM   22  N3  UNL     1       3.369  -0.067   0.706  1.00  0.00    -0.382 N 
ATOM     23  H3  UNL     1       3.598   0.297   1.631  1.00  0.00     0.163 HD
BRANCH  22  24
HETATM   24  C15 UNL     1       4.233   0.229  -0.349  1.00  0.00     0.060 C 
BRANCH  24  25
HETATM   25  C16 UNL     1       4.987  -0.907  -0.970  1.00  0.00     0.046 C 
BRANCH  25  26
HETATM   26  C17 UNL     1       5.945  -0.419  -2.048  1.00  0.00     0.024 C 
BRANCH  26  27
HETATM   27  C18 UNL     1       6.982   0.516  -1.408  1.00  0.00     0.114 C 
BRANCH  27  28
HETATM   28  N4  UNL     1       7.686  -0.171  -0.387  1.00  0.00    -0.420 N 
ATOM     29  H4  UNL     1       7.455  -1.141  -0.174  1.00  0.00     0.153 HD
BRANCH  28  30
HETATM   30  C19 UNL     1       8.701   0.482   0.331  1.00  0.00     0.141 C 
BRANCH  30  31
HETATM   31  C20 UNL     1       9.235  -0.499   1.393  1.00  0.00     0.248 C 
BRANCH  31  32
HETATM   32  N5  UNL     1      10.293   0.103   2.171  1.00  0.00    -0.078 N 
ATOM     33  H53 UNL     1      11.042   0.457   1.576  1.00  0.00     0.274 HD
ATOM     34  H52 UNL     1       9.997   0.985   2.589  1.00  0.00     0.274 HD
ATOM     35  H51 UNL     1      10.646  -0.546   2.874  1.00  0.00     0.274 HD
ENDBRANCH  31  32
ENDBRANCH  30  31
ENDBRANCH  28  30
ENDBRANCH  27  28
ENDBRANCH  26  27
ENDBRANCH  25  26
ENDBRANCH  24  25
ENDBRANCH  22  24
ENDBRANCH  21  22
ENDBRANCH  20  21
ENDBRANCH  19  20
ENDBRANCH   1  19
TORSDOF 17
