REMARK  17 active torsions:
REMARK  status: ('A' for Active; 'I' for Inactive)
REMARK    1  A    between atoms: C4_5  and  C5_6 
REMARK    2  A    between atoms: C5_6  and  N1_7 
REMARK    3  A    between atoms: N1_7  and  C6_10 
REMARK    4  A    between atoms: C6_10  and  C7_11 
REMARK    5  A    between atoms: C7_11  and  C8_12 
REMARK    6  A    between atoms: C8_12  and  C9_13 
REMARK    7  A    between atoms: C9_13  and  N2_14 
REMARK    8  A    between atoms: N2_14  and  C10_16 
REMARK    9  A    between atoms: C10_16  and  C11_17 
REMARK   10  A    between atoms: C11_17  and  C12_18 
REMARK   11  A    between atoms: C12_18  and  C13_19 
REMARK   12  A    between atoms: C13_19  and  N3_20 
REMARK   13  A    between atoms: N3_20  and  C14_23 
REMARK   14  A    between atoms: C14_23  and  C15_24 
REMARK   15  A    between atoms: C15_24  and  C16_25 
REMARK   16  A    between atoms: C16_25  and  N4_26 
REMARK   17  A    between atoms: N4_26  and  C17_28 
ROOT
HETATM    1  N2  UNL     1       1.795   1.023   1.201  1.00  0.00    -0.402 N 
ATOM      2  H2  UNL     1       2.079   0.986   2.180  1.00  0.00     0.158 HD
ENDROOT
BRANCH   1   3
HETATM    3  C9  UNL     1       2.679   1.419   0.175  1.00  0.00     0.055 C 
BRANCH   3   4
HETATM    4  C8  UNL     1       3.154   0.494  -0.863  1.00  0.00     0.046 C 
BRANCH   4   5
HETATM    5  C7  UNL     1       3.960  -0.679  -0.437  1.00  0.00     0.032 C 
BRANCH   5   6
HETATM    6  C6  UNL     1       5.156  -0.314   0.293  1.00  0.00     0.233 C 
BRANCH   6   7
HETATM    7  N1  UNL     1       6.137   0.488  -0.389  1.00  0.00    -0.071 N 
ATOM      8  H12 UNL     1       6.835   0.854   0.258  1.00  0.00     0.277 HD
ATOM      9  H11 UNL     1       5.740   1.371  -0.709  1.00  0.00     0.277 HD
BRANCH   7  10
HETATM   10  C5  UNL     1       6.757  -0.246  -1.484  1.00  0.00     0.272 C 
BRANCH  10  11
HETATM   11  C4  UNL     1       8.254  -0.137  -1.316  1.00  0.00    -0.017 A 
HETATM   12  C3  UNL     1       8.753   0.547  -0.191  1.00  0.00     0.015 A 
HETATM   13  C2  UNL     1      10.101   0.531   0.063  1.00  0.00     0.075 A 
HETATM   14  C1  UNL     1      10.926  -0.157  -0.812  1.00  0.00     0.245 A 
HETATM   15  O1  UNL     1      12.148  -0.133  -0.533  1.00  0.00    -0.268 OA
HETATM   16  N5  UNL     1      10.474  -0.812  -1.893  1.00  0.00    -0.333 N 
HETATM   17  C22 UNL     1       9.132  -0.798  -2.137  1.00  0.00     0.100 A 
ATOM     18  H5  UNL     1      11.115  -1.306  -2.514  1.00  0.00     0.168 HD
ENDBRANCH  10  11
ENDBRANCH   7  10
ENDBRANCH   6   7
ENDBRANCH   5   6
ENDBRANCH   4   5
ENDBRANCH   3   4
ENDBRANCH   1   3
BRANCH   1  19
HETATM   19  C10 UNL     1       0.490   0.681   0.780  1.00  0.00     0.118 C 
BRANCH  19  20
HETATM   20  C11 UNL     1       0.260  -0.822   0.678  1.00  0.00     0.021 C 
BRANCH  20  21
HETATM   21  C12 UNL     1      -1.090  -0.988   0.023  1.00  0.00     0.029 C 
BRANCH  21  22
HETATM   22  C13 UNL     1      -2.206  -0.298   0.653  1.00  0.00     0.232 C 
BRANCH  22  23
HETATM   23  N3  UNL     1      -2.679  -0.657   1.939  1.00  0.00    -0.075 N 
ATOM     24  H32 UNL     1      -3.031  -1.613   1.983  1.00  0.00     0.277 HD
ATOM     25  H31 UNL     1      -1.932  -0.761   2.626  1.00  0.00     0.277 HD
BRANCH  23  26
HETATM   26  C14 UNL     1      -3.693   0.357   2.330  1.00  0.00     0.237 C 
BRANCH  26  27
HETATM   27  C15 UNL     1      -4.813   0.269   1.326  1.00  0.00     0.071 C 
BRANCH  27  28
HETATM   28  C16 UNL     1      -5.947   1.236   1.640  1.00  0.00     0.057 C 
BRANCH  28  29
HETATM   29  N4  UNL     1      -6.939   1.336   0.672  1.00  0.00    -0.398 N 
ATOM     30  H4  UNL     1      -7.006   2.224   0.174  1.00  0.00     0.159 HD
BRANCH  29  31
HETATM   31  C17 UNL     1      -7.849   0.349   0.314  1.00  0.00     0.080 C 
HETATM   32  C18 UNL     1      -8.494   0.684  -1.062  1.00  0.00     0.025 C 
HETATM   33  C19 UNL     1      -9.150  -0.604  -1.484  1.00  0.00     0.002 C 
HETATM   34  C20 UNL     1      -8.542  -1.698  -0.674  1.00  0.00     0.002 C 
HETATM   35  C21 UNL     1      -7.404  -1.046   0.122  1.00  0.00     0.025 C 
ENDBRANCH  29  31
ENDBRANCH  28  29
ENDBRANCH  27  28
ENDBRANCH  26  27
ENDBRANCH  23  26
ENDBRANCH  22  23
ENDBRANCH  21  22
ENDBRANCH  20  21
ENDBRANCH  19  20
ENDBRANCH   1  19
TORSDOF 17
