REMARK  18 active torsions:
REMARK  status: ('A' for Active; 'I' for Inactive)
REMARK    1  A    between atoms: C2_2  and  C4_4 
REMARK    2  A    between atoms: C4_4  and  S1_5 
REMARK    3  A    between atoms: S1_5  and  C5_6 
REMARK    4  A    between atoms: C5_6  and  C6_7 
REMARK    5  A    between atoms: C6_7  and  C7_8 
REMARK    6  A    between atoms: C7_8  and  N2_12 
REMARK    7  A    between atoms: N2_12  and  C8_14 
REMARK    8  A    between atoms: C8_14  and  C9_15 
REMARK    9  A    between atoms: C9_15  and  C10_16 
REMARK   10  A    between atoms: C10_16  and  C11_17 
REMARK   11  A    between atoms: C11_17  and  N3_18 
REMARK   12  A    between atoms: N3_18  and  C12_21 
REMARK   13  A    between atoms: C12_21  and  C13_22 
REMARK   14  A    between atoms: C13_22  and  C14_23 
REMARK   15  A    between atoms: C14_23  and  N4_24 
REMARK   16  A    between atoms: N4_24  and  C15_27 
REMARK   17  A    between atoms: C15_27  and  C16_28 
REMARK   18  A    between atoms: C16_28  and  C17_29 
ROOT
HETATM    1  N3  UNL     1       0.103  -0.226   0.506  1.00  0.00    -0.075 N 
ATOM      2  H31 UNL     1      -0.189  -1.179   0.291  1.00  0.00     0.277 HD
ATOM      3  H32 UNL     1       0.236   0.112  -0.447  1.00  0.00     0.277 HD
ENDROOT
BRANCH   1   4
HETATM    4  C11 UNL     1       1.353  -0.200   1.271  1.00  0.00     0.236 C 
BRANCH   4   5
HETATM    5  C10 UNL     1       1.971   1.138   1.285  1.00  0.00     0.056 C 
BRANCH   5   6
HETATM    6  C9  UNL     1       2.293   1.822   0.047  1.00  0.00    -0.008 C 
BRANCH   6   7
HETATM    7  C8  UNL     1       3.260   1.413  -0.954  1.00  0.00     0.085 C 
BRANCH   7   8
HETATM    8  N2  UNL     1       3.240   0.246  -1.715  1.00  0.00    -0.356 N 
ATOM      9  H2  UNL     1       2.986   0.407  -2.690  1.00  0.00     0.166 HD
BRANCH   8  10
HETATM   10  C7  UNL     1       3.495  -1.105  -1.427  1.00  0.00     0.075 C 
HETATM   11  N1  UNL     1       2.563  -1.987  -1.755  1.00  0.00    -0.389 N 
ATOM     12  H12 UNL     1       2.748  -2.968  -1.546  1.00  0.00     0.157 HD
ATOM     13  H11 UNL     1       1.715  -1.608  -2.176  1.00  0.00     0.157 HD
BRANCH  10  14
HETATM   14  C6  UNL     1       4.711  -1.649  -0.824  1.00  0.00     0.086 C 
BRANCH  14  15
HETATM   15  C5  UNL     1       5.039  -1.227   0.567  1.00  0.00     0.081 C 
BRANCH  15  16
HETATM   16  S1  UNL     1       6.582  -2.043   1.033  1.00  0.00    -0.164 SA
BRANCH  16  17
HETATM   17  C4  UNL     1       7.943  -1.492   0.004  1.00  0.00     0.106 C 
BRANCH  17  18
HETATM   18  C2  UNL     1       8.324  -0.113   0.287  1.00  0.00    -0.084 C 
HETATM   19  C1  UNL     1       9.546   0.146   0.727  1.00  0.00     0.014 C 
HETATM   20  C3  UNL     1       7.424   1.030   0.078  1.00  0.00     0.043 C 
ENDBRANCH  17  18
ENDBRANCH  16  17
ENDBRANCH  15  16
ENDBRANCH  14  15
ENDBRANCH  10  14
ENDBRANCH   8  10
ENDBRANCH   7   8
ENDBRANCH   6   7
ENDBRANCH   5   6
ENDBRANCH   4   5
ENDBRANCH   1   4
BRANCH   1  21
HETATM   21  C12 UNL     1      -0.938   0.513   1.199  1.00  0.00     0.233 C 
BRANCH  21  22
HETATM   22  C13 UNL     1      -2.149   0.571   0.298  1.00  0.00     0.055 C 
BRANCH  22  23
HETATM   23  C14 UNL     1      -2.645  -0.786  -0.075  1.00  0.00     0.233 C 
BRANCH  23  24
HETATM   24  N4  UNL     1      -3.799  -0.686  -0.941  1.00  0.00    -0.075 N 
ATOM     25  H42 UNL     1      -3.595  -0.125  -1.768  1.00  0.00     0.277 HD
ATOM     26  H41 UNL     1      -3.999  -1.576  -1.397  1.00  0.00     0.277 HD
BRANCH  24  27
HETATM   27  C15 UNL     1      -4.955  -0.185  -0.239  1.00  0.00     0.234 C 
BRANCH  27  28
HETATM   28  C16 UNL     1      -6.129   0.007  -1.207  1.00  0.00     0.060 C 
BRANCH  28  29
HETATM   29  C17 UNL     1      -7.354   0.501  -0.487  1.00  0.00     0.187 C 
HETATM   30  C18 UNL     1      -7.814  -0.481   0.573  1.00  0.00     0.034 C 
HETATM   31  C19 UNL     1      -9.309  -0.206   0.592  1.00  0.00     0.029 C 
HETATM   32  C20 UNL     1      -9.619   0.091  -0.842  1.00  0.00     0.233 C 
HETATM   33  N5  UNL     1      -8.430   0.619  -1.421  1.00  0.00    -0.071 N 
ATOM     34  H52 UNL     1      -8.553   1.577  -1.749  1.00  0.00     0.277 HD
ATOM     35  H51 UNL     1      -8.212   0.185  -2.318  1.00  0.00     0.277 HD
ENDBRANCH  28  29
ENDBRANCH  27  28
ENDBRANCH  24  27
ENDBRANCH  23  24
ENDBRANCH  22  23
ENDBRANCH  21  22
ENDBRANCH   1  21
TORSDOF 18
