REMARK  16 active torsions:
REMARK  status: ('A' for Active; 'I' for Inactive)
REMARK    1  A    between atoms: N1_1  and  C1_4 
REMARK    2  A    between atoms: N3_8  and  C3_10 
REMARK    3  A    between atoms: C3_10  and  C4_11 
REMARK    4  A    between atoms: C4_11  and  C5_12 
REMARK    5  A    between atoms: C5_12  and  C6_13 
REMARK    6  A    between atoms: C6_13  and  C7_14 
REMARK    7  A    between atoms: C7_14  and  C8_15 
REMARK    8  A    between atoms: C8_15  and  C9_16 
REMARK    9  A    between atoms: C9_16  and  N4_17 
REMARK       I    between atoms: N4_17  and  C10_19 
REMARK   10  A    between atoms: C10_19  and  C11_21 
REMARK   11  A    between atoms: C11_21  and  N5_22 
REMARK   12  A    between atoms: C18_36  and  N9_37 
REMARK   13  A    between atoms: N9_37  and  C19_38 
REMARK   14  A    between atoms: C20_43  and  N12_44 
REMARK       I    between atoms: N12_44  and  C21_46 
REMARK   15  A    between atoms: C21_46  and  C22_48 
REMARK   16  A    between atoms: C24_55  and  N15_56 
ROOT
HETATM    1  C1  UNL     1       0.542  -2.104  -0.966  1.00  0.00     0.678 A 
HETATM    2  N2  UNL     1      -0.518  -1.590  -0.338  1.00  0.00    -0.174 N 
ATOM      3  H2  UNL     1      -1.395  -2.110  -0.352  1.00  0.00     0.186 HD
HETATM    4  C2  UNL     1      -0.474  -0.391   0.325  1.00  0.00     0.150 A 
HETATM    5  N3  UNL     1      -1.474   0.093   0.887  1.00  0.00    -0.354 N 
ATOM      6  H3  UNL     1      -2.268  -0.534   0.759  1.00  0.00     0.166 HD
HETATM    7  C16 UNL     1       0.767   0.250   0.291  1.00  0.00     0.110 A 
HETATM    8  N7  UNL     1       0.966   1.429   0.879  1.00  0.00    -0.347 N 
ATOM      9  H7  UNL     1       0.191   1.870   1.375  1.00  0.00     0.167 HD
HETATM   10  C17 UNL     1       2.153   2.055   0.840  1.00  0.00     0.183 A 
HETATM   11  N8  UNL     1       3.205   1.532   0.211  1.00  0.00    -0.325 N 
ATOM     12  H8  UNL     1       4.090   2.039   0.206  1.00  0.00     0.169 HD
HETATM   13  C18 UNL     1       3.117   0.316  -0.434  1.00  0.00     0.213 A 
HETATM   14  C26 UNL     1       1.841  -0.302  -0.362  1.00  0.00     0.138 A 
HETATM   15  N18 UNL     1       1.737  -1.476  -0.991  1.00  0.00    -0.185 N 
ATOM     16  H18 UNL     1       2.536  -1.885  -1.475  1.00  0.00     0.184 HD
ENDROOT
BRANCH  13  17
HETATM   17  N9  UNL     1       4.024  -0.193  -1.012  1.00  0.00    -0.348 NA
BRANCH  17  18
HETATM   18  C19 UNL     1       5.036  -0.763  -1.658  1.00  0.00     0.290 A 
HETATM   19  N10 UNL     1       5.130  -1.029  -3.008  1.00  0.00    -0.244 N 
HETATM   20  N11 UNL     1       6.279  -1.595  -3.258  1.00  0.00    -0.128 N 
ATOM     21  H10 UNL     1       4.414  -0.817  -3.702  1.00  0.00     0.191 HD
HETATM   22  C20 UNL     1       6.989  -1.733  -2.130  1.00  0.00     0.703 A 
ATOM     23  H11 UNL     1       6.593  -1.891  -4.182  1.00  0.00     0.205 HD
HETATM   24  N17 UNL     1       6.238  -1.230  -1.163  1.00  0.00    -0.146 N 
ATOM     25  H17 UNL     1       6.511  -1.192  -0.181  1.00  0.00     0.188 HD
BRANCH  22  26
HETATM   26  N12 UNL     1       8.190  -2.258  -2.030  1.00  0.00    -0.153 N 
HETATM   27  C21 UNL     1       8.741  -2.295  -0.721  1.00  0.00     0.288 C 
HETATM   28  O2  UNL     1       8.697  -3.329  -0.047  1.00  0.00    -0.265 OA
ATOM     29  H12 UNL     1       8.694  -2.616  -2.841  1.00  0.00     0.187 HD
BRANCH  27  30
HETATM   30  C22 UNL     1       9.356  -1.053  -0.228  1.00  0.00     0.133 A 
HETATM   31  N13 UNL     1       9.389   0.070  -0.950  1.00  0.00    -0.302 N 
HETATM   32  C23 UNL     1       9.957   1.200  -0.452  1.00  0.00     0.326 A 
ATOM     33  H13 UNL     1       8.983   0.080  -1.886  1.00  0.00     0.171 HD
HETATM   34  O3  UNL     1       9.989   2.251  -1.125  1.00  0.00    -0.247 OA
HETATM   35  N14 UNL     1      10.499   1.201   0.785  1.00  0.00    -0.293 N 
HETATM   36  C24 UNL     1      10.490   0.099   1.545  1.00  0.00     0.130 A 
ATOM     37  H14 UNL     1      10.922   2.056   1.146  1.00  0.00     0.172 HD
HETATM   38  C25 UNL     1       9.911  -1.038   1.030  1.00  0.00     0.122 A 
HETATM   39  N16 UNL     1       9.880  -2.245   1.799  1.00  0.00    -0.096 NA
BRANCH  36  40
HETATM   40  N15 UNL     1      11.018   0.136   2.705  1.00  0.00    -0.384 N 
ATOM     41 2H15 UNL     1      11.447   0.979   3.087  1.00  0.00     0.157 HD
ATOM     42 1H15 UNL     1      11.011  -0.704   3.284  1.00  0.00     0.157 HD
ENDBRANCH  36  40
ENDBRANCH  27  30
ENDBRANCH  22  26
ENDBRANCH  17  18
ENDBRANCH  13  17
BRANCH   1  43
HETATM   43  N1  UNL     1       0.494  -3.239  -1.592  1.00  0.00    -0.234 N 
ATOM     44  H12 UNL     1      -0.409  -3.713  -1.573  1.00  0.00     0.174 HD
ATOM     45  H11 UNL     1       1.304  -3.632  -2.072  1.00  0.00     0.174 HD
ENDBRANCH   1  43
BRANCH   5  46
HETATM   46  C3  UNL     1      -1.871   1.185   1.621  1.00  0.00     0.062 C 
BRANCH  46  47
HETATM   47  C4  UNL     1      -2.757   2.235   1.078  1.00  0.00     0.044 C 
BRANCH  47  48
HETATM   48  C5  UNL     1      -2.358   3.022  -0.102  1.00  0.00     0.005 C 
BRANCH  48  49
HETATM   49  C6  UNL     1      -2.176   2.302  -1.388  1.00  0.00     0.000 C 
BRANCH  49  50
HETATM   50  C7  UNL     1      -3.427   1.570  -1.827  1.00  0.00     0.002 C 
BRANCH  50  51
HETATM   51  C8  UNL     1      -4.562   2.530  -2.135  1.00  0.00     0.020 C 
BRANCH  51  52
HETATM   52  C9  UNL     1      -5.818   1.805  -2.491  1.00  0.00     0.123 C 
BRANCH  52  53
HETATM   53  N4  UNL     1      -6.326   1.004  -1.417  1.00  0.00    -0.356 N 
HETATM   54  C10 UNL     1      -6.747   1.542  -0.172  1.00  0.00     0.256 C 
HETATM   55  O1  UNL     1      -6.648   2.823  -0.064  1.00  0.00    -0.267 OA
ATOM     56  H4  UNL     1      -6.388  -0.005  -1.554  1.00  0.00     0.162 HD
BRANCH  54  57
HETATM   57  C11 UNL     1      -7.276   0.781   0.970  1.00  0.00     0.160 C 
BRANCH  57  58
HETATM   58  N5  UNL     1      -7.391  -0.588   0.878  1.00  0.00    -0.382 N 
HETATM   59  C12 UNL     1      -6.339  -1.491   0.859  1.00  0.00     0.150 C 
HETATM   60  C13 UNL     1      -6.752  -2.688   1.746  1.00  0.00     0.252 C 
HETATM   61  N6  UNL     1      -7.823  -2.300   2.640  1.00  0.00    -0.072 N 
HETATM   62  C14 UNL     1      -9.040  -1.924   1.918  1.00  0.00     0.252 C 
ATOM     63  H62 UNL     1      -8.013  -3.030   3.327  1.00  0.00     0.277 HD
ATOM     64  H61 UNL     1      -7.525  -1.557   3.272  1.00  0.00     0.277 HD
HETATM   65  C15 UNL     1      -8.660  -1.172   0.637  1.00  0.00     0.150 C 
ENDBRANCH  57  58
ENDBRANCH  54  57
ENDBRANCH  52  53
ENDBRANCH  51  52
ENDBRANCH  50  51
ENDBRANCH  49  50
ENDBRANCH  48  49
ENDBRANCH  47  48
ENDBRANCH  46  47
ENDBRANCH   5  46
TORSDOF 16
