REMARK  13 active torsions:
REMARK  status: ('A' for Active; 'I' for Inactive)
REMARK    1  A    between atoms: C2_2  and  C3_3 
REMARK    2  A    between atoms: C3_3  and  N1_4 
REMARK    3  A    between atoms: N1_4  and  C4_5 
REMARK    4  A    between atoms: N1_4  and  C7_8 
REMARK    5  A    between atoms: C4_5  and  C5_6 
REMARK    6  A    between atoms: C7_8  and  C8_9 
REMARK    7  A    between atoms: C8_9  and  N2_10 
REMARK    8  A    between atoms: N2_10  and  C9_13 
REMARK    9  A    between atoms: C9_13  and  C10_14 
REMARK   10  A    between atoms: C10_14  and  O1_15 
REMARK   11  A    between atoms: C10_14  and  C11_17 
REMARK   12  A    between atoms: C11_17  and  N3_18 
REMARK   13  A    between atoms: N3_18  and  C12_20 
ROOT
HETATM    1  C10 UNL     1       1.011   0.067   1.170  1.00  0.00     0.162 C 
ENDROOT
BRANCH   1   2
HETATM    2  C9  UNL     1       0.830  -0.581  -0.174  1.00  0.00     0.265 C 
BRANCH   2   3
HETATM    3  N2  UNL     1      -0.530  -0.626  -0.615  1.00  0.00    -0.071 N 
ATOM      4  H22 UNL     1      -0.573  -0.858  -1.607  1.00  0.00     0.277 HD
ATOM      5  H21 UNL     1      -0.926   0.314  -0.636  1.00  0.00     0.277 HD
BRANCH   3   6
HETATM    6  C8  UNL     1      -1.362  -1.492   0.126  1.00  0.00     0.252 C 
BRANCH   6   7
HETATM    7  C7  UNL     1      -2.774  -1.506  -0.347  1.00  0.00     0.149 C 
BRANCH   7   8
HETATM    8  N1  UNL     1      -3.527  -0.312  -0.291  1.00  0.00    -0.388 N 
BRANCH   8   9
HETATM    9  C3  UNL     1      -4.891  -0.475  -0.704  1.00  0.00     0.084 C 
BRANCH   9  10
HETATM   10  C2  UNL     1      -5.794  -1.186   0.175  1.00  0.00     0.007 C 
HETATM   11  C1  UNL     1      -5.610  -1.761   1.326  1.00  0.00     0.012 C 
ENDBRANCH   9  10
ENDBRANCH   8   9
BRANCH   8  12
HETATM   12  C4  UNL     1      -3.334   0.561   0.803  1.00  0.00     0.122 C 
BRANCH  12  13
HETATM   13  C5  UNL     1      -3.684   2.002   0.492  1.00  0.00     0.015 C 
HETATM   14  C6  UNL     1      -2.884   2.611  -0.613  1.00  0.00     0.006 C 
ENDBRANCH  12  13
ENDBRANCH   8  12
ENDBRANCH   7   8
ENDBRANCH   6   7
ENDBRANCH   3   6
ENDBRANCH   2   3
ENDBRANCH   1   2
BRANCH   1  15
HETATM   15  O1  UNL     1       0.601   1.387   1.176  1.00  0.00    -0.392 OA
ATOM     16  H1  UNL     1       0.715   1.797   2.026  1.00  0.00     0.210 HD
ENDBRANCH   1  15
BRANCH   1  17
HETATM   17  C11 UNL     1       2.474  -0.049   1.534  1.00  0.00     0.171 C 
BRANCH  17  18
HETATM   18  N3  UNL     1       3.362   0.635   0.648  1.00  0.00    -0.223 N 
ATOM     19  H3  UNL     1       3.123   1.549   0.263  1.00  0.00     0.177 HD
BRANCH  18  20
HETATM   20  C12 UNL     1       4.493   0.049   0.347  1.00  0.00     0.679 A 
HETATM   21  N4  UNL     1       4.815  -1.163   0.856  1.00  0.00    -0.202 N 
HETATM   22  C13 UNL     1       5.961  -1.811   0.586  1.00  0.00     0.107 A 
ATOM     23  H4  UNL     1       4.147  -1.612   1.483  1.00  0.00     0.183 HD
HETATM   24  C14 UNL     1       6.873  -1.221  -0.257  1.00  0.00     0.035 A 
HETATM   25  C15 UNL     1       6.566   0.011  -0.786  1.00  0.00     0.110 A 
HETATM   26  N5  UNL     1       5.391   0.618  -0.476  1.00  0.00    -0.198 N 
HETATM   27  C16 UNL     1       5.146   1.892  -1.073  1.00  0.00     0.174 C 
ENDBRANCH  18  20
ENDBRANCH  17  18
ENDBRANCH   1  17
TORSDOF 13
