REMARK  12 active torsions:
REMARK  status: ('A' for Active; 'I' for Inactive)
REMARK    1  A    between atoms: C3_3  and  O1_4 
REMARK    2  A    between atoms: O1_4  and  C4_5 
REMARK    3  A    between atoms: C4_5  and  C5_6 
REMARK    4  A    between atoms: C5_6  and  O2_7 
REMARK    5  A    between atoms: C5_6  and  C6_9 
REMARK    6  A    between atoms: C6_9  and  N1_10 
REMARK    7  A    between atoms: N1_10  and  C8_12 
REMARK    8  A    between atoms: C8_12  and  C9_13 
REMARK    9  A    between atoms: C9_13  and  N2_14 
REMARK   10  A    between atoms: N2_14  and  C10_15 
REMARK   11  A    between atoms: N2_14  and  C14_19 
REMARK   12  A    between atoms: C10_15  and  C11_16 
ROOT
HETATM    1  C1  UNL     1       5.455   3.068  -2.759  1.00  0.00     0.014 C 
HETATM    2  C2  UNL     1       5.402   2.145  -1.990  1.00  0.00    -0.091 C 
HETATM    3  C3  UNL     1       5.321   0.997  -1.031  1.00  0.00     0.260 C 
ENDROOT
BRANCH   3   4
HETATM    4  O1  UNL     1       4.738  -0.076  -1.619  1.00  0.00    -0.377 OA
BRANCH   4   5
HETATM    5  C4  UNL     1       4.621  -1.246  -0.969  1.00  0.00     0.202 C 
BRANCH   5   6
HETATM    6  C5  UNL     1       3.839  -1.279   0.315  1.00  0.00     0.170 C 
BRANCH   6   7
HETATM    7  O2  UNL     1       4.451  -0.477   1.241  1.00  0.00    -0.392 OA
ATOM      8  H2  UNL     1       3.957  -0.498   2.052  1.00  0.00     0.210 HD
ENDBRANCH   6   7
BRANCH   6   9
HETATM    9  C6  UNL     1       2.419  -0.874  -0.021  1.00  0.00     0.305 C 
BRANCH   9  10
HETATM   10  N1  UNL     1       1.569  -0.880   1.149  1.00  0.00     0.088 N 
HETATM   11  C7  UNL     1       1.352  -2.217   1.662  1.00  0.00     0.310 C 
BRANCH  10  12
HETATM   12  C8  UNL     1       0.295  -0.259   0.860  1.00  0.00     0.291 C 
BRANCH  12  13
HETATM   13  C9  UNL     1      -0.481  -1.126  -0.070  1.00  0.00     0.156 C 
BRANCH  13  14
HETATM   14  N2  UNL     1      -1.795  -0.517  -0.381  1.00  0.00    -0.351 N 
BRANCH  14  15
HETATM   15  C10 UNL     1      -2.628  -1.294  -1.227  1.00  0.00     0.129 C 
BRANCH  15  16
HETATM   16  C11 UNL     1      -3.961  -0.771  -1.583  1.00  0.00    -0.005 C 
HETATM   17  C12 UNL     1      -3.996   0.537  -2.309  1.00  0.00     0.011 C 
HETATM   18  C13 UNL     1      -4.966  -0.741  -0.451  1.00  0.00     0.011 C 
ENDBRANCH  15  16
ENDBRANCH  14  15
BRANCH  14  19
HETATM   19  C14 UNL     1      -2.077   0.752   0.184  1.00  0.00     0.173 C 
HETATM   20  N3  UNL     1      -1.731   1.891  -0.306  1.00  0.00    -0.361 N 
HETATM   21  C15 UNL     1      -2.175   2.975   0.514  1.00  0.00     0.142 C 
ATOM     22  H3  UNL     1      -1.205   2.006  -1.172  1.00  0.00     0.162 HD
HETATM   23  C16 UNL     1      -3.216   2.325   1.406  1.00  0.00     0.142 C 
HETATM   24  N4  UNL     1      -2.784   0.947   1.393  1.00  0.00    -0.361 N 
ATOM     25  H4  UNL     1      -2.956   0.249   2.117  1.00  0.00     0.162 HD
ENDBRANCH  14  19
ENDBRANCH  13  14
ENDBRANCH  12  13
ENDBRANCH  10  12
ENDBRANCH   9  10
ENDBRANCH   6   9
ENDBRANCH   5   6
ENDBRANCH   4   5
ENDBRANCH   3   4
TORSDOF 12
