REMARK  10 active torsions:
REMARK  status: ('A' for Active; 'I' for Inactive)
REMARK    1  A    between atoms: C2_2  and  C4_4 
REMARK    2  A    between atoms: C4_4  and  O1_5 
REMARK    3  A    between atoms: O1_5  and  C5_6 
REMARK    4  A    between atoms: C5_6  and  C6_7 
REMARK    5  A    between atoms: C6_7  and  O2_8 
REMARK    6  A    between atoms: O2_8  and  C7_9 
REMARK    7  A    between atoms: C7_9  and  C8_10 
REMARK    8  A    between atoms: C8_10  and  N1_12 
REMARK    9  A    between atoms: N1_12  and  C10_14 
REMARK   10  A    between atoms: C10_14  and  C11_15 
ROOT
HETATM    1  C7  UNL     1      -0.848  -1.170  -0.133  1.00  0.00     0.192 C 
ENDROOT
BRANCH   1   2
HETATM    2  O2  UNL     1      -0.217  -0.026   0.214  1.00  0.00    -0.387 OA
BRANCH   2   3
HETATM    3  C6  UNL     1       1.113  -0.008   0.440  1.00  0.00     0.193 C 
BRANCH   3   4
HETATM    4  C5  UNL     1       1.907  -0.326  -0.788  1.00  0.00     0.193 C 
BRANCH   4   5
HETATM    5  O1  UNL     1       3.278  -0.314  -0.560  1.00  0.00    -0.389 OA
BRANCH   5   6
HETATM    6  C4  UNL     1       3.782   0.841  -0.045  1.00  0.00     0.171 C 
BRANCH   6   7
HETATM    7  C2  UNL     1       5.296   0.702   0.118  1.00  0.00     0.001 C 
HETATM    8  C1  UNL     1       5.973   0.463  -1.222  1.00  0.00     0.011 C 
HETATM    9  C3  UNL     1       5.591  -0.524   0.962  1.00  0.00     0.011 C 
ENDBRANCH   6   7
ENDBRANCH   5   6
ENDBRANCH   4   5
ENDBRANCH   3   4
ENDBRANCH   2   3
ENDBRANCH   1   2
BRANCH   1  10
HETATM   10  C8  UNL     1      -2.340  -0.790  -0.307  1.00  0.00     0.096 C 
HETATM   11  C9  UNL     1      -3.103  -2.063  -0.569  1.00  0.00     0.034 C 
BRANCH  10  12
HETATM   12  N1  UNL     1      -2.790  -0.204   0.932  1.00  0.00    -0.415 N 
ATOM     13  H1  UNL     1      -2.551  -0.595   1.843  1.00  0.00     0.153 HD
BRANCH  12  14
HETATM   14  C10 UNL     1      -3.598   0.969   0.785  1.00  0.00     0.118 C 
BRANCH  14  15
HETATM   15  C11 UNL     1      -4.955   0.580   0.267  1.00  0.00     0.003 A 
HETATM   16  C12 UNL     1      -5.930   1.703   0.052  1.00  0.00     0.007 A 
HETATM   17  C13 UNL     1      -5.349   0.964  -1.111  1.00  0.00     0.007 A 
ENDBRANCH  14  15
ENDBRANCH  12  14
ENDBRANCH  10  12
ENDBRANCH   1  10
TORSDOF 10
