REMARK  5 active torsions:
REMARK  status: ('A' for Active; 'I' for Inactive)
REMARK    1  A    between atoms: C2_2  and  S1_5 
REMARK    2  A    between atoms: S1_5  and  C3_6 
REMARK    3  A    between atoms: C5_13  and  O1_14 
REMARK    4  A    between atoms: C6_16  and  C7_17 
REMARK    5  A    between atoms: C7_17  and  C8_18 
ROOT
HETATM    1  C3  UNL     1       0.140   0.250   0.192  1.00  0.00     0.088 A 
HETATM    2  N1  UNL     1       0.610   1.210   1.010  1.00  0.00    -0.327 N 
ATOM      3  H1  UNL     1       1.554   1.117   1.384  1.00  0.00     0.169 HD
HETATM    4  C4  UNL     1      -0.124   2.296   1.355  1.00  0.00     0.178 A 
HETATM    5  S2  UNL     1       0.462   3.456   2.352  1.00  0.00    -0.040 SA
HETATM    6  N2  UNL     1      -1.360   2.389   0.847  1.00  0.00    -0.313 N 
ATOM      7  H2  UNL     1      -1.928   3.199   1.095  1.00  0.00     0.170 HD
HETATM    8  C5  UNL     1      -1.886   1.465   0.026  1.00  0.00     0.151 A 
HETATM    9  C6  UNL     1      -1.134   0.353  -0.327  1.00  0.00     0.036 A 
ENDROOT
BRANCH   1  10
HETATM   10  S1  UNL     1       1.056  -1.040  -0.192  1.00  0.00    -0.035 SA
BRANCH  10  11
HETATM   11  C2  UNL     1       2.752  -1.262   0.453  1.00  0.00     0.294 C 
HETATM   12  C1  UNL     1       3.742  -0.372  -0.224  1.00  0.00     0.103 C 
HETATM   13  F1  UNL     1       3.178  -2.562   0.319  1.00  0.00    -0.194 F 
HETATM   14  F2  UNL     1       2.722  -0.985   1.805  1.00  0.00    -0.194 F 
ENDBRANCH  10  11
ENDBRANCH   1  10
BRANCH   9  15
HETATM   15  C7  UNL     1      -1.733  -0.657  -1.236  1.00  0.00     0.159 C 
BRANCH  15  16
HETATM   16  C8  UNL     1      -2.136  -1.846  -0.414  1.00  0.00     0.177 C 
HETATM   17  O2  UNL     1      -1.942  -1.857   0.828  1.00  0.00    -0.648 OA
HETATM   18  O3  UNL     1      -2.725  -2.948  -1.000  1.00  0.00    -0.648 OA
ENDBRANCH  15  16
ENDBRANCH   9  15
BRANCH   8  19
HETATM   19  O1  UNL     1      -3.183   1.600  -0.483  1.00  0.00    -0.346 OA
ATOM     20  H1  UNL     1      -3.555   0.947  -1.064  1.00  0.00     0.219 HD
ENDBRANCH   8  19
TORSDOF 5
