REMARK  1 active torsions:
REMARK  status: ('A' for Active; 'I' for Inactive)
REMARK       I    between atoms: C1_2  and  N1_4 
REMARK    1  A    between atoms: N1_4  and  C2_6 
ROOT
HETATM    1  C2  UNL     1       0.586  -0.047  -0.759  1.00  0.00     0.125 C 
HETATM    2  C3  UNL     1      -0.031  -1.394  -0.530  1.00  0.00     0.033 C 
HETATM    3  C4  UNL     1      -1.262  -1.369   0.318  1.00  0.00     0.039 C 
HETATM    4  C5  UNL     1      -2.227  -0.283  -0.016  1.00  0.00     0.154 C 
HETATM    5  S1  UNL     1      -2.959   0.335   1.535  1.00  0.00    -0.070 SA
HETATM    6  N2  UNL     1      -1.735   0.818  -0.731  1.00  0.00    -0.386 N 
ATOM      7  H2  UNL     1      -2.380   1.420  -1.243  1.00  0.00     0.159 HD
HETATM    8  C6  UNL     1      -0.355   1.096  -0.746  1.00  0.00     0.082 C 
ENDROOT
BRANCH   1   9
HETATM    9  N1  UNL     1       1.673   0.176   0.180  1.00  0.00    -0.326 N 
HETATM   10  C1  UNL     1       3.015   0.292  -0.273  1.00  0.00     0.284 C 
HETATM   11  O1  UNL     1       3.304   0.203  -1.508  1.00  0.00    -0.630 OA
HETATM   12  O2  UNL     1       4.037   0.505   0.638  1.00  0.00    -0.630 OA
ATOM     13  H1  UNL     1       1.470   0.250   1.177  1.00  0.00     0.166 HD
ENDBRANCH   1   9
TORSDOF 1
