REMARK  6 active torsions:
REMARK  status: ('A' for Active; 'I' for Inactive)
REMARK    1  A    between atoms: C2_2  and  C3_3 
REMARK    2  A    between atoms: C3_3  and  N1_4 
REMARK    3  A    between atoms: N1_4  and  C4_6 
REMARK    4  A    between atoms: C4_6  and  N2_8 
REMARK    5  A    between atoms: N2_8  and  O1_10 
REMARK    6  A    between atoms: O1_10  and  C5_11 
ROOT
HETATM    1  C4  UNL     1      -0.595  -0.957   1.200  1.00  0.00     0.192 C 
HETATM    2  S1  UNL     1       0.063  -2.024   2.238  1.00  0.00    -0.039 SA
ENDROOT
BRANCH   1   3
HETATM    3  N1  UNL     1       0.286  -0.164   0.417  1.00  0.00    -0.366 N 
ATOM      4  H1  UNL     1      -0.104   0.511  -0.241  1.00  0.00     0.161 HD
BRANCH   3   5
HETATM    5  C3  UNL     1       1.719  -0.289   0.529  1.00  0.00     0.121 C 
BRANCH   5   6
HETATM    6  C2  UNL     1       2.371   0.690  -0.434  1.00  0.00     0.015 C 
HETATM    7  C1  UNL     1       3.865   0.607  -0.364  1.00  0.00     0.006 C 
ENDBRANCH   5   6
ENDBRANCH   3   5
ENDBRANCH   1   3
BRANCH   1   8
HETATM    8  N2  UNL     1      -2.004  -0.842   1.097  1.00  0.00    -0.231 N 
ATOM      9  H2  UNL     1      -2.616  -1.424   1.670  1.00  0.00     0.197 HD
BRANCH   8  10
HETATM   10  O1  UNL     1      -2.531   0.067   0.212  1.00  0.00    -0.181 OA
BRANCH  10  11
HETATM   11  C5  UNL     1      -3.731  -0.196  -0.432  1.00  0.00     0.394 C 
HETATM   12  N3  UNL     1      -4.325   0.707  -1.358  1.00  0.00    -0.031 NA
HETATM   13  O2  UNL     1      -4.279  -1.305  -0.146  1.00  0.00    -0.240 OA
ENDBRANCH  10  11
ENDBRANCH   8  10
ENDBRANCH   1   8
TORSDOF 6
