REMARK  6 active torsions:
REMARK  status: ('A' for Active; 'I' for Inactive)
REMARK    1  A    between atoms: N1_1  and  C1_4 
REMARK    2  A    between atoms: C2_9  and  N4_10 
REMARK    3  A    between atoms: N4_10  and  C3_12 
REMARK    4  A    between atoms: C3_12  and  C4_13 
REMARK    5  A    between atoms: C4_13  and  N5_14 
REMARK    6  A    between atoms: N6_18  and  O1_19 
ROOT
HETATM    1  C1  UNL     1       2.813  -0.049   0.839  1.00  0.00     0.732 A 
HETATM    2  N2  UNL     1       2.938  -0.977  -0.122  1.00  0.00    -0.115 N 
ATOM      3  H2  UNL     1       3.816  -1.403  -0.419  1.00  0.00     0.206 HD
HETATM    4  N3  UNL     1       1.749  -1.254  -0.624  1.00  0.00    -0.115 N 
ATOM      5  H3  UNL     1       1.559  -1.925  -1.368  1.00  0.00     0.206 HD
HETATM    6  C2  UNL     1       0.825  -0.500   0.013  1.00  0.00     0.735 A 
HETATM    7  N6  UNL     1       1.502   0.237   0.913  1.00  0.00     0.129 N 
ENDROOT
BRANCH   6   8
HETATM    8  N4  UNL     1      -0.583  -0.487  -0.219  1.00  0.00    -0.221 N 
ATOM      9  H4  UNL     1      -1.002  -1.088  -0.929  1.00  0.00     0.177 HD
BRANCH   8  10
HETATM   10  C3  UNL     1      -1.400   0.400   0.579  1.00  0.00     0.165 C 
BRANCH  10  11
HETATM   11  C4  UNL     1      -2.858   0.226   0.134  1.00  0.00     0.249 C 
BRANCH  11  12
HETATM   12  N5  UNL     1      -2.912   0.574  -1.264  1.00  0.00    -0.078 N 
ATOM     13  H53 UNL     1      -2.540   1.503  -1.462  1.00  0.00     0.274 HD
ATOM     14  H52 UNL     1      -2.252   0.046  -1.835  1.00  0.00     0.274 HD
ATOM     15  H51 UNL     1      -3.881   0.458  -1.560  1.00  0.00     0.274 HD
ENDBRANCH  11  12
ENDBRANCH  10  11
ENDBRANCH   8  10
ENDBRANCH   6   8
BRANCH   7  16
HETATM   16  O1  UNL     1       0.926   1.158   1.788  1.00  0.00    -0.256 OA
ATOM     17  H1  UNL     1      -0.001   1.360   1.840  1.00  0.00     0.246 HD
ENDBRANCH   7  16
BRANCH   1  18
HETATM   18  N1  UNL     1       3.735   0.463   1.543  1.00  0.00    -0.231 N 
ATOM     19  H12 UNL     1       4.730   0.246   1.487  1.00  0.00     0.174 HD
ATOM     20  H11 UNL     1       3.640   1.168   2.274  1.00  0.00     0.174 HD
ENDBRANCH   1  18
TORSDOF 6
