REMARK  7 active torsions:
REMARK  status: ('A' for Active; 'I' for Inactive)
REMARK    1  A    between atoms: O1_1  and  N1_3 
REMARK    2  A    between atoms: N1_3  and  N2_4 
REMARK    3  A    between atoms: N1_3  and  N5_23 
REMARK    4  A    between atoms: N2_4  and  S1_6 
REMARK    5  A    between atoms: S1_6  and  N3_8 
REMARK    6  A    between atoms: S1_6  and  C1_12 
REMARK    7  A    between atoms: N3_8  and  O3_10 
ROOT
HETATM    1  S1  UNL     1      -0.394  -2.031   1.638  1.00  0.00     0.175 S 
HETATM    2  O2  UNL     1      -0.515  -2.778   2.936  1.00  0.00    -0.223 OA
ENDROOT
BRANCH   1   3
HETATM    3  N2  UNL     1       1.236  -1.605   1.283  1.00  0.00    -0.199 N 
ATOM      4  H2  UNL     1       1.864  -2.337   0.951  1.00  0.00     0.202 HD
BRANCH   3   5
HETATM    5  N1  UNL     1       1.747  -0.311   1.424  1.00  0.00    -0.089 N 
BRANCH   5   6
HETATM    6  O1  UNL     1       1.381   0.304   2.467  1.00  0.00    -0.253 OA
ATOM      7  H1  UNL     1       1.728   1.183   2.563  1.00  0.00     0.248 HD
ENDBRANCH   5   6
BRANCH   5   8
HETATM    8  N5  UNL     1       2.595   0.262   0.487  1.00  0.00    -0.286 N 
HETATM    9  C9  UNL     1       2.704  -0.444  -0.762  1.00  0.00     0.146 C 
HETATM   10  C10 UNL     1       4.106  -0.999  -0.849  1.00  0.00     0.021 C 
HETATM   11  C11 UNL     1       5.147  -0.012  -0.392  1.00  0.00     0.002 C 
HETATM   12  C12 UNL     1       4.972   1.358  -0.949  1.00  0.00     0.002 C 
HETATM   13  C13 UNL     1       3.915   2.176  -0.273  1.00  0.00     0.021 C 
HETATM   14  C14 UNL     1       3.252   1.476   0.880  1.00  0.00     0.146 C 
ENDBRANCH   5   8
ENDBRANCH   3   5
ENDBRANCH   1   3
BRANCH   1  15
HETATM   15  N3  UNL     1      -0.905  -2.988   0.497  1.00  0.00    -0.208 N 
ATOM     16  H3  UNL     1      -0.682  -2.775  -0.475  1.00  0.00     0.205 HD
BRANCH  15  17
HETATM   17  O3  UNL     1      -1.655  -4.117   0.796  1.00  0.00    -0.281 OA
ATOM     18  H3  UNL     1      -1.963  -4.694   0.108  1.00  0.00     0.245 HD
ENDBRANCH  15  17
ENDBRANCH   1  15
BRANCH   1  19
HETATM   19  C1  UNL     1      -1.408  -0.573   1.656  1.00  0.00     0.310 C 
HETATM   20  C2  UNL     1      -1.324   0.086   0.297  1.00  0.00     0.056 C 
HETATM   21  C3  UNL     1      -2.560   0.991   0.343  1.00  0.00     0.019 C 
HETATM   22  C4  UNL     1      -2.998   1.333  -1.059  1.00  0.00     0.007 C 
HETATM   23  C8  UNL     1      -3.546   0.104   1.053  1.00  0.00     0.191 C 
HETATM   24  C5  UNL     1      -4.482   1.615  -1.056  1.00  0.00     0.001 C 
HETATM   25  C6  UNL     1      -5.219   0.339  -0.798  1.00  0.00     0.002 C 
HETATM   26  C7  UNL     1      -4.460  -0.620   0.092  1.00  0.00     0.033 C 
HETATM   27  N4  UNL     1      -2.799  -0.875   1.781  1.00  0.00    -0.053 N 
ATOM     28  H42 UNL     1      -3.019  -1.828   1.493  1.00  0.00     0.279 HD
ATOM     29  H41 UNL     1      -3.097  -0.950   2.754  1.00  0.00     0.279 HD
ENDBRANCH   1  19
TORSDOF 7
