REMARK  5 active torsions:
REMARK  status: ('A' for Active; 'I' for Inactive)
REMARK    1  A    between atoms: N1_1  and  C1_4 
REMARK    2  A    between atoms: C3_12  and  N5_13 
REMARK       I    between atoms: N6_17  and  C7_19 
REMARK    3  A    between atoms: C7_19  and  C8_21 
REMARK    4  A    between atoms: C8_21  and  C9_22 
REMARK    5  A    between atoms: C9_22  and  C10_23 
ROOT
HETATM    1  N5  UNL     1       3.345   0.591   0.287  1.00  0.00    -0.362 N 
HETATM    2  C4  UNL     1       1.989   0.689  -0.224  1.00  0.00     0.130 C 
HETATM    3  C5  UNL     1       1.164  -0.313   0.574  1.00  0.00     0.072 C 
HETATM    4  C6  UNL     1       1.375  -0.184   2.015  1.00  0.00    -0.007 C 
HETATM    5  N6  UNL     1       0.468  -0.571   2.836  1.00  0.00    -0.334 N 
ATOM      6  H6  UNL     1       0.600  -0.487   3.844  1.00  0.00     0.168 HD
HETATM    7  C7  UNL     1      -0.740  -1.127   2.289  1.00  0.00     0.221 C 
HETATM    8  O1  UNL     1      -0.676  -2.196   1.643  1.00  0.00    -0.273 OA
HETATM    9  C17 UNL     1       2.602   0.383   2.632  1.00  0.00     0.072 C 
HETATM   10  C18 UNL     1       3.563   0.966   1.658  1.00  0.00     0.130 C 
ENDROOT
BRANCH   7  11
HETATM   11  C8  UNL     1      -2.008  -0.426   2.507  1.00  0.00     0.103 C 
BRANCH  11  12
HETATM   12  C9  UNL     1      -3.185  -0.956   1.744  1.00  0.00     0.014 C 
BRANCH  12  13
HETATM   13  C10 UNL     1      -2.960  -0.847   0.286  1.00  0.00    -0.010 C 
HETATM   14  C11 UNL     1      -4.156  -1.382  -0.525  1.00  0.00     0.009 C 
HETATM   15  C12 UNL     1      -4.387  -0.412  -1.641  1.00  0.00    -0.014 C 
HETATM   16  C13 UNL     1      -5.183   0.748  -1.086  1.00  0.00     0.005 C 
HETATM   17  C16 UNL     1      -3.007   0.262  -1.740  1.00  0.00     0.009 C 
HETATM   18  C14 UNL     1      -4.210   1.289  -0.030  1.00  0.00     0.005 C 
HETATM   19  C15 UNL     1      -2.909   0.571  -0.229  1.00  0.00    -0.010 C 
ENDBRANCH  12  13
ENDBRANCH  11  12
ENDBRANCH   7  11
BRANCH   1  20
HETATM   20  C3  UNL     1       4.425   0.150  -0.500  1.00  0.00     0.162 A 
HETATM   21  C1  UNL     1       4.763   0.837  -1.636  1.00  0.00     0.146 A 
HETATM   22  N2  UNL     1       5.790   0.416  -2.381  1.00  0.00    -0.335 N 
HETATM   23  C2  UNL     1       6.494  -0.676  -2.025  1.00  0.00     0.199 A 
ATOM     24  H2  UNL     1       6.043   0.926  -3.227  1.00  0.00     0.168 HD
HETATM   25  N3  UNL     1       6.163  -1.344  -0.919  1.00  0.00    -0.294 N 
HETATM   26  N4  UNL     1       5.151  -0.930  -0.184  1.00  0.00    -0.282 N 
ATOM     27  H3  UNL     1       6.691  -2.172  -0.643  1.00  0.00     0.187 HD
ATOM     28  H4  UNL     1       4.911  -1.452   0.659  1.00  0.00     0.188 HD
BRANCH  21  29
HETATM   29  N1  UNL     1       4.088   1.877  -1.968  1.00  0.00    -0.382 N 
ATOM     30  H12 UNL     1       4.340   2.389  -2.814  1.00  0.00     0.157 HD
ATOM     31  H11 UNL     1       3.304   2.198  -1.400  1.00  0.00     0.157 HD
ENDBRANCH  21  29
ENDBRANCH   1  20
TORSDOF 5
