REMARK  7 active torsions:
REMARK  status: ('A' for Active; 'I' for Inactive)
REMARK    1  A    between atoms: C3_3  and  O1_4 
REMARK    2  A    between atoms: C4_6  and  O2_7 
REMARK    3  A    between atoms: O2_7  and  C5_8 
REMARK    4  A    between atoms: C5_8  and  C6_10 
REMARK    5  A    between atoms: C6_10  and  C7_11 
REMARK    6  A    between atoms: C7_11  and  C8_12 
REMARK       I    between atoms: C8_12  and  N1_14 
REMARK    7  A    between atoms: N1_14  and  C9_16 
ROOT
HETATM    1  C5  UNL     1       0.702  -0.329   0.839  1.00  0.00     0.259 C 
HETATM    2  O3  UNL     1       1.032   0.877   0.993  1.00  0.00    -0.265 OA
ENDROOT
BRANCH   1   3
HETATM    3  O2  UNL     1      -0.469  -0.479   0.053  1.00  0.00    -0.312 OA
BRANCH   3   4
HETATM    4  C4  UNL     1      -1.163   0.613  -0.485  1.00  0.00     0.177 C 
HETATM    5  C3  UNL     1      -1.379   0.404  -1.967  1.00  0.00     0.178 C 
HETATM    6  C2  UNL     1      -2.725   0.992  -1.793  1.00  0.00    -0.047 C 
HETATM    7  C1  UNL     1      -3.577   1.598  -2.597  1.00  0.00     0.018 C 
HETATM    8  C12 UNL     1      -2.666   0.601  -0.369  1.00  0.00     0.014 C 
HETATM    9  C13 UNL     1      -3.265  -0.721   0.002  1.00  0.00     0.017 C 
HETATM   10  C17 UNL     1      -3.138   1.677   0.587  1.00  0.00     0.017 C 
HETATM   11  C14 UNL     1      -3.783  -0.800   1.412  1.00  0.00     0.001 C 
HETATM   12  C15 UNL     1      -4.760   0.303   1.740  1.00  0.00     0.000 C 
HETATM   13  C16 UNL     1      -4.620   1.477   0.794  1.00  0.00     0.001 C 
BRANCH   5  14
HETATM   14  O1  UNL     1      -1.395  -0.951  -2.293  1.00  0.00    -0.389 OA
ATOM     15  H1  UNL     1      -0.530  -1.329  -2.405  1.00  0.00     0.210 HD
ENDBRANCH   5  14
ENDBRANCH   3   4
ENDBRANCH   1   3
BRANCH   1  16
HETATM   16  C6  UNL     1       1.413  -1.481   1.389  1.00  0.00     0.120 C 
BRANCH  16  17
HETATM   17  C7  UNL     1       2.561  -1.997   0.588  1.00  0.00     0.113 C 
BRANCH  17  18
HETATM   18  C8  UNL     1       3.673  -1.072   0.373  1.00  0.00     0.224 C 
HETATM   19  O4  UNL     1       3.706   0.032   0.969  1.00  0.00    -0.273 OA
HETATM   20  N1  UNL     1       4.729  -1.422  -0.516  1.00  0.00    -0.307 N 
ATOM     21  H1  UNL     1       4.670  -2.242  -1.120  1.00  0.00     0.171 HD
BRANCH  20  22
HETATM   22  C9  UNL     1       5.782  -0.638  -0.521  1.00  0.00     0.150 A 
HETATM   23  N2  UNL     1       6.883  -0.771  -1.268  1.00  0.00    -0.346 N 
HETATM   24  C10 UNL     1       7.829   0.109  -1.137  1.00  0.00     0.097 A 
ATOM     25  H2  UNL     1       6.978  -1.545  -1.925  1.00  0.00     0.167 HD
HETATM   26  C11 UNL     1       7.646   1.128  -0.240  1.00  0.00     0.070 A 
HETATM   27  S1  UNL     1       6.099   0.770   0.386  1.00  0.00    -0.064 SA
ENDBRANCH  20  22
ENDBRANCH  17  18
ENDBRANCH  16  17
ENDBRANCH   1  16
TORSDOF 7
