REMARK  7 active torsions:
REMARK  status: ('A' for Active; 'I' for Inactive)
REMARK    1  A    between atoms: C1_2  and  C2_3 
REMARK    2  A    between atoms: C1_2  and  O2_19 
REMARK    3  A    between atoms: C2_3  and  C3_4 
REMARK    4  A    between atoms: C3_4  and  C4_5 
REMARK    5  A    between atoms: C4_5  and  S1_6 
REMARK    6  A    between atoms: S1_6  and  C5_7 
REMARK    7  A    between atoms: O2_19  and  N4_20 
ROOT
HETATM    1  C2  UNL     1       0.215  -2.893  -1.298  1.00  0.00     0.114 C 
ENDROOT
BRANCH   1   2
HETATM    2  C1  UNL     1      -0.599  -1.668  -1.356  1.00  0.00     0.281 C 
HETATM    3  O1  UNL     1      -1.490  -1.617  -2.247  1.00  0.00    -0.263 OA
BRANCH   2   4
HETATM    4  O2  UNL     1      -0.477  -0.570  -0.523  1.00  0.00    -0.200 OA
BRANCH   4   5
HETATM    5  N4  UNL     1      -1.293   0.502  -0.682  1.00  0.00    -0.265 N 
HETATM    6  C11 UNL     1      -2.504   0.550  -0.204  1.00  0.00     0.019 C 
HETATM    7  C12 UNL     1      -3.106  -0.576   0.565  1.00  0.00     0.034 C 
HETATM    8  C19 UNL     1      -3.359   1.749  -0.406  1.00  0.00     0.034 C 
HETATM    9  C13 UNL     1      -3.429  -0.022   1.944  1.00  0.00     0.015 C 
HETATM   10  C17 UNL     1      -4.412  -0.916  -0.144  1.00  0.00     0.015 C 
HETATM   11  C14 UNL     1      -4.320   1.168   1.801  1.00  0.00    -0.013 C 
HETATM   12  C15 UNL     1      -5.622   0.727   1.178  1.00  0.00     0.009 C 
HETATM   13  C20 UNL     1      -3.739   2.275   0.979  1.00  0.00     0.015 C 
HETATM   14  C16 UNL     1      -5.326   0.272  -0.224  1.00  0.00    -0.013 C 
HETATM   15  C18 UNL     1      -4.682   1.340  -1.063  1.00  0.00     0.015 C 
ATOM     16  H4  UNL     1      -0.942   1.308  -1.200  1.00  0.00     0.194 HD
ENDBRANCH   4   5
ENDBRANCH   2   4
ENDBRANCH   1   2
BRANCH   1  17
HETATM   17  C3  UNL     1       1.356  -2.846  -0.337  1.00  0.00     0.020 C 
BRANCH  17  18
HETATM   18  C4  UNL     1       2.364  -1.764  -0.653  1.00  0.00     0.081 C 
BRANCH  18  19
HETATM   19  S1  UNL     1       3.669  -1.854   0.600  1.00  0.00    -0.111 SA
BRANCH  19  20
HETATM   20  C5  UNL     1       4.926  -0.597   0.290  1.00  0.00     0.086 A 
HETATM   21  C6  UNL     1       4.831   0.273  -0.774  1.00  0.00     0.126 A 
HETATM   22  N1  UNL     1       5.763   1.213  -1.015  1.00  0.00    -0.348 N 
HETATM   23  C7  UNL     1       6.841   1.339  -0.210  1.00  0.00     0.132 A 
ATOM     24  H1  UNL     1       5.655   1.837  -1.814  1.00  0.00     0.167 HD
HETATM   25  N2  UNL     1       7.889   2.178  -0.234  1.00  0.00    -0.350 N 
HETATM   26  C10 UNL     1       6.948   0.476   0.858  1.00  0.00     0.079 A 
HETATM   27  C8  UNL     1       8.675   1.864   0.810  1.00  0.00     0.092 A 
ATOM     28  H2  UNL     1       8.057   2.916  -0.917  1.00  0.00     0.166 HD
HETATM   29  C9  UNL     1       8.117   0.814   1.504  1.00  0.00     0.050 A 
HETATM   30  N3  UNL     1       5.994  -0.477   1.094  1.00  0.00    -0.347 N 
ATOM     31  H3  UNL     1       6.096  -1.104   1.892  1.00  0.00     0.167 HD
ENDBRANCH  19  20
ENDBRANCH  18  19
ENDBRANCH  17  18
ENDBRANCH   1  17
TORSDOF 7
