REMARK  8 active torsions:
REMARK  status: ('A' for Active; 'I' for Inactive)
REMARK    1  A    between atoms: C2_2  and  C3_3 
REMARK       I    between atoms: C3_3  and  N1_5 
REMARK    2  A    between atoms: N1_5  and  C4_7 
REMARK    3  A    between atoms: C4_7  and  C5_8 
REMARK    4  A    between atoms: C5_8  and  C6_9 
REMARK    5  A    between atoms: C6_9  and  N2_10 
REMARK    6  A    between atoms: N2_10  and  C7_12 
REMARK    7  A    between atoms: N5_20  and  C11_21 
REMARK    8  A    between atoms: C16_26  and  N6_27 
ROOT
HETATM    1  C7  UNL     1       0.100  -0.054   1.255  1.00  0.00     0.685 A 
HETATM    2  N3  UNL     1      -0.037   1.177   0.727  1.00  0.00    -0.174 N 
ATOM      3  H3  UNL     1       0.747   1.825   0.804  1.00  0.00     0.186 HD
HETATM    4  C8  UNL     1      -1.145   1.596   0.107  1.00  0.00     0.153 A 
HETATM    5  C9  UNL     1      -2.239   0.730  -0.015  1.00  0.00     0.071 A 
HETATM    6  C10 UNL     1      -3.184   1.430  -0.692  1.00  0.00     0.126 A 
HETATM    7  N4  UNL     1      -2.667   2.651  -0.953  1.00  0.00    -0.307 N 
ATOM      8  H4  UNL     1      -3.164   3.388  -1.453  1.00  0.00     0.186 HD
HETATM    9  N5  UNL     1      -1.469   2.770  -0.492  1.00  0.00    -0.271 N 
HETATM   10  C16 UNL     1      -2.131  -0.536   0.515  1.00  0.00     0.134 A 
HETATM   11  N7  UNL     1      -0.948  -0.860   1.130  1.00  0.00    -0.175 N 
ATOM     12  H7  UNL     1      -0.867  -1.797   1.524  1.00  0.00     0.186 HD
ENDROOT
BRANCH   1  13
HETATM   13  N2  UNL     1       1.200  -0.401   1.843  1.00  0.00    -0.205 N 
ATOM     14  H2  UNL     1       1.925   0.316   1.868  1.00  0.00     0.183 HD
BRANCH  13  15
HETATM   15  C6  UNL     1       1.540  -1.619   2.451  1.00  0.00     0.080 C 
BRANCH  15  16
HETATM   16  C5  UNL     1       2.440  -2.540   1.699  1.00  0.00     0.065 C 
BRANCH  16  17
HETATM   17  C4  UNL     1       3.792  -1.983   1.388  1.00  0.00     0.128 C 
BRANCH  17  18
HETATM   18  N1  UNL     1       3.831  -0.829   0.557  1.00  0.00    -0.361 N 
HETATM   19  C3  UNL     1       5.126  -0.265   0.271  1.00  0.00     0.217 C 
HETATM   20  O1  UNL     1       6.185  -0.774   0.738  1.00  0.00    -0.274 OA
ATOM     21  H1  UNL     1       2.978  -0.418   0.179  1.00  0.00     0.162 HD
BRANCH  19  22
HETATM   22  C2  UNL     1       5.253   0.934  -0.584  1.00  0.00     0.098 C 
HETATM   23  C1  UNL     1       6.691   1.344  -0.717  1.00  0.00     0.014 C 
ENDBRANCH  19  22
ENDBRANCH  17  18
ENDBRANCH  16  17
ENDBRANCH  15  16
ENDBRANCH  13  15
ENDBRANCH   1  13
BRANCH  10  24
HETATM   24  N6  UNL     1      -3.192  -1.439   0.487  1.00  0.00    -0.366 N 
HETATM   25  C17 UNL     1      -4.581  -1.281   0.281  1.00  0.00     0.124 C 
HETATM   26  C18 UNL     1      -4.948  -1.885  -1.072  1.00  0.00     0.020 C 
HETATM   27  C19 UNL     1      -4.246  -3.188  -1.239  1.00  0.00     0.007 C 
HETATM   28  C20 UNL     1      -3.838  -3.755   0.100  1.00  0.00    -0.001 C 
HETATM   29  C21 UNL     1      -3.196  -5.125  -0.060  1.00  0.00     0.011 C 
HETATM   30  C22 UNL     1      -2.790  -2.860   0.690  1.00  0.00     0.128 C 
ENDBRANCH  10  24
BRANCH   9  31
HETATM   31  C11 UNL     1      -0.606   3.924  -0.579  1.00  0.00     0.110 C 
HETATM   32  C12 UNL     1      -0.418   4.394  -2.005  1.00  0.00     0.027 C 
HETATM   33  C13 UNL     1       0.672   5.456  -1.795  1.00  0.00     0.002 C 
HETATM   34  C14 UNL     1       1.486   4.968  -0.615  1.00  0.00     0.002 C 
HETATM   35  C15 UNL     1       0.800   3.675  -0.146  1.00  0.00     0.027 C 
ENDBRANCH   9  31
TORSDOF 8
