REMARK  8 active torsions:
REMARK  status: ('A' for Active; 'I' for Inactive)
REMARK    1  A    between atoms: C2_2  and  C3_3 
REMARK    2  A    between atoms: C3_3  and  C4_4 
REMARK    3  A    between atoms: C4_4  and  C5_5 
REMARK    4  A    between atoms: C5_5  and  N1_6 
REMARK       I    between atoms: N1_6  and  C6_8 
REMARK       I    between atoms: C6_8  and  N2_10 
REMARK    5  A    between atoms: C10_14  and  N3_15 
REMARK    6  A    between atoms: C13_18  and  N4_19 
REMARK    7  A    between atoms: C14_24  and  C15_25 
REMARK    8  A    between atoms: C23_36  and  N7_37 
ROOT
HETATM    1  N3  UNL     1       0.854  -0.789  -0.295  1.00  0.00    -0.359 N 
HETATM    2  C11 UNL     1       1.751  -1.463   0.513  1.00  0.00     0.063 C 
HETATM    3  C12 UNL     1       3.181  -1.058   0.187  1.00  0.00     0.072 C 
HETATM    4  C13 UNL     1       3.241   0.446   0.304  1.00  0.00     0.120 C 
HETATM    5  C22 UNL     1       2.378   0.986  -0.820  1.00  0.00     0.082 C 
HETATM    6  C23 UNL     1       0.955   0.604  -0.470  1.00  0.00     0.285 C 
ENDROOT
BRANCH   1   7
HETATM    7  C10 UNL     1      -0.455  -1.314  -0.486  1.00  0.00     0.108 C 
HETATM    8  C9  UNL     1      -0.551  -2.642  -1.165  1.00  0.00     0.029 C 
HETATM    9  C8  UNL     1      -1.842  -3.346  -0.988  1.00  0.00     0.027 C 
HETATM   10  C7  UNL     1      -2.817  -2.777  -0.021  1.00  0.00     0.089 C 
HETATM   11  N2  UNL     1      -2.671  -1.375   0.282  1.00  0.00    -0.323 N 
HETATM   12  C26 UNL     1      -2.442  -3.346   1.363  1.00  0.00     0.027 C 
HETATM   13  C6  UNL     1      -3.551  -0.281   0.170  1.00  0.00     0.319 C 
HETATM   14  C24 UNL     1      -1.288  -1.312   0.797  1.00  0.00     0.112 C 
HETATM   15  N1  UNL     1      -4.877  -0.399  -0.319  1.00  0.00    -0.343 N 
HETATM   16  O1  UNL     1      -3.178   0.892   0.517  1.00  0.00    -0.247 OA
ATOM     17  H1  UNL     1      -5.209  -1.318  -0.610  1.00  0.00     0.164 HD
HETATM   18  C25 UNL     1      -1.166  -2.561   1.604  1.00  0.00     0.029 C 
BRANCH  15  19
HETATM   19  C5  UNL     1      -5.775   0.722  -0.423  1.00  0.00     0.124 C 
BRANCH  19  20
HETATM   20  C4  UNL     1      -7.097   0.304  -0.977  1.00  0.00     0.020 C 
BRANCH  20  21
HETATM   21  C3  UNL     1      -8.059   1.476  -1.082  1.00  0.00     0.001 C 
BRANCH  21  22
HETATM   22  C2  UNL     1      -8.342   2.107   0.250  1.00  0.00    -0.004 C 
HETATM   23  C1  UNL     1      -9.311   3.261   0.009  1.00  0.00     0.005 C 
ENDBRANCH  21  22
ENDBRANCH  20  21
ENDBRANCH  19  20
ENDBRANCH  15  19
ENDBRANCH   1   7
BRANCH   6  24
HETATM   24  N7  UNL     1       0.566   1.419   0.663  1.00  0.00    -0.058 N 
ATOM     25  H73 UNL     1      -0.380   1.175   0.955  1.00  0.00     0.276 HD
ATOM     26  H72 UNL     1       1.092   1.136   1.489  1.00  0.00     0.276 HD
ATOM     27  H71 UNL     1       0.639   2.428   0.536  1.00  0.00     0.276 HD
ENDBRANCH   6  24
BRANCH   4  28
HETATM   28  N4  UNL     1       4.539   1.005   0.385  1.00  0.00    -0.245 N 
HETATM   29  N5  UNL     1       4.798   2.185   0.933  1.00  0.00    -0.237 N 
HETATM   30  N6  UNL     1       6.068   2.436   0.869  1.00  0.00    -0.281 N 
ATOM     31  H5  UNL     1       4.100   2.804   1.345  1.00  0.00     0.208 HD
HETATM   32  C14 UNL     1       6.691   1.408   0.265  1.00  0.00     0.119 A 
ATOM     33  H6  UNL     1       6.523   3.279   1.221  1.00  0.00     0.188 HD
HETATM   34  C21 UNL     1       5.703   0.495  -0.042  1.00  0.00     0.235 A 
HETATM   35  F1  UNL     1       5.913  -0.694  -0.665  1.00  0.00    -0.182 F 
BRANCH  32  36
HETATM   36  C15 UNL     1       8.127   1.362   0.032  1.00  0.00     0.018 A 
HETATM   37  C16 UNL     1       8.924   0.311   0.425  1.00  0.00     0.017 A 
HETATM   38  C17 UNL     1      10.300   0.330   0.174  1.00  0.00     0.025 A 
HETATM   39  C18 UNL     1      10.893   1.404  -0.474  1.00  0.00     0.035 A 
HETATM   40 CL1  UNL     1      12.620   1.393  -0.770  1.00  0.00    -0.084 Cl
HETATM   41  C19 UNL     1      10.088   2.454  -0.865  1.00  0.00     0.048 A 
HETATM   42  C20 UNL     1       8.722   2.429  -0.613  1.00  0.00     0.048 A 
HETATM   43 CL2  UNL     1       7.727   3.790  -1.128  1.00  0.00    -0.083 Cl
ENDBRANCH  32  36
ENDBRANCH   4  28
TORSDOF 8
