REMARK  15 active torsions:
REMARK  status: ('A' for Active; 'I' for Inactive)
REMARK    1  A    between atoms: C4_5  and  C5_6 
REMARK    2  A    between atoms: C5_6  and  N2_7 
REMARK       I    between atoms: N2_7  and  C6_9 
REMARK    3  A    between atoms: N4_11  and  C7_13 
REMARK    4  A    between atoms: C7_13  and  C8_14 
REMARK    5  A    between atoms: C8_14  and  C9_15 
REMARK    6  A    between atoms: C9_15  and  C10_16 
REMARK    7  A    between atoms: C10_16  and  C11_17 
REMARK    8  A    between atoms: C11_17  and  C12_18 
REMARK    9  A    between atoms: C12_18  and  C13_19 
REMARK   10  A    between atoms: C13_19  and  C14_20 
REMARK       I    between atoms: C14_20  and  N5_22 
REMARK   11  A    between atoms: N5_22  and  C15_23 
REMARK   12  A    between atoms: C22_34  and  N8_35 
REMARK   13  A    between atoms: N8_35  and  C23_37 
REMARK   14  A    between atoms: C23_37  and  C24_38 
REMARK   15  A    between atoms: C24_38  and  N9_39 
ROOT
HETATM    1  C14 UNL     1      -2.848   1.701  -1.347  1.00  0.00     0.293 C 
HETATM    2  O1  UNL     1      -2.483   1.677  -2.571  1.00  0.00    -0.257 OA
HETATM    3  N5  UNL     1      -4.117   1.636  -1.024  1.00  0.00    -0.348 NA
ENDROOT
BRANCH   1   4
HETATM    4  C13 UNL     1      -1.714   1.808  -0.379  1.00  0.00     0.119 C 
BRANCH   4   5
HETATM    5  C12 UNL     1      -0.417   2.240  -0.896  1.00  0.00     0.010 C 
BRANCH   5   6
HETATM    6  C11 UNL     1       0.304   1.432  -1.897  1.00  0.00     0.001 C 
BRANCH   6   7
HETATM    7  C10 UNL     1       0.639   0.028  -1.392  1.00  0.00     0.000 C 
BRANCH   7   8
HETATM    8  C9  UNL     1       1.495   0.075  -0.174  1.00  0.00     0.002 C 
BRANCH   8   9
HETATM    9  C8  UNL     1       1.834  -1.306   0.309  1.00  0.00     0.020 C 
BRANCH   9  10
HETATM   10  C7  UNL     1       2.605  -2.089  -0.729  1.00  0.00     0.122 C 
BRANCH  10  11
HETATM   11  N4  UNL     1       2.918  -3.402  -0.176  1.00  0.00    -0.365 N 
HETATM   12  C6  UNL     1       4.050  -3.572   0.399  1.00  0.00     0.184 C 
HETATM   13  N2  UNL     1       4.958  -2.479   0.478  1.00  0.00    -0.360 N 
HETATM   14  N3  UNL     1       4.402  -4.827   0.955  1.00  0.00    -0.064 NA
ATOM     15  H2  UNL     1       4.825  -1.735   1.163  1.00  0.00     0.162 HD
ATOM     16  H4  UNL     1       2.249  -4.169  -0.246  1.00  0.00     0.162 HD
BRANCH  13  17
HETATM   17  C5  UNL     1       6.058  -2.455  -0.428  1.00  0.00     0.161 C 
BRANCH  17  18
HETATM   18  C4  UNL     1       6.962  -1.310  -0.308  1.00  0.00    -0.036 A 
HETATM   19  C3  UNL     1       8.007  -1.232  -1.218  1.00  0.00     0.026 A 
HETATM   20  C2  UNL     1       8.917  -0.192  -1.191  1.00  0.00     0.092 A 
HETATM   21  N1  UNL     1       8.811   0.785  -0.272  1.00  0.00    -0.352 N 
HETATM   22  C1  UNL     1       9.789   1.851  -0.286  1.00  0.00     0.156 C 
HETATM   23  C26 UNL     1       7.817   0.732   0.611  1.00  0.00     0.105 A 
HETATM   24  C25 UNL     1       6.883  -0.297   0.617  1.00  0.00     0.051 A 
HETATM   25 CL1  UNL     1       7.659   1.980   1.813  1.00  0.00    -0.064 Cl
ENDBRANCH  17  18
ENDBRANCH  13  17
ENDBRANCH  10  11
ENDBRANCH   9  10
ENDBRANCH   8   9
ENDBRANCH   7   8
ENDBRANCH   6   7
ENDBRANCH   5   6
ENDBRANCH   4   5
ENDBRANCH   1   4
BRANCH   3  26
HETATM   26  C15 UNL     1      -5.239   1.514  -0.582  1.00  0.00     0.227 A 
HETATM   27  N6  UNL     1      -6.346   1.878  -1.314  1.00  0.00    -0.326 N 
HETATM   28  C16 UNL     1      -7.587   1.782  -0.854  1.00  0.00     0.061 A 
ATOM     29  H6  UNL     1      -6.206   2.240  -2.257  1.00  0.00     0.169 HD
HETATM   30  C17 UNL     1      -8.674   2.172  -1.650  1.00  0.00     0.032 A 
HETATM   31  C21 UNL     1      -7.798   1.297   0.413  1.00  0.00     0.060 A 
HETATM   32  C18 UNL     1      -9.963   2.081  -1.190  1.00  0.00     0.002 A 
HETATM   33  C19 UNL     1     -10.169   1.594   0.081  1.00  0.00     0.002 A 
HETATM   34  C20 UNL     1      -9.089   1.209   0.865  1.00  0.00     0.032 A 
HETATM   35  N7  UNL     1      -6.747   0.929   1.161  1.00  0.00    -0.337 N 
HETATM   36  C22 UNL     1      -5.509   1.022   0.708  1.00  0.00     0.161 A 
ATOM     37  H7  UNL     1      -6.907   0.569   2.102  1.00  0.00     0.167 HD
BRANCH  36  38
HETATM   38  N8  UNL     1      -4.527   0.645   1.421  1.00  0.00    -0.371 N 
ATOM     39  H8  UNL     1      -3.611   0.732   0.980  1.00  0.00     0.161 HD
BRANCH  38  40
HETATM   40  C23 UNL     1      -4.516   0.121   2.739  1.00  0.00     0.148 C 
BRANCH  40  41
HETATM   41  C24 UNL     1      -3.964  -1.283   2.865  1.00  0.00     0.249 C 
BRANCH  41  42
HETATM   42  N9  UNL     1      -4.683  -2.252   2.094  1.00  0.00    -0.078 N 
ATOM     43  H93 UNL     1      -5.676  -2.233   2.326  1.00  0.00     0.274 HD
ATOM     44  H92 UNL     1      -4.732  -1.970   1.115  1.00  0.00     0.274 HD
ATOM     45  H91 UNL     1      -4.311  -3.198   2.179  1.00  0.00     0.274 HD
ENDBRANCH  41  42
ENDBRANCH  40  41
ENDBRANCH  38  40
ENDBRANCH  36  38
ENDBRANCH   3  26
TORSDOF 15
