REMARK  5 active torsions:
REMARK  status: ('A' for Active; 'I' for Inactive)
REMARK    1  A    between atoms: C2_3  and  O1_4 
REMARK    2  A    between atoms: O1_4  and  C3_5 
REMARK    3  A    between atoms: C5_7  and  O2_8 
REMARK    4  A    between atoms: C7_11  and  C8_12 
REMARK    5  A    between atoms: C8_12  and  O3_13 
ROOT
HETATM    1  N1  UNL     1       4.856   0.662  -0.483  1.00  0.00    -0.195 NA
HETATM    2  C1  UNL     1       3.809   0.471  -0.027  1.00  0.00     0.085 C 
HETATM    3  C2  UNL     1       2.483   0.209   0.545  1.00  0.00     0.291 C 
ENDROOT
BRANCH   3   4
HETATM    4  O1  UNL     1       1.626  -0.023  -0.523  1.00  0.00    -0.372 OA
BRANCH   4   5
HETATM    5  C3  UNL     1       0.360  -0.270  -0.010  1.00  0.00     0.131 C 
HETATM    6  C4  UNL     1       0.005  -1.696  -0.432  1.00  0.00     0.064 C 
HETATM    7  C5  UNL     1      -1.504  -1.707  -0.374  1.00  0.00     0.121 C 
HETATM    8  C6  UNL     1      -1.968  -0.292  -0.214  1.00  0.00     0.041 C 
HETATM    9  C7  UNL     1      -0.738   0.524  -0.627  1.00  0.00     0.041 C 
BRANCH   7  10
HETATM   10  O2  UNL     1      -1.849  -2.388   0.811  1.00  0.00    -0.395 OA
ATOM     11  H2  UNL     1      -2.798  -2.395   0.847  1.00  0.00     0.210 HD
ENDBRANCH   7  10
BRANCH   9  12
HETATM   12  C8  UNL     1      -0.927   1.901  -0.082  1.00  0.00     0.171 C 
BRANCH  12  13
HETATM   13  O3  UNL     1       0.148   2.742  -0.202  1.00  0.00    -0.400 OA
ATOM     14  H3  UNL     1       0.028   3.618   0.145  1.00  0.00     0.209 HD
ENDBRANCH  12  13
ENDBRANCH   9  12
ENDBRANCH   4   5
ENDBRANCH   3   4
TORSDOF 5
