REMARK  3 active torsions:
REMARK  status: ('A' for Active; 'I' for Inactive)
REMARK    1  A    between atoms: N1_2  and  C2_4 
REMARK    2  A    between atoms: C2_4  and  N2_5 
REMARK    3  A    between atoms: N3_7  and  C3_9 
ROOT
HETATM    1  N2  UNL     1      -0.122  -1.143   0.848  1.00  0.00    -0.300 N 
ATOM      2  H2  UNL     1      -0.566  -2.007   1.158  1.00  0.00     0.187 HD
HETATM    3  N3  UNL     1       1.082  -1.009   1.018  1.00  0.00    -0.331 N 
ATOM      4  H3  UNL     1       1.617  -1.755   1.462  1.00  0.00     0.180 HD
ENDROOT
BRANCH   1   5
HETATM    5  C2  UNL     1      -0.933  -0.138   0.233  1.00  0.00     0.192 C 
BRANCH   5   6
HETATM    6  N1  UNL     1      -2.288  -0.335   0.540  1.00  0.00    -0.389 N 
HETATM    7  C1  UNL     1      -3.239   0.546   0.029  1.00  0.00     0.147 C 
ATOM      8  H1  UNL     1      -2.574  -1.115   1.131  1.00  0.00     0.159 HD
ENDBRANCH   5   6
ENDBRANCH   1   5
BRANCH   3   9
HETATM    9  C3  UNL     1       1.740   0.176   0.602  1.00  0.00     0.099 A 
HETATM   10  C4  UNL     1       2.291   0.167  -0.800  1.00  0.00     0.029 A 
HETATM   11  C5  UNL     1       3.222   0.117   0.370  1.00  0.00     0.029 A 
ENDBRANCH   3   9
TORSDOF 3
