REMARK  6 active torsions:
REMARK  status: ('A' for Active; 'I' for Inactive)
REMARK    1  A    between atoms: C3_3  and  C4_4 
REMARK    2  A    between atoms: C6_6  and  C7_7 
REMARK    3  A    between atoms: C7_7  and  O1_8 
REMARK    4  A    between atoms: C7_7  and  C8_10 
REMARK    5  A    between atoms: C8_10  and  O2_11 
REMARK    6  A    between atoms: C14_18  and  O3_19 
ROOT
HETATM    1  C4  UNL     1       1.264   0.749  -0.052  1.00  0.00     0.015 C 
HETATM    2  C5  UNL     1       0.098   1.692   0.129  1.00  0.00     0.017 C 
HETATM    3  C6  UNL     1      -1.170   0.842   0.026  1.00  0.00     0.026 C 
HETATM    4  C9  UNL     1      -0.775  -0.573  -0.046  1.00  0.00    -0.031 C 
HETATM    5  C10 UNL     1      -1.134  -1.101  -1.415  1.00  0.00     0.016 C 
HETATM    6  C11 UNL     1      -1.396  -1.532   0.935  1.00  0.00     0.010 C 
HETATM    7  C12 UNL     1      -0.501  -2.699   1.265  1.00  0.00     0.003 C 
HETATM    8  C13 UNL     1       0.619  -2.979   0.355  1.00  0.00     0.032 C 
HETATM    9  C14 UNL     1       1.323  -1.788  -0.239  1.00  0.00     0.123 C 
HETATM   10  C15 UNL     1       0.684  -0.560   0.281  1.00  0.00     0.030 C 
ENDROOT
BRANCH   3  11
HETATM   11  C7  UNL     1      -2.165   1.219   1.092  1.00  0.00     0.146 C 
BRANCH  11  12
HETATM   12  O1  UNL     1      -3.293   0.436   0.960  1.00  0.00    -0.393 OA
ATOM     13  H1  UNL     1      -3.921   0.674   1.632  1.00  0.00     0.210 HD
ENDBRANCH  11  12
BRANCH  11  14
HETATM   14  C8  UNL     1      -2.582   2.653   0.816  1.00  0.00     0.196 C 
BRANCH  14  15
HETATM   15  O2  UNL     1      -3.106   2.805  -0.465  1.00  0.00    -0.398 OA
ATOM     16  H2  UNL     1      -3.367   3.702  -0.638  1.00  0.00     0.209 HD
ENDBRANCH  14  15
ENDBRANCH  11  14
ENDBRANCH   3  11
BRANCH   1  17
HETATM   17  C3  UNL     1       1.940   0.872  -1.358  1.00  0.00    -0.026 C 
HETATM   18  C2  UNL     1       3.211   1.195  -1.491  1.00  0.00    -0.035 C 
HETATM   19  C1  UNL     1       4.027   1.455  -0.286  1.00  0.00     0.036 C 
ENDBRANCH   1  17
BRANCH   9  20
HETATM   20  O3  UNL     1       1.322  -1.911  -1.622  1.00  0.00    -0.395 OA
ATOM     21  H3  UNL     1       1.766  -1.160  -1.997  1.00  0.00     0.210 HD
ENDBRANCH   9  20
TORSDOF 6
