REMARK  15 active torsions:
REMARK  status: ('A' for Active; 'I' for Inactive)
REMARK    1  A    between atoms: O1_2  and  C2_3 
REMARK    2  A    between atoms: C4_5  and  O2_6 
REMARK    3  A    between atoms: C7_11  and  C8_12 
REMARK    4  A    between atoms: C13_21  and  C14_22 
REMARK       I    between atoms: C14_22  and  N3_24 
REMARK    5  A    between atoms: N3_24  and  C15_26 
REMARK    6  A    between atoms: C15_26  and  C16_27 
REMARK    7  A    between atoms: C15_26  and  C18_33 
REMARK    8  A    between atoms: C16_27  and  O6_28 
REMARK    9  A    between atoms: C16_27  and  C17_30 
REMARK   10  A    between atoms: C17_30  and  O7_31 
REMARK   11  A    between atoms: C18_33  and  O8_34 
REMARK   12  A    between atoms: C18_33  and  C19_36 
REMARK   13  A    between atoms: C19_36  and  O9_38 
REMARK   14  A    between atoms: C21_40  and  O10_41 
REMARK   15  A    between atoms: C21_40  and  O11_43 
ROOT
HETATM    1  C8  UNL     1       3.208  -0.101   0.530  1.00  0.00     0.084 A 
HETATM    2  C9  UNL     1       2.314  -0.514  -0.425  1.00  0.00     0.066 A 
HETATM    3  C10 UNL     1       1.047  -0.512   0.112  1.00  0.00     0.095 A 
HETATM    4  N1  UNL     1       1.199  -0.097   1.378  1.00  0.00    -0.288 N 
HETATM    5  N2  UNL     1       2.479   0.148   1.632  1.00  0.00    -0.295 N 
ATOM      6  H2  UNL     1       2.851   0.474   2.524  1.00  0.00     0.187 HD
HETATM    7  C11 UNL     1       0.193   0.110   2.422  1.00  0.00     0.175 C 
HETATM    8  C12 UNL     1      -1.177   0.283   1.826  1.00  0.00     0.191 C 
HETATM    9  O4  UNL     1      -1.098   0.973   0.651  1.00  0.00    -0.369 OA
HETATM   10  C13 UNL     1      -1.196   0.223  -0.494  1.00  0.00     0.281 C 
HETATM   11  C21 UNL     1      -0.189  -0.903  -0.595  1.00  0.00     0.242 C 
ENDROOT
BRANCH  10  12
HETATM   12  C14 UNL     1      -2.551  -0.176  -0.812  1.00  0.00     0.253 C 
HETATM   13  O5  UNL     1      -2.762  -0.957  -1.807  1.00  0.00    -0.270 OA
HETATM   14  N3  UNL     1      -3.678   0.244  -0.094  1.00  0.00    -0.349 N 
ATOM     15  H3  UNL     1      -3.559   0.868   0.704  1.00  0.00     0.163 HD
BRANCH  14  16
HETATM   16  C15 UNL     1      -5.055  -0.206  -0.477  1.00  0.00     0.146 C 
BRANCH  16  17
HETATM   17  C16 UNL     1      -5.726   0.946  -1.134  1.00  0.00     0.167 C 
BRANCH  17  18
HETATM   18  O6  UNL     1      -4.784   1.257  -2.218  1.00  0.00    -0.391 OA
ATOM     19  H6  UNL     1      -5.213   1.993  -2.638  1.00  0.00     0.210 HD
ENDBRANCH  17  18
BRANCH  17  20
HETATM   20  C17 UNL     1      -6.975   0.672  -1.925  1.00  0.00     0.197 C 
BRANCH  20  21
HETATM   21  O7  UNL     1      -8.117   0.413  -1.259  1.00  0.00    -0.398 OA
ATOM     22  H7  UNL     1      -8.906   0.240  -1.759  1.00  0.00     0.209 HD
ENDBRANCH  20  21
ENDBRANCH  17  20
ENDBRANCH  16  17
BRANCH  16  23
HETATM   23  C18 UNL     1      -5.683  -0.968   0.594  1.00  0.00     0.171 C 
BRANCH  23  24
HETATM   24  O8  UNL     1      -6.955  -1.458   0.275  1.00  0.00    -0.391 OA
ATOM     25  H8  UNL     1      -7.365  -1.955   0.973  1.00  0.00     0.210 HD
ENDBRANCH  23  24
BRANCH  23  26
HETATM   26  C19 UNL     1      -5.789  -0.455   1.976  1.00  0.00     0.145 C 
HETATM   27  C20 UNL     1      -7.032   0.432   2.146  1.00  0.00     0.042 C 
BRANCH  26  28
HETATM   28  O9  UNL     1      -4.700   0.072   2.587  1.00  0.00    -0.393 OA
ATOM     29  H9  UNL     1      -4.768   0.402   3.475  1.00  0.00     0.210 HD
ENDBRANCH  26  28
ENDBRANCH  23  26
ENDBRANCH  16  23
ENDBRANCH  14  16
ENDBRANCH  10  12
BRANCH  11  30
HETATM   30  O10 UNL     1      -0.632  -2.101  -0.110  1.00  0.00    -0.358 OA
ATOM     31  H10 UNL     1      -1.427  -2.353  -0.565  1.00  0.00     0.213 HD
ENDBRANCH  11  30
BRANCH  11  32
HETATM   32  O11 UNL     1       0.151  -1.098  -1.951  1.00  0.00    -0.358 OA
ATOM     33  H11 UNL     1      -0.644  -1.350  -2.406  1.00  0.00     0.213 HD
ENDBRANCH  11  32
BRANCH   1  34
HETATM   34  C7  UNL     1       4.656   0.070   0.418  1.00  0.00     0.105 A 
HETATM   35  O3  UNL     1       5.485   0.397   1.355  1.00  0.00    -0.307 OA
HETATM   36  C6  UNL     1       6.730   0.471   0.939  1.00  0.00     0.091 A 
HETATM   37  C5  UNL     1       7.929   0.773   1.559  1.00  0.00     0.074 A 
HETATM   38  C23 UNL     1       6.700   0.161  -0.402  1.00  0.00     0.034 A 
HETATM   39  C4  UNL     1       9.114   0.774   0.865  1.00  0.00     0.071 A 
HETATM   40  C3  UNL     1       9.090   0.465  -0.479  1.00  0.00     0.074 A 
HETATM   41  C2  UNL     1       7.893   0.164  -1.097  1.00  0.00     0.084 A 
HETATM   42  C22 UNL     1       5.396  -0.096  -0.752  1.00  0.00     0.057 A 
BRANCH  39  43
HETATM   43  O2  UNL     1      10.346   1.074   1.447  1.00  0.00    -0.361 OA
ATOM     44  H2  UNL     1      10.363   1.287   2.373  1.00  0.00     0.217 HD
ENDBRANCH  39  43
BRANCH  41  45
HETATM   45  O1  UNL     1       7.819  -0.153  -2.451  1.00  0.00    -0.355 OA
HETATM   46  C1  UNL     1       9.012  -0.162  -3.210  1.00  0.00     0.210 C 
ENDBRANCH  41  45
ENDBRANCH   1  34
TORSDOF 15
