REMARK  11 active torsions:
REMARK  status: ('A' for Active; 'I' for Inactive)
REMARK    1  A    between atoms: C2_2  and  N1_3 
REMARK    2  A    between atoms: C2_2  and  C4_8 
REMARK       I    between atoms: C4_8  and  N4_10 
REMARK    3  A    between atoms: N4_10  and  C5_12 
REMARK    4  A    between atoms: C10_18  and  N5_19 
REMARK    5  A    between atoms: N5_19  and  C11_21 
REMARK    6  A    between atoms: C11_21  and  C12_22 
REMARK    7  A    between atoms: C12_22  and  N6_23 
REMARK    8  A    between atoms: N6_23  and  N7_24 
REMARK    9  A    between atoms: N12_36  and  N13_38 
REMARK   10  A    between atoms: C18_41  and  C19_42 
REMARK   11  A    between atoms: C19_42  and  O3_43 
ROOT
HETATM    1  C5  UNL     1       4.692  -0.323  -0.337  1.00  0.00     0.037 A 
HETATM    2  C6  UNL     1       4.345  -1.681  -0.434  1.00  0.00     0.030 A 
HETATM    3  C7  UNL     1       3.021  -2.036  -0.362  1.00  0.00     0.021 A 
HETATM    4  C8  UNL     1       2.012  -1.113  -0.197  1.00  0.00     0.050 A 
HETATM    5  C9  UNL     1       0.669  -1.433  -0.120  1.00  0.00     0.214 A 
HETATM    6  O2  UNL     1       0.328  -2.622  -0.201  1.00  0.00    -0.285 OA
HETATM    7  C10 UNL     1      -0.298  -0.445   0.048  1.00  0.00     0.117 A 
HETATM    8  C18 UNL     1       0.117   0.861   0.135  1.00  0.00     0.107 A 
HETATM    9  O4  UNL     1       1.410   1.133   0.057  1.00  0.00    -0.309 OA
HETATM   10  C20 UNL     1       2.338   0.221  -0.101  1.00  0.00     0.092 A 
HETATM   11  C21 UNL     1       3.698   0.578  -0.176  1.00  0.00     0.067 A 
ENDROOT
BRANCH   7  12
HETATM   12  N5  UNL     1      -1.673  -0.764   0.140  1.00  0.00    -0.339 N 
ATOM     13  H5  UNL     1      -2.044  -0.925   1.076  1.00  0.00     0.167 HD
BRANCH  12  14
HETATM   14  C11 UNL     1      -2.578  -0.882  -0.926  1.00  0.00     0.112 C 
HETATM   15  N12 UNL     1      -2.307  -1.616  -1.952  1.00  0.00    -0.294 N 
ATOM     16  H12 UNL     1      -1.417  -2.113  -1.975  1.00  0.00     0.187 HD
BRANCH  14  17
HETATM   17  C12 UNL     1      -3.877  -0.172  -0.916  1.00  0.00     0.213 C 
BRANCH  17  18
HETATM   18  N6  UNL     1      -4.605  -0.611   0.283  1.00  0.00    -0.127 NA
BRANCH  18  19
HETATM   19  N7  UNL     1      -5.847  -0.017   0.411  1.00  0.00    -0.239 N 
HETATM   20  C13 UNL     1      -5.949   1.319   0.865  1.00  0.00     0.211 A 
HETATM   21  N8  UNL     1      -4.775   2.085   1.199  1.00  0.00    -0.062 NA
HETATM   22  N9  UNL     1      -7.096   1.906   1.001  1.00  0.00    -0.304 N 
HETATM   23  C14 UNL     1      -8.297   1.233   0.699  1.00  0.00     0.192 A 
ATOM     24  H9  UNL     1      -7.130   2.870   1.332  1.00  0.00     0.171 HD
HETATM   25  N10 UNL     1      -9.558   1.871   0.850  1.00  0.00    -0.063 NA
HETATM   26  N11 UNL     1      -8.247   0.027   0.286  1.00  0.00    -0.337 N 
HETATM   27  C15 UNL     1      -7.050  -0.745   0.089  1.00  0.00     0.119 A 
ATOM     28  H11 UNL     1      -9.135  -0.430   0.077  1.00  0.00     0.164 HD
HETATM   29  C16 UNL     1      -7.032  -1.204  -1.357  1.00  0.00     0.064 C 
HETATM   30  C17 UNL     1      -7.165  -1.982   0.982  1.00  0.00     0.064 C 
ENDBRANCH  18  19
ENDBRANCH  17  18
ENDBRANCH  14  17
BRANCH  15  31
HETATM   31  N13 UNL     1      -3.178  -1.758  -3.029  1.00  0.00    -0.344 N 
ATOM     32 2H13 UNL     1      -4.064  -1.254  -2.989  1.00  0.00     0.176 HD
ATOM     33 1H13 UNL     1      -2.964  -2.338  -3.840  1.00  0.00     0.176 HD
ENDBRANCH  15  31
ENDBRANCH  12  14
ENDBRANCH   7  12
BRANCH   8  34
HETATM   34  C19 UNL     1      -0.878   1.977   0.316  1.00  0.00     0.231 C 
BRANCH  34  35
HETATM   35  O3  UNL     1      -0.197   3.196   0.376  1.00  0.00    -0.394 OA
ATOM     36  H3  UNL     1      -0.825   3.900   0.490  1.00  0.00     0.209 HD
ENDBRANCH  34  35
ENDBRANCH   8  34
BRANCH   1  37
HETATM   37  N4  UNL     1       6.064   0.031  -0.430  1.00  0.00    -0.325 N 
HETATM   38  C4  UNL     1       6.666   1.232  -0.077  1.00  0.00     0.244 C 
HETATM   39  O1  UNL     1       6.023   2.187   0.392  1.00  0.00    -0.271 OA
ATOM     40  H4  UNL     1       6.685  -0.687  -0.803  1.00  0.00     0.169 HD
BRANCH  38  41
HETATM   41  C2  UNL     1       8.130   1.435  -0.248  1.00  0.00     0.172 C 
HETATM   42  C1  UNL     1       8.795   1.972   0.993  1.00  0.00     0.042 C 
BRANCH  41  43
HETATM   43  N1  UNL     1       8.815   0.250  -0.679  1.00  0.00    -0.354 N 
HETATM   44  C3  UNL     1       9.208  -0.733   0.040  1.00  0.00     0.197 C 
HETATM   45  N2  UNL     1       9.877  -1.830  -0.567  1.00  0.00    -0.067 NA
HETATM   46  N3  UNL     1       9.007  -0.810   1.453  1.00  0.00    -0.067 NA
ATOM     47  H1  UNL     1       9.012   0.183  -1.678  1.00  0.00     0.162 HD
ENDBRANCH  41  43
ENDBRANCH  38  41
ENDBRANCH   1  37
TORSDOF 11
