REMARK  10 active torsions:
REMARK  status: ('A' for Active; 'I' for Inactive)
REMARK       I    between atoms: C2_2  and  N1_4 
REMARK    1  A    between atoms: N1_4  and  C3_6 
REMARK    2  A    between atoms: C4_7  and  O2_8 
REMARK    3  A    between atoms: O2_8  and  N2_9 
REMARK       I    between atoms: N3_12  and  C7_13 
REMARK       I    between atoms: C7_13  and  N4_15 
REMARK    4  A    between atoms: N4_15  and  C8_17 
REMARK    5  A    between atoms: C8_17  and  C9_18 
REMARK    6  A    between atoms: C9_18  and  N5_19 
REMARK    7  A    between atoms: N5_19  and  C10_22 
REMARK    8  A    between atoms: C10_22  and  C11_23 
REMARK    9  A    between atoms: C14_32  and  N9_33 
REMARK   10  A    between atoms: C18_44  and  N13_45 
ROOT
HETATM    1  N2  UNL     1       3.528   1.536  -0.565  1.00  0.00    -0.241 N 
HETATM    2  C5  UNL     1       2.694   2.295  -1.406  1.00  0.00     0.115 C 
HETATM    3  C6  UNL     1       1.389   1.675  -1.759  1.00  0.00     0.175 C 
HETATM    4  N3  UNL     1       0.753   0.957  -0.670  1.00  0.00    -0.320 N 
HETATM    5  C7  UNL     1      -0.661   1.044  -0.568  1.00  0.00     0.319 C 
HETATM    6  O3  UNL     1      -1.271   1.731  -1.423  1.00  0.00    -0.247 OA
HETATM    7  N4  UNL     1      -1.438   0.407   0.434  1.00  0.00    -0.341 N 
ATOM      8  H4  UNL     1      -0.933  -0.147   1.126  1.00  0.00     0.164 HD
HETATM    9  C15 UNL     1       1.580   0.207   0.222  1.00  0.00     0.126 C 
HETATM   10  C16 UNL     1       1.656  -1.230  -0.310  1.00  0.00     0.038 C 
HETATM   11  C17 UNL     1       2.958   0.714   0.413  1.00  0.00     0.120 C 
ENDROOT
BRANCH   7  12
HETATM   12  C8  UNL     1      -2.853   0.465   0.568  1.00  0.00     0.152 C 
BRANCH  12  13
HETATM   13  C9  UNL     1      -3.589  -0.097  -0.604  1.00  0.00     0.252 C 
BRANCH  13  14
HETATM   14  N5  UNL     1      -5.013  -0.023  -0.436  1.00  0.00    -0.067 N 
ATOM     15  H52 UNL     1      -5.300   0.943  -0.277  1.00  0.00     0.277 HD
ATOM     16  H51 UNL     1      -5.483  -0.203  -1.323  1.00  0.00     0.277 HD
BRANCH  14  17
HETATM   17  C10 UNL     1      -5.541  -0.873   0.587  1.00  0.00     0.310 C 
BRANCH  17  18
HETATM   18  C11 UNL     1      -7.030  -0.740   0.703  1.00  0.00     0.139 A 
HETATM   19  N6  UNL     1      -7.712   0.099   1.524  1.00  0.00    -0.175 N 
HETATM   20  C12 UNL     1      -9.034  -0.063   1.346  1.00  0.00     0.721 A 
ATOM     21  H6  UNL     1      -7.285   0.755   2.178  1.00  0.00     0.185 HD
HETATM   22  N7  UNL     1     -10.165   0.457   1.845  1.00  0.00    -0.185 N 
HETATM   23  N10 UNL     1      -9.186  -1.021   0.397  1.00  0.00     0.091 N 
HETATM   24  C13 UNL     1     -11.386   0.092   1.467  1.00  0.00     0.215 A 
ATOM     25  H7  UNL     1     -10.083   1.179   2.561  1.00  0.00     0.185 HD
HETATM   26  N8  UNL     1     -11.532  -0.864   0.519  1.00  0.00    -0.185 N 
HETATM   27  C14 UNL     1     -10.410  -1.411  -0.006  1.00  0.00     0.713 A 
ATOM     28  H8  UNL     1     -12.457  -1.162   0.210  1.00  0.00     0.185 HD
HETATM   29  N11 UNL     1      -7.984  -1.408   0.030  1.00  0.00    -0.251 N 
ATOM     30  H11 UNL     1      -7.799  -2.122  -0.674  1.00  0.00     0.190 HD
BRANCH  27  31
HETATM   31  N9  UNL     1     -10.503  -2.322  -0.908  1.00  0.00    -0.232 N 
ATOM     32  H92 UNL     1     -11.430  -2.617  -1.213  1.00  0.00     0.174 HD
ATOM     33  H91 UNL     1      -9.658  -2.734  -1.303  1.00  0.00     0.174 HD
ENDBRANCH  27  31
ENDBRANCH  17  18
ENDBRANCH  14  17
ENDBRANCH  13  14
ENDBRANCH  12  13
ENDBRANCH   7  12
BRANCH   1  34
HETATM   34  O2  UNL     1       4.765   1.279  -1.007  1.00  0.00    -0.211 OA
BRANCH  34  35
HETATM   35  C4  UNL     1       5.466   0.110  -1.003  1.00  0.00     0.215 A 
HETATM   36  C3  UNL     1       6.361  -0.166   0.031  1.00  0.00     0.131 A 
HETATM   37  C19 UNL     1       7.058  -1.351   0.013  1.00  0.00     0.163 A 
HETATM   38  N14 UNL     1       6.843  -2.190  -1.006  1.00  0.00    -0.177 N 
HETATM   39  N15 UNL     1       7.985  -1.704   1.026  1.00  0.00    -0.080 NA
HETATM   40  C18 UNL     1       5.987  -1.953  -2.019  1.00  0.00     0.679 A 
ATOM     41  H14 UNL     1       7.362  -3.068  -1.017  1.00  0.00     0.185 HD
HETATM   42  N12 UNL     1       5.313  -0.797  -1.992  1.00  0.00    -0.166 N 
ATOM     43  H12 UNL     1       4.659  -0.593  -2.747  1.00  0.00     0.186 HD
BRANCH  36  44
HETATM   44  N1  UNL     1       6.547   0.767   1.090  1.00  0.00    -0.321 N 
HETATM   45  C2  UNL     1       7.542   1.775   0.974  1.00  0.00     0.218 C 
HETATM   46  C1  UNL     1       7.753   2.763   2.075  1.00  0.00     0.117 C 
HETATM   47  O1  UNL     1       8.256   1.833  -0.072  1.00  0.00    -0.274 OA
ATOM     48  H1  UNL     1       5.969   0.712   1.928  1.00  0.00     0.169 HD
ENDBRANCH  36  44
BRANCH  40  49
HETATM   49  N13 UNL     1       5.813  -2.792  -2.981  1.00  0.00    -0.234 N 
ATOM     50 2H13 UNL     1       5.165  -2.613  -3.748  1.00  0.00     0.174 HD
ATOM     51 1H13 UNL     1       6.327  -3.673  -3.002  1.00  0.00     0.174 HD
ENDBRANCH  40  49
ENDBRANCH  34  35
ENDBRANCH   1  34
TORSDOF 10
