REMARK  7 active torsions:
REMARK  status: ('A' for Active; 'I' for Inactive)
REMARK    1  A    between atoms: C1_1  and  C23_35 
REMARK    2  A    between atoms: C2_2  and  C3_3 
REMARK    3  A    between atoms: C6_10  and  N3_11 
REMARK    4  A    between atoms: C11_17  and  N4_18 
REMARK    5  A    between atoms: N4_18  and  C12_20 
REMARK    6  A    between atoms: C23_35  and  C24_36 
REMARK    7  A    between atoms: C24_36  and  N7_37 
ROOT
HETATM    1  C3  UNL     1       2.684   0.783   1.172  1.00  0.00     0.035 A 
HETATM    2  C4  UNL     1       2.527   1.841   0.300  1.00  0.00     0.110 A 
HETATM    3  N1  UNL     1       1.360   2.099  -0.305  1.00  0.00    -0.349 N 
ATOM      4  H1  UNL     1       1.309   2.897  -0.938  1.00  0.00     0.167 HD
HETATM    5  C5  UNL     1       0.247   1.355  -0.118  1.00  0.00     0.134 A 
HETATM    6  N2  UNL     1      -0.905   1.643  -0.741  1.00  0.00    -0.324 N 
ATOM      7  H2  UNL     1      -0.939   2.443  -1.373  1.00  0.00     0.169 HD
HETATM    8  C6  UNL     1      -2.039   0.893  -0.554  1.00  0.00     0.150 A 
HETATM    9  C11 UNL     1      -1.950  -0.176   0.301  1.00  0.00     0.151 A 
HETATM   10  N6  UNL     1      -0.739  -0.453   0.936  1.00  0.00    -0.336 N 
ATOM     11  H6  UNL     1      -0.687  -1.251   1.570  1.00  0.00     0.168 HD
HETATM   12  C21 UNL     1       0.345   0.282   0.746  1.00  0.00     0.080 A 
HETATM   13  C22 UNL     1       1.555   0.017   1.371  1.00  0.00     0.055 A 
ENDROOT
BRANCH   1  14
HETATM   14  C2  UNL     1       3.930   0.490   1.832  1.00  0.00    -0.066 C 
HETATM   15  C1  UNL     1       4.965   0.240   2.403  1.00  0.00    -0.099 C 
BRANCH  15  16
HETATM   16  C23 UNL     1       6.206  -0.079   3.110  1.00  0.00     0.114 C 
BRANCH  16  17
HETATM   17  C24 UNL     1       7.335   0.848   2.686  1.00  0.00     0.142 C 
BRANCH  17  18
HETATM   18  N7  UNL     1       7.584   0.725   1.257  1.00  0.00    -0.339 N 
HETATM   19  C25 UNL     1       7.027   1.421   0.255  1.00  0.00     0.185 A 
HETATM   20  N8  UNL     1       7.533   1.000  -0.931  1.00  0.00    -0.337 N 
HETATM   21  C26 UNL     1       8.437   0.010  -0.684  1.00  0.00     0.133 A 
ATOM     22  H8  UNL     1       7.280   1.362  -1.850  1.00  0.00     0.168 HD
HETATM   23  N9  UNL     1       9.299  -0.854  -1.255  1.00  0.00    -0.350 N 
HETATM   24  C29 UNL     1       8.441  -0.133   0.688  1.00  0.00     0.081 A 
HETATM   25  C27 UNL     1       9.847  -1.541  -0.243  1.00  0.00     0.092 A 
ATOM     26  H9  UNL     1       9.494  -0.963  -2.250  1.00  0.00     0.166 HD
HETATM   27  C28 UNL     1       9.350  -1.130   0.963  1.00  0.00     0.050 A 
ENDBRANCH  17  18
ENDBRANCH  16  17
ENDBRANCH  15  16
ENDBRANCH   1  14
BRANCH   9  28
HETATM   28  N4  UNL     1      -2.865  -0.949   0.545  1.00  0.00    -0.339 N 
ATOM     29  H4  UNL     1      -2.462  -1.610   1.209  1.00  0.00     0.167 HD
BRANCH  28  30
HETATM   30  C12 UNL     1      -4.114  -1.368   0.388  1.00  0.00     0.034 A 
HETATM   31  C13 UNL     1      -5.042  -1.243   1.433  1.00  0.00     0.030 A 
HETATM   32  C14 UNL     1      -6.335  -1.673   1.316  1.00  0.00     0.016 A 
HETATM   33  C15 UNL     1      -6.750  -2.247   0.145  1.00  0.00    -0.010 A 
HETATM   34  C16 UNL     1      -8.057  -2.678   0.034  1.00  0.00     0.099 A 
HETATM   35  C19 UNL     1      -5.882  -2.400  -0.926  1.00  0.00    -0.021 A 
HETATM   36  N5  UNL     1      -8.455  -3.241  -1.120  1.00  0.00    -0.374 N 
HETATM   37  C17 UNL     1      -7.639  -3.403  -2.174  1.00  0.00     0.088 A 
ATOM     38  H5  UNL     1      -9.421  -3.560  -1.199  1.00  0.00     0.164 HD
HETATM   39  C18 UNL     1      -6.342  -2.985  -2.091  1.00  0.00     0.029 A 
HETATM   40  C20 UNL     1      -4.592  -1.959  -0.777  1.00  0.00     0.042 A 
ENDBRANCH  28  30
ENDBRANCH   9  28
BRANCH   8  41
HETATM   41  N3  UNL     1      -3.207   1.298  -1.234  1.00  0.00    -0.360 N 
HETATM   42  C7  UNL     1      -4.366   1.911  -0.665  1.00  0.00     0.151 C 
HETATM   43  C8  UNL     1      -4.789   3.113  -1.523  1.00  0.00     0.187 C 
HETATM   44  O1  UNL     1      -3.731   3.404  -2.374  1.00  0.00    -0.388 OA
HETATM   45  C9  UNL     1      -3.718   2.375  -3.354  1.00  0.00     0.187 C 
HETATM   46  C10 UNL     1      -3.210   1.091  -2.705  1.00  0.00     0.151 C 
ENDBRANCH   8  41
TORSDOF 7
