REMARK  13 active torsions:
REMARK  status: ('A' for Active; 'I' for Inactive)
REMARK    1  A    between atoms: N2_4  and  C1_6 
REMARK    2  A    between atoms: C1_6  and  N3_7 
REMARK    3  A    between atoms: N3_7  and  C2_9 
REMARK    4  A    between atoms: N5_16  and  C6_17 
REMARK    5  A    between atoms: C8_22  and  N7_23 
REMARK    6  A    between atoms: C10_25  and  C11_26 
REMARK    7  A    between atoms: C11_26  and  N8_27 
REMARK    8  A    between atoms: N8_27  and  C12_29 
REMARK    9  A    between atoms: C12_29  and  C13_30 
REMARK   10  A    between atoms: C12_29  and  C14_36 
REMARK   11  A    between atoms: N10_32  and  O2_34 
REMARK   12  A    between atoms: C15_41  and  N13_42 
REMARK   13  A    between atoms: C17_53  and  O4_54 
ROOT
HETATM    1  C6  UNL     1      -3.186   0.371  -0.405  1.00  0.00     0.337 C 
HETATM    2  N6  UNL     1      -2.677  -0.308  -1.578  1.00  0.00    -0.049 N 
ATOM      3  H61 UNL     1      -2.887   0.168  -2.455  1.00  0.00     0.279 HD
ATOM      4  H62 UNL     1      -3.165  -1.177  -1.798  1.00  0.00     0.279 HD
HETATM    5  C7  UNL     1      -1.242  -0.479  -1.321  1.00  0.00     0.264 C 
HETATM    6  C8  UNL     1      -0.824   0.712  -0.550  1.00  0.00     0.167 C 
HETATM    7  C17 UNL     1      -2.055   0.999   0.312  1.00  0.00     0.195 C 
ENDROOT
BRANCH   6   8
HETATM    8  N7  UNL     1       0.325   0.592   0.277  1.00  0.00    -0.278 N 
HETATM    9  C9  UNL     1       1.227  -0.380   0.487  1.00  0.00     0.144 A 
HETATM   10  C10 UNL     1       2.106   0.103   1.408  1.00  0.00     0.082 A 
HETATM   11  N15 UNL     1       1.743   1.325   1.738  1.00  0.00    -0.284 N 
HETATM   12  N16 UNL     1       0.680   1.628   1.067  1.00  0.00    -0.240 N 
ATOM     13  H15 UNL     1       2.219   1.929   2.408  1.00  0.00     0.188 HD
ATOM     14  H16 UNL     1       0.184   2.517   1.126  1.00  0.00     0.208 HD
BRANCH  10  15
HETATM   15  C11 UNL     1       3.331  -0.588   1.904  1.00  0.00     0.121 C 
BRANCH  15  16
HETATM   16  N8  UNL     1       3.808  -1.512   0.994  1.00  0.00    -0.359 N 
ATOM     17  H8  UNL     1       3.428  -2.457   1.048  1.00  0.00     0.165 HD
BRANCH  16  18
HETATM   18  C12 UNL     1       4.756  -1.268   0.017  1.00  0.00     0.109 C 
BRANCH  18  19
HETATM   19  C13 UNL     1       5.565  -2.435  -0.321  1.00  0.00     0.165 C 
HETATM   20  N9  UNL     1       6.922  -2.539   0.023  1.00  0.00    -0.078 NA
HETATM   21  N10 UNL     1       5.014  -3.413  -0.952  1.00  0.00    -0.253 N 
ATOM     22  H10 UNL     1       4.027  -3.340  -1.197  1.00  0.00     0.195 HD
BRANCH  21  23
HETATM   23  O2  UNL     1       5.683  -4.529  -1.303  1.00  0.00    -0.288 OA
ATOM     24  H2  UNL     1       5.277  -5.251  -1.769  1.00  0.00     0.244 HD
ENDBRANCH  21  23
ENDBRANCH  18  19
BRANCH  18  25
HETATM   25  C14 UNL     1       5.543  -0.045   0.017  1.00  0.00     0.147 A 
HETATM   26  N11 UNL     1       5.660   0.844   0.989  1.00  0.00    -0.279 N 
HETATM   27  N12 UNL     1       6.345   1.943   0.983  1.00  0.00    -0.132 N 
ATOM     28  H11 UNL     1       5.149   0.639   1.848  1.00  0.00     0.188 HD
HETATM   29  C15 UNL     1       7.025   2.234  -0.147  1.00  0.00     0.693 A 
ATOM     30  H12 UNL     1       6.370   2.560   1.794  1.00  0.00     0.205 HD
HETATM   31  N14 UNL     1       6.975   1.399  -1.193  1.00  0.00    -0.153 N 
HETATM   32  C16 UNL     1       6.257   0.258  -1.162  1.00  0.00     0.290 A 
ATOM     33  H14 UNL     1       7.496   1.633  -2.038  1.00  0.00     0.187 HD
HETATM   34  O3  UNL     1       6.207  -0.529  -2.129  1.00  0.00    -0.265 OA
BRANCH  29  35
HETATM   35  N13 UNL     1       7.707   3.316  -0.208  1.00  0.00    -0.233 N 
ATOM     36 2H13 UNL     1       7.745   3.952   0.589  1.00  0.00     0.174 HD
ATOM     37 1H13 UNL     1       8.221   3.536  -1.061  1.00  0.00     0.174 HD
ENDBRANCH  29  35
ENDBRANCH  18  25
ENDBRANCH  16  18
ENDBRANCH  15  16
ENDBRANCH  10  15
ENDBRANCH   6   8
BRANCH   7  38
HETATM   38  O4  UNL     1      -2.175   2.315   0.662  1.00  0.00    -0.389 OA
ATOM     39  H4  UNL     1      -1.449   2.718   1.123  1.00  0.00     0.210 HD
ENDBRANCH   7  38
BRANCH   1  40
HETATM   40  N5  UNL     1      -4.307   1.246  -0.644  1.00  0.00    -0.160 N 
HETATM   41  C2  UNL     1      -5.582   0.817  -0.354  1.00  0.00     0.690 A 
HETATM   42  N4  UNL     1      -6.664   1.593  -0.523  1.00  0.00    -0.156 N 
HETATM   43  C3  UNL     1      -6.512   2.855  -1.001  1.00  0.00     0.260 A 
ATOM     44  H4  UNL     1      -7.592   1.238  -0.294  1.00  0.00     0.187 HD
HETATM   45  O1  UNL     1      -7.551   3.577  -1.153  1.00  0.00    -0.268 OA
HETATM   46  C4  UNL     1      -5.251   3.305  -1.299  1.00  0.00     0.092 A 
HETATM   47  C5  UNL     1      -4.154   2.482  -1.113  1.00  0.00     0.117 A 
BRANCH  41  48
HETATM   48  N3  UNL     1      -5.651  -0.376   0.094  1.00  0.00    -0.154 N 
ATOM     49  H3  UNL     1      -4.747  -0.843   0.165  1.00  0.00     0.184 HD
BRANCH  48  50
HETATM   50  C1  UNL     1      -6.734  -1.167   0.507  1.00  0.00     0.367 C 
HETATM   51  N17 UNL     1      -6.197  -2.421   1.085  1.00  0.00    -0.037 NA
HETATM   52  N18 UNL     1      -7.186  -2.795   2.010  1.00  0.00    -0.221 N 
HETATM   53  N19 UNL     1      -7.888  -1.783   2.319  1.00  0.00    -0.190 N 
ATOM     54  H18 UNL     1      -7.320  -3.737   2.378  1.00  0.00     0.206 HD
HETATM   55  O5  UNL     1      -7.439  -0.652   1.635  1.00  0.00    -0.189 OA
ATOM     56  H19 UNL     1      -8.670  -1.795   2.974  1.00  0.00     0.217 HD
BRANCH  50  57
HETATM   57  N2  UNL     1      -7.627  -1.563  -0.519  1.00  0.00    -0.272 N 
HETATM   58  N1  UNL     1      -8.486  -2.414  -0.196  1.00  0.00    -0.344 N 
ATOM     59  H12 UNL     1      -8.527  -2.789   0.752  1.00  0.00     0.176 HD
ATOM     60  H11 UNL     1      -9.129  -2.699  -0.935  1.00  0.00     0.176 HD
ATOM     61  H2  UNL     1      -7.573  -1.179  -1.462  1.00  0.00     0.186 HD
ENDBRANCH  50  57
ENDBRANCH  48  50
ENDBRANCH  41  48
ENDBRANCH   1  40
TORSDOF 13
