REMARK  20 active torsions:
REMARK  status: ('A' for Active; 'I' for Inactive)
REMARK    1  A    between atoms: C2_2  and  O1_3 
REMARK    2  A    between atoms: C2_2  and  N1_5 
REMARK    3  A    between atoms: N1_5  and  N2_6 
REMARK    4  A    between atoms: N2_6  and  S1_8 
REMARK    5  A    between atoms: S1_8  and  C3_10 
REMARK    6  A    between atoms: C3_10  and  C4_11 
REMARK    7  A    between atoms: C4_11  and  C5_12 
REMARK    8  A    between atoms: N5_20  and  C9_21 
REMARK    9  A    between atoms: C10_22  and  O3_23 
REMARK   10  A    between atoms: C11_25  and  O4_26 
REMARK   11  A    between atoms: C12_28  and  C13_29 
REMARK   12  A    between atoms: C13_29  and  O5_30 
REMARK   13  A    between atoms: C14_32  and  N6_33 
REMARK   14  A    between atoms: C15_38  and  C16_39 
REMARK   15  A    between atoms: C16_39  and  O6_40 
REMARK   16  A    between atoms: C16_39  and  O7_42 
REMARK   17  A    between atoms: C17_44  and  C18_45 
REMARK   18  A    between atoms: C18_45  and  C19_46 
REMARK   19  A    between atoms: C19_46  and  N9_47 
REMARK   20  A    between atoms: C20_50  and  N10_51 
ROOT
HETATM    1  C9  UNL     1      -2.120   1.955  -0.681  1.00  0.00     0.172 C 
HETATM    2  C10 UNL     1      -3.374   2.801  -0.750  1.00  0.00     0.176 C 
HETATM    3  C11 UNL     1      -4.143   2.277  -1.965  1.00  0.00     0.161 C 
HETATM    4  C12 UNL     1      -3.382   1.079  -2.462  1.00  0.00     0.091 C 
HETATM    5  C14 UNL     1      -2.408   0.684  -1.407  1.00  0.00     0.049 C 
ENDROOT
BRANCH   1   6
HETATM    6  N5  UNL     1      -1.508   1.865   0.598  1.00  0.00    -0.314 N 
HETATM    7  C6  UNL     1      -0.228   1.491   0.797  1.00  0.00     0.141 A 
HETATM    8  N3  UNL     1       0.782   1.115  -0.040  1.00  0.00    -0.330 N 
HETATM    9  C7  UNL     1       0.060   1.516   2.144  1.00  0.00     0.122 A 
HETATM   10  C5  UNL     1       2.002   0.778   0.355  1.00  0.00     0.085 A 
ATOM     11  H3  UNL     1       0.584   1.092  -1.040  1.00  0.00     0.168 HD
HETATM   12  N11 UNL     1       2.289   0.800   1.669  1.00  0.00    -0.330 N 
HETATM   13  C20 UNL     1       1.321   1.168   2.564  1.00  0.00     0.131 A 
ATOM     14  H11 UNL     1       3.221   0.544   1.996  1.00  0.00     0.168 HD
HETATM   15  N4  UNL     1      -1.081   1.913   2.732  1.00  0.00    -0.346 N 
HETATM   16  C8  UNL     1      -2.029   2.124   1.805  1.00  0.00     0.186 A 
ATOM     17  H4  UNL     1      -1.208   2.036   3.736  1.00  0.00     0.167 HD
BRANCH  10  18
HETATM   18  C4  UNL     1       3.079   0.372  -0.604  1.00  0.00     0.091 C 
BRANCH  18  19
HETATM   19  C3  UNL     1       4.352   0.051   0.143  1.00  0.00     0.140 C 
BRANCH  19  20
HETATM   20  S1  UNL     1       5.609  -0.428  -1.015  1.00  0.00     0.126 S 
HETATM   21  O2  UNL     1       5.904   0.778  -2.142  1.00  0.00    -0.235 OA
BRANCH  20  22
HETATM   22  N2  UNL     1       7.077  -0.803  -0.223  1.00  0.00    -0.250 N 
ATOM     23  H2  UNL     1       7.932  -0.260  -0.343  1.00  0.00     0.193 HD
BRANCH  22  24
HETATM   24  N1  UNL     1       6.993  -1.921   0.601  1.00  0.00    -0.102 NA
BRANCH  24  25
HETATM   25  C2  UNL     1       8.285  -2.581   0.578  1.00  0.00     0.227 C 
HETATM   26  C1  UNL     1       8.685  -3.022  -0.793  1.00  0.00     0.060 C 
BRANCH  25  27
HETATM   27  O1  UNL     1       9.238  -1.720   1.113  1.00  0.00    -0.378 OA
ATOM     28  H1  UNL     1       8.984  -1.440   1.984  1.00  0.00     0.211 HD
ENDBRANCH  25  27
ENDBRANCH  24  25
ENDBRANCH  22  24
ENDBRANCH  20  22
ENDBRANCH  19  20
ENDBRANCH  18  19
ENDBRANCH  10  18
BRANCH  13  29
HETATM   29  N10 UNL     1       1.589   1.191   3.817  1.00  0.00    -0.383 N 
ATOM     30 2H10 UNL     1       0.868   1.465   4.484  1.00  0.00     0.157 HD
ATOM     31 1H10 UNL     1       2.525   0.933   4.129  1.00  0.00     0.157 HD
ENDBRANCH  13  29
ENDBRANCH   1   6
BRANCH   2  32
HETATM   32  O3  UNL     1      -3.116   4.159  -0.934  1.00  0.00    -0.391 OA
ATOM     33  H3  UNL     1      -3.903   4.690  -0.977  1.00  0.00     0.210 HD
ENDBRANCH   2  32
BRANCH   5  34
HETATM   34  N6  UNL     1      -2.545  -0.525  -0.704  1.00  0.00    -0.237 N 
HETATM   35  N7  UNL     1      -1.659  -1.551  -0.733  1.00  0.00    -0.235 N 
HETATM   36  N8  UNL     1      -1.987  -2.559  -0.016  1.00  0.00    -0.282 N 
ATOM     37  H7  UNL     1      -0.800  -1.522  -1.282  1.00  0.00     0.209 HD
HETATM   38  C15 UNL     1      -3.140  -2.288   0.563  1.00  0.00     0.119 A 
ATOM     39  H8  UNL     1      -1.451  -3.420   0.089  1.00  0.00     0.188 HD
HETATM   40  C17 UNL     1      -3.488  -1.019   0.135  1.00  0.00     0.141 A 
BRANCH  38  41
HETATM   41  C16 UNL     1      -3.879  -3.190   1.482  1.00  0.00     0.309 C 
BRANCH  41  42
HETATM   42  O6  UNL     1      -5.233  -3.210   1.146  1.00  0.00    -0.366 OA
ATOM     43  H6  UNL     1      -5.706  -3.787   1.734  1.00  0.00     0.213 HD
ENDBRANCH  41  42
BRANCH  41  44
HETATM   44  O7  UNL     1      -3.812  -2.704   2.802  1.00  0.00    -0.366 OA
ATOM     45  H7  UNL     1      -4.285  -3.281   3.390  1.00  0.00     0.213 HD
ENDBRANCH  41  44
ENDBRANCH  38  41
BRANCH  40  46
HETATM   46  C18 UNL     1      -4.668  -0.363   0.533  1.00  0.00    -0.022 C 
BRANCH  46  47
HETATM   47  C19 UNL     1      -5.670   0.168   0.873  1.00  0.00     0.010 C 
BRANCH  47  48
HETATM   48  N9  UNL     1      -6.843   0.817   1.268  1.00  0.00    -0.359 N 
ATOM     49  H92 UNL     1      -5.937   1.077   0.879  1.00  0.00     0.166 HD
ATOM     50  H91 UNL     1      -7.706   1.274   1.561  1.00  0.00     0.166 HD
ENDBRANCH  47  48
ENDBRANCH  46  47
ENDBRANCH  40  46
ENDBRANCH   5  34
BRANCH   3  51
HETATM   51  O4  UNL     1      -4.308   3.288  -2.881  1.00  0.00    -0.392 OA
ATOM     52  H4  UNL     1      -4.785   2.963  -3.635  1.00  0.00     0.210 HD
ENDBRANCH   3  51
BRANCH   4  53
HETATM   53  C13 UNL     1      -4.206   0.008  -3.081  1.00  0.00     0.177 C 
BRANCH  53  54
HETATM   54  O5  UNL     1      -3.417  -1.077  -3.510  1.00  0.00    -0.400 OA
ATOM     55  H5  UNL     1      -3.944  -1.762  -3.906  1.00  0.00     0.209 HD
ENDBRANCH  53  54
ENDBRANCH   4  53
TORSDOF 20
