REMARK  5 active torsions:
REMARK  status: ('A' for Active; 'I' for Inactive)
REMARK    1  A    between atoms: C2_5  and  C3_6 
REMARK    2  A    between atoms: C3_6  and  C4_7 
REMARK    3  A    between atoms: C5_10  and  S1_11 
REMARK    4  A    between atoms: S1_11  and  C6_12 
REMARK    5  A    between atoms: C16_22  and  N3_23 
ROOT
HETATM    1  C1  UNL     1       4.326   2.870   0.014  1.00  0.00     0.179 C 
HETATM    2  N1  UNL     1       3.597   1.604  -0.041  1.00  0.00    -0.280 N 
HETATM    3  N2  UNL     1       3.815   0.617  -0.894  1.00  0.00    -0.296 N 
ATOM      4  H2  UNL     1       4.526   0.624  -1.625  1.00  0.00     0.187 HD
HETATM    5  C2  UNL     1       2.948  -0.415  -0.653  1.00  0.00     0.071 A 
HETATM    6  C5  UNL     1       2.152  -0.041   0.405  1.00  0.00     0.074 A 
HETATM    7  C16 UNL     1       2.585   1.227   0.764  1.00  0.00     0.134 A 
ENDROOT
BRANCH   6   8
HETATM    8  S1  UNL     1       0.807  -0.903   1.188  1.00  0.00    -0.114 SA
BRANCH   8   9
HETATM    9  C6  UNL     1      -0.787  -0.557   0.449  1.00  0.00     0.014 C 
HETATM   10  C7  UNL     1      -0.916  -1.059  -0.963  1.00  0.00     0.025 C 
HETATM   11  C8  UNL     1      -2.309  -0.714  -1.449  1.00  0.00    -0.012 C 
HETATM   12  C9  UNL     1      -3.374  -1.418  -0.656  1.00  0.00     0.009 C 
HETATM   13  C13 UNL     1      -2.558   0.774  -1.340  1.00  0.00     0.009 C 
HETATM   14  C10 UNL     1      -3.221  -1.042   0.808  1.00  0.00    -0.012 C 
HETATM   15  C11 UNL     1      -3.491   0.424   0.977  1.00  0.00     0.009 C 
HETATM   16  C15 UNL     1      -1.821  -1.349   1.262  1.00  0.00     0.025 C 
HETATM   17  C12 UNL     1      -2.531   1.193   0.107  1.00  0.00    -0.012 C 
HETATM   18  C14 UNL     1      -1.120   0.887   0.621  1.00  0.00     0.025 C 
ENDBRANCH   8   9
ENDBRANCH   6   8
BRANCH   5  19
HETATM   19  C3  UNL     1       2.915  -1.624  -1.437  1.00  0.00     0.069 C 
BRANCH  19  20
HETATM   20  C4  UNL     1       2.980  -2.815  -0.896  1.00  0.00     0.105 C 
HETATM   21 CL1  UNL     1       3.119  -3.157   0.810  1.00  0.00    -0.071 Cl
HETATM   22 CL2  UNL     1       2.920  -4.224  -1.970  1.00  0.00    -0.071 Cl
ENDBRANCH  19  20
ENDBRANCH   5  19
BRANCH   7  23
HETATM   23  N3  UNL     1       2.106   1.940   1.714  1.00  0.00    -0.383 N 
ATOM     24  H32 UNL     1       2.424   2.872   1.978  1.00  0.00     0.157 HD
ATOM     25  H31 UNL     1       1.340   1.655   2.324  1.00  0.00     0.157 HD
ENDBRANCH   7  23
TORSDOF 5
