REMARK  5 active torsions:
REMARK  status: ('A' for Active; 'I' for Inactive)
REMARK    1  A    between atoms: O1_1  and  N1_3 
REMARK    2  A    between atoms: C1_5  and  C2_6 
REMARK    3  A    between atoms: C1_5  and  N3_17 
REMARK    4  A    between atoms: C3_7  and  C4_8 
REMARK    5  A    between atoms: N3_17  and  C9_19 
ROOT
HETATM    1  N1  UNL     1      -0.959   2.748   1.342  1.00  0.00    -0.253 N 
ATOM      2  H1  UNL     1       0.001   3.033   1.534  1.00  0.00     0.196 HD
HETATM    3  C1  UNL     1      -1.158   1.530   0.989  1.00  0.00     0.121 C 
ENDROOT
BRANCH   3   4
HETATM    4  C2  UNL     1      -2.530   1.119   0.713  1.00  0.00     0.051 C 
HETATM    5  C3  UNL     1      -2.829  -0.097   0.349  1.00  0.00     0.016 C 
BRANCH   5   6
HETATM    6  C4  UNL     1      -4.175  -0.517   0.075  1.00  0.00    -0.019 A 
HETATM    7  C5  UNL     1      -4.420  -1.832  -0.310  1.00  0.00     0.100 A 
HETATM    8  N2  UNL     1      -5.639  -2.255  -0.570  1.00  0.00    -0.354 N 
HETATM    9  C6  UNL     1      -6.695  -1.462  -0.482  1.00  0.00     0.125 A 
ATOM     10  H2  UNL     1      -5.774  -3.227  -0.849  1.00  0.00     0.166 HD
HETATM   11 CL1  UNL     1      -8.293  -2.109  -0.848  1.00  0.00    -0.063 Cl
HETATM   12  C7  UNL     1      -6.507  -0.169  -0.110  1.00  0.00     0.073 A 
HETATM   13 CL2  UNL     1      -7.899   0.884   0.008  1.00  0.00    -0.081 Cl
HETATM   14  C8  UNL     1      -5.242   0.329   0.176  1.00  0.00     0.040 A 
ENDBRANCH   5   6
ENDBRANCH   3   4
BRANCH   3  15
HETATM   15  N3  UNL     1      -0.120   0.575   0.854  1.00  0.00    -0.370 N 
ATOM     16  H3  UNL     1       0.061  -0.050   1.639  1.00  0.00     0.161 HD
BRANCH  15  17
HETATM   17  C9  UNL     1       0.694   0.434  -0.323  1.00  0.00     0.083 C 
HETATM   18  C10 UNL     1       1.665  -0.609  -0.189  1.00  0.00     0.025 C 
HETATM   19  C11 UNL     1       1.644  -2.029   0.092  1.00  0.00     0.002 C 
HETATM   20  C12 UNL     1       3.145  -2.379  -0.080  1.00  0.00     0.000 C 
HETATM   21  C13 UNL     1       4.125  -1.351   0.363  1.00  0.00     0.000 C 
HETATM   22  C14 UNL     1       4.609  -0.323  -0.586  1.00  0.00     0.000 C 
HETATM   23  C15 UNL     1       4.109   1.082  -0.487  1.00  0.00     0.000 C 
HETATM   24  C16 UNL     1       2.879   1.479  -1.221  1.00  0.00     0.002 C 
HETATM   25  C17 UNL     1       1.607   1.680  -0.487  1.00  0.00     0.025 C 
ENDBRANCH  15  17
ENDBRANCH   3  15
BRANCH   1  26
HETATM   26  O1  UNL     1      -1.928   3.682   1.478  1.00  0.00    -0.288 OA
ATOM     27  H1  UNL     1      -1.781   4.583   1.739  1.00  0.00     0.244 HD
ENDBRANCH   1  26
TORSDOF 5
