REMARK  1 active torsions:
REMARK  status: ('A' for Active; 'I' for Inactive)
REMARK    1  A    between atoms: C2_2  and  N1_4 
REMARK       I    between atoms: C4_6  and  N3_8 
REMARK       I    between atoms: N3_8  and  C5_10 
REMARK       I    between atoms: C5_10  and  N5_14 
ROOT
HETATM    1  N1  UNL     1       2.264   0.557  -0.136  1.00  0.00    -0.360 N 
ATOM      2  H1  UNL     1       1.609   0.726  -0.899  1.00  0.00     0.162 HD
HETATM    3  C4  UNL     1       1.819   0.009   0.931  1.00  0.00     0.203 C 
HETATM    4  N2  UNL     1       2.714  -0.236   2.001  1.00  0.00    -0.063 NA
HETATM    5  N3  UNL     1       0.460  -0.369   1.093  1.00  0.00    -0.164 N 
ATOM      6  H3  UNL     1      -0.024  -0.076   1.942  1.00  0.00     0.187 HD
HETATM    7  C5  UNL     1      -0.257  -1.128   0.144  1.00  0.00     0.676 C 
HETATM    8  N4  UNL     1       0.439  -1.920  -0.628  1.00  0.00    -0.234 N 
ATOM      9  H41 UNL     1      -0.079  -2.469  -1.314  1.00  0.00     0.174 HD
ATOM     10  H42 UNL     1       1.453  -1.971  -0.530  1.00  0.00     0.174 HD
HETATM   11  N5  UNL     1      -1.671  -1.057   0.008  1.00  0.00    -0.211 N 
HETATM   12  C6  UNL     1      -2.263  -0.981  -1.320  1.00  0.00     0.148 C 
HETATM   13  C7  UNL     1      -3.742  -0.761  -1.237  1.00  0.00     0.080 C 
HETATM   14  C8  UNL     1      -4.122   0.185  -0.154  1.00  0.00     0.044 A 
HETATM   15  N6  UNL     1      -4.962   1.215  -0.025  1.00  0.00    -0.332 N 
ATOM     16  H6  UNL     1      -5.574   1.579  -0.755  1.00  0.00     0.168 HD
HETATM   17  C9  UNL     1      -4.867   1.689   1.222  1.00  0.00     0.196 A 
HETATM   18 BR1  UNL     1      -5.827   3.163   2.005  1.00  0.00    -0.002 Br
HETATM   19  O1  UNL     1      -3.982   0.957   1.841  1.00  0.00    -0.288 OA
HETATM   20  C10 UNL     1      -3.496   0.035   1.070  1.00  0.00     0.097 A 
HETATM   21  C11 UNL     1      -2.498  -1.061   1.189  1.00  0.00     0.208 C 
ENDROOT
BRANCH   1  22
HETATM   22  C2  UNL     1       3.637   0.948  -0.320  1.00  0.00     0.076 C 
HETATM   23  C1  UNL     1       3.745   2.141  -1.212  1.00  0.00     0.032 C 
HETATM   24  C3  UNL     1       4.403  -0.200  -0.984  1.00  0.00     0.032 C 
ENDBRANCH   1  22
TORSDOF 1
