REMARK  11 active torsions:
REMARK  status: ('A' for Active; 'I' for Inactive)
REMARK    1  A    between atoms: C5_6  and  N1_7 
REMARK    2  A    between atoms: N1_7  and  C6_9 
REMARK    3  A    between atoms: C6_9  and  O2_10 
REMARK    4  A    between atoms: C6_9  and  C7_12 
REMARK    5  A    between atoms: C7_12  and  O3_13 
REMARK    6  A    between atoms: C7_12  and  C8_15 
REMARK    7  A    between atoms: C8_15  and  O4_17 
REMARK    8  A    between atoms: O4_17  and  C10_18 
REMARK    9  A    between atoms: C12_25  and  C13_26 
REMARK   10  A    between atoms: N8_36  and  N9_37 
REMARK   11  A    between atoms: N10_40  and  N11_41 
ROOT
HETATM    1  C1  UNL     1      -3.194  -0.789  -3.848  1.00  0.00     0.070 C 
HETATM    2  C2  UNL     1      -2.040  -0.322  -3.036  1.00  0.00     0.036 A 
HETATM    3  C3  UNL     1      -0.848  -0.108  -3.652  1.00  0.00     0.084 A 
HETATM    4  C4  UNL     1       0.214   0.321  -2.901  1.00  0.00     0.204 A 
HETATM    5  O1  UNL     1       1.336   0.544  -3.377  1.00  0.00    -0.286 OA
HETATM    6  C5  UNL     1       0.027   0.520  -1.525  1.00  0.00     0.131 A 
HETATM    7  C11 UNL     1      -1.199   0.296  -0.933  1.00  0.00     0.199 A 
HETATM    8  N3  UNL     1      -2.236  -0.131  -1.707  1.00  0.00    -0.237 N 
HETATM    9  N4  UNL     1      -3.516  -0.360  -1.194  1.00  0.00    -0.271 N 
ATOM     10  H4  UNL     1      -4.253  -0.681  -1.822  1.00  0.00     0.189 HD
HETATM   11  C12 UNL     1      -3.794  -0.173   0.073  1.00  0.00     0.208 A 
HETATM   12  N8  UNL     1      -2.788   0.272   0.949  1.00  0.00    -0.158 N 
HETATM   13  N10 UNL     1      -1.491   0.505   0.435  1.00  0.00    -0.159 N 
ENDROOT
BRANCH   6  14
HETATM   14  N1  UNL     1       1.129   0.942  -0.750  1.00  0.00    -0.355 N 
ATOM     15  H1  UNL     1       1.154   1.884  -0.359  1.00  0.00     0.162 HD
BRANCH  14  16
HETATM   16  C6  UNL     1       2.222   0.024  -0.517  1.00  0.00     0.249 C 
BRANCH  16  17
HETATM   17  O2  UNL     1       1.750  -1.146   0.022  1.00  0.00    -0.374 OA
ATOM     18  H2  UNL     1       2.468  -1.749   0.175  1.00  0.00     0.212 HD
ENDBRANCH  16  17
BRANCH  16  19
HETATM   19  C7  UNL     1       3.340   0.633   0.280  1.00  0.00     0.195 C 
BRANCH  19  20
HETATM   20  O3  UNL     1       2.976   1.023   1.537  1.00  0.00    -0.389 OA
ATOM     21  H3  UNL     1       3.683   1.408   2.041  1.00  0.00     0.210 HD
ENDBRANCH  19  20
BRANCH  19  22
HETATM   22  C8  UNL     1       4.562  -0.233   0.195  1.00  0.00     0.162 C 
HETATM   23  C9  UNL     1       4.385  -1.570   0.849  1.00  0.00     0.043 C 
BRANCH  22  24
HETATM   24  O4  UNL     1       5.715   0.440   0.691  1.00  0.00    -0.299 OA
BRANCH  24  25
HETATM   25  C10 UNL     1       6.793   0.749  -0.125  1.00  0.00     0.373 C 
HETATM   26  N2  UNL     1       7.948   1.418   0.350  1.00  0.00    -0.032 NA
HETATM   27  O5  UNL     1       6.681   0.390  -1.342  1.00  0.00    -0.242 OA
ENDBRANCH  24  25
ENDBRANCH  22  24
ENDBRANCH  19  22
ENDBRANCH  16  19
ENDBRANCH  14  16
ENDBRANCH   6  14
BRANCH  13  28
HETATM   28  N11 UNL     1      -0.503   1.001   1.276  1.00  0.00    -0.321 N 
ATOM     29 2H11 UNL     1       0.432   1.169   0.905  1.00  0.00     0.179 HD
ATOM     30 1H11 UNL     1      -0.714   1.152   2.263  1.00  0.00     0.179 HD
ENDBRANCH  13  28
BRANCH  12  31
HETATM   31  N9  UNL     1      -3.028   0.490   2.282  1.00  0.00    -0.321 N 
ATOM     32  H92 UNL     1      -3.963   0.322   2.653  1.00  0.00     0.179 HD
ATOM     33  H91 UNL     1      -2.298   0.813   2.917  1.00  0.00     0.179 HD
ENDBRANCH  12  31
BRANCH  11  34
HETATM   34  C13 UNL     1      -5.132  -0.416   0.591  1.00  0.00     0.178 A 
HETATM   35  N5  UNL     1      -6.275  -0.187  -0.112  1.00  0.00    -0.302 N 
HETATM   36  C14 UNL     1      -7.337  -0.510   0.623  1.00  0.00     0.242 A 
ATOM     37  H5  UNL     1      -6.312   0.179  -1.063  1.00  0.00     0.171 HD
HETATM   38  N6  UNL     1      -8.603  -0.435   0.311  1.00  0.00    -0.364 N 
HETATM   39  O6  UNL     1      -6.871  -0.938   1.778  1.00  0.00    -0.199 OA
ATOM     40  H62 UNL     1      -8.964  -0.104  -0.584  1.00  0.00     0.159 HD
ATOM     41  H61 UNL     1      -9.417  -0.682   0.874  1.00  0.00     0.159 HD
HETATM   42  N7  UNL     1      -5.556  -0.888   1.772  1.00  0.00    -0.238 N 
ATOM     43  H7  UNL     1      -4.953  -1.165   2.546  1.00  0.00     0.197 HD
ENDBRANCH  11  34
TORSDOF 11
