REMARK  2 active torsions:
REMARK  status: ('A' for Active; 'I' for Inactive)
REMARK    1  A    between atoms: C7_13  and  N4_14 
REMARK    2  A    between atoms: N4_14  and  N5_16 
ROOT
HETATM    1  C1  UNL     1      -0.724  -2.051  -1.325  1.00  0.00     0.040 C 
HETATM    2  C2  UNL     1      -0.288  -1.294  -0.092  1.00  0.00     0.141 C 
HETATM    3  N1  UNL     1      -1.350  -0.923   0.781  1.00  0.00    -0.409 N 
ATOM      4  H1  UNL     1      -1.158  -0.536   1.705  1.00  0.00     0.154 HD
HETATM    5  C3  UNL     1      -2.679  -1.106   0.331  1.00  0.00     0.133 C 
HETATM    6  C4  UNL     1      -3.472   0.163   0.267  1.00  0.00     0.133 C 
HETATM    7  N2  UNL     1      -2.934   1.263   0.974  1.00  0.00    -0.418 N 
ATOM      8  H2  UNL     1      -3.445   1.677   1.753  1.00  0.00     0.153 HD
HETATM    9  C5  UNL     1      -1.678   1.780   0.585  1.00  0.00     0.133 C 
HETATM   10  C6  UNL     1      -1.189   1.431  -0.781  1.00  0.00     0.140 C 
HETATM   11  N3  UNL     1       0.184   0.982  -0.733  1.00  0.00    -0.375 N 
ATOM     12  H3  UNL     1       0.893   1.679  -0.959  1.00  0.00     0.160 HD
HETATM   13  C7  UNL     1       0.609  -0.168  -0.445  1.00  0.00     0.114 C 
ENDROOT
BRANCH  13  14
HETATM   14  N4  UNL     1       2.007  -0.432  -0.453  1.00  0.00    -0.285 N 
ATOM     15  H4  UNL     1       2.452  -0.919  -1.231  1.00  0.00     0.188 HD
BRANCH  14  16
HETATM   16  N5  UNL     1       2.746   0.006   0.654  1.00  0.00    -0.275 N 
HETATM   17  C8  UNL     1       3.953   0.432   0.452  1.00  0.00     0.215 C 
HETATM   18  N6  UNL     1       4.528   0.460  -0.868  1.00  0.00    -0.065 NA
HETATM   19  N7  UNL     1       4.761   0.889   1.512  1.00  0.00    -0.065 NA
ATOM     20  H5  UNL     1       2.345  -0.010   1.592  1.00  0.00     0.189 HD
ENDBRANCH  14  16
ENDBRANCH  13  14
TORSDOF 2
