REMARK  2 active torsions:
REMARK  status: ('A' for Active; 'I' for Inactive)
REMARK    1  A    between atoms: N2_8  and  C4_9 
REMARK    2  A    between atoms: C4_9  and  C5_10 
ROOT
HETATM    1  C5  UNL     1       0.376  -0.031  -0.730  1.00  0.00     0.008 C 
HETATM    2  C6  UNL     1      -0.266  -0.441   0.541  1.00  0.00     0.039 C 
HETATM    3  C7  UNL     1      -1.552  -1.206   0.343  1.00  0.00     0.186 C 
HETATM    4  C8  UNL     1      -2.625  -0.683   1.271  1.00  0.00     0.033 C 
HETATM    5  C9  UNL     1      -3.260   0.584   0.794  1.00  0.00     0.004 C 
HETATM    6  C10 UNL     1      -2.593   1.239  -0.366  1.00  0.00     0.033 C 
HETATM    7  C11 UNL     1      -2.020   0.299  -1.382  1.00  0.00     0.186 C 
HETATM    8  C12 UNL     1      -0.567   0.634  -1.701  1.00  0.00     0.039 C 
HETATM    9  N3  UNL     1      -2.060  -1.081  -1.007  1.00  0.00    -0.067 N 
ATOM     10  H31 UNL     1      -2.989  -1.489  -1.115  1.00  0.00     0.278 HD
ATOM     11  H32 UNL     1      -1.566  -1.681  -1.668  1.00  0.00     0.278 HD
ENDROOT
BRANCH   1  12
HETATM   12  C4  UNL     1       1.591   0.831  -0.565  1.00  0.00     0.137 C 
BRANCH  12  13
HETATM   13  N2  UNL     1       2.669   0.243   0.163  1.00  0.00    -0.316 N 
HETATM   14  C1  UNL     1       3.014   0.259   1.459  1.00  0.00     0.178 A 
HETATM   15  S1  UNL     1       2.224   1.054   2.633  1.00  0.00    -0.040 SA
HETATM   16  N1  UNL     1       4.135  -0.477   1.671  1.00  0.00    -0.340 N 
HETATM   17  C2  UNL     1       4.527  -0.979   0.494  1.00  0.00     0.128 A 
ATOM     18  H1  UNL     1       4.597  -0.622   2.569  1.00  0.00     0.167 HD
HETATM   19  C3  UNL     1       3.613  -0.528  -0.433  1.00  0.00     0.099 A 
HETATM   20 BR1  UNL     1       3.719  -0.964  -2.283  1.00  0.00    -0.029 Br
ENDBRANCH  12  13
ENDBRANCH   1  12
TORSDOF 2
