REMARK  2 active torsions:
REMARK  status: ('A' for Active; 'I' for Inactive)
REMARK    1  A    between atoms: O1_1  and  C1_3 
REMARK    2  A    between atoms: N1_6  and  C4_7 
ROOT
HETATM    1  C4  UNL     1       0.974  -0.373   0.104  1.00  0.00     0.224 C 
HETATM    2  C5  UNL     1       0.379  -0.976   1.367  1.00  0.00     0.036 C 
HETATM    3  C6  UNL     1      -1.103  -0.950   1.005  1.00  0.00     0.014 C 
HETATM    4  C7  UNL     1      -1.230   0.414   0.418  1.00  0.00    -0.011 C 
HETATM    5  C8  UNL     1      -1.721   1.300   1.566  1.00  0.00     0.178 C 
HETATM    6  O2  UNL     1      -3.015   0.767   1.703  1.00  0.00    -0.385 OA
HETATM    7  C9  UNL     1      -3.527   0.747   0.419  1.00  0.00     0.126 C 
HETATM    8  C10 UNL     1      -4.291  -0.520   0.102  1.00  0.00     0.032 C 
HETATM    9  C11 UNL     1      -4.142  -0.571  -1.415  1.00  0.00     0.003 C 
HETATM   10  C12 UNL     1      -2.632  -0.390  -1.537  1.00  0.00     0.008 C 
HETATM   11  C13 UNL     1      -2.346   0.629  -0.530  1.00  0.00     0.025 C 
HETATM   12  C14 UNL     1       0.112   0.846  -0.092  1.00  0.00     0.048 C 
ENDROOT
BRANCH   1  13
HETATM   13  N1  UNL     1       2.325   0.028   0.398  1.00  0.00     0.095 N 
HETATM   14  C3  UNL     1       3.179  -1.106   0.666  1.00  0.00     0.275 C 
HETATM   15  C2  UNL     1       4.552  -0.446   0.658  1.00  0.00     0.064 C 
HETATM   16  C1  UNL     1       4.439   0.426  -0.581  1.00  0.00     0.148 C 
HETATM   17  C15 UNL     1       2.949   0.703  -0.708  1.00  0.00     0.304 C 
BRANCH  16  18
HETATM   18  O1  UNL     1       5.181   1.591  -0.480  1.00  0.00    -0.394 OA
ATOM     19  H1  UNL     1       5.110   2.136  -1.255  1.00  0.00     0.210 HD
ENDBRANCH  16  18
ENDBRANCH   1  13
TORSDOF 2
