REMARK  5 active torsions:
REMARK  status: ('A' for Active; 'I' for Inactive)
REMARK    1  A    between atoms: C5_5  and  C6_6 
REMARK    2  A    between atoms: N2_14  and  C10_15 
REMARK    3  A    between atoms: C10_15  and  C11_16 
REMARK    4  A    between atoms: C13_20  and  C14_21 
REMARK    5  A    between atoms: C14_21  and  O2_22 
ROOT
HETATM    1  C1  UNL     1      -1.592   0.557   2.653  1.00  0.00     0.032 C 
HETATM    2  C2  UNL     1      -0.856   0.843   1.362  1.00  0.00     0.080 C 
HETATM    3  C3  UNL     1      -1.539   2.080   0.753  1.00  0.00     0.027 C 
HETATM    4  C4  UNL     1      -1.739   1.723  -0.693  1.00  0.00     0.030 C 
HETATM    5  C5  UNL     1      -1.756   0.191  -0.675  1.00  0.00     0.115 C 
HETATM    6  N2  UNL     1      -0.996  -0.209   0.444  1.00  0.00    -0.376 N 
ENDROOT
BRANCH   6   7
HETATM    7  C10 UNL     1       0.034  -1.148   0.278  1.00  0.00     0.117 C 
BRANCH   7   8
HETATM    8  C11 UNL     1       1.360  -0.611  -0.104  1.00  0.00     0.064 A 
HETATM    9  C12 UNL     1       1.768  -0.103  -1.321  1.00  0.00     0.120 A 
HETATM   10  N3  UNL     1       3.072   0.256  -1.186  1.00  0.00    -0.351 N 
HETATM   11  C13 UNL     1       3.477  -0.014   0.065  1.00  0.00     0.117 A 
ATOM     12  H3  UNL     1       3.651   0.666  -1.919  1.00  0.00     0.166 HD
HETATM   13  N4  UNL     1       2.426  -0.536   0.703  1.00  0.00    -0.341 N 
ATOM     14  H4  UNL     1       2.434  -0.838   1.677  1.00  0.00     0.167 HD
BRANCH  11  15
HETATM   15  C14 UNL     1       4.796   0.185   0.703  1.00  0.00     0.116 C 
HETATM   16  C15 UNL     1       5.745  -0.954   0.324  1.00  0.00     0.046 C 
HETATM   17  C16 UNL     1       6.371  -0.011  -0.659  1.00  0.00     0.007 C 
HETATM   18  C17 UNL     1       5.722   1.169   0.041  1.00  0.00     0.046 C 
BRANCH  15  19
HETATM   19  O2  UNL     1       4.669   0.357   2.084  1.00  0.00    -0.382 OA
ATOM     20  H2  UNL     1       5.516   0.485   2.494  1.00  0.00     0.211 HD
ENDBRANCH  15  19
ENDBRANCH  11  15
ENDBRANCH   7   8
ENDBRANCH   6   7
BRANCH   5  21
HETATM   21  C6  UNL     1      -3.195  -0.251  -0.397  1.00  0.00     0.169 C 
HETATM   22  C7  UNL     1      -3.218  -1.745  -0.146  1.00  0.00     0.266 C 
HETATM   23  N1  UNL     1      -4.625  -2.126  -0.080  1.00  0.00    -0.071 N 
HETATM   24  C8  UNL     1      -5.485  -0.986   0.147  1.00  0.00     0.258 C 
ATOM     25  H12 UNL     1      -4.908  -2.643  -0.913  1.00  0.00     0.277 HD
ATOM     26  H11 UNL     1      -4.780  -2.851   0.620  1.00  0.00     0.277 HD
HETATM   27  C9  UNL     1      -5.342   0.087  -0.876  1.00  0.00     0.196 C 
HETATM   28  O1  UNL     1      -4.039   0.078  -1.421  1.00  0.00    -0.380 OA
ENDBRANCH   5  21
TORSDOF 5
