REMARK  5 active torsions:
REMARK  status: ('A' for Active; 'I' for Inactive)
REMARK    1  A    between atoms: N1_2  and  C2_5 
REMARK    2  A    between atoms: C5_8  and  N2_9 
REMARK    3  A    between atoms: N2_9  and  C6_11 
REMARK    4  A    between atoms: C12_22  and  N6_23 
REMARK    5  A    between atoms: N6_23  and  C13_25 
ROOT
HETATM    1  C6  UNL     1       0.019  -2.194   0.959  1.00  0.00     0.080 A 
HETATM    2  C7  UNL     1      -0.049  -3.580   1.149  1.00  0.00     0.088 A 
HETATM    3  C8  UNL     1       1.152  -4.297   1.467  1.00  0.00     0.103 C 
HETATM    4  N3  UNL     1       2.123  -4.880   1.703  1.00  0.00    -0.191 NA
HETATM    5  C9  UNL     1      -1.218  -4.276   1.043  1.00  0.00     0.113 A 
HETATM    6  N4  UNL     1      -2.359  -3.629   0.746  1.00  0.00    -0.361 N 
ATOM      7  H4  UNL     1      -3.234  -4.146   0.666  1.00  0.00     0.165 HD
HETATM    8  C10 UNL     1      -2.342  -2.293   0.554  1.00  0.00     0.078 A 
HETATM    9  C11 UNL     1      -3.494  -1.637   0.252  1.00  0.00     0.138 A 
HETATM   10  N5  UNL     1      -3.492  -0.311   0.058  1.00  0.00    -0.200 N 
ATOM     11  H5  UNL     1      -4.357   0.179  -0.168  1.00  0.00     0.183 HD
HETATM   12  C12 UNL     1      -2.339   0.362   0.165  1.00  0.00     0.678 A 
HETATM   13  N7  UNL     1      -1.166  -0.222   0.460  1.00  0.00    -0.187 N 
ATOM     14  H7  UNL     1      -0.309   0.327   0.532  1.00  0.00     0.184 HD
HETATM   15  C16 UNL     1      -1.155  -1.551   0.657  1.00  0.00     0.105 A 
ENDROOT
BRANCH   1  16
HETATM   16  N2  UNL     1       1.132  -1.662   1.078  1.00  0.00    -0.382 N 
ATOM     17  H2  UNL     1       1.858  -2.341   1.306  1.00  0.00     0.160 HD
BRANCH  16  18
HETATM   18  C5  UNL     1       1.643  -0.356   0.977  1.00  0.00     0.083 C 
HETATM   19  C4  UNL     1       3.051  -0.378   1.598  1.00  0.00     0.027 C 
HETATM   20  C3  UNL     1       3.869   0.626   0.813  1.00  0.00     0.035 C 
HETATM   21  C2  UNL     1       3.373   0.302  -0.600  1.00  0.00     0.187 C 
HETATM   22  C17 UNL     1       1.895   0.087  -0.466  1.00  0.00     0.058 C 
BRANCH  21  23
HETATM   23  N1  UNL     1       3.718   1.385  -1.468  1.00  0.00    -0.075 N 
HETATM   24  C1  UNL     1       5.153   1.565  -1.567  1.00  0.00     0.267 C 
ATOM     25  H12 UNL     1       3.255   2.249  -1.184  1.00  0.00     0.277 HD
ATOM     26  H11 UNL     1       3.295   1.271  -2.389  1.00  0.00     0.277 HD
ENDBRANCH  21  23
ENDBRANCH  16  18
ENDBRANCH   1  16
BRANCH  12  27
HETATM   27  N6  UNL     1      -2.354   1.649  -0.028  1.00  0.00    -0.222 N 
ATOM     28  H6  UNL     1      -1.478   2.165   0.052  1.00  0.00     0.178 HD
BRANCH  27  29
HETATM   29  C13 UNL     1      -3.542   2.369  -0.346  1.00  0.00     0.091 C 
HETATM   30  C14 UNL     1      -3.926   2.316  -1.802  1.00  0.00     0.032 C 
HETATM   31  C15 UNL     1      -3.258   3.844  -0.034  1.00  0.00     0.032 C 
ENDBRANCH  27  29
ENDBRANCH  12  27
TORSDOF 5
