REMARK  2 active torsions:
REMARK  status: ('A' for Active; 'I' for Inactive)
REMARK    1  A    between atoms: N2_4  and  C2_6 
REMARK    2  A    between atoms: C2_6  and  C3_7 
ROOT
HETATM    1  C3  UNL     1      -0.221   0.030  -0.181  1.00  0.00     0.005 C 
HETATM    2  C4  UNL     1      -0.740  -0.751   1.011  1.00  0.00     0.006 C 
HETATM    3  C5  UNL     1      -2.192  -1.059   0.917  1.00  0.00     0.000 C 
HETATM    4  C6  UNL     1      -2.921  -0.461  -0.214  1.00  0.00     0.000 C 
HETATM    5  C7  UNL     1      -2.443   0.838  -0.724  1.00  0.00     0.000 C 
HETATM    6  C8  UNL     1      -1.095   1.266  -0.266  1.00  0.00     0.006 C 
ENDROOT
BRANCH   1   7
HETATM    7  C2  UNL     1       1.231   0.381   0.087  1.00  0.00     0.143 C 
BRANCH   7   8
HETATM    8  N2  UNL     1       1.937  -0.849   0.251  1.00  0.00    -0.341 N 
HETATM    9  N1  UNL     1       3.172  -0.899   0.272  1.00  0.00    -0.345 N 
HETATM   10  C1  UNL     1       4.028   0.245   0.137  1.00  0.00     0.167 C 
ATOM     11  H1  UNL     1       3.611  -1.812   0.393  1.00  0.00     0.179 HD
ATOM     12  H2  UNL     1       1.406  -1.714   0.354  1.00  0.00     0.179 HD
ENDBRANCH   7   8
ENDBRANCH   1   7
TORSDOF 2
