REMARK  3 active torsions:
REMARK  status: ('A' for Active; 'I' for Inactive)
REMARK       I    between atoms: C1_2  and  N1_3 
REMARK       I    between atoms: C1_2  and  N2_9 
REMARK    1  A    between atoms: N1_3  and  C2_5 
REMARK    2  A    between atoms: C2_5  and  C3_6 
REMARK       I    between atoms: N2_9  and  C6_11 
REMARK       I    between atoms: C6_11  and  N3_13 
REMARK    3  A    between atoms: C9_16  and  O3_17 
ROOT
HETATM    1  O1  UNL     1       2.195  -1.115  -1.469  1.00  0.00    -0.247 OA
HETATM    2  C1  UNL     1       1.563  -0.725  -0.423  1.00  0.00     0.327 C 
HETATM    3  N1  UNL     1       2.220  -0.862   0.780  1.00  0.00    -0.322 N 
ATOM      4  H1  UNL     1       1.685  -0.569   1.598  1.00  0.00     0.169 HD
HETATM    5  N2  UNL     1       0.289  -0.208  -0.617  1.00  0.00    -0.261 N 
ATOM      6  H2  UNL     1      -0.015  -0.194  -1.591  1.00  0.00     0.175 HD
HETATM    7  C6  UNL     1      -0.650   0.296   0.287  1.00  0.00     0.326 C 
HETATM    8  O2  UNL     1      -0.376   0.322   1.520  1.00  0.00    -0.247 OA
HETATM    9  N3  UNL     1      -1.925   0.796  -0.086  1.00  0.00    -0.334 N 
HETATM   10  C7  UNL     1      -2.861   1.300   0.932  1.00  0.00     0.130 C 
HETATM   11  C8  UNL     1      -4.253   0.901   0.458  1.00  0.00     0.051 C 
HETATM   12  C9  UNL     1      -4.132  -0.458  -0.217  1.00  0.00     0.121 C 
HETATM   13  C10 UNL     1      -3.452  -0.269  -1.569  1.00  0.00     0.051 C 
HETATM   14  C11 UNL     1      -2.416   0.859  -1.435  1.00  0.00     0.130 C 
ENDROOT
BRANCH   3  15
HETATM   15  C2  UNL     1       3.523  -1.346   1.059  1.00  0.00     0.070 C 
BRANCH  15  16
HETATM   16  C3  UNL     1       4.739  -0.698   0.616  1.00  0.00     0.024 A 
HETATM   17  C4  UNL     1       5.222   0.644   0.948  1.00  0.00     0.010 A 
HETATM   18  C5  UNL     1       4.755   0.326  -0.484  1.00  0.00     0.010 A 
ENDBRANCH  15  16
ENDBRANCH   3  15
BRANCH  12  19
HETATM   19  O3  UNL     1      -3.340  -1.313   0.530  1.00  0.00    -0.395 OA
ATOM     20  H3  UNL     1      -3.264  -2.161   0.109  1.00  0.00     0.210 HD
ENDBRANCH  12  19
TORSDOF 3
