REMARK  10 active torsions:
REMARK  status: ('A' for Active; 'I' for Inactive)
REMARK    1  A    between atoms: C2_2  and  C3_3 
REMARK    2  A    between atoms: N3_12  and  C8_13 
REMARK    3  A    between atoms: C11_18  and  N5_19 
REMARK    4  A    between atoms: N5_19  and  C12_21 
REMARK    5  A    between atoms: C12_21  and  C13_22 
REMARK    6  A    between atoms: C13_22  and  O1_23 
REMARK    7  A    between atoms: C13_22  and  C14_25 
REMARK    8  A    between atoms: C14_25  and  N6_27 
REMARK    9  A    between atoms: N6_27  and  C16_29 
REMARK   10  A    between atoms: C16_29  and  N7_30 
ROOT
HETATM    1  C3  UNL     1       2.902  -1.387  -0.880  1.00  0.00     0.078 A 
HETATM    2  N1  UNL     1       4.143  -0.986  -0.550  1.00  0.00    -0.337 N 
ATOM      3  H1  UNL     1       4.991  -1.540  -0.672  1.00  0.00     0.168 HD
HETATM    4  C4  UNL     1       4.096   0.291  -0.020  1.00  0.00     0.151 A 
HETATM    5  C5  UNL     1       4.984   1.197   0.475  1.00  0.00     0.117 A 
HETATM    6  C6  UNL     1       4.461   2.385   0.904  1.00  0.00     0.123 A 
HETATM    7  N2  UNL     1       5.438   3.220   1.380  1.00  0.00    -0.344 N 
ATOM      8  H2  UNL     1       5.314   4.160   1.757  1.00  0.00     0.167 HD
HETATM    9  C7  UNL     1       6.567   2.561   1.251  1.00  0.00     0.184 A 
HETATM   10  N3  UNL     1       6.331   1.345   0.711  1.00  0.00    -0.334 N 
HETATM   11  S1  UNL     1       2.791   2.175   0.599  1.00  0.00     0.017 SA
HETATM   12  N4  UNL     1       2.817   0.629  -0.045  1.00  0.00    -0.246 N 
HETATM   13  C11 UNL     1       2.046  -0.363  -0.561  1.00  0.00     0.143 A 
ENDROOT
BRANCH  13  14
HETATM   14  N5  UNL     1       0.617  -0.363  -0.751  1.00  0.00    -0.371 N 
ATOM     15  H5  UNL     1       0.125  -1.158  -1.158  1.00  0.00     0.161 HD
BRANCH  14  16
HETATM   16  C12 UNL     1      -0.063   0.811  -0.337  1.00  0.00     0.155 C 
BRANCH  16  17
HETATM   17  C13 UNL     1      -1.560   0.813  -0.387  1.00  0.00     0.158 C 
BRANCH  17  18
HETATM   18  O1  UNL     1      -1.880   2.153   0.001  1.00  0.00    -0.392 OA
ATOM     19  H1  UNL     1      -2.829   2.154  -0.031  1.00  0.00     0.210 HD
ENDBRANCH  17  18
BRANCH  17  20
HETATM   20  C14 UNL     1      -2.150  -0.121   0.630  1.00  0.00     0.108 C 
HETATM   21  C15 UNL     1      -1.858  -1.567   0.325  1.00  0.00     0.035 C 
BRANCH  20  22
HETATM   22  N6  UNL     1      -3.583   0.026   0.764  1.00  0.00    -0.379 N 
ATOM     23  H6  UNL     1      -4.027   0.323   1.633  1.00  0.00     0.160 HD
BRANCH  22  24
HETATM   24  C16 UNL     1      -4.321  -0.275  -0.408  1.00  0.00     0.182 C 
BRANCH  24  25
HETATM   25  N7  UNL     1      -5.729  -0.137  -0.288  1.00  0.00    -0.337 N 
HETATM   26  C17 UNL     1      -6.251   1.123   0.042  1.00  0.00     0.070 C 
HETATM   27  C18 UNL     1      -7.483   1.130   0.896  1.00  0.00     0.045 C 
HETATM   28  C19 UNL     1      -7.529  -0.072   1.775  1.00  0.00     0.010 C 
HETATM   29  C20 UNL     1      -7.491  -1.334   0.948  1.00  0.00     0.045 C 
HETATM   30  C21 UNL     1      -6.521  -1.285  -0.183  1.00  0.00     0.070 C 
ENDBRANCH  24  25
ENDBRANCH  22  24
ENDBRANCH  20  22
ENDBRANCH  17  20
ENDBRANCH  16  17
ENDBRANCH  14  16
ENDBRANCH  13  14
BRANCH   1  31
HETATM   31  C2  UNL     1       2.523  -2.662  -1.463  1.00  0.00     0.023 C 
HETATM   32  C1  UNL     1       3.423  -3.582  -1.726  1.00  0.00     0.013 C 
ENDBRANCH   1  31
BRANCH  10  33
HETATM   33  C8  UNL     1       7.379   0.378   0.442  1.00  0.00     0.083 C 
HETATM   34  C9  UNL     1       8.622   0.724   1.195  1.00  0.00     0.032 C 
HETATM   35  C10 UNL     1       7.577   0.271  -1.035  1.00  0.00     0.032 C 
ENDBRANCH  10  33
TORSDOF 10
