REMARK  12 active torsions:
REMARK  status: ('A' for Active; 'I' for Inactive)
REMARK    1  A    between atoms: C2_2  and  C3_3 
REMARK    2  A    between atoms: C3_3  and  C4_4 
REMARK    3  A    between atoms: C4_4  and  C5_5 
REMARK    4  A    between atoms: C5_5  and  O1_6 
REMARK    5  A    between atoms: C5_5  and  C6_8 
REMARK    6  A    between atoms: C6_8  and  C7_9 
REMARK    7  A    between atoms: C7_9  and  S1_10 
REMARK    8  A    between atoms: S1_10  and  S2_11 
REMARK    9  A    between atoms: S2_11  and  C8_12 
REMARK   10  A    between atoms: C11_16  and  N2_17 
REMARK   11  A    between atoms: C14_22  and  N4_23 
REMARK   12  A    between atoms: C17_33  and  C18_34 
ROOT
HETATM    1  C8  UNL     1      -0.774   0.549   0.044  1.00  0.00     0.137 C 
HETATM    2  C9  UNL     1      -1.039   1.413  -1.118  1.00  0.00     0.084 C 
HETATM    3  N1  UNL     1      -1.254   2.079  -2.043  1.00  0.00    -0.195 NA
HETATM    4  C10 UNL     1      -1.574   1.006   1.257  1.00  0.00     0.093 C 
HETATM    5  C11 UNL     1      -2.752   0.056   1.299  1.00  0.00     0.233 C 
HETATM    6  O2  UNL     1      -2.717  -0.599   0.098  1.00  0.00    -0.358 OA
HETATM    7  C17 UNL     1      -1.373  -0.799  -0.223  1.00  0.00     0.157 C 
ENDROOT
BRANCH   1   8
HETATM    8  S2  UNL     1       0.940   0.570   0.505  1.00  0.00    -0.069 SA
BRANCH   8   9
HETATM    9  S1  UNL     1       2.058  -0.341  -1.054  1.00  0.00    -0.096 SA
BRANCH   9  10
HETATM   10  C7  UNL     1       2.152  -2.073  -0.634  1.00  0.00     0.088 C 
BRANCH  10  11
HETATM   11  C6  UNL     1       2.972  -2.278   0.584  1.00  0.00     0.042 C 
BRANCH  11  12
HETATM   12  C5  UNL     1       4.398  -1.898   0.542  1.00  0.00     0.118 C 
BRANCH  12  13
HETATM   13  C4  UNL     1       4.723  -0.463   0.248  1.00  0.00     0.032 C 
BRANCH  13  14
HETATM   14  C3  UNL     1       6.174  -0.229   0.674  1.00  0.00     0.002 C 
BRANCH  14  15
HETATM   15  C2  UNL     1       6.509   1.226   0.377  1.00  0.00    -0.004 C 
HETATM   16  C1  UNL     1       6.348   1.504  -1.094  1.00  0.00     0.005 C 
ENDBRANCH  14  15
ENDBRANCH  13  14
ENDBRANCH  12  13
BRANCH  12  17
HETATM   17  O1  UNL     1       5.224  -2.774  -0.174  1.00  0.00    -0.396 OA
ATOM     18  H1  UNL     1       5.018  -3.683   0.012  1.00  0.00     0.210 HD
ENDBRANCH  12  17
ENDBRANCH  11  12
ENDBRANCH  10  11
ENDBRANCH   9  10
ENDBRANCH   8   9
ENDBRANCH   1   8
BRANCH   7  19
HETATM   19  C18 UNL     1      -1.370  -1.118  -1.721  1.00  0.00     0.030 C 
HETATM   20  C19 UNL     1      -1.987  -2.488  -1.896  1.00  0.00     0.007 C 
ENDBRANCH   7  19
BRANCH   5  21
HETATM   21  N2  UNL     1      -3.974   0.819   1.484  1.00  0.00    -0.300 N 
HETATM   22  C12 UNL     1      -4.322   1.371   2.660  1.00  0.00     0.188 A 
HETATM   23  N3  UNL     1      -5.513   2.020   2.518  1.00  0.00    -0.346 N 
HETATM   24  C13 UNL     1      -5.927   1.884   1.260  1.00  0.00     0.122 A 
ATOM     25  H3  UNL     1      -6.005   2.526   3.254  1.00  0.00     0.167 HD
HETATM   26  C14 UNL     1      -7.045   2.332   0.592  1.00  0.00     0.131 A 
HETATM   27  C16 UNL     1      -4.947   1.128   0.625  1.00  0.00     0.142 A 
HETATM   28  N5  UNL     1      -7.174   2.020  -0.706  1.00  0.00    -0.337 N 
HETATM   29  C15 UNL     1      -6.206   1.277  -1.319  1.00  0.00     0.183 A 
ATOM     30  H5  UNL     1      -7.989   2.335  -1.232  1.00  0.00     0.168 HD
HETATM   31  N6  UNL     1      -5.115   0.841  -0.661  1.00  0.00    -0.336 N 
ATOM     32  H6  UNL     1      -4.414   0.287  -1.153  1.00  0.00     0.168 HD
BRANCH  26  33
HETATM   33  N4  UNL     1      -7.977   3.034   1.133  1.00  0.00    -0.383 N 
ATOM     34  H42 UNL     1      -7.879   3.271   2.120  1.00  0.00     0.157 HD
ATOM     35  H41 UNL     1      -8.805   3.366   0.638  1.00  0.00     0.157 HD
ENDBRANCH  26  33
ENDBRANCH   5  21
TORSDOF 12
