REMARK  13 active torsions:
REMARK  status: ('A' for Active; 'I' for Inactive)
REMARK    1  A    between atoms: C2_2  and  C3_3 
REMARK    2  A    between atoms: C3_3  and  N1_4 
REMARK    3  A    between atoms: C4_7  and  C5_8 
REMARK    4  A    between atoms: C8_11  and  C9_12 
REMARK    5  A    between atoms: C9_12  and  O1_13 
REMARK    6  A    between atoms: C9_12  and  C10_15 
REMARK    7  A    between atoms: C10_15  and  S1_16 
REMARK    8  A    between atoms: S1_16  and  C11_17 
REMARK    9  A    between atoms: C12_18  and  C13_19 
REMARK   10  A    between atoms: C15_22  and  O3_23 
REMARK   11  A    between atoms: C16_25  and  O4_26 
REMARK   12  A    between atoms: N3_28  and  C17_29 
REMARK   13  A    between atoms: C17_29  and  C18_30 
ROOT
HETATM    1  C10 UNL     1      -0.317  -1.250  -1.303  1.00  0.00     0.146 C 
ENDROOT
BRANCH   1   2
HETATM    2  C9  UNL     1       0.431  -0.147  -0.763  1.00  0.00     0.069 C 
BRANCH   2   3
HETATM    3  C8  UNL     1       1.752  -0.080  -0.166  1.00  0.00     0.065 A 
HETATM    4  C4  UNL     1       2.661  -1.070   0.086  1.00  0.00     0.069 A 
HETATM    5  N2  UNL     1       3.763  -0.477   0.641  1.00  0.00    -0.296 N 
HETATM    6  N1  UNL     1       3.606   0.800   0.754  1.00  0.00    -0.274 N 
ATOM      7  H2  UNL     1       4.602  -0.980   0.929  1.00  0.00     0.187 HD
HETATM    8  C20 UNL     1       2.390   1.096   0.275  1.00  0.00     0.148 A 
HETATM    9  N4  UNL     1       1.794   2.380   0.203  1.00  0.00    -0.080 NA
BRANCH   4  10
HETATM   10  C5  UNL     1       2.561  -2.508  -0.149  1.00  0.00    -0.042 C 
HETATM   11  C6  UNL     1       1.852  -3.322   0.603  1.00  0.00     0.021 C 
HETATM   12  C7  UNL     1       3.311  -3.082  -1.292  1.00  0.00     0.049 C 
ENDBRANCH   4  10
BRANCH   6  13
HETATM   13  C3  UNL     1       4.521   1.794   1.283  1.00  0.00     0.177 C 
BRANCH  13  14
HETATM   14  C2  UNL     1       5.334   2.346   0.170  1.00  0.00    -0.015 C 
HETATM   15  C1  UNL     1       5.224   1.984  -1.077  1.00  0.00     0.008 C 
ENDBRANCH  13  14
ENDBRANCH   6  13
ENDBRANCH   2   3
BRANCH   2  16
HETATM   16  O1  UNL     1      -0.196   0.994  -0.833  1.00  0.00    -0.363 OA
ATOM     17  H1  UNL     1      -1.061   0.950  -1.224  1.00  0.00     0.217 HD
ENDBRANCH   2  16
ENDBRANCH   1   2
BRANCH   1  18
HETATM   18  S1  UNL     1      -1.625  -1.818  -0.217  1.00  0.00    -0.104 SA
BRANCH  18  19
HETATM   19  C11 UNL     1      -2.820  -0.565   0.135  1.00  0.00     0.091 A 
HETATM   20  C12 UNL     1      -2.861   0.257   1.275  1.00  0.00     0.081 A 
HETATM   21  C15 UNL     1      -3.907   1.147   1.106  1.00  0.00     0.133 A 
HETATM   22  C16 UNL     1      -4.470   0.842  -0.113  1.00  0.00     0.178 A 
HETATM   23  N3  UNL     1      -3.808  -0.189  -0.686  1.00  0.00    -0.316 N 
BRANCH  20  24
HETATM   24  C13 UNL     1      -2.025   0.193   2.470  1.00  0.00     0.161 C 
HETATM   25  C14 UNL     1      -0.932  -0.766   2.717  1.00  0.00     0.097 C 
HETATM   26  O2  UNL     1      -2.227   1.022   3.424  1.00  0.00    -0.293 OA
ENDBRANCH  20  24
BRANCH  21  27
HETATM   27  O3  UNL     1      -4.315   2.133   1.961  1.00  0.00    -0.356 OA
ATOM     28  H3  UNL     1      -5.033   2.744   1.845  1.00  0.00     0.218 HD
ENDBRANCH  21  27
BRANCH  22  29
HETATM   29  O4  UNL     1      -5.563   1.536  -0.624  1.00  0.00    -0.344 OA
ATOM     30  H4  UNL     1      -5.951   1.326  -1.465  1.00  0.00     0.219 HD
ENDBRANCH  22  29
BRANCH  23  31
HETATM   31  C17 UNL     1      -4.192  -0.696  -1.989  1.00  0.00     0.158 C 
BRANCH  31  32
HETATM   32  C18 UNL     1      -3.638   0.054  -3.120  1.00  0.00    -0.017 C 
HETATM   33  C19 UNL     1      -4.448   0.636  -4.002  1.00  0.00     0.008 C 
ENDBRANCH  31  32
ENDBRANCH  23  31
ENDBRANCH  18  19
ENDBRANCH   1  18
TORSDOF 13
