REMARK  6 active torsions:
REMARK  status: ('A' for Active; 'I' for Inactive)
REMARK    1  A    between atoms: C2_2  and  C4_4 
REMARK    2  A    between atoms: C4_4  and  C5_5 
REMARK    3  A    between atoms: C5_5  and  N1_6 
REMARK    4  A    between atoms: C5_5  and  C16_20 
REMARK       I    between atoms: N1_6  and  C6_8 
REMARK    5  A    between atoms: C6_8  and  C7_10 
REMARK    6  A    between atoms: C11_15  and  C12_16 
REMARK       I    between atoms: C16_20  and  N2_22 
ROOT
HETATM    1  C5  UNL     1      -1.183  -0.047  -0.676  1.00  0.00     0.177 C 
ENDROOT
BRANCH   1   2
HETATM    2  C4  UNL     1      -1.649  -1.452  -0.688  1.00  0.00     0.038 C 
BRANCH   2   3
HETATM    3  C2  UNL     1      -1.296  -2.320   0.457  1.00  0.00    -0.020 C 
HETATM    4  C1  UNL     1      -1.885  -3.723   0.202  1.00  0.00     0.009 C 
HETATM    5  C3  UNL     1      -1.938  -1.884   1.755  1.00  0.00     0.009 C 
ENDBRANCH   2   3
ENDBRANCH   1   2
BRANCH   1   6
HETATM    6  N1  UNL     1       0.269   0.053  -0.611  1.00  0.00    -0.344 N 
HETATM    7  C6  UNL     1       1.076   0.577  -1.615  1.00  0.00     0.252 C 
HETATM    8  O1  UNL     1       0.543   1.005  -2.666  1.00  0.00    -0.268 OA
ATOM      9  H1  UNL     1       0.728  -0.287   0.234  1.00  0.00     0.163 HD
BRANCH   7  10
HETATM   10  C7  UNL     1       2.515   0.642  -1.478  1.00  0.00     0.034 A 
HETATM   11  C8  UNL     1       3.259   1.293  -2.469  1.00  0.00     0.041 A 
HETATM   12  C9  UNL     1       4.628   1.383  -2.392  1.00  0.00     0.035 A 
HETATM   13 CL1  UNL     1       5.493   2.211  -3.667  1.00  0.00    -0.084 Cl
HETATM   14  C10 UNL     1       5.293   0.814  -1.302  1.00  0.00     0.031 A 
HETATM   15  C11 UNL     1       4.595   0.164  -0.306  1.00  0.00    -0.052 A 
HETATM   16  C15 UNL     1       3.222   0.099  -0.427  1.00  0.00     0.024 A 
BRANCH  15  17
HETATM   17  C12 UNL     1       5.305  -0.448   0.863  1.00  0.00     0.010 C 
HETATM   18  C13 UNL     1       5.084  -1.954   0.888  1.00  0.00     0.015 C 
HETATM   19  C14 UNL     1       4.869   0.157   2.171  1.00  0.00     0.015 C 
ENDBRANCH  15  17
ENDBRANCH   7  10
ENDBRANCH   1   6
BRANCH   1  20
HETATM   20  C16 UNL     1      -1.759   0.863   0.307  1.00  0.00     0.242 C 
HETATM   21  O2  UNL     1      -0.951   1.495   1.068  1.00  0.00    -0.271 OA
HETATM   22  N2  UNL     1      -3.131   1.132   0.516  1.00  0.00    -0.347 N 
HETATM   23  C17 UNL     1      -4.227   0.553  -0.232  1.00  0.00     0.153 C 
HETATM   24  C20 UNL     1      -3.569   2.076   1.566  1.00  0.00     0.153 C 
HETATM   25  C18 UNL     1      -5.416   1.481  -0.084  1.00  0.00     0.252 C 
HETATM   26  N3  UNL     1      -5.045   2.866  -0.159  1.00  0.00    -0.072 N 
HETATM   27  C19 UNL     1      -4.103   3.282   0.831  1.00  0.00     0.252 C 
ATOM     28  H32 UNL     1      -4.702   3.091  -1.093  1.00  0.00     0.277 HD
ATOM     29  H31 UNL     1      -5.875   3.458  -0.130  1.00  0.00     0.277 HD
ENDBRANCH   1  20
TORSDOF 6
