REMARK  4 active torsions:
REMARK  status: ('A' for Active; 'I' for Inactive)
REMARK    1  A    between atoms: O1_2  and  C2_3 
REMARK       I    between atoms: C2_3  and  N1_5 
REMARK    2  A    between atoms: N1_5  and  C3_7 
REMARK    3  A    between atoms: C3_7  and  C4_8 
REMARK    4  A    between atoms: C4_8  and  C5_9 
ROOT
HETATM    1  C5  UNL     1      -0.350   0.037   0.386  1.00  0.00     0.038 C 
HETATM    2 CL1  UNL     1       0.600   0.833   1.661  1.00  0.00    -0.119 Cl
HETATM    3  C6  UNL     1      -0.930  -1.208   1.021  1.00  0.00     0.026 C 
HETATM    4  C7  UNL     1      -1.971  -1.893   0.225  1.00  0.00     0.002 C 
HETATM    5  C8  UNL     1      -3.326  -1.317   0.591  1.00  0.00     0.000 C 
HETATM    6  C9  UNL     1      -3.643  -0.166  -0.297  1.00  0.00     0.000 C 
HETATM    7  C10 UNL     1      -2.456   0.481  -0.945  1.00  0.00     0.002 C 
HETATM    8  C11 UNL     1      -1.497   0.965   0.086  1.00  0.00     0.026 C 
ENDROOT
BRANCH   1   9
HETATM    9  C4  UNL     1       0.485  -0.341  -0.759  1.00  0.00     0.045 C 
BRANCH   9  10
HETATM   10  C3  UNL     1       1.219   0.688  -1.509  1.00  0.00     0.127 C 
BRANCH  10  11
HETATM   11  N1  UNL     1       2.193   1.428  -0.752  1.00  0.00    -0.337 N 
HETATM   12  C2  UNL     1       3.323   0.822  -0.142  1.00  0.00     0.360 C 
HETATM   13  O2  UNL     1       3.504  -0.415  -0.257  1.00  0.00    -0.239 OA
ATOM     14  H1  UNL     1       2.066   2.435  -0.649  1.00  0.00     0.164 HD
BRANCH  12  15
HETATM   15  O1  UNL     1       4.255   1.547   0.588  1.00  0.00    -0.309 OA
HETATM   16  C1  UNL     1       5.344   0.851   1.155  1.00  0.00     0.215 C 
ENDBRANCH  12  15
ENDBRANCH  10  11
ENDBRANCH   9  10
ENDBRANCH   1   9
TORSDOF 4
