REMARK  4 active torsions:
REMARK  status: ('A' for Active; 'I' for Inactive)
REMARK    1  A    between atoms: C1_4  and  C2_5 
REMARK    2  A    between atoms: C2_5  and  N2_6 
REMARK    3  A    between atoms: C2_5  and  N3_10 
REMARK       I    between atoms: N3_10  and  C3_12 
REMARK    4  A    between atoms: C3_12  and  C4_14 
ROOT
HETATM    1  C2  UNL     1      -1.232  -0.195   0.263  1.00  0.00     0.323 C 
ENDROOT
BRANCH   1   2
HETATM    2  C1  UNL     1      -2.234  -0.120  -0.825  1.00  0.00     0.107 C 
HETATM    3  N1  UNL     1      -2.704   0.979  -1.279  1.00  0.00    -0.408 N 
ATOM      4  H12 UNL     1      -2.360   1.842  -0.858  1.00  0.00     0.155 HD
ATOM      5  H11 UNL     1      -3.394   1.031  -2.028  1.00  0.00     0.155 HD
ENDBRANCH   1   2
BRANCH   1   6
HETATM    6  N2  UNL     1      -1.621  -1.139   1.307  1.00  0.00    -0.054 N 
ATOM      7  H23 UNL     1      -2.548  -0.923   1.673  1.00  0.00     0.277 HD
ATOM      8  H22 UNL     1      -1.812  -2.062   0.917  1.00  0.00     0.277 HD
ATOM      9  H21 UNL     1      -0.931  -1.191   2.056  1.00  0.00     0.277 HD
ENDBRANCH   1   6
BRANCH   1  10
HETATM   10  N3  UNL     1       0.104  -0.484  -0.228  1.00  0.00    -0.322 N 
HETATM   11  C3  UNL     1       1.180   0.407  -0.062  1.00  0.00     0.308 C 
HETATM   12  O1  UNL     1       1.006   1.490   0.523  1.00  0.00    -0.263 OA
ATOM     13  H3  UNL     1       0.268  -1.367  -0.712  1.00  0.00     0.165 HD
BRANCH  11  14
HETATM   14  C4  UNL     1       2.494   0.075  -0.569  1.00  0.00     0.322 C 
HETATM   15  N4  UNL     1       3.568   0.986  -0.394  1.00  0.00    -0.053 NA
HETATM   16  O2  UNL     1       2.686  -1.037  -1.174  1.00  0.00    -0.266 OA
ENDBRANCH  11  14
ENDBRANCH   1  10
TORSDOF 4
