REMARK  4 active torsions:
REMARK  status: ('A' for Active; 'I' for Inactive)
REMARK    1  A    between atoms: N1_1  and  C1_5 
REMARK    2  A    between atoms: C3_7  and  N2_8 
REMARK    3  A    between atoms: C4_12  and  N3_13 
REMARK    4  A    between atoms: N3_13  and  C5_15 
ROOT
HETATM    1  C1  UNL     1      -1.498  -0.352  -0.873  1.00  0.00     0.385 C 
HETATM    2  C2  UNL     1      -1.391   0.881   0.037  1.00  0.00     0.099 C 
HETATM    3  C3  UNL     1       0.110   1.078   0.046  1.00  0.00     0.237 C 
HETATM    4  C4  UNL     1       0.656  -0.294  -0.259  1.00  0.00     0.319 C 
HETATM    5  N4  UNL     1      -0.490  -1.201  -0.260  1.00  0.00    -0.023 N 
ATOM      6  H41 UNL     1      -0.339  -2.103  -0.711  1.00  0.00     0.282 HD
ATOM      7  H42 UNL     1      -0.739  -1.599   0.645  1.00  0.00     0.282 HD
ENDROOT
BRANCH   1   8
HETATM    8  N1  UNL     1      -2.801  -0.916  -0.879  1.00  0.00    -0.050 N 
ATOM      9  H13 UNL     1      -3.111  -1.132   0.068  1.00  0.00     0.276 HD
ATOM     10  H12 UNL     1      -3.501  -0.217  -1.126  1.00  0.00     0.276 HD
ATOM     11  H11 UNL     1      -2.872  -1.735  -1.483  1.00  0.00     0.276 HD
ENDBRANCH   1   8
BRANCH   3  12
HETATM   12  N2  UNL     1       0.601   1.636   1.266  1.00  0.00    -0.071 N 
ATOM     13  H23 UNL     1       0.120   2.509   1.484  1.00  0.00     0.274 HD
ATOM     14  H22 UNL     1       0.305   1.076   2.065  1.00  0.00     0.274 HD
ATOM     15  H21 UNL     1       1.612   1.769   1.272  1.00  0.00     0.274 HD
ENDBRANCH   3  12
BRANCH   4  16
HETATM   16  N3  UNL     1       1.684  -0.717   0.622  1.00  0.00    -0.339 N 
ATOM     17  H3  UNL     1       1.502  -0.783   1.623  1.00  0.00     0.164 HD
BRANCH  16  18
HETATM   18  C5  UNL     1       2.963  -1.047   0.112  1.00  0.00     0.350 C 
HETATM   19  O1  UNL     1       3.225  -0.976  -1.124  1.00  0.00    -0.284 OA
ENDBRANCH  16  18
ENDBRANCH   4  16
TORSDOF 4
