REMARK  10 active torsions:
REMARK  status: ('A' for Active; 'I' for Inactive)
REMARK    1  A    between atoms: N3_4  and  C2_6 
REMARK    2  A    between atoms: C2_6  and  C3_7 
REMARK    3  A    between atoms: C3_7  and  C4_8 
REMARK    4  A    between atoms: C4_8  and  C5_9 
REMARK    5  A    between atoms: C5_9  and  C6_10 
REMARK    6  A    between atoms: C6_10  and  N4_11 
REMARK    7  A    between atoms: N4_11  and  C7_12 
REMARK    8  A    between atoms: C7_12  and  C8_13 
REMARK    9  A    between atoms: C15_21  and  C16_22 
REMARK   10  A    between atoms: C16_22  and  O1_23 
ROOT
HETATM    1  N4  UNL     1      -1.213  -1.641  -0.440  1.00  0.00     0.018 N 
HETATM    2  N5  UNL     1      -2.507  -2.108  -0.704  1.00  0.00    -0.044 NA
HETATM    3  C14 UNL     1      -2.077  -3.479  -0.849  1.00  0.00     0.180 C 
HETATM    4  C15 UNL     1      -0.871  -2.998  -0.094  1.00  0.00     0.251 C 
ENDROOT
BRANCH   1   5
HETATM    5  C6  UNL     1      -0.571  -1.105  -1.593  1.00  0.00     0.261 C 
BRANCH   5   6
HETATM    6  C5  UNL     1       0.756  -1.591  -1.999  1.00  0.00     0.030 C 
BRANCH   6   7
HETATM    7  C4  UNL     1       1.855  -1.333  -1.012  1.00  0.00     0.003 C 
BRANCH   7   8
HETATM    8  C3  UNL     1       2.124   0.130  -0.760  1.00  0.00     0.020 C 
BRANCH   8   9
HETATM    9  C2  UNL     1       3.227   0.341   0.242  1.00  0.00     0.122 C 
BRANCH   9  10
HETATM   10  N3  UNL     1       3.418   1.757   0.434  1.00  0.00    -0.367 N 
HETATM   11  C1  UNL     1       4.561   2.364   0.341  1.00  0.00     0.196 C 
HETATM   12  N1  UNL     1       5.695   1.570   0.027  1.00  0.00    -0.067 NA
HETATM   13  N2  UNL     1       4.633   3.762   0.551  1.00  0.00    -0.067 NA
ATOM     14  H3  UNL     1       2.598   2.321   0.658  1.00  0.00     0.161 HD
ENDBRANCH   9  10
ENDBRANCH   8   9
ENDBRANCH   7   8
ENDBRANCH   6   7
ENDBRANCH   5   6
ENDBRANCH   1   5
BRANCH   1  15
HETATM   15  C7  UNL     1      -1.266  -0.741   0.669  1.00  0.00     0.265 C 
BRANCH  15  16
HETATM   16  C8  UNL     1      -1.732   0.649   0.390  1.00  0.00     0.013 C 
HETATM   17  C9  UNL     1      -1.720   1.470   1.696  1.00  0.00     0.006 C 
HETATM   18  C10 UNL     1      -1.535   2.919   1.260  1.00  0.00     0.000 C 
HETATM   19  C11 UNL     1      -2.292   3.157  -0.039  1.00  0.00     0.000 C 
HETATM   20  C12 UNL     1      -3.509   2.256  -0.107  1.00  0.00     0.000 C 
HETATM   21  C13 UNL     1      -3.146   0.778  -0.105  1.00  0.00     0.006 C 
ENDBRANCH  15  16
ENDBRANCH   1  15
BRANCH   4  22
HETATM   22  C16 UNL     1      -0.701  -3.434   1.286  1.00  0.00     0.200 C 
BRANCH  22  23
HETATM   23  O1  UNL     1      -1.720  -3.362   2.171  1.00  0.00    -0.399 OA
ATOM     24  H1  UNL     1      -1.609  -3.646   3.071  1.00  0.00     0.209 HD
ENDBRANCH  22  23
ENDBRANCH   4  22
TORSDOF 10
