REMARK  6 active torsions:
REMARK  status: ('A' for Active; 'I' for Inactive)
REMARK    1  A    between atoms: N1_1  and  C1_4 
REMARK    2  A    between atoms: N2_6  and  C3_7 
REMARK    3  A    between atoms: C3_7  and  C4_8 
REMARK    4  A    between atoms: C4_8  and  C5_9 
REMARK    5  A    between atoms: C5_9  and  N3_10 
REMARK    6  A    between atoms: C6_16  and  N5_17 
ROOT
HETATM    1  C1  UNL     1      -2.334   1.469   0.314  1.00  0.00     0.132 A 
HETATM    2  C2  UNL     1      -0.987   1.175   0.438  1.00  0.00     0.159 A 
HETATM    3  N2  UNL     1      -0.553  -0.093   0.310  1.00  0.00    -0.285 N 
HETATM    4  N4  UNL     1      -1.436  -1.046   0.063  1.00  0.00    -0.131 N 
ATOM      5  H4  UNL     1      -1.107  -2.007  -0.035  1.00  0.00     0.206 HD
HETATM    6  C6  UNL     1      -2.752  -0.796  -0.064  1.00  0.00     0.692 A 
HETATM    7  N6  UNL     1      -3.196   0.467   0.062  1.00  0.00    -0.175 N 
ATOM      8  H6  UNL     1      -4.192   0.667  -0.034  1.00  0.00     0.186 HD
ENDROOT
BRANCH   3   9
HETATM    9  C3  UNL     1       0.872  -0.353   0.449  1.00  0.00     0.150 C 
BRANCH   9  10
HETATM   10  C4  UNL     1       1.554  -0.244  -0.901  1.00  0.00     0.049 C 
BRANCH  10  11
HETATM   11  C5  UNL     1       3.015  -0.515  -0.736  1.00  0.00     0.231 C 
BRANCH  11  12
HETATM   12  N3  UNL     1       3.651   0.422   0.168  1.00  0.00    -0.079 N 
ATOM     13  H33 UNL     1       3.486   1.385  -0.125  1.00  0.00     0.274 HD
ATOM     14  H32 UNL     1       3.176   0.442   1.071  1.00  0.00     0.274 HD
ATOM     15  H31 UNL     1       4.648   0.237   0.281  1.00  0.00     0.274 HD
ENDBRANCH  11  12
ENDBRANCH  10  11
ENDBRANCH   9  10
ENDBRANCH   3   9
BRANCH   1  16
HETATM   16  N1  UNL     1      -2.776   2.676   0.432  1.00  0.00    -0.384 N 
ATOM     17  H12 UNL     1      -2.123   3.436   0.623  1.00  0.00     0.157 HD
ATOM     18  H11 UNL     1      -3.769   2.893   0.341  1.00  0.00     0.157 HD
ENDBRANCH   1  16
BRANCH   6  19
HETATM   19  N5  UNL     1      -3.611  -1.755  -0.309  1.00  0.00    -0.233 N 
ATOM     20  H52 UNL     1      -3.274  -2.713  -0.405  1.00  0.00     0.174 HD
ATOM     21  H51 UNL     1      -4.609  -1.565  -0.405  1.00  0.00     0.174 HD
ENDBRANCH   6  19
TORSDOF 6
