REMARK  7 active torsions:
REMARK  status: ('A' for Active; 'I' for Inactive)
REMARK    1  A    between atoms: N1_1  and  C1_4 
REMARK    2  A    between atoms: N3_8  and  C3_9 
REMARK    3  A    between atoms: C3_9  and  C4_10 
REMARK    4  A    between atoms: C4_10  and  C5_11 
REMARK    5  A    between atoms: C4_10  and  C6_16 
REMARK    6  A    between atoms: C5_11  and  N4_12 
REMARK    7  A    between atoms: C6_16  and  N5_17 
ROOT
HETATM    1  C3  UNL     1      -0.073  -0.955  -0.130  1.00  0.00     0.158 C 
ENDROOT
BRANCH   1   2
HETATM    2  N3  UNL     1       1.198  -0.281  -0.136  1.00  0.00    -0.273 N 
HETATM    3  C2  UNL     1       1.686   0.622  -1.024  1.00  0.00     0.218 A 
HETATM    4  N2  UNL     1       2.921   1.013  -0.668  1.00  0.00    -0.185 N 
HETATM    5  C1  UNL     1       3.233   0.355   0.461  1.00  0.00     0.691 A 
ATOM      6  H2  UNL     1       3.511   1.683  -1.162  1.00  0.00     0.185 HD
HETATM    7  N6  UNL     1       2.186  -0.417   0.763  1.00  0.00    -0.129 N 
ATOM      8  H6  UNL     1       2.142  -1.033   1.575  1.00  0.00     0.206 HD
BRANCH   5   9
HETATM    9  N1  UNL     1       4.356   0.457   1.132  1.00  0.00    -0.233 N 
ATOM     10  H12 UNL     1       5.156   1.047   0.901  1.00  0.00     0.174 HD
ATOM     11  H11 UNL     1       4.593  -0.043   1.989  1.00  0.00     0.174 HD
ENDBRANCH   5   9
ENDBRANCH   1   2
BRANCH   1  12
HETATM   12  C4  UNL     1      -1.183  -0.346   0.622  1.00  0.00     0.056 C 
BRANCH  12  13
HETATM   13  C5  UNL     1      -2.435  -1.236   0.492  1.00  0.00     0.237 C 
BRANCH  13  14
HETATM   14  N4  UNL     1      -2.856  -1.395  -0.865  1.00  0.00    -0.079 N 
ATOM     15  H43 UNL     1      -3.001  -0.490  -1.312  1.00  0.00     0.274 HD
ATOM     16  H42 UNL     1      -2.095  -1.745  -1.447  1.00  0.00     0.274 HD
ATOM     17  H41 UNL     1      -3.684  -1.984  -0.951  1.00  0.00     0.274 HD
ENDBRANCH  13  14
ENDBRANCH  12  13
BRANCH  12  18
HETATM   18  C6  UNL     1      -1.625   1.031   0.259  1.00  0.00     0.237 C 
BRANCH  18  19
HETATM   19  N5  UNL     1      -0.644   2.047   0.403  1.00  0.00    -0.079 N 
ATOM     20  H53 UNL     1      -0.271   2.039   1.352  1.00  0.00     0.274 HD
ATOM     21  H52 UNL     1       0.194   1.800  -0.123  1.00  0.00     0.274 HD
ATOM     22  H51 UNL     1      -0.946   2.989   0.155  1.00  0.00     0.274 HD
ENDBRANCH  18  19
ENDBRANCH  12  18
ENDBRANCH   1  12
TORSDOF 7
