REMARK  6 active torsions:
REMARK  status: ('A' for Active; 'I' for Inactive)
REMARK    1  A    between atoms: C2_2  and  N1_3 
REMARK    2  A    between atoms: C9_11  and  O1_12 
REMARK    3  A    between atoms: C9_11  and  C10_14 
REMARK    4  A    between atoms: C11_15  and  C12_16 
REMARK    5  A    between atoms: C12_16  and  C14_18 
REMARK    6  A    between atoms: C14_18  and  O2_19 
ROOT
HETATM    1  N1  UNL     1      -1.070  -0.839   0.235  1.00  0.00    -0.024 N 
HETATM    2  C3  UNL     1      -0.405  -0.941   1.520  1.00  0.00     0.277 C 
HETATM    3  C4  UNL     1      -2.444  -0.511   0.407  1.00  0.00     0.269 C 
HETATM    4  C5  UNL     1      -2.936   0.580  -0.494  1.00  0.00     0.264 C 
HETATM    5  N2  UNL     1      -2.086   1.741  -0.415  1.00  0.00    -0.068 N 
HETATM    6  C6  UNL     1      -2.329   2.394   0.880  1.00  0.00     0.272 C 
HETATM    7  C7  UNL     1      -2.474   2.700  -1.433  1.00  0.00     0.272 C 
HETATM    8  C8  UNL     1      -0.699   1.470  -0.536  1.00  0.00     0.319 C 
HETATM    9  C9  UNL     1      -0.328   0.030  -0.612  1.00  0.00     0.317 C 
ENDROOT
BRANCH   9  10
HETATM   10  O1  UNL     1      -0.427  -0.443  -1.932  1.00  0.00    -0.354 OA
ATOM     11  H1  UNL     1       0.069   0.137  -2.498  1.00  0.00     0.213 HD
ENDBRANCH   9  10
BRANCH   9  12
HETATM   12  C10 UNL     1       1.102  -0.117  -0.252  1.00  0.00    -0.036 C 
HETATM   13  C11 UNL     1       2.263  -0.230   0.061  1.00  0.00    -0.095 C 
BRANCH  13  14
HETATM   14  C12 UNL     1       3.670  -0.351   0.461  1.00  0.00     0.084 C 
HETATM   15  C13 UNL     1       4.345   1.025   0.389  1.00  0.00     0.025 C 
BRANCH  14  16
HETATM   16  C14 UNL     1       4.335  -1.244  -0.571  1.00  0.00     0.180 C 
BRANCH  16  17
HETATM   17  O2  UNL     1       5.671  -1.452  -0.326  1.00  0.00    -0.400 OA
ATOM     18  H2  UNL     1       6.087  -2.011  -0.972  1.00  0.00     0.209 HD
ENDBRANCH  16  17
ENDBRANCH  14  16
ENDBRANCH  13  14
ENDBRANCH   9  12
BRANCH   1  19
HETATM   19  C2  UNL     1      -1.013  -2.183  -0.360  1.00  0.00     0.237 C 
HETATM   20  C1  UNL     1      -1.281  -3.230   0.689  1.00  0.00     0.035 C 
ENDBRANCH   1  19
TORSDOF 6
