REMARK  3 active torsions:
REMARK  status: ('A' for Active; 'I' for Inactive)
REMARK    1  A    between atoms: C2_2  and  N1_3 
REMARK    2  A    between atoms: C5_6  and  N2_7 
REMARK       I    between atoms: N2_7  and  C6_9 
REMARK       I    between atoms: C6_9  and  N3_11 
REMARK    3  A    between atoms: N3_11  and  C7_13 
ROOT
HETATM    1  N2  UNL     1       1.525   0.400   0.358  1.00  0.00    -0.332 N 
ATOM      2  H2  UNL     1       1.364   1.370   0.629  1.00  0.00     0.165 HD
HETATM    3  C6  UNL     1       0.396  -0.389   0.048  1.00  0.00     0.317 C 
HETATM    4  O1  UNL     1       0.564  -1.583  -0.288  1.00  0.00    -0.247 OA
HETATM    5  N3  UNL     1      -0.917   0.122   0.103  1.00  0.00    -0.338 N 
ATOM      6  H3  UNL     1      -1.036   1.097   0.378  1.00  0.00     0.164 HD
ENDROOT
BRANCH   1   7
HETATM    7  C5  UNL     1       2.880  -0.063   0.319  1.00  0.00     0.155 C 
HETATM    8  C4  UNL     1       3.591   0.017   1.660  1.00  0.00     0.053 C 
HETATM    9  C3  UNL     1       5.031  -0.184   1.252  1.00  0.00     0.126 C 
HETATM   10  N1  UNL     1       5.093   0.394  -0.079  1.00  0.00    -0.370 N 
HETATM   11  C17 UNL     1       3.784   0.686  -0.542  1.00  0.00     0.096 C 
HETATM   12  N4  UNL     1       3.504   1.456  -1.520  1.00  0.00    -0.387 N 
ATOM     13  H42 UNL     1       4.137   1.981  -2.123  1.00  0.00     0.157 HD
ATOM     14  H41 UNL     1       2.563   1.666  -1.853  1.00  0.00     0.157 HD
BRANCH  10  15
HETATM   15  C2  UNL     1       6.352   0.621  -0.798  1.00  0.00     0.119 C 
HETATM   16  C1  UNL     1       7.143   1.694  -0.125  1.00  0.00     0.026 C 
ENDBRANCH  10  15
ENDBRANCH   1   7
BRANCH   5  17
HETATM   17  C7  UNL     1      -2.102  -0.639  -0.203  1.00  0.00     0.094 C 
HETATM   18  C8  UNL     1      -3.041  -0.805   0.944  1.00  0.00     0.011 C 
HETATM   19  C9  UNL     1      -3.940   0.385   1.176  1.00  0.00     0.011 C 
HETATM   20  C16 UNL     1      -3.975  -1.964   0.555  1.00  0.00     0.032 C 
HETATM   21  C10 UNL     1      -4.701   0.774  -0.086  1.00  0.00    -0.012 C 
HETATM   22  C11 UNL     1      -3.673   1.087  -1.140  1.00  0.00     0.011 C 
HETATM   23  C15 UNL     1      -5.597  -0.370  -0.439  1.00  0.00     0.030 C 
HETATM   24  C12 UNL     1      -2.835  -0.133  -1.411  1.00  0.00     0.011 C 
HETATM   25  C13 UNL     1      -3.798  -1.242  -1.839  1.00  0.00     0.032 C 
HETATM   26  C14 UNL     1      -4.712  -1.578  -0.696  1.00  0.00     0.038 C 
HETATM   27 CL1  UNL     1      -5.757  -2.937  -1.180  1.00  0.00    -0.119 Cl
ENDBRANCH   5  17
TORSDOF 3
