REMARK  2 active torsions:
REMARK  status: ('A' for Active; 'I' for Inactive)
REMARK    1  A    between atoms: C5_10  and  N3_11 
REMARK    2  A    between atoms: N3_11  and  C6_13 
ROOT
HETATM    1  C1  UNL     1       6.433   0.639   0.441  1.00  0.00     0.076 C 
HETATM    2  C2  UNL     1       5.131  -0.051   0.102  1.00  0.00     0.049 A 
HETATM    3  N1  UNL     1       4.014  -0.100   0.774  1.00  0.00    -0.339 N 
ATOM      4  H1  UNL     1       3.940   0.378   1.672  1.00  0.00     0.168 HD
HETATM    5  C3  UNL     1       2.980  -0.765   0.296  1.00  0.00     0.130 A 
HETATM    6  C4  UNL     1       3.166  -1.377  -0.917  1.00  0.00     0.103 A 
HETATM    7  S1  UNL     1       4.768  -0.980  -1.302  1.00  0.00    -0.065 SA
HETATM    8  S2  UNL     1       1.743  -2.276  -1.570  1.00  0.00    -0.010 SA
HETATM    9  N2  UNL     1       0.368  -1.175  -1.168  1.00  0.00    -0.128 NA
HETATM   10  C5  UNL     1       0.417  -0.860   0.245  1.00  0.00     0.287 C 
HETATM   11  N4  UNL     1       1.671  -0.937   0.890  1.00  0.00    -0.340 N 
ATOM     12  H4  UNL     1       1.652  -1.137   1.890  1.00  0.00     0.164 HD
ENDROOT
BRANCH  10  13
HETATM   13  N3  UNL     1      -0.198   0.392   0.480  1.00  0.00    -0.384 N 
ATOM     14  H3  UNL     1       0.363   1.176   0.812  1.00  0.00     0.157 HD
BRANCH  13  15
HETATM   15  C6  UNL     1      -1.565   0.563   0.261  1.00  0.00     0.079 C 
HETATM   16  C7  UNL     1      -2.473  -0.296   1.105  1.00  0.00     0.025 C 
HETATM   17  C8  UNL     1      -3.880   0.154   1.044  1.00  0.00     0.002 C 
HETATM   18  C9  UNL     1      -4.364   0.640  -0.275  1.00  0.00     0.000 C 
HETATM   19  C10 UNL     1      -3.348   1.051  -1.257  1.00  0.00     0.002 C 
HETATM   20  C11 UNL     1      -2.007   0.348  -1.161  1.00  0.00     0.025 C 
ENDBRANCH  13  15
ENDBRANCH  10  13
TORSDOF 2
