REMARK  8 active torsions:
REMARK  status: ('A' for Active; 'I' for Inactive)
REMARK    1  A    between atoms: C4_4  and  O1_6 
REMARK    2  A    between atoms: C6_11  and  C7_12 
REMARK    3  A    between atoms: C7_12  and  O2_13 
REMARK    4  A    between atoms: C7_12  and  C8_15 
REMARK    5  A    between atoms: C8_15  and  N2_16 
REMARK    6  A    between atoms: C8_15  and  C11_25 
REMARK    7  A    between atoms: N2_16  and  C9_18 
REMARK    8  A    between atoms: C13_29  and  N5_30 
ROOT
HETATM    1  C8  UNL     1       0.597   0.401   0.054  1.00  0.00     0.157 C 
ENDROOT
BRANCH   1   2
HETATM    2  C7  UNL     1      -0.352  -0.754   0.198  1.00  0.00     0.204 C 
BRANCH   2   3
HETATM    3  C6  UNL     1      -1.774  -0.392  -0.174  1.00  0.00     0.417 C 
HETATM    4  N1  UNL     1      -2.518  -1.634  -0.166  1.00  0.00    -0.012 N 
HETATM    5  C4  UNL     1      -3.880  -1.476  -0.612  1.00  0.00     0.225 C 
ATOM      6  H12 UNL     1      -2.484  -2.073   0.754  1.00  0.00     0.283 HD
ATOM      7  H11 UNL     1      -2.037  -2.350  -0.710  1.00  0.00     0.283 HD
HETATM    8  C3  UNL     1      -4.373  -0.057  -0.468  1.00  0.00     0.100 C 
HETATM    9  C5  UNL     1      -4.048  -1.955  -2.041  1.00  0.00     0.078 C 
HETATM   10  C2  UNL     1      -3.781   0.511   0.806  1.00  0.00     0.189 C 
HETATM   11  C1  UNL     1      -4.402   1.854   1.037  1.00  0.00     0.040 C 
HETATM   12  N6  UNL     1      -2.345   0.616   0.660  1.00  0.00    -0.039 N 
ATOM     13  H62 UNL     1      -2.085   1.545   0.329  1.00  0.00     0.280 HD
ATOM     14  H61 UNL     1      -1.891   0.626   1.573  1.00  0.00     0.280 HD
BRANCH   5  15
HETATM   15  O1  UNL     1      -4.677  -2.286   0.197  1.00  0.00    -0.365 OA
ATOM     16  H1  UNL     1      -4.367  -3.179   0.106  1.00  0.00     0.212 HD
ENDBRANCH   5  15
ENDBRANCH   2   3
BRANCH   2  17
HETATM   17  O2  UNL     1      -0.245  -1.341   1.438  1.00  0.00    -0.389 OA
ATOM     18  H2  UNL     1       0.647  -1.568   1.671  1.00  0.00     0.210 HD
ENDBRANCH   2  17
ENDBRANCH   1   2
BRANCH   1  19
HETATM   19  N2  UNL     1       0.533   1.052  -1.211  1.00  0.00    -0.366 N 
ATOM     20  H2  UNL     1       0.299   0.518  -2.048  1.00  0.00     0.161 HD
BRANCH  19  21
HETATM   21  C9  UNL     1       0.770   2.315  -1.298  1.00  0.00     0.134 A 
HETATM   22  S1  UNL     1       1.178   3.499  -0.148  1.00  0.00     0.014 SA
HETATM   23  N3  UNL     1       1.353   4.994  -0.942  1.00  0.00    -0.285 N 
HETATM   24  C10 UNL     1       1.135   4.904  -2.265  1.00  0.00     0.296 A 
ATOM     25  H3  UNL     1       1.597   5.863  -0.466  1.00  0.00     0.178 HD
HETATM   26  O3  UNL     1       1.205   5.866  -3.053  1.00  0.00    -0.259 OA
HETATM   27  S2  UNL     1       0.749   3.283  -2.695  1.00  0.00    -0.002 SA
ENDBRANCH  19  21
ENDBRANCH   1  19
BRANCH   1  28
HETATM   28  C11 UNL     1       1.977  -0.129   0.290  1.00  0.00     0.027 A 
HETATM   29  C12 UNL     1       2.719  -0.036   1.438  1.00  0.00     0.107 A 
HETATM   30  N4  UNL     1       3.899  -0.563   1.441  1.00  0.00    -0.345 N 
HETATM   31  C13 UNL     1       4.360  -1.168   0.363  1.00  0.00     0.146 A 
ATOM     32  H4  UNL     1       4.476  -0.511   2.280  1.00  0.00     0.167 HD
HETATM   33  S3  UNL     1       3.050  -0.987  -0.729  1.00  0.00    -0.055 SA
BRANCH  31  34
HETATM   34  N5  UNL     1       5.636  -1.815   0.160  1.00  0.00    -0.370 N 
HETATM   35  C14 UNL     1       5.907  -2.412  -1.126  1.00  0.00     0.151 C 
HETATM   36  C15 UNL     1       6.597  -1.853   1.217  1.00  0.00     0.151 C 
ENDBRANCH  31  34
ENDBRANCH   1  28
TORSDOF 8
