REMARK  7 active torsions:
REMARK  status: ('A' for Active; 'I' for Inactive)
REMARK    1  A    between atoms: C2_2  and  C3_4 
REMARK    2  A    between atoms: C4_5  and  O2_6 
REMARK    3  A    between atoms: C6_11  and  C7_12 
REMARK    4  A    between atoms: C7_12  and  S1_13 
REMARK    5  A    between atoms: C7_12  and  C11_23 
REMARK    6  A    between atoms: S1_13  and  C8_14 
REMARK    7  A    between atoms: C16_34  and  O7_35 
ROOT
HETATM    1  C7  UNL     1       0.588   0.825  -0.211  1.00  0.00     0.148 C 
ENDROOT
BRANCH   1   2
HETATM    2  C6  UNL     1      -0.512  -0.157  -0.339  1.00  0.00     0.072 A 
HETATM    3  C5  UNL     1      -0.377  -1.153  -1.269  1.00  0.00     0.300 A 
HETATM    4  O3  UNL     1      -1.309  -2.047  -1.438  1.00  0.00    -0.250 OA
HETATM    5  O4  UNL     1       0.682  -1.214  -1.990  1.00  0.00    -0.259 OA
HETATM    6  C4  UNL     1      -2.416  -2.002  -0.699  1.00  0.00     0.203 A 
HETATM    7  C3  UNL     1      -2.645  -1.042   0.260  1.00  0.00     0.101 A 
HETATM    8  C16 UNL     1      -1.660  -0.093   0.442  1.00  0.00     0.098 A 
BRANCH   6   9
HETATM    9  O2  UNL     1      -3.400  -2.974  -0.900  1.00  0.00    -0.340 OA
ATOM     10  H2  UNL     1      -3.242  -3.637  -1.562  1.00  0.00     0.220 HD
ENDBRANCH   6   9
BRANCH   7  11
HETATM   11  C2  UNL     1      -3.845  -0.982   1.057  1.00  0.00     0.163 C 
HETATM   12  C1  UNL     1      -4.950  -1.992   0.881  1.00  0.00     0.097 C 
HETATM   13  O1  UNL     1      -4.088  -0.119   1.946  1.00  0.00    -0.293 OA
ENDBRANCH   7  11
BRANCH   8  14
HETATM   14  O7  UNL     1      -1.708   0.918   1.329  1.00  0.00    -0.359 OA
ATOM     15  H7  UNL     1      -1.030   1.571   1.454  1.00  0.00     0.217 HD
ENDBRANCH   8  14
ENDBRANCH   1   2
BRANCH   1  16
HETATM   16  S1  UNL     1       2.120  -0.018  -0.694  1.00  0.00    -0.076 SA
BRANCH  16  17
HETATM   17  C8  UNL     1       2.561  -1.292   0.453  1.00  0.00     0.161 A 
HETATM   18  N1  UNL     1       1.922  -1.667   1.597  1.00  0.00    -0.278 N 
HETATM   19  N2  UNL     1       2.628  -2.664   2.121  1.00  0.00    -0.287 N 
ATOM     20  H1  UNL     1       1.067  -1.261   1.978  1.00  0.00     0.189 HD
HETATM   21  C9  UNL     1       3.693  -2.936   1.349  1.00  0.00     0.093 A 
ATOM     22  H2  UNL     1       2.394  -3.152   2.985  1.00  0.00     0.188 HD
HETATM   23  C10 UNL     1       4.737  -3.962   1.552  1.00  0.00     0.090 C 
HETATM   24  N3  UNL     1       3.642  -2.078   0.315  1.00  0.00    -0.325 N 
ATOM     25  H3  UNL     1       4.315  -2.031  -0.450  1.00  0.00     0.169 HD
ENDBRANCH  16  17
ENDBRANCH   1  16
BRANCH   1  26
HETATM   26  C11 UNL     1       0.378   2.095  -0.891  1.00  0.00     0.044 A 
HETATM   27  N4  UNL     1      -0.178   2.144  -2.107  1.00  0.00    -0.310 N 
HETATM   28  C12 UNL     1      -0.388   3.334  -2.749  1.00  0.00     0.327 A 
ATOM     29  H4  UNL     1      -0.451   1.275  -2.566  1.00  0.00     0.170 HD
HETATM   30  O5  UNL     1      -0.916   3.362  -3.901  1.00  0.00    -0.247 OA
HETATM   31  N5  UNL     1      -0.052   4.495  -2.201  1.00  0.00    -0.275 N 
HETATM   32  C13 UNL     1       0.516   4.510  -0.969  1.00  0.00     0.257 A 
ATOM     33  H5  UNL     1      -0.219   5.368  -2.701  1.00  0.00     0.173 HD
HETATM   34  O6  UNL     1       0.824   5.622  -0.476  1.00  0.00    -0.267 OA
HETATM   35  C14 UNL     1       0.731   3.295  -0.312  1.00  0.00     0.030 A 
HETATM   36  C15 UNL     1       1.349   3.326   1.019  1.00  0.00     0.056 C 
ENDBRANCH   1  26
TORSDOF 7
