REMARK  6 active torsions:
REMARK  status: ('A' for Active; 'I' for Inactive)
REMARK    1  A    between atoms: C2_7  and  C3_8 
REMARK    2  A    between atoms: C3_8  and  S1_9 
REMARK    3  A    between atoms: S1_9  and  C4_10 
REMARK    4  A    between atoms: C4_10  and  C5_11 
REMARK    5  A    between atoms: C5_11  and  N3_12 
REMARK    6  A    between atoms: N3_12  and  C6_14 
ROOT
HETATM    1  C3  UNL     1       2.754  -1.854  -0.586  1.00  0.00     0.101 C 
ENDROOT
BRANCH   1   2
HETATM    2  C2  UNL     1       3.628  -0.762  -0.183  1.00  0.00     0.118 C 
HETATM    3  N2  UNL     1       3.230   0.582  -0.012  1.00  0.00    -0.349 N 
HETATM    4  C1  UNL     1       4.525   1.240   0.249  1.00  0.00     0.213 C 
ATOM      5  H2  UNL     1       2.296   0.990  -0.057  1.00  0.00     0.163 HD
HETATM    6  N1  UNL     1       4.614   2.317   0.954  1.00  0.00    -0.365 N 
HETATM    7  O1  UNL     1       5.494   0.484  -0.389  1.00  0.00    -0.320 OA
ATOM      8  H12 UNL     1       3.900   2.874   1.424  1.00  0.00     0.159 HD
ATOM      9  H11 UNL     1       5.509   2.772   1.134  1.00  0.00     0.159 HD
HETATM   10  C11 UNL     1       4.822  -0.548  -1.138  1.00  0.00     0.204 C 
ENDBRANCH   1   2
BRANCH   1  11
HETATM   11  S1  UNL     1       1.422  -2.225   0.470  1.00  0.00    -0.162 SA
BRANCH  11  12
HETATM   12  C4  UNL     1      -0.146  -1.439   0.340  1.00  0.00     0.118 C 
BRANCH  12  13
HETATM   13  C5  UNL     1      -0.230   0.027   0.492  1.00  0.00     0.066 C 
BRANCH  13  14
HETATM   14  N3  UNL     1      -1.472   0.654   0.564  1.00  0.00    -0.397 N 
ATOM     15  H3  UNL     1      -1.738   1.143   1.419  1.00  0.00     0.159 HD
BRANCH  14  16
HETATM   16  C6  UNL     1      -2.354   0.625  -0.507  1.00  0.00     0.080 C 
HETATM   17  C7  UNL     1      -3.104  -0.636  -0.757  1.00  0.00     0.025 C 
HETATM   18  C8  UNL     1      -4.349  -0.427   0.137  1.00  0.00     0.002 C 
HETATM   19  C9  UNL     1      -4.710   0.997  -0.125  1.00  0.00     0.002 C 
HETATM   20  C10 UNL     1      -3.431   1.688  -0.465  1.00  0.00     0.025 C 
ENDBRANCH  14  16
ENDBRANCH  13  14
ENDBRANCH  12  13
ENDBRANCH  11  12
ENDBRANCH   1  11
TORSDOF 6
