REMARK  5 active torsions:
REMARK  status: ('A' for Active; 'I' for Inactive)
REMARK    1  A    between atoms: C6_7  and  C7_8 
REMARK       I    between atoms: C7_8  and  N2_10 
REMARK    2  A    between atoms: N2_10  and  C8_12 
REMARK    3  A    between atoms: C11_15  and  C12_16 
REMARK    4  A    between atoms: C12_16  and  N3_17 
REMARK    5  A    between atoms: C18_23  and  O2_24 
ROOT
HETATM    1  N1  UNL     1       8.185  -1.552  -2.779  1.00  0.00    -0.195 NA
HETATM    2  C1  UNL     1       7.493  -0.929  -2.082  1.00  0.00     0.092 C 
HETATM    3  C2  UNL     1       6.609  -0.154  -1.201  1.00  0.00     0.292 C 
HETATM    4  C3  UNL     1       7.440   0.566  -0.153  1.00  0.00     0.048 C 
HETATM    5  C4  UNL     1       6.575   1.193   0.892  1.00  0.00     0.005 C 
HETATM    6  C5  UNL     1       5.124   1.047   0.479  1.00  0.00     0.043 C 
HETATM    7  C6  UNL     1       4.790  -0.430   0.320  1.00  0.00     0.278 C 
HETATM    8  N4  UNL     1       5.683  -1.089  -0.582  1.00  0.00    -0.046 N 
ATOM      9  H41 UNL     1       6.178  -1.854  -0.123  1.00  0.00     0.279 HD
ATOM     10  H42 UNL     1       5.174  -1.627  -1.283  1.00  0.00     0.279 HD
ENDROOT
BRANCH   7  11
HETATM   11  C7  UNL     1       3.367  -0.569  -0.078  1.00  0.00     0.248 C 
HETATM   12  O1  UNL     1       3.088  -1.219  -1.103  1.00  0.00    -0.271 OA
HETATM   13  N2  UNL     1       2.317   0.024   0.687  1.00  0.00    -0.354 N 
ATOM     14  H2  UNL     1       2.551   0.555   1.526  1.00  0.00     0.162 HD
BRANCH  13  15
HETATM   15  C8  UNL     1       0.939  -0.110   0.304  1.00  0.00     0.088 C 
HETATM   16  C9  UNL     1       0.295   1.226  -0.064  1.00  0.00     0.052 C 
HETATM   17  C10 UNL     1      -0.976   0.833  -0.774  1.00  0.00    -0.020 C 
HETATM   18  C11 UNL     1      -1.687  -0.212  -0.382  1.00  0.00    -0.056 C 
HETATM   19  C19 UNL     1      -1.269  -1.048   0.768  1.00  0.00     0.037 C 
HETATM   20  C20 UNL     1       0.051  -0.708   1.362  1.00  0.00     0.029 C 
BRANCH  18  21
HETATM   21  C12 UNL     1      -2.936  -0.589  -1.090  1.00  0.00     0.306 C 
BRANCH  21  22
HETATM   22  N3  UNL     1      -4.069  -0.542  -0.218  1.00  0.00     0.097 N 
HETATM   23  C13 UNL     1      -4.406   0.820   0.184  1.00  0.00     0.280 C 
HETATM   24  C14 UNL     1      -5.779   1.073  -0.371  1.00  0.00     0.045 C 
HETATM   25  C15 UNL     1      -5.743   0.156  -1.602  1.00  0.00     0.044 C 
HETATM   26  C18 UNL     1      -6.750   0.298   0.491  1.00  0.00     0.126 C 
HETATM   27  C16 UNL     1      -5.243  -1.074  -0.823  1.00  0.00     0.226 C 
HETATM   28  C17 UNL     1      -6.321  -1.138   0.245  1.00  0.00     0.068 C 
BRANCH  26  29
HETATM   29  O2  UNL     1      -8.032   0.550  -0.004  1.00  0.00    -0.395 OA
ATOM     30  H2  UNL     1      -8.642   0.063   0.538  1.00  0.00     0.210 HD
ENDBRANCH  26  29
ENDBRANCH  21  22
ENDBRANCH  18  21
ENDBRANCH  13  15
ENDBRANCH   7  11
TORSDOF 5
