REMARK  3 active torsions:
REMARK  status: ('A' for Active; 'I' for Inactive)
REMARK    1  A    between atoms: O1_2  and  C2_3 
REMARK    2  A    between atoms: C2_3  and  C3_5 
REMARK    3  A    between atoms: C8_14  and  N3_15 
ROOT
HETATM    1  C3  UNL     1      -1.272  -0.169   0.016  1.00  0.00     0.113 A 
HETATM    2  C4  UNL     1      -0.277  -1.132   0.058  1.00  0.00     0.072 A 
HETATM    3  C5  UNL     1       1.073  -0.800   0.046  1.00  0.00     0.122 A 
HETATM    4  C6  UNL     1       1.413   0.537  -0.011  1.00  0.00     0.176 A 
HETATM    5  C7  UNL     1       0.391   1.457  -0.051  1.00  0.00     0.278 A 
HETATM    6  O3  UNL     1       0.687   2.689  -0.103  1.00  0.00    -0.266 OA
HETATM    7  N1  UNL     1      -0.900   1.106  -0.038  1.00  0.00    -0.316 N 
ATOM      8  H1  UNL     1      -1.615   1.833  -0.070  1.00  0.00     0.169 HD
HETATM    9  N2  UNL     1       2.705   0.186   0.006  1.00  0.00    -0.048 N 
HETATM   10  C8  UNL     1       4.059   0.231   0.006  1.00  0.00     0.721 A 
HETATM   11  N4  UNL     1       4.509  -1.020   0.059  1.00  0.00    -0.068 N 
ATOM     12  H4  UNL     1       5.488  -1.307   0.072  1.00  0.00     0.216 HD
HETATM   13  O4  UNL     1       3.491  -1.802   0.091  1.00  0.00    -0.118 OA
HETATM   14  N5  UNL     1       2.395  -1.111   0.060  1.00  0.00    -0.111 N 
ENDROOT
BRANCH   1  15
HETATM   15  C2  UNL     1      -2.687  -0.583   0.031  1.00  0.00     0.309 C 
HETATM   16  O2  UNL     1      -2.995  -1.801   0.083  1.00  0.00    -0.258 OA
BRANCH  15  17
HETATM   17  O1  UNL     1      -3.697   0.343  -0.009  1.00  0.00    -0.321 OA
HETATM   18  C1  UNL     1      -5.077   0.028   0.002  1.00  0.00     0.213 C 
ENDBRANCH  15  17
ENDBRANCH   1  15
BRANCH  10  19
HETATM   19  N3  UNL     1       4.791   1.281  -0.038  1.00  0.00    -0.231 N 
ATOM     20  H32 UNL     1       4.446   2.240  -0.079  1.00  0.00     0.174 HD
ATOM     21  H31 UNL     1       5.810   1.315  -0.038  1.00  0.00     0.174 HD
ENDBRANCH  10  19
TORSDOF 3
