REMARK  11 active torsions:
REMARK  status: ('A' for Active; 'I' for Inactive)
REMARK    1  A    between atoms: C3_5  and  C4_6 
REMARK    2  A    between atoms: C4_6  and  C5_7 
REMARK    3  A    between atoms: C11_13  and  C12_14 
REMARK    4  A    between atoms: C12_14  and  C13_15 
REMARK    5  A    between atoms: N2_19  and  C17_20 
REMARK    6  A    between atoms: C17_20  and  C18_21 
REMARK    7  A    between atoms: C20_23  and  C21_24 
REMARK    8  A    between atoms: C21_24  and  N3_25 
REMARK       I    between atoms: C22_27  and  N5_29 
REMARK    9  A    between atoms: C27_37  and  C28_38 
REMARK   10  A    between atoms: C28_38  and  C29_39 
REMARK   11  A    between atoms: C29_39  and  O1_40 
ROOT
HETATM    1  C5  UNL     1      -2.092  -0.130  -0.310  1.00  0.00    -0.033 A 
HETATM    2  C6  UNL     1      -1.293   0.968  -0.175  1.00  0.00     0.014 A 
HETATM    3  C7  UNL     1      -0.098   0.936   0.540  1.00  0.00     0.031 A 
HETATM    4  C8  UNL     1       0.343  -0.208   1.150  1.00  0.00     0.045 A 
HETATM    5  C9  UNL     1      -0.473  -1.336   1.014  1.00  0.00    -0.002 A 
HETATM    6  C10 UNL     1      -1.664  -1.283   0.296  1.00  0.00     0.025 A 
HETATM    7  C11 UNL     1      -0.118  -2.519   1.598  1.00  0.00    -0.044 A 
HETATM    8  C15 UNL     1       1.063  -2.562   2.321  1.00  0.00     0.025 A 
HETATM    9  C16 UNL     1       1.839  -1.433   2.432  1.00  0.00     0.092 A 
HETATM   10  N2  UNL     1       1.484  -0.245   1.846  1.00  0.00    -0.350 N 
ENDROOT
BRANCH  10  11
HETATM   11  C17 UNL     1       2.341   0.886   1.983  1.00  0.00     0.185 C 
BRANCH  11  12
HETATM   12  C18 UNL     1       3.357   0.847   0.891  1.00  0.00     0.028 A 
HETATM   13  C19 UNL     1       4.562   0.146   0.899  1.00  0.00     0.036 A 
HETATM   14  C20 UNL     1       5.217   0.378  -0.286  1.00  0.00    -0.023 A 
HETATM   15  C24 UNL     1       4.426   1.212  -1.017  1.00  0.00     0.097 A 
HETATM   16  N6  UNL     1       3.315   1.478  -0.286  1.00  0.00    -0.367 N 
ATOM     17  H6  UNL     1       2.550   2.079  -0.593  1.00  0.00     0.165 HD
BRANCH  14  18
HETATM   18  C21 UNL     1       6.536  -0.158  -0.725  1.00  0.00     0.162 C 
BRANCH  18  19
HETATM   19  N3  UNL     1       7.613   0.684  -0.307  1.00  0.00    -0.360 N 
HETATM   20  C22 UNL     1       8.272   1.507  -1.037  1.00  0.00     0.183 C 
HETATM   21  N4  UNL     1       8.019   1.711  -2.419  1.00  0.00    -0.064 NA
HETATM   22  N5  UNL     1       9.308   2.249  -0.413  1.00  0.00    -0.369 N 
HETATM   23  C23 UNL     1      10.561   1.579  -0.147  1.00  0.00     0.148 C 
ATOM     24  H5  UNL     1       9.172   3.228  -0.159  1.00  0.00     0.161 HD
ATOM     25  H3  UNL     1       7.886   0.624   0.674  1.00  0.00     0.162 HD
ENDBRANCH  18  19
ENDBRANCH  14  18
ENDBRANCH  11  12
ENDBRANCH  10  11
BRANCH   7  26
HETATM   26  C12 UNL     1      -0.970  -3.742   1.445  1.00  0.00     0.039 C 
BRANCH  26  27
HETATM   27  C13 UNL     1      -0.801  -4.419   0.125  1.00  0.00     0.000 C 
HETATM   28  C14 UNL     1      -1.730  -5.626   0.127  1.00  0.00     0.005 C 
ENDBRANCH  26  27
ENDBRANCH   7  26
BRANCH   1  29
HETATM   29  C4  UNL     1      -3.330  -0.057  -1.066  1.00  0.00     0.041 C 
BRANCH  29  30
HETATM   30  C3  UNL     1      -4.334   0.682  -0.618  1.00  0.00     0.040 A 
HETATM   31  N1  UNL     1      -4.394   1.424   0.497  1.00  0.00    -0.356 N 
HETATM   32  C2  UNL     1      -5.584   2.029   0.605  1.00  0.00     0.030 A 
ATOM     33  H1  UNL     1      -3.635   1.515   1.172  1.00  0.00     0.166 HD
HETATM   34  C1  UNL     1      -5.998   2.833   1.563  1.00  0.00     0.043 C 
HETATM   35  C27 UNL     1      -6.330   1.661  -0.493  1.00  0.00    -0.022 A 
HETATM   36  C25 UNL     1      -5.549   0.826  -1.248  1.00  0.00    -0.027 A 
HETATM   37  C26 UNL     1      -5.924   0.174  -2.529  1.00  0.00     0.051 C 
BRANCH  35  38
HETATM   38  C28 UNL     1      -7.740   2.106  -0.777  1.00  0.00     0.067 C 
BRANCH  38  39
HETATM   39  C29 UNL     1      -8.718   1.347   0.089  1.00  0.00     0.168 C 
BRANCH  39  40
HETATM   40  O1  UNL     1     -10.016   1.745  -0.160  1.00  0.00    -0.401 OA
ATOM     41  H1  UNL     1     -10.631   1.268   0.385  1.00  0.00     0.209 HD
ENDBRANCH  39  40
ENDBRANCH  38  39
ENDBRANCH  35  38
ENDBRANCH  29  30
ENDBRANCH   1  29
TORSDOF 11
