REMARK  12 active torsions:
REMARK  status: ('A' for Active; 'I' for Inactive)
REMARK    1  A    between atoms: C3_3  and  C4_4 
REMARK    2  A    between atoms: C6_6  and  O1_7 
REMARK    3  A    between atoms: O1_7  and  C7_8 
REMARK    4  A    between atoms: C7_8  and  C8_10 
REMARK    5  A    between atoms: C8_10  and  C10_12 
REMARK    6  A    between atoms: C10_12  and  O3_13 
REMARK    7  A    between atoms: C10_12  and  C11_15 
REMARK    8  A    between atoms: C11_15  and  O4_16 
REMARK    9  A    between atoms: C11_15  and  C12_18 
REMARK   10  A    between atoms: C12_18  and  O5_19 
REMARK   11  A    between atoms: C16_24  and  O6_25 
REMARK   12  A    between atoms: O6_25  and  C17_26 
ROOT
HETATM    1  C4  UNL     1      -1.006  -1.780   0.143  1.00  0.00     0.008 C 
HETATM    2  C5  UNL     1      -1.875  -2.298   1.285  1.00  0.00     0.023 C 
HETATM    3  C6  UNL     1      -0.478  -0.445   0.603  1.00  0.00     0.149 C 
HETATM    4  C13 UNL     1      -1.118   0.763   0.092  1.00  0.00     0.031 C 
HETATM    5  C14 UNL     1      -2.375   0.499  -0.764  1.00  0.00     0.000 C 
HETATM    6  C15 UNL     1      -2.732   1.883  -1.142  1.00  0.00     0.039 C 
HETATM    7  C16 UNL     1      -2.707   2.540   0.249  1.00  0.00     0.142 C 
HETATM    8  C18 UNL     1      -1.584   1.814   1.005  1.00  0.00    -0.014 C 
HETATM    9  C19 UNL     1      -1.994   1.409   2.369  1.00  0.00     0.018 C 
HETATM   10  C20 UNL     1      -0.474   2.860   1.157  1.00  0.00     0.018 C 
HETATM   11  C21 UNL     1      -1.891  -0.426  -1.775  1.00  0.00    -0.001 C 
HETATM   12  C22 UNL     1      -2.674  -0.727  -2.967  1.00  0.00     0.006 C 
HETATM   13  C23 UNL     1      -2.165  -2.089  -3.384  1.00  0.00     0.001 C 
HETATM   14  C24 UNL     1      -1.214  -2.559  -2.269  1.00  0.00     0.011 C 
HETATM   15  C25 UNL     1      -1.808  -1.783  -1.096  1.00  0.00    -0.027 C 
HETATM   16  C26 UNL     1      -3.183  -2.408  -0.886  1.00  0.00     0.016 C 
ENDROOT
BRANCH   3  17
HETATM   17  O1  UNL     1       0.917  -0.443   0.256  1.00  0.00    -0.314 OA
BRANCH  17  18
HETATM   18  C7  UNL     1       1.932  -0.386   1.179  1.00  0.00     0.265 C 
HETATM   19  O2  UNL     1       1.623  -0.332   2.389  1.00  0.00    -0.265 OA
BRANCH  18  20
HETATM   20  C8  UNL     1       3.380  -0.385   0.796  1.00  0.00     0.113 C 
HETATM   21  C9  UNL     1       4.189  -0.310   2.041  1.00  0.00     0.023 C 
BRANCH  20  22
HETATM   22  C10 UNL     1       3.572   0.739  -0.181  1.00  0.00     0.162 C 
BRANCH  22  23
HETATM   23  O3  UNL     1       2.694   0.409  -1.260  1.00  0.00    -0.392 OA
ATOM     24  H3  UNL     1       2.815   1.120  -1.878  1.00  0.00     0.210 HD
ENDBRANCH  22  23
BRANCH  22  25
HETATM   25  C11 UNL     1       4.956   0.726  -0.808  1.00  0.00     0.171 C 
BRANCH  25  26
HETATM   26  O4  UNL     1       5.292  -0.516  -1.308  1.00  0.00    -0.391 OA
ATOM     27  H4  UNL     1       6.157  -0.524  -1.700  1.00  0.00     0.210 HD
ENDBRANCH  25  26
BRANCH  25  28
HETATM   28  C12 UNL     1       5.980   1.363   0.072  1.00  0.00     0.198 C 
BRANCH  28  29
HETATM   29  O5  UNL     1       5.457   2.602   0.485  1.00  0.00    -0.398 OA
ATOM     30  H5  UNL     1       6.109   3.007   1.045  1.00  0.00     0.209 HD
ENDBRANCH  28  29
ENDBRANCH  25  28
ENDBRANCH  22  25
ENDBRANCH  20  22
ENDBRANCH  18  20
ENDBRANCH  17  18
ENDBRANCH   3  17
BRANCH   1  31
HETATM   31  C3  UNL     1       0.108  -2.757  -0.021  1.00  0.00    -0.019 C 
HETATM   32  C2  UNL     1       0.267  -3.858   0.665  1.00  0.00    -0.034 C 
HETATM   33  C1  UNL     1       1.403  -4.793   0.452  1.00  0.00     0.036 C 
ENDBRANCH   1  31
BRANCH   7  34
HETATM   34  O6  UNL     1      -2.513   3.913   0.186  1.00  0.00    -0.300 OA
BRANCH  34  35
HETATM   35  C17 UNL     1      -3.501   4.735   0.741  1.00  0.00     0.373 C 
HETATM   36  N1  UNL     1      -3.434   6.141   0.746  1.00  0.00    -0.032 NA
HETATM   37  O7  UNL     1      -4.529   4.201   1.278  1.00  0.00    -0.242 OA
ENDBRANCH  34  35
ENDBRANCH   7  34
TORSDOF 12
