REMARK  3 active torsions:
REMARK  status: ('A' for Active; 'I' for Inactive)
REMARK    1  A    between atoms: C4_5  and  N1_6 
REMARK    2  A    between atoms: N1_6  and  C5_8 
REMARK    3  A    between atoms: C10_13  and  C11_14 
ROOT
HETATM    1  C5  UNL     1       0.161   1.050  -0.614  1.00  0.00     0.061 A 
HETATM    2  C6  UNL     1       0.081   0.915  -1.983  1.00  0.00     0.032 A 
HETATM    3  C7  UNL     1      -1.029   0.323  -2.546  1.00  0.00     0.003 A 
HETATM    4  C8  UNL     1      -2.073  -0.141  -1.764  1.00  0.00     0.014 A 
HETATM    5  C9  UNL     1      -1.975   0.003  -0.398  1.00  0.00     0.008 A 
HETATM    6  C10 UNL     1      -2.982  -0.442   0.404  1.00  0.00     0.058 A 
HETATM    7  C12 UNL     1      -2.897  -0.302   1.799  1.00  0.00     0.144 A 
HETATM    8  F4  UNL     1      -3.909  -0.750   2.587  1.00  0.00    -0.204 F 
HETATM    9  C13 UNL     1      -1.776   0.291   2.308  1.00  0.00     0.131 A 
HETATM   10  N2  UNL     1      -0.795   0.724   1.513  1.00  0.00    -0.360 N 
ATOM     11  H2  UNL     1       0.027   1.163   1.928  1.00  0.00     0.165 HD
HETATM   12  C14 UNL     1      -0.868   0.594   0.180  1.00  0.00     0.070 A 
ENDROOT
BRANCH   1  13
HETATM   13  N1  UNL     1       1.285   1.653   0.002  1.00  0.00    -0.341 N 
ATOM     14  H1  UNL     1       1.285   2.648   0.226  1.00  0.00     0.167 HD
BRANCH  13  15
HETATM   15  C4  UNL     1       2.325   0.904   0.278  1.00  0.00     0.107 A 
HETATM   16  C3  UNL     1       2.328  -0.447  -0.023  1.00  0.00     0.052 A 
HETATM   17  C2  UNL     1       3.411  -1.258   0.258  1.00  0.00     0.051 A 
HETATM   18  C1  UNL     1       4.503  -0.685   0.853  1.00  0.00     0.172 A 
HETATM   19  F1  UNL     1       5.575  -1.458   1.138  1.00  0.00    -0.201 F 
HETATM   20  C15 UNL     1       4.485   0.669   1.150  1.00  0.00     0.228 A 
HETATM   21  N3  UNL     1       3.416   1.429   0.863  1.00  0.00    -0.317 N 
HETATM   22  F5  UNL     1       5.576   1.204   1.736  1.00  0.00    -0.183 F 
ATOM     23  H3  UNL     1       3.432   2.423   1.093  1.00  0.00     0.170 HD
ENDBRANCH  13  15
ENDBRANCH   1  13
BRANCH   6  24
HETATM   24  C11 UNL     1      -4.215  -1.088  -0.077  1.00  0.00     0.390 C 
HETATM   25  F2  UNL     1      -5.262  -0.255   0.355  1.00  0.00    -0.209 F 
HETATM   26  F3  UNL     1      -4.348  -2.264   0.663  1.00  0.00    -0.209 F 
ENDBRANCH   6  24
TORSDOF 3
