REMARK  0 active torsions:
REMARK  status: ('A' for Active; 'I' for Inactive)
ROOT
HETATM    1  C1  UNL     1      -0.911   3.467   0.038  1.00  0.00     0.018 C 
HETATM    2  C2  UNL     1      -0.911   2.260   0.048  1.00  0.00    -0.077 C 
HETATM    3  C3  UNL     1      -0.902   0.825   0.051  1.00  0.00     0.028 A 
HETATM    4  C4  UNL     1      -2.081   0.109   0.121  1.00  0.00     0.021 A 
HETATM    5  C5  UNL     1      -2.060  -1.281   0.123  1.00  0.00     0.002 A 
HETATM    6  C6  UNL     1      -0.862  -1.951   0.055  1.00  0.00     0.014 A 
HETATM    7  C7  UNL     1       0.328  -1.265  -0.016  1.00  0.00    -0.009 A 
HETATM    8  C8  UNL     1       1.536  -1.928  -0.085  1.00  0.00     0.100 A 
HETATM    9  N1  UNL     1       2.673  -1.199  -0.152  1.00  0.00    -0.374 N 
ATOM     10  H1  UNL     1       3.572  -1.678  -0.203  1.00  0.00     0.164 HD
HETATM   11  C9  UNL     1       2.641   0.133  -0.153  1.00  0.00     0.088 A 
HETATM   12  C10 UNL     1       1.453   0.840  -0.086  1.00  0.00     0.030 A 
HETATM   13  C11 UNL     1       0.277   0.136  -0.016  1.00  0.00    -0.005 A 
ENDROOT
TORSDOF 0
