REMARK  14 active torsions:
REMARK  status: ('A' for Active; 'I' for Inactive)
REMARK    1  A    between atoms: C2_2  and  C3_3 
REMARK    2  A    between atoms: C3_3  and  O1_4 
REMARK    3  A    between atoms: N1_8  and  C6_9 
REMARK    4  A    between atoms: C6_9  and  C7_10 
REMARK    5  A    between atoms: C7_10  and  O2_11 
REMARK    6  A    between atoms: O2_11  and  C8_12 
REMARK    7  A    between atoms: C12_16  and  N2_17 
REMARK    8  A    between atoms: N2_17  and  C13_19 
REMARK    9  A    between atoms: C14_22  and  N4_23 
REMARK   10  A    between atoms: C19_31  and  N6_32 
REMARK   11  A    between atoms: N6_32  and  C20_33 
REMARK   12  A    between atoms: C20_33  and  C21_34 
REMARK   13  A    between atoms: C21_34  and  C22_35 
REMARK   14  A    between atoms: C22_35  and  N7_36 
ROOT
HETATM    1  C13 UNL     1       1.282   1.268   0.025  1.00  0.00     0.700 A 
HETATM    2  N3  UNL     1       1.645   0.061  -0.409  1.00  0.00    -0.021 N 
ATOM      3  H3  UNL     1       0.913  -0.640  -0.523  1.00  0.00     0.203 HD
HETATM    4  C14 UNL     1       2.902  -0.300  -0.707  1.00  0.00     0.705 A 
HETATM    5  N5  UNL     1       3.855   0.611  -0.563  1.00  0.00    -0.147 N 
ATOM      6  H5  UNL     1       4.816   0.354  -0.787  1.00  0.00     0.188 HD
HETATM    7  C19 UNL     1       3.605   1.857  -0.135  1.00  0.00     0.287 A 
HETATM    8  N8  UNL     1       2.294   2.159   0.151  1.00  0.00    -0.148 N 
ATOM      9  H8  UNL     1       2.073   3.101   0.474  1.00  0.00     0.188 HD
ENDROOT
BRANCH   1  10
HETATM   10  N2  UNL     1       0.074   1.553   0.455  1.00  0.00    -0.191 N 
ATOM     11  H2  UNL     1      -0.170   2.493   0.767  1.00  0.00     0.184 HD
BRANCH  10  12
HETATM   12  C12 UNL     1      -0.878   0.500   0.468  1.00  0.00     0.051 A 
HETATM   13  C11 UNL     1      -0.710  -0.508   1.451  1.00  0.00     0.030 A 
HETATM   14  C10 UNL     1      -1.562  -1.565   1.554  1.00  0.00     0.005 A 
HETATM   15  C9  UNL     1      -2.623  -1.668   0.675  1.00  0.00     0.037 A 
HETATM   16  C8  UNL     1      -2.820  -0.714  -0.289  1.00  0.00     0.070 A 
HETATM   17  C27 UNL     1      -1.935   0.366  -0.378  1.00  0.00     0.066 A 
BRANCH  16  18
HETATM   18  O2  UNL     1      -3.913  -0.838  -1.179  1.00  0.00    -0.349 OA
BRANCH  18  19
HETATM   19  C7  UNL     1      -4.801  -1.911  -1.009  1.00  0.00     0.206 C 
BRANCH  19  20
HETATM   20  C6  UNL     1      -5.717  -1.865   0.153  1.00  0.00     0.299 C 
BRANCH  20  21
HETATM   21  N1  UNL     1      -6.802  -0.897   0.075  1.00  0.00     0.090 N 
HETATM   22  C5  UNL     1      -7.784  -1.448  -0.911  1.00  0.00     0.275 C 
HETATM   23  C4  UNL     1      -9.100  -0.845  -0.566  1.00  0.00     0.068 C 
HETATM   24  C3  UNL     1      -8.878   0.494   0.150  1.00  0.00     0.061 C 
HETATM   25  C29 UNL     1      -7.763   1.202  -0.569  1.00  0.00     0.068 C 
HETATM   26  C28 UNL     1      -6.446   0.421  -0.351  1.00  0.00     0.275 C 
BRANCH  24  27
HETATM   27  C2  UNL     1     -10.186   1.277   0.082  1.00  0.00     0.033 C 
HETATM   28  C1  UNL     1     -10.035   2.581   0.801  1.00  0.00     0.008 C 
ENDBRANCH  24  27
BRANCH  24  29
HETATM   29  O1  UNL     1      -8.568   0.274   1.477  1.00  0.00    -0.390 OA
ATOM     30  H1  UNL     1      -7.754  -0.213   1.519  1.00  0.00     0.210 HD
ENDBRANCH  24  29
ENDBRANCH  20  21
ENDBRANCH  19  20
ENDBRANCH  18  19
ENDBRANCH  16  18
ENDBRANCH  10  12
ENDBRANCH   1  10
BRANCH   4  31
HETATM   31  N4  UNL     1       3.176  -1.631  -1.195  1.00  0.00    -0.150 N 
HETATM   32  C15 UNL     1       3.906  -1.911  -2.408  1.00  0.00     0.151 C 
HETATM   33  C16 UNL     1       4.716  -3.142  -1.981  1.00  0.00     0.030 C 
HETATM   34  C17 UNL     1       3.621  -3.971  -1.314  1.00  0.00     0.105 C 
HETATM   35  C18 UNL     1       2.814  -2.886  -0.647  1.00  0.00     0.238 C 
HETATM   36  O3  UNL     1       1.970  -3.083   0.235  1.00  0.00    -0.273 OA
ENDBRANCH   4  31
BRANCH   7  37
HETATM   37  N6  UNL     1       4.506   2.651   0.081  1.00  0.00    -0.387 NA
BRANCH  37  38
HETATM   38  C20 UNL     1       5.510   3.494   0.308  1.00  0.00     0.164 C 
BRANCH  38  39
HETATM   39  C21 UNL     1       6.833   2.846   0.803  1.00  0.00     0.104 C 
BRANCH  39  40
HETATM   40  C22 UNL     1       7.365   1.998  -0.308  1.00  0.00     0.064 C 
BRANCH  40  41
HETATM   41  N7  UNL     1       8.467   1.205  -0.020  1.00  0.00    -0.393 N 
HETATM   42  C23 UNL     1       9.732   1.699   0.273  1.00  0.00     0.122 C 
HETATM   43  C24 UNL     1      10.415   0.665   1.171  1.00  0.00     0.021 C 
HETATM   44  C25 UNL     1       9.583  -0.595   1.006  1.00  0.00     0.021 C 
HETATM   45  C26 UNL     1       8.238  -0.070   0.551  1.00  0.00     0.122 C 
ENDBRANCH  40  41
ENDBRANCH  39  40
ENDBRANCH  38  39
ENDBRANCH  37  38
ENDBRANCH   7  37
TORSDOF 14
