REMARK  8 active torsions:
REMARK  status: ('A' for Active; 'I' for Inactive)
REMARK    1  A    between atoms: C2_2  and  C5_5 
REMARK    2  A    between atoms: N2_11  and  C9_12 
REMARK    3  A    between atoms: C9_12  and  C10_13 
REMARK    4  A    between atoms: C9_12  and  C11_16 
REMARK    5  A    between atoms: C11_16  and  N3_17 
REMARK    6  A    between atoms: C11_16  and  C19_30 
REMARK       I    between atoms: N3_17  and  C12_19 
REMARK    7  A    between atoms: C12_19  and  C13_21 
REMARK    8  A    between atoms: C21_34  and  C22_35 
ROOT
HETATM    1  C9  UNL     1      -0.575   0.614  -1.047  1.00  0.00     0.376 C 
ENDROOT
BRANCH   1   2
HETATM    2  N2  UNL     1      -1.313  -0.505  -0.573  1.00  0.00     0.152 N 
HETATM    3  C6  UNL     1      -2.436  -0.859  -1.370  1.00  0.00     0.227 C 
HETATM    4  N1  UNL     1      -3.584  -0.505  -0.589  1.00  0.00    -0.360 N 
HETATM    5  C7  UNL     1      -2.576  -2.317  -1.740  1.00  0.00     0.073 C 
HETATM    6  C8  UNL     1      -2.651  -0.069  -2.660  1.00  0.00     0.073 C 
HETATM    7  C5  UNL     1      -3.309  -0.258   0.605  1.00  0.00     0.031 C 
ATOM      8  H1  UNL     1      -4.530  -0.459  -0.969  1.00  0.00     0.161 HD
HETATM    9  C21 UNL     1      -1.837  -0.467   0.734  1.00  0.00     0.338 C 
BRANCH   7  10
HETATM   10  C2  UNL     1      -4.330   0.145   1.623  1.00  0.00    -0.011 C 
HETATM   11  C1  UNL     1      -5.689   0.214   0.917  1.00  0.00     0.021 C 
HETATM   12  C3  UNL     1      -4.056   1.601   2.067  1.00  0.00     0.021 C 
HETATM   13  C4  UNL     1      -4.400  -0.652   2.866  1.00  0.00     0.021 C 
ENDBRANCH   7  10
BRANCH   9  14
HETATM   14  C22 UNL     1      -1.599  -1.663   1.601  1.00  0.00     0.392 C 
HETATM   15  F2  UNL     1      -0.245  -1.982   1.770  1.00  0.00    -0.212 F 
HETATM   16  F3  UNL     1      -2.221  -2.816   1.293  1.00  0.00    -0.212 F 
ENDBRANCH   9  14
ENDBRANCH   1   2
BRANCH   1  17
HETATM   17  C10 UNL     1       0.007   0.106  -2.361  1.00  0.00     0.213 C 
HETATM   18  O1  UNL     1       0.292   0.802  -3.338  1.00  0.00    -0.646 OA
HETATM   19  O2  UNL     1       0.269  -1.268  -2.543  1.00  0.00    -0.646 OA
ENDBRANCH   1  17
BRANCH   1  20
HETATM   20  C11 UNL     1       0.570   1.150  -0.309  1.00  0.00     0.084 C 
BRANCH  20  21
HETATM   21  N3  UNL     1       1.674   0.272  -0.202  1.00  0.00    -0.326 N 
HETATM   22  C12 UNL     1       2.508   0.016   0.887  1.00  0.00     0.253 C 
HETATM   23  O3  UNL     1       2.278   0.652   1.963  1.00  0.00    -0.271 OA
ATOM     24  H3  UNL     1       1.893  -0.253  -1.048  1.00  0.00     0.168 HD
BRANCH  22  25
HETATM   25  C13 UNL     1       3.634  -0.907   0.942  1.00  0.00     0.281 C 
HETATM   26  N4  UNL     1       4.622  -0.451   1.936  1.00  0.00    -0.058 N 
HETATM   27  C14 UNL     1       5.920  -0.579   1.319  1.00  0.00     0.187 C 
ATOM     28  H42 UNL     1       4.435   0.488   2.289  1.00  0.00     0.278 HD
ATOM     29  H41 UNL     1       4.550  -0.940   2.828  1.00  0.00     0.278 HD
HETATM   30  C15 UNL     1       6.065   0.537   0.308  1.00  0.00     0.033 C 
HETATM   31  C18 UNL     1       5.660  -1.757   0.365  1.00  0.00     0.040 C 
HETATM   32  C16 UNL     1       5.090   0.167  -0.788  1.00  0.00     0.009 C 
HETATM   33  C17 UNL     1       4.433  -1.092  -0.300  1.00  0.00     0.028 C 
ENDBRANCH  22  25
ENDBRANCH  20  21
BRANCH  20  34
HETATM   34  C19 UNL     1       0.843   2.600  -0.465  1.00  0.00     0.197 C 
HETATM   35  C20 UNL     1       1.159   3.208  -1.752  1.00  0.00     0.072 C 
HETATM   36  F1  UNL     1       1.767   3.065   0.463  1.00  0.00    -0.224 F 
HETATM   37 BR1  UNL     1      -0.795   3.556   0.109  1.00  0.00    -0.042 Br
ENDBRANCH  20  34
ENDBRANCH   1  20
TORSDOF 8
