REMARK  12 active torsions:
REMARK  status: ('A' for Active; 'I' for Inactive)
REMARK    1  A    between atoms: C2_2  and  N1_3 
REMARK    2  A    between atoms: N1_3  and  C3_5 
REMARK    3  A    between atoms: C4_8  and  N3_9 
REMARK    4  A    between atoms: N3_9  and  O1_10 
REMARK    5  A    between atoms: N3_9  and  C5_12 
REMARK    6  A    between atoms: C5_12  and  C6_13 
REMARK    7  A    between atoms: C6_13  and  N4_14 
REMARK    8  A    between atoms: C7_21  and  N8_22 
REMARK    9  A    between atoms: C8_25  and  N9_26 
REMARK   10  A    between atoms: C9_29  and  N10_30 
REMARK   11  A    between atoms: N10_30  and  C10_32 
REMARK   12  A    between atoms: C10_32  and  O4_34 
ROOT
HETATM    1  C3  UNL     1      -1.665  -1.002   0.375  1.00  0.00     0.681 A 
HETATM    2  N2  UNL     1      -0.561  -1.307  -0.329  1.00  0.00    -0.172 N 
ATOM      3  H2  UNL     1      -0.133  -2.224  -0.200  1.00  0.00     0.186 HD
HETATM    4  C4  UNL     1      -0.000  -0.446  -1.198  1.00  0.00     0.180 A 
HETATM    5  C8  UNL     1      -0.626   0.770  -1.324  1.00  0.00     0.193 A 
HETATM    6  C9  UNL     1      -1.768   1.088  -0.597  1.00  0.00     0.156 A 
HETATM    7  N11 UNL     1      -2.271   0.192   0.245  1.00  0.00    -0.174 N 
ATOM      8  H11 UNL     1      -3.108   0.407   0.787  1.00  0.00     0.186 HD
ENDROOT
BRANCH   4   9
HETATM    9  N3  UNL     1       1.151  -0.694  -1.965  1.00  0.00    -0.240 N 
BRANCH   9  10
HETATM   10  O1  UNL     1       0.948  -1.257  -3.198  1.00  0.00    -0.286 OA
ATOM     11  H1  UNL     1       1.726  -1.425  -3.717  1.00  0.00     0.244 HD
ENDBRANCH   9  10
BRANCH   9  12
HETATM   12  C5  UNL     1       2.493  -0.399  -1.545  1.00  0.00     0.180 C 
BRANCH  12  13
HETATM   13  C6  UNL     1       2.881  -1.138  -0.276  1.00  0.00     0.192 C 
BRANCH  13  14
HETATM   14  N4  UNL     1       4.247  -0.736   0.019  1.00  0.00    -0.106 N 
HETATM   15  N5  UNL     1       5.373  -1.305  -0.392  1.00  0.00    -0.211 N 
HETATM   16  N6  UNL     1       6.411  -0.661   0.075  1.00  0.00    -0.213 N 
ATOM     17  H5  UNL     1       5.422  -2.130  -0.989  1.00  0.00     0.210 HD
HETATM   18  N7  UNL     1       5.994   0.343   0.801  1.00  0.00    -0.115 N 
ATOM     19  H6  UNL     1       7.387  -0.903  -0.099  1.00  0.00     0.210 HD
HETATM   20  C7  UNL     1       4.649   0.307   0.774  1.00  0.00     0.709 A 
ATOM     21  H7  UNL     1       6.575   1.022   1.293  1.00  0.00     0.207 HD
BRANCH  20  22
HETATM   22  N8  UNL     1       3.851   1.111   1.354  1.00  0.00    -0.232 N 
ATOM     23  H82 UNL     1       2.832   1.084   1.334  1.00  0.00     0.174 HD
ATOM     24  H81 UNL     1       4.155   1.900   1.925  1.00  0.00     0.174 HD
ENDBRANCH  20  22
ENDBRANCH  13  14
ENDBRANCH  12  13
ENDBRANCH   9  12
ENDBRANCH   4   9
BRANCH   5  25
HETATM   25  N9  UNL     1      -0.114   1.731  -2.208  1.00  0.00    -0.108 N 
HETATM   26  O2  UNL     1      -0.212   1.646  -3.441  1.00  0.00    -0.531 OA
HETATM   27  O3  UNL     1       0.528   2.822  -1.684  1.00  0.00    -0.531 OA
ENDBRANCH   5  25
BRANCH   1  28
HETATM   28  N1  UNL     1      -2.176  -1.842   1.198  1.00  0.00    -0.226 N 
ATOM     29  H1  UNL     1      -3.013  -1.609   1.732  1.00  0.00     0.177 HD
BRANCH  28  30
HETATM   30  C2  UNL     1      -1.533  -3.129   1.348  1.00  0.00     0.133 C 
HETATM   31  C1  UNL     1      -2.219  -3.887   2.490  1.00  0.00     0.027 C 
ENDBRANCH  28  30
ENDBRANCH   1  28
BRANCH   6  32
HETATM   32  N10 UNL     1      -2.339   2.229  -0.725  1.00  0.00    -0.348 N 
ATOM     33  H10 UNL     1      -1.939   2.906  -1.375  1.00  0.00     0.163 HD
BRANCH  32  34
HETATM   34  C10 UNL     1      -3.511   2.590   0.004  1.00  0.00     0.215 C 
HETATM   35  C11 UNL     1      -3.787   4.064  -0.209  1.00  0.00     0.063 C 
BRANCH  34  36
HETATM   36  O4  UNL     1      -4.607   1.910  -0.531  1.00  0.00    -0.377 OA
ATOM     37  H4  UNL     1      -5.387   2.150  -0.046  1.00  0.00     0.212 HD
ENDBRANCH  34  36
ENDBRANCH  32  34
ENDBRANCH   6  32
TORSDOF 12
