REMARK  10 active torsions:
REMARK  status: ('A' for Active; 'I' for Inactive)
REMARK    1  A    between atoms: N1_1  and  N2_4 
REMARK    2  A    between atoms: C1_9  and  C2_10 
REMARK       I    between atoms: C2_10  and  N5_12 
REMARK    3  A    between atoms: N5_12  and  N6_14 
REMARK    4  A    between atoms: C3_16  and  C4_17 
REMARK    5  A    between atoms: C7_20  and  N7_21 
REMARK    6  A    between atoms: C8_25  and  C9_26 
REMARK    7  A    between atoms: C9_26  and  O5_27 
REMARK    8  A    between atoms: C9_26  and  N8_29 
REMARK    9  A    between atoms: N8_29  and  N9_31 
REMARK   10  A    between atoms: N9_31  and  C10_33 
ROOT
HETATM    1  N2  UNL     1      -3.796  -1.710  -2.042  1.00  0.00    -0.182 N 
HETATM    2  N3  UNL     1      -3.234  -2.886  -2.134  1.00  0.00    -0.221 N 
ATOM      3  H3  UNL     1      -3.646  -3.680  -2.624  1.00  0.00     0.210 HD
HETATM    4  N4  UNL     1      -2.087  -2.922  -1.526  1.00  0.00    -0.277 N 
ATOM      5  H4  UNL     1      -1.474  -3.735  -1.466  1.00  0.00     0.189 HD
HETATM    6  C1  UNL     1      -1.829  -1.671  -0.968  1.00  0.00     0.153 A 
HETATM    7  C8  UNL     1      -2.922  -0.925  -1.301  1.00  0.00     0.161 A 
ENDROOT
BRANCH   6   8
HETATM    8  C2  UNL     1      -0.600  -1.431  -0.241  1.00  0.00     0.290 C 
HETATM    9  O1  UNL     1      -0.322  -2.347   0.629  1.00  0.00    -0.264 OA
HETATM   10  N5  UNL     1       0.302  -0.382  -0.361  1.00  0.00    -0.265 N 
ATOM     11  H5  UNL     1       0.089   0.338  -1.051  1.00  0.00     0.190 HD
BRANCH  10  12
HETATM   12  N6  UNL     1       1.468  -0.228   0.376  1.00  0.00    -0.306 N 
HETATM   13  C3  UNL     1       2.643  -0.392  -0.114  1.00  0.00     0.144 C 
ATOM     14  H6  UNL     1       1.387   0.029   1.360  1.00  0.00     0.186 HD
BRANCH  13  15
HETATM   15  C4  UNL     1       3.821  -0.205   0.747  1.00  0.00     0.095 A 
HETATM   16  C5  UNL     1       3.794   0.143   2.087  1.00  0.00     0.043 A 
HETATM   17  C6  UNL     1       5.094   0.223   2.543  1.00  0.00     0.065 A 
HETATM   18  C7  UNL     1       5.870  -0.086   1.440  1.00  0.00     0.215 A 
HETATM   19  O4  UNL     1       5.082  -0.327   0.421  1.00  0.00    -0.287 OA
BRANCH  18  20
HETATM   20  N7  UNL     1       7.296  -0.116   1.484  1.00  0.00    -0.090 N 
HETATM   21  O2  UNL     1       7.950   0.125   2.491  1.00  0.00    -0.530 OA
HETATM   22  O3  UNL     1       7.958  -0.435   0.320  1.00  0.00    -0.530 OA
ENDBRANCH  18  20
ENDBRANCH  13  15
ENDBRANCH  10  12
ENDBRANCH   6   8
BRANCH   7  23
HETATM   23  C9  UNL     1      -3.239   0.437  -0.999  1.00  0.00     0.188 C 
BRANCH  23  24
HETATM   24  O5  UNL     1      -4.302   0.941  -1.563  1.00  0.00    -0.343 OA
ATOM     25  H5  UNL     1      -4.512   1.845  -1.362  1.00  0.00     0.219 HD
ENDBRANCH  23  24
BRANCH  23  26
HETATM   26  N8  UNL     1      -2.591   1.349  -0.169  1.00  0.00    -0.276 N 
ATOM     27  H8  UNL     1      -1.755   1.062   0.340  1.00  0.00     0.189 HD
BRANCH  26  28
HETATM   28  N9  UNL     1      -3.088   2.692  -0.021  1.00  0.00    -0.275 N 
ATOM     29  H9  UNL     1      -2.554   3.480  -0.388  1.00  0.00     0.189 HD
BRANCH  28  30
HETATM   30  C10 UNL     1      -4.322   2.914   0.637  1.00  0.00     0.368 C 
HETATM   31  O6  UNL     1      -4.946   1.918   1.075  1.00  0.00    -0.282 OA
ENDBRANCH  28  30
ENDBRANCH  26  28
ENDBRANCH  23  26
ENDBRANCH   7  23
BRANCH   1  32
HETATM   32  N1  UNL     1      -5.035  -1.302  -2.577  1.00  0.00    -0.322 N 
ATOM     33  H12 UNL     1      -5.677  -1.878  -3.121  1.00  0.00     0.179 HD
ATOM     34  H11 UNL     1      -5.474  -0.384  -2.505  1.00  0.00     0.179 HD
ENDBRANCH   1  32
TORSDOF 10
