REMARK  12 active torsions:
REMARK  status: ('A' for Active; 'I' for Inactive)
REMARK    1  A    between atoms: C2_2  and  C3_3 
REMARK    2  A    between atoms: C3_3  and  C4_4 
REMARK    3  A    between atoms: C4_4  and  C5_5 
REMARK       I    between atoms: C5_5  and  N1_7 
REMARK    4  A    between atoms: N1_7  and  C6_9 
REMARK    5  A    between atoms: C6_9  and  C7_10 
REMARK    6  A    between atoms: C7_10  and  N2_11 
REMARK    7  A    between atoms: N2_11  and  C8_13 
REMARK    8  A    between atoms: C8_13  and  C9_14 
REMARK    9  A    between atoms: C9_14  and  C10_15 
REMARK   10  A    between atoms: C13_18  and  C14_19 
REMARK   11  A    between atoms: C14_19  and  N3_20 
REMARK   12  A    between atoms: N3_20  and  C15_21 
ROOT
HETATM    1  C10 UNL     1       0.632   0.395   0.213  1.00  0.00    -0.053 A 
HETATM    2  C11 UNL     1       1.195   1.322   1.045  1.00  0.00     0.008 A 
HETATM    3  C12 UNL     1       2.586   1.497   1.120  1.00  0.00     0.014 A 
HETATM    4  C13 UNL     1       3.411   0.724   0.343  1.00  0.00    -0.007 A 
HETATM    5  C20 UNL     1       2.872  -0.210  -0.494  1.00  0.00     0.014 A 
HETATM    6  C21 UNL     1       1.485  -0.367  -0.553  1.00  0.00     0.008 A 
ENDROOT
BRANCH   4   7
HETATM    7  C14 UNL     1       4.900   0.959   0.419  1.00  0.00     0.196 C 
BRANCH   7   8
HETATM    8  N3  UNL     1       5.625  -0.074   0.065  1.00  0.00    -0.397 NA
BRANCH   8   9
HETATM    9  C15 UNL     1       6.259  -0.951  -0.235  1.00  0.00     0.210 A 
HETATM   10  N4  UNL     1       6.984  -1.979  -0.587  1.00  0.00    -0.325 N 
HETATM   11  C16 UNL     1       8.164  -2.467  -0.676  1.00  0.00     0.184 A 
ATOM     12  H4  UNL     1       6.342  -2.690  -0.937  1.00  0.00     0.169 HD
HETATM   13  N5  UNL     1       9.233  -1.698  -0.264  1.00  0.00    -0.337 N 
HETATM   14  C17 UNL     1       8.816  -0.484   0.190  1.00  0.00     0.139 A 
ATOM     15  H5  UNL     1      10.207  -1.999  -0.295  1.00  0.00     0.168 HD
HETATM   16  N6  UNL     1       9.670   0.500   0.661  1.00  0.00    -0.337 N 
HETATM   17  C19 UNL     1       7.617  -0.081   0.243  1.00  0.00     0.136 A 
HETATM   18  C18 UNL     1       8.885   1.520   0.996  1.00  0.00     0.182 A 
ATOM     19  H6  UNL     1      10.686   0.452   0.735  1.00  0.00     0.168 HD
HETATM   20  N7  UNL     1       7.565   1.144   0.728  1.00  0.00    -0.345 N 
ATOM     21  H7  UNL     1       6.727   1.706   0.878  1.00  0.00     0.167 HD
ENDBRANCH   8   9
ENDBRANCH   7   8
ENDBRANCH   4   7
BRANCH   1  22
HETATM   22  C9  UNL     1      -0.884   0.228   0.080  1.00  0.00     0.083 C 
BRANCH  22  23
HETATM   23  C8  UNL     1      -1.353   1.106  -1.027  1.00  0.00     0.064 C 
BRANCH  23  24
HETATM   24  N2  UNL     1      -2.696   1.176  -1.359  1.00  0.00    -0.381 N 
ATOM     25  H2  UNL     1      -3.200   2.045  -1.184  1.00  0.00     0.164 HD
BRANCH  24  26
HETATM   26  C7  UNL     1      -3.382   0.108  -1.921  1.00  0.00     0.079 C 
BRANCH  26  27
HETATM   27  C6  UNL     1      -3.776  -1.056  -1.083  1.00  0.00     0.167 C 
BRANCH  27  28
HETATM   28  N1  UNL     1      -4.656  -0.667   0.011  1.00  0.00    -0.356 N 
HETATM   29  C5  UNL     1      -5.932  -0.125  -0.220  1.00  0.00     0.218 C 
HETATM   30  O1  UNL     1      -6.320   0.009  -1.411  1.00  0.00    -0.274 OA
ATOM     31  H1  UNL     1      -4.337  -0.792   0.972  1.00  0.00     0.162 HD
BRANCH  29  32
HETATM   32  C4  UNL     1      -6.849   0.299   0.833  1.00  0.00     0.106 C 
BRANCH  32  33
HETATM   33  C3  UNL     1      -8.276   0.464   0.341  1.00  0.00     0.035 C 
BRANCH  33  34
HETATM   34  C2  UNL     1      -8.817  -0.838  -0.161  1.00  0.00    -0.036 C 
HETATM   35  C1  UNL     1      -9.878  -1.394   0.362  1.00  0.00     0.007 C 
ENDBRANCH  33  34
ENDBRANCH  32  33
ENDBRANCH  29  32
ENDBRANCH  27  28
ENDBRANCH  26  27
ENDBRANCH  24  26
ENDBRANCH  23  24
ENDBRANCH  22  23
ENDBRANCH   1  22
TORSDOF 12
