REMARK  2 active torsions:
REMARK  status: ('A' for Active; 'I' for Inactive)
REMARK    1  A    between atoms: C2_3  and  C3_4 
REMARK    2  A    between atoms: C3_4  and  N2_5 
ROOT
HETATM    1  N1  UNL     1       2.071   1.974   1.200  1.00  0.00    -0.197 NA
HETATM    2  C1  UNL     1       2.029   0.887   0.803  1.00  0.00     0.060 C 
HETATM    3  C2  UNL     1       1.995  -0.463   0.295  1.00  0.00     0.145 C 
ENDROOT
BRANCH   3   4
HETATM    4  C3  UNL     1       1.029  -0.539  -0.896  1.00  0.00     0.162 C 
BRANCH   4   5
HETATM    5  N2  UNL     1      -0.289  -0.144  -0.415  1.00  0.00    -0.303 N 
HETATM    6  C4  UNL     1      -1.206  -1.000   0.089  1.00  0.00     0.111 A 
HETATM    7  C5  UNL     1      -2.344  -0.310   0.451  1.00  0.00     0.037 A 
HETATM    8  C6  UNL     1      -2.076   1.008   0.144  1.00  0.00     0.108 A 
HETATM    9  N3  UNL     1      -0.833   1.038  -0.370  1.00  0.00    -0.310 N 
ATOM     10  H3  UNL     1      -0.370   1.889  -0.688  1.00  0.00     0.186 HD
ENDBRANCH   4   5
ENDBRANCH   3   4
TORSDOF 2
