REMARK  5 active torsions:
REMARK  status: ('A' for Active; 'I' for Inactive)
REMARK    1  A    between atoms: N1_1  and  C1_5 
REMARK    2  A    between atoms: C1_5  and  C2_6 
REMARK    3  A    between atoms: C5_9  and  C6_10 
REMARK    4  A    between atoms: C6_10  and  N2_11 
REMARK    5  A    between atoms: C8_16  and  N5_17 
ROOT
HETATM    1  C2  UNL     1       1.954  -0.386   1.079  1.00  0.00     0.042 C 
HETATM    2  C3  UNL     1       2.089  -1.079  -0.234  1.00  0.00     0.009 C 
HETATM    3  C4  UNL     1       0.671  -1.325  -0.743  1.00  0.00     0.009 C 
HETATM    4  C5  UNL     1      -0.152  -0.919   0.428  1.00  0.00     0.034 C 
HETATM    5  C8  UNL     1       0.588   0.263   0.952  1.00  0.00     0.194 C 
ENDROOT
BRANCH   4   6
HETATM    6  C6  UNL     1      -1.594  -0.754   0.186  1.00  0.00     0.128 C 
BRANCH   6   7
HETATM    7  N2  UNL     1      -1.978   0.215  -0.779  1.00  0.00    -0.366 N 
HETATM    8  C7  UNL     1      -3.220   0.291  -1.119  1.00  0.00     0.196 C 
HETATM    9  N3  UNL     1      -3.643   1.242  -2.077  1.00  0.00    -0.067 NA
HETATM   10  N4  UNL     1      -4.218  -0.562  -0.562  1.00  0.00    -0.067 NA
ATOM     11  H2  UNL     1      -1.286   0.838  -1.195  1.00  0.00     0.161 HD
ENDBRANCH   6   7
ENDBRANCH   4   6
BRANCH   5  12
HETATM   12  N5  UNL     1       0.717   1.352   0.041  1.00  0.00    -0.074 N 
ATOM     13  H53 UNL     1       1.448   2.011   0.309  1.00  0.00     0.274 HD
ATOM     14  H52 UNL     1       1.112   1.075  -0.858  1.00  0.00     0.274 HD
ATOM     15  H51 UNL     1      -0.201   1.788  -0.044  1.00  0.00     0.274 HD
ENDBRANCH   5  12
BRANCH   1  16
HETATM   16  C1  UNL     1       3.049   0.539   1.429  1.00  0.00     0.236 C 
BRANCH  16  17
HETATM   17  N1  UNL     1       3.272   1.623   0.544  1.00  0.00    -0.079 N 
ATOM     18  H13 UNL     1       3.412   1.269  -0.402  1.00  0.00     0.274 HD
ATOM     19  H12 UNL     1       2.406   2.148   0.421  1.00  0.00     0.274 HD
ATOM     20  H11 UNL     1       4.029   2.262   0.786  1.00  0.00     0.274 HD
ENDBRANCH  16  17
ENDBRANCH   1  16
TORSDOF 5
