REMARK  6 active torsions:
REMARK  status: ('A' for Active; 'I' for Inactive)
REMARK    1  A    between atoms: C2_2  and  C3_4 
REMARK    2  A    between atoms: C3_4  and  C4_5 
REMARK    3  A    between atoms: C3_4  and  C14_21 
REMARK    4  A    between atoms: N2_11  and  C8_12 
REMARK    5  A    between atoms: C10_14  and  O2_15 
REMARK    6  A    between atoms: C14_21  and  C16_24 
ROOT
HETATM    1  C14 UNL     1      -3.764  -0.326   0.531  1.00  0.00     0.210 C 
HETATM    2  C15 UNL     1      -3.254  -0.447   1.910  1.00  0.00     0.076 C 
HETATM    3  N3  UNL     1      -2.867  -0.554   2.998  1.00  0.00    -0.196 NA
ENDROOT
BRANCH   1   4
HETATM    4  C3  UNL     1      -2.731   0.423  -0.250  1.00  0.00     0.130 C 
BRANCH   4   5
HETATM    5  C2  UNL     1      -3.190   0.572  -1.645  1.00  0.00     0.134 C 
HETATM    6  C1  UNL     1      -2.481   1.350  -2.691  1.00  0.00     0.091 C 
HETATM    7  O1  UNL     1      -4.239   0.030  -2.032  1.00  0.00    -0.298 OA
ENDBRANCH   4   5
BRANCH   4   8
HETATM    8  C4  UNL     1      -1.403  -0.255  -0.230  1.00  0.00     0.015 C 
HETATM    9  N1  UNL     1      -1.111  -1.385   0.295  1.00  0.00    -0.369 N 
HETATM   10  C5  UNL     1       0.289  -1.710   0.110  1.00  0.00     0.099 C 
ATOM     11  H1  UNL     1      -1.780  -1.982   0.782  1.00  0.00     0.161 HD
HETATM   12  C6  UNL     1       0.783  -2.265   1.424  1.00  0.00     0.062 C 
HETATM   13  C7  UNL     1       0.476  -2.655  -1.034  1.00  0.00     0.062 C 
HETATM   14  N2  UNL     1       0.872  -0.445  -0.218  1.00  0.00    -0.344 N 
HETATM   15  C13 UNL     1      -0.184   0.305  -0.852  1.00  0.00     0.179 C 
BRANCH  14  16
HETATM   16  C8  UNL     1       2.207   0.025   0.011  1.00  0.00     0.077 A 
HETATM   17  C9  UNL     1       2.748   1.245  -0.312  1.00  0.00     0.074 A 
HETATM   18  C10 UNL     1       4.036   1.448   0.010  1.00  0.00     0.081 A 
HETATM   19  C11 UNL     1       4.701   0.426   0.631  1.00  0.00     0.014 A 
HETATM   20  C12 UNL     1       6.126   0.388   1.093  1.00  0.00     0.059 C 
HETATM   21  S1  UNL     1       3.513  -0.785   0.747  1.00  0.00    -0.075 SA
BRANCH  18  22
HETATM   22  O2  UNL     1       4.729   2.662  -0.263  1.00  0.00    -0.360 OA
ATOM     23  H2  UNL     1       5.640   2.806  -0.035  1.00  0.00     0.217 HD
ENDBRANCH  18  22
ENDBRANCH  14  16
ENDBRANCH   4   8
ENDBRANCH   1   4
BRANCH   1  24
HETATM   24  C16 UNL     1      -4.986   0.552   0.603  1.00  0.00     0.192 C 
HETATM   25  O3  UNL     1      -6.098   0.221   0.164  1.00  0.00    -0.647 OA
HETATM   26  O4  UNL     1      -4.801   1.804   1.212  1.00  0.00    -0.647 OA
ENDBRANCH   1  24
TORSDOF 6
