REMARK  5 active torsions:
REMARK  status: ('A' for Active; 'I' for Inactive)
REMARK    1  A    between atoms: N1_4  and  C4_5 
REMARK    2  A    between atoms: C4_5  and  C5_6 
REMARK    3  A    between atoms: C5_6  and  O1_7 
REMARK    4  A    between atoms: O1_7  and  N2_8 
REMARK    5  A    between atoms: C12_22  and  C14_24 
ROOT
HETATM    1  C5  UNL     1       1.396   0.472   1.181  1.00  0.00     0.221 C 
ENDROOT
BRANCH   1   2
HETATM    2  C4  UNL     1      -0.037   0.069   1.301  1.00  0.00     0.148 C 
BRANCH   2   3
HETATM    3  N1  UNL     1      -0.827   0.119   0.125  1.00  0.00    -0.381 N 
HETATM    4  C3  UNL     1      -1.118   1.392  -0.419  1.00  0.00     0.124 C 
HETATM    5  C2  UNL     1      -2.539   1.756  -0.023  1.00  0.00     0.000 C 
HETATM    6  C1  UNL     1      -2.881   3.186  -0.401  1.00  0.00     0.011 C 
HETATM    7  C17 UNL     1      -3.447   0.830  -0.811  1.00  0.00     0.020 C 
HETATM    8  C12 UNL     1      -2.981  -0.582  -0.841  1.00  0.00     0.008 C 
HETATM    9  C11 UNL     1      -1.929  -0.783   0.203  1.00  0.00     0.275 C 
HETATM   10  C13 UNL     1      -2.350  -0.951  -2.191  1.00  0.00     0.020 C 
HETATM   11  F1  UNL     1      -1.476  -2.088   0.083  1.00  0.00    -0.226 F 
BRANCH   8  12
HETATM   12  C14 UNL     1      -4.094  -1.582  -0.626  1.00  0.00    -0.010 C 
HETATM   13  C15 UNL     1      -5.163  -1.385  -1.676  1.00  0.00     0.010 C 
HETATM   14  C16 UNL     1      -4.729  -1.510   0.721  1.00  0.00     0.010 C 
ENDBRANCH   8  12
ENDBRANCH   2   3
ENDBRANCH   1   2
BRANCH   1  15
HETATM   15  O1  UNL     1       2.042  -0.359   0.273  1.00  0.00    -0.272 OA
BRANCH  15  16
HETATM   16  N2  UNL     1       3.366  -0.050   0.113  1.00  0.00    -0.200 N 
HETATM   17  C6  UNL     1       3.642   1.072  -0.704  1.00  0.00     0.219 A 
HETATM   18  N3  UNL     1       2.543   1.783  -1.306  1.00  0.00    -0.061 NA
HETATM   19  N4  UNL     1       4.853   1.464  -0.926  1.00  0.00    -0.303 N 
HETATM   20  C7  UNL     1       5.902   0.724  -0.320  1.00  0.00     0.192 A 
ATOM     21  H4  UNL     1       5.048   2.274  -1.514  1.00  0.00     0.171 HD
HETATM   22  N5  UNL     1       7.280   1.085  -0.510  1.00  0.00    -0.063 NA
HETATM   23  N6  UNL     1       5.699  -0.295   0.420  1.00  0.00    -0.336 N 
HETATM   24  C8  UNL     1       4.405  -0.800   0.717  1.00  0.00     0.128 A 
ATOM     25  H6  UNL     1       6.508  -0.772   0.819  1.00  0.00     0.164 HD
HETATM   26  C9  UNL     1       4.199  -1.006   2.213  1.00  0.00     0.065 C 
HETATM   27  C10 UNL     1       4.404  -2.239   0.131  1.00  0.00     0.065 C 
ENDBRANCH  15  16
ENDBRANCH   1  15
TORSDOF 5
