REMARK  2 active torsions:
REMARK  status: ('A' for Active; 'I' for Inactive)
REMARK    1  A    between atoms: C2_2  and  N2_9 
REMARK    2  A    between atoms: N1_3  and  C3_5 
ROOT
HETATM    1  C1  UNL     1       1.819  -0.830  -0.693  1.00  0.00     0.095 C 
HETATM    2  C2  UNL     1       1.549   0.413   0.066  1.00  0.00     0.143 C 
HETATM    3  N1  UNL     1       0.381   0.797   0.412  1.00  0.00    -0.367 N 
ATOM      4  H1  UNL     1       0.332   1.673   0.932  1.00  0.00     0.161 HD
ENDROOT
BRANCH   3   5
HETATM    5  C3  UNL     1      -0.856   0.151   0.160  1.00  0.00     0.020 C 
HETATM    6  C4  UNL     1      -1.074  -1.103   0.968  1.00  0.00     0.037 C 
HETATM    7  C5  UNL     1      -1.970   1.124   0.567  1.00  0.00     0.037 C 
HETATM    8  C6  UNL     1      -1.057  -0.177  -1.287  1.00  0.00     0.037 C 
ENDBRANCH   3   5
BRANCH   2   9
HETATM    9  N2  UNL     1       2.644   1.229   0.433  1.00  0.00    -0.103 N 
HETATM   10  O1  UNL     1       2.885   2.247  -0.227  1.00  0.00    -0.531 OA
HETATM   11  O2  UNL     1       3.438   0.917   1.498  1.00  0.00    -0.531 OA
ENDBRANCH   2   9
TORSDOF 2
