REMARK  8 active torsions:
REMARK  status: ('A' for Active; 'I' for Inactive)
REMARK    1  A    between atoms: N3_4  and  C2_6 
REMARK    2  A    between atoms: C2_6  and  C3_7 
REMARK    3  A    between atoms: C2_6  and  C11_18 
REMARK    4  A    between atoms: C3_7  and  C4_8 
REMARK       I    between atoms: C4_8  and  N4_10 
REMARK    5  A    between atoms: N4_10  and  C5_12 
REMARK    6  A    between atoms: C11_18  and  N5_19 
REMARK    7  A    between atoms: C11_18  and  C12_23 
REMARK    8  A    between atoms: C12_23  and  C13_24 
ROOT
HETATM    1  C2  UNL     1      -1.046   0.646   0.231  1.00  0.00     0.123 C 
ENDROOT
BRANCH   1   2
HETATM    2  N3  UNL     1      -2.404   0.332   0.715  1.00  0.00    -0.360 N 
HETATM    3  C1  UNL     1      -2.683   0.371   1.983  1.00  0.00     0.197 C 
HETATM    4  N1  UNL     1      -1.765   0.705   3.002  1.00  0.00    -0.067 NA
HETATM    5  N2  UNL     1      -4.015   0.054   2.365  1.00  0.00    -0.067 NA
ATOM      6  H3  UNL     1      -3.132   0.081   0.046  1.00  0.00     0.162 HD
ENDBRANCH   1   2
BRANCH   1   7
HETATM    7  C3  UNL     1      -0.176  -0.548   0.573  1.00  0.00     0.130 C 
BRANCH   7   8
HETATM    8  C4  UNL     1       1.241  -0.388   0.203  1.00  0.00     0.220 C 
HETATM    9  O1  UNL     1       1.677   0.761  -0.073  1.00  0.00    -0.274 OA
HETATM   10  N4  UNL     1       2.144  -1.495   0.145  1.00  0.00    -0.356 N 
ATOM     11  H4  UNL     1       1.797  -2.429   0.363  1.00  0.00     0.162 HD
BRANCH  10  12
HETATM   12  C5  UNL     1       3.541  -1.328  -0.216  1.00  0.00     0.084 C 
HETATM   13  C6  UNL     1       3.844  -1.884  -1.563  1.00  0.00     0.025 C 
HETATM   14  C7  UNL     1       5.246  -2.342  -1.772  1.00  0.00     0.002 C 
HETATM   15  C8  UNL     1       5.837  -3.072  -0.595  1.00  0.00     0.000 C 
HETATM   16  C9  UNL     1       5.819  -2.056   0.552  1.00  0.00     0.002 C 
HETATM   17  C10 UNL     1       4.378  -1.830   0.897  1.00  0.00     0.025 C 
ENDBRANCH  10  12
ENDBRANCH   7   8
ENDBRANCH   1   7
BRANCH   1  18
HETATM   18  C11 UNL     1      -1.103   0.896  -1.228  1.00  0.00     0.210 C 
BRANCH  18  19
HETATM   19  N5  UNL     1      -1.659  -0.315  -1.880  1.00  0.00    -0.073 N 
ATOM     20  H53 UNL     1      -1.142  -1.162  -1.645  1.00  0.00     0.274 HD
ATOM     21  H52 UNL     1      -2.560  -0.593  -1.492  1.00  0.00     0.274 HD
ATOM     22  H51 UNL     1      -1.698  -0.143  -2.885  1.00  0.00     0.274 HD
ENDBRANCH  18  19
BRANCH  18  23
HETATM   23  C12 UNL     1      -1.799   2.125  -1.644  1.00  0.00     0.073 C 
BRANCH  23  24
HETATM   24  C13 UNL     1      -3.202   2.323  -1.310  1.00  0.00    -0.056 A 
HETATM   25  C14 UNL     1      -4.173   1.722  -2.079  1.00  0.00     0.008 A 
HETATM   26  C15 UNL     1      -5.493   1.962  -1.784  1.00  0.00     0.019 A 
HETATM   27  C16 UNL     1      -5.887   2.778  -0.752  1.00  0.00     0.011 A 
HETATM   28 BR1  UNL     1      -7.731   3.095  -0.358  1.00  0.00    -0.051 Br
HETATM   29  C17 UNL     1      -4.918   3.385   0.022  1.00  0.00     0.019 A 
HETATM   30  C18 UNL     1      -3.602   3.142  -0.276  1.00  0.00     0.008 A 
ENDBRANCH  23  24
ENDBRANCH  18  23
ENDBRANCH   1  18
TORSDOF 8
