REMARK  11 active torsions:
REMARK  status: ('A' for Active; 'I' for Inactive)
REMARK    1  A    between atoms: C2_2  and  C3_3 
REMARK    2  A    between atoms: C3_3  and  C4_4 
REMARK    3  A    between atoms: C5_6  and  C6_7 
REMARK    4  A    between atoms: C6_7  and  O2_12 
REMARK    5  A    between atoms: N1_8  and  O1_10 
REMARK    6  A    between atoms: O2_12  and  C7_13 
REMARK    7  A    between atoms: C7_13  and  O3_14 
REMARK    8  A    between atoms: C11_19  and  C12_20 
REMARK    9  A    between atoms: C12_20  and  O5_21 
REMARK   10  A    between atoms: C13_23  and  O6_24 
REMARK   11  A    between atoms: C14_26  and  O7_27 
ROOT
HETATM    1  C7  UNL     1      -1.055  -0.245  -0.107  1.00  0.00     0.206 C 
HETATM    2  C9  UNL     1      -1.279   1.122  -0.722  1.00  0.00     0.150 C 
HETATM    3  C10 UNL     1      -2.670   1.609  -0.610  1.00  0.00     0.141 C 
HETATM    4  O4  UNL     1      -2.871   2.700  -0.137  1.00  0.00    -0.297 OA
HETATM    5  C11 UNL     1      -3.765   0.726  -1.089  1.00  0.00     0.110 C 
HETATM    6  C13 UNL     1      -3.522  -0.608  -0.347  1.00  0.00     0.165 C 
HETATM    7  C14 UNL     1      -2.170  -1.108  -0.721  1.00  0.00     0.211 C 
ENDROOT
BRANCH   1   8
HETATM    8  O2  UNL     1       0.164  -0.705  -0.602  1.00  0.00    -0.293 OA
BRANCH   8   9
HETATM    9  C6  UNL     1       1.418  -0.135  -0.268  1.00  0.00     0.166 C 
HETATM   10  N1  UNL     1       1.559   0.602   0.687  1.00  0.00    -0.247 N 
ATOM     11  H1  UNL     1       2.550   0.842   0.665  1.00  0.00     0.196 HD
BRANCH   9  12
HETATM   12  C5  UNL     1       2.553  -0.482  -1.142  1.00  0.00     0.077 C 
HETATM   13  C4  UNL     1       3.768  -0.053  -1.005  1.00  0.00     0.016 C 
HETATM   14 CL1  UNL     1       4.978  -0.637  -2.240  1.00  0.00    -0.089 Cl
BRANCH  13  15
HETATM   15  C3  UNL     1       4.364   0.847  -0.020  1.00  0.00     0.051 C 
BRANCH  15  16
HETATM   16  C2  UNL     1       5.352   0.195   0.921  1.00  0.00     0.001 C 
HETATM   17  C1  UNL     1       6.543  -0.410   0.238  1.00  0.00     0.005 C 
ENDBRANCH  15  16
ENDBRANCH  13  15
ENDBRANCH   9  12
BRANCH  10  18
HETATM   18  O1  UNL     1       1.113   1.238   1.711  1.00  0.00    -0.288 OA
ATOM     19  H1  UNL     1       1.223   1.814   2.458  1.00  0.00     0.244 HD
ENDBRANCH  10  18
ENDBRANCH   8   9
ENDBRANCH   1   8
BRANCH   1  20
HETATM   20  O3  UNL     1      -1.188  -0.308   1.248  1.00  0.00    -0.357 OA
HETATM   21  C8  UNL     1      -1.056  -1.596   1.712  1.00  0.00     0.205 C 
ENDBRANCH   1  20
BRANCH   7  22
HETATM   22  O7  UNL     1      -2.047  -0.847  -2.117  1.00  0.00    -0.387 OA
ATOM     23  H7  UNL     1      -2.736  -1.380  -2.496  1.00  0.00     0.210 HD
ENDBRANCH   7  22
BRANCH   6  24
HETATM   24  O6  UNL     1      -3.719  -0.293   0.976  1.00  0.00    -0.392 OA
ATOM     25  H6  UNL     1      -3.570  -1.113   1.432  1.00  0.00     0.210 HD
ENDBRANCH   6  24
BRANCH   5  26
HETATM   26  C12 UNL     1      -5.091   1.233  -0.560  1.00  0.00     0.179 C 
BRANCH  26  27
HETATM   27  O5  UNL     1      -6.123   0.410  -1.004  1.00  0.00    -0.400 OA
ATOM     28  H5  UNL     1      -6.954   0.728  -0.672  1.00  0.00     0.209 HD
ENDBRANCH  26  27
ENDBRANCH   5  26
TORSDOF 11
