REMARK  4 active torsions:
REMARK  status: ('A' for Active; 'I' for Inactive)
REMARK    1  A    between atoms: C3_6  and  C4_7 
REMARK    2  A    between atoms: N4_9  and  O1_11 
REMARK    3  A    between atoms: N5_13  and  N6_14 
REMARK    4  A    between atoms: C5_17  and  N7_18 
ROOT
HETATM    1  C1  UNL     1      -3.443   0.503  -0.350  1.00  0.00     0.176 C 
HETATM    2  N1  UNL     1      -2.006   0.321  -0.496  1.00  0.00    -0.182 N 
HETATM    3  C2  UNL     1      -1.428   0.458  -1.713  1.00  0.00     0.202 A 
HETATM    4  N2  UNL     1      -0.104   0.277  -1.778  1.00  0.00    -0.333 N 
ATOM      5  H2  UNL     1       0.350   0.375  -2.686  1.00  0.00     0.168 HD
HETATM    6  C3  UNL     1       0.662  -0.026  -0.718  1.00  0.00     0.189 A 
HETATM    7  N5  UNL     1       0.042  -0.151   0.467  1.00  0.00    -0.073 N 
HETATM    8  C5  UNL     1      -1.296   0.018   0.607  1.00  0.00     0.701 A 
ENDROOT
BRANCH   6   9
HETATM    9  C4  UNL     1       2.108  -0.216  -0.828  1.00  0.00     0.182 C 
HETATM   10  N3  UNL     1       2.936  -0.533   0.259  1.00  0.00    -0.077 NA
HETATM   11  N4  UNL     1       2.628  -0.079  -2.000  1.00  0.00    -0.252 N 
ATOM     12  H4  UNL     1       2.028   0.152  -2.792  1.00  0.00     0.195 HD
BRANCH  11  13
HETATM   13  O1  UNL     1       3.978  -0.240  -2.198  1.00  0.00    -0.288 OA
ATOM     14  H1  UNL     1       4.361  -0.139  -3.061  1.00  0.00     0.244 HD
ENDBRANCH  11  13
ENDBRANCH   6   9
BRANCH   7  15
HETATM   15  N6  UNL     1       0.788  -0.461   1.581  1.00  0.00    -0.322 N 
ATOM     16  H62 UNL     1       1.795  -0.588   1.476  1.00  0.00     0.178 HD
ATOM     17  H61 UNL     1       0.317  -0.556   2.481  1.00  0.00     0.178 HD
ENDBRANCH   7  15
BRANCH   8  18
HETATM   18  N7  UNL     1      -1.848  -0.114   1.779  1.00  0.00    -0.233 N 
ATOM     19  H72 UNL     1      -2.855   0.013   1.884  1.00  0.00     0.174 HD
ATOM     20  H71 UNL     1      -1.310  -0.344   2.615  1.00  0.00     0.174 HD
ENDBRANCH   8  18
TORSDOF 4
