REMARK  2 active torsions:
REMARK  status: ('A' for Active; 'I' for Inactive)
REMARK    1  A    between atoms: N3_13  and  O4_15 
REMARK    2  A    between atoms: O4_15  and  C4_16 
ROOT
HETATM    1  N1  UNL     1      -2.319   2.505   0.430  1.00  0.00    -0.387 N 
ATOM      2  H11 UNL     1      -1.347   2.809   0.485  1.00  0.00     0.157 HD
ATOM      3  H12 UNL     1      -3.159   3.082   0.395  1.00  0.00     0.157 HD
HETATM    4  C1  UNL     1      -2.529   1.221   0.401  1.00  0.00     0.116 C 
HETATM    5  C2  UNL     1      -3.955   0.775   0.320  1.00  0.00     0.268 C 
HETATM    6  O1  UNL     1      -4.235   0.158  -0.879  1.00  0.00    -0.252 OA
HETATM    7  S1  UNL     1      -3.884  -1.471  -0.880  1.00  0.00     0.376 S 
HETATM    8  O2  UNL     1      -4.106  -1.979  -2.288  1.00  0.00    -0.175 OA
HETATM    9  O3  UNL     1      -4.792  -2.254   0.012  1.00  0.00    -0.175 OA
HETATM   10  N2  UNL     1      -2.240  -1.783  -0.471  1.00  0.00    -0.092 N 
ATOM     11  H2  UNL     1      -1.939  -2.740  -0.657  1.00  0.00     0.199 HD
HETATM   12  C3  UNL     1      -1.222  -0.948   0.080  1.00  0.00     0.714 C 
HETATM   13  N3  UNL     1      -0.047  -1.503   0.258  1.00  0.00    -0.093 N 
ATOM     14  H3  UNL     1       0.118  -2.479   0.012  1.00  0.00     0.213 HD
HETATM   15  N6  UNL     1      -1.357   0.416   0.450  1.00  0.00    -0.176 N 
ATOM     16  H6  UNL     1      -0.512   0.874   0.792  1.00  0.00     0.185 HD
ENDROOT
BRANCH  13  17
HETATM   17  O4  UNL     1       0.948  -0.730   0.784  1.00  0.00    -0.232 OA
BRANCH  17  18
HETATM   18  C4  UNL     1       2.220  -0.707   0.175  1.00  0.00     0.315 C 
HETATM   19  C5  UNL     1       2.468   0.708  -0.291  1.00  0.00     0.082 C 
HETATM   20  C6  UNL     1       3.943   1.001  -0.447  1.00  0.00     0.137 C 
HETATM   21  N4  UNL     1       4.592   0.508   0.776  1.00  0.00    -0.120 NA
HETATM   22  N5  UNL     1       4.414  -0.886   0.759  1.00  0.00     0.014 NA
HETATM   23  O5  UNL     1       3.140  -1.119   1.131  1.00  0.00    -0.235 OA
ENDBRANCH  17  18
ENDBRANCH  13  17
TORSDOF 2
