REMARK  17 active torsions:
REMARK  status: ('A' for Active; 'I' for Inactive)
REMARK    1  A    between atoms: C2_2  and  C3_3 
REMARK    2  A    between atoms: C3_3  and  C4_4 
REMARK    3  A    between atoms: C4_4  and  C5_5 
REMARK    4  A    between atoms: C6_8  and  S1_9 
REMARK    5  A    between atoms: S1_9  and  C7_10 
REMARK    6  A    between atoms: C7_10  and  C8_11 
REMARK    7  A    between atoms: C10_13  and  C11_14 
REMARK    8  A    between atoms: C11_14  and  O1_15 
REMARK    9  A    between atoms: C11_14  and  N2_17 
REMARK   10  A    between atoms: N3_20  and  C14_21 
REMARK   11  A    between atoms: C14_21  and  C15_22 
REMARK   12  A    between atoms: C15_22  and  N4_23 
REMARK   13  A    between atoms: C23_34  and  C24_35 
REMARK   14  A    between atoms: C25_38  and  N7_39 
REMARK   15  A    between atoms: N7_39  and  C26_40 
REMARK   16  A    between atoms: C26_40  and  O4_41 
REMARK   17  A    between atoms: C26_40  and  N8_43 
ROOT
HETATM    1  C5  UNL     1      -3.886  -1.497   1.202  1.00  0.00     0.052 A 
HETATM    2  N1  UNL     1      -2.897  -2.404   0.922  1.00  0.00    -0.351 N 
ATOM      3  H1  UNL     1      -2.542  -3.010   1.662  1.00  0.00     0.166 HD
HETATM    4  C6  UNL     1      -2.390  -2.501  -0.324  1.00  0.00     0.071 A 
HETATM    5  C22 UNL     1      -2.876  -1.701  -1.299  1.00  0.00     0.057 A 
HETATM    6  C23 UNL     1      -3.889  -0.761  -1.054  1.00  0.00     0.074 A 
HETATM    7  C25 UNL     1      -4.412  -0.640   0.217  1.00  0.00     0.149 A 
ENDROOT
BRANCH   4   8
HETATM    8  S1  UNL     1      -0.969  -3.572  -0.544  1.00  0.00    -0.106 SA
BRANCH   8   9
HETATM    9  C7  UNL     1       0.100  -2.897  -1.875  1.00  0.00     0.140 C 
BRANCH   9  10
HETATM   10  C8  UNL     1       0.623  -1.569  -1.446  1.00  0.00     0.045 A 
HETATM   11  C9  UNL     1       1.755  -1.228  -0.733  1.00  0.00     0.071 A 
HETATM   12  C10 UNL     1       1.797   0.125  -0.547  1.00  0.00     0.151 A 
HETATM   13  O2  UNL     1       0.681   0.572  -1.157  1.00  0.00    -0.233 OA
HETATM   14  N5  UNL     1       0.015  -0.389  -1.668  1.00  0.00    -0.264 N 
ATOM     15  H5  UNL     1      -0.862  -0.278  -2.177  1.00  0.00     0.194 HD
BRANCH  12  16
HETATM   16  C11 UNL     1       2.721   1.027   0.106  1.00  0.00     0.175 C 
BRANCH  16  17
HETATM   17  O1  UNL     1       2.358   2.297   0.165  1.00  0.00    -0.344 OA
ATOM     18  H1  UNL     1       2.965   2.889   0.594  1.00  0.00     0.219 HD
ENDBRANCH  16  17
BRANCH  16  19
HETATM   19  N2  UNL     1       3.942   0.689   0.674  1.00  0.00    -0.353 N 
HETATM   20  C12 UNL     1       4.538  -0.599   0.644  1.00  0.00     0.145 C 
HETATM   21  C13 UNL     1       6.022  -0.530   1.090  1.00  0.00     0.147 C 
HETATM   22  N3  UNL     1       6.541   0.627   0.465  1.00  0.00    -0.369 N 
HETATM   23  C20 UNL     1       6.019   1.887   0.797  1.00  0.00     0.083 C 
HETATM   24  C21 UNL     1       4.658   1.775   1.401  1.00  0.00     0.169 C 
BRANCH  22  25
HETATM   25  C14 UNL     1       7.386   0.505  -0.655  1.00  0.00     0.093 C 
BRANCH  25  26
HETATM   26  C15 UNL     1       8.723  -0.010  -0.382  1.00  0.00     0.317 C 
BRANCH  26  27
HETATM   27  N4  UNL     1       9.539   0.755   0.505  1.00  0.00     0.093 N 
HETATM   28  C16 UNL     1       9.972   2.036   0.025  1.00  0.00     0.273 C 
HETATM   29  C17 UNL     1      10.816   1.712  -1.152  1.00  0.00     0.032 C 
HETATM   30  C18 UNL     1      11.582   0.491  -0.619  1.00  0.00     0.032 C 
HETATM   31  C19 UNL     1      10.854   0.101   0.672  1.00  0.00     0.273 C 
ENDBRANCH  26  27
ENDBRANCH  25  26
ENDBRANCH  22  25
ENDBRANCH  16  19
ENDBRANCH  12  16
ENDBRANCH   9  10
ENDBRANCH   8   9
ENDBRANCH   4   8
BRANCH   1  32
HETATM   32  C4  UNL     1      -4.417  -1.400   2.561  1.00  0.00     0.061 C 
BRANCH  32  33
HETATM   33  C3  UNL     1      -5.429  -2.410   2.912  1.00  0.00     0.006 C 
BRANCH  33  34
HETATM   34  C2  UNL     1      -6.675  -2.605   2.165  1.00  0.00    -0.004 C 
HETATM   35  C1  UNL     1      -6.580  -3.108   0.758  1.00  0.00     0.005 C 
ENDBRANCH  33  34
ENDBRANCH  32  33
ENDBRANCH   1  32
BRANCH   6  36
HETATM   36  C24 UNL     1      -4.326   0.073  -2.134  1.00  0.00     0.268 C 
HETATM   37  N6  UNL     1      -3.831  -0.125  -3.441  1.00  0.00    -0.057 NA
HETATM   38  O3  UNL     1      -5.145   0.990  -1.972  1.00  0.00    -0.271 OA
ENDBRANCH   6  36
BRANCH   7  39
HETATM   39  N7  UNL     1      -5.320   0.330   0.540  1.00  0.00    -0.362 NA
BRANCH  39  40
HETATM   40  C26 UNL     1      -6.198   1.282   0.861  1.00  0.00     0.296 C 
BRANCH  40  41
HETATM   41  O4  UNL     1      -5.823   2.300   1.623  1.00  0.00    -0.321 OA
ATOM     42  H4  UNL     1      -6.448   2.978   1.852  1.00  0.00     0.222 HD
ENDBRANCH  40  41
BRANCH  40  43
HETATM   43  N8  UNL     1      -7.592   1.422   0.500  1.00  0.00    -0.333 N 
HETATM   44  C27 UNL     1      -8.315   2.558   1.032  1.00  0.00     0.146 C 
HETATM   45  C28 UNL     1      -9.713   2.619   0.507  1.00  0.00     0.133 C 
HETATM   46  N9  UNL     1      -9.846   2.317  -0.883  1.00  0.00    -0.418 N 
HETATM   47  C29 UNL     1      -8.938   1.383  -1.442  1.00  0.00     0.133 C 
ATOM     48  H9  UNL     1     -10.568   2.758  -1.453  1.00  0.00     0.153 HD
HETATM   49  C30 UNL     1      -8.249   0.533  -0.362  1.00  0.00     0.146 C 
ENDBRANCH  40  43
ENDBRANCH  39  40
ENDBRANCH   7  39
TORSDOF 17
