REMARK  6 active torsions:
REMARK  status: ('A' for Active; 'I' for Inactive)
REMARK    1  A    between atoms: C2_2  and  N1_4 
REMARK    2  A    between atoms: C8_13  and  N4_14 
REMARK       I    between atoms: N4_14  and  C9_16 
REMARK       I    between atoms: C9_16  and  N5_18 
REMARK    3  A    between atoms: N6_25  and  C15_26 
REMARK    4  A    between atoms: C15_26  and  C16_27 
REMARK    5  A    between atoms: C16_27  and  O2_28 
REMARK    6  A    between atoms: C16_27  and  C17_30 
ROOT
HETATM    1  N4  UNL     1       1.652   0.315   0.584  1.00  0.00    -0.293 N 
ATOM      2  H4  UNL     1       1.199   0.588   1.456  1.00  0.00     0.172 HD
HETATM    3  C9  UNL     1       0.848  -0.026  -0.542  1.00  0.00     0.324 C 
HETATM    4  O1  UNL     1       1.427  -0.361  -1.593  1.00  0.00    -0.247 OA
HETATM    5  N5  UNL     1      -0.581   0.026  -0.433  1.00  0.00    -0.330 N 
HETATM    6  C10 UNL     1      -1.346  -0.330  -1.607  1.00  0.00     0.166 C 
HETATM    7  C11 UNL     1      -2.770   0.126  -1.379  1.00  0.00     0.277 C 
HETATM    8  C12 UNL     1      -2.688   1.509  -0.774  1.00  0.00     0.240 C 
HETATM    9  F1  UNL     1      -1.549   2.227  -1.022  1.00  0.00    -0.245 F 
HETATM   10  C13 UNL     1      -2.680   0.735   0.526  1.00  0.00     0.277 C 
HETATM   11  C14 UNL     1      -1.198   0.429   0.816  1.00  0.00     0.166 C 
HETATM   12  N6  UNL     1      -3.203  -0.407  -0.121  1.00  0.00     0.109 N 
ENDROOT
BRANCH   1  13
HETATM   13  C8  UNL     1       3.067   0.283   0.517  1.00  0.00     0.134 A 
HETATM   14  N3  UNL     1       3.795  -0.057  -0.571  1.00  0.00    -0.318 N 
HETATM   15  C7  UNL     1       5.098   0.037  -0.242  1.00  0.00     0.194 A 
ATOM     16  H3  UNL     1       3.423  -0.335  -1.479  1.00  0.00     0.169 HD
HETATM   17  C6  UNL     1       6.204  -0.241  -1.127  1.00  0.00     0.160 A 
HETATM   18  O3  UNL     1       5.154   0.418   0.995  1.00  0.00    -0.299 OA
HETATM   19  N1  UNL     1       7.513  -0.160  -0.844  1.00  0.00    -0.334 N 
HETATM   20  N2  UNL     1       6.049  -0.636  -2.409  1.00  0.00    -0.347 N 
HETATM   21  C4  UNL     1       8.176  -0.511  -1.978  1.00  0.00     0.110 A 
HETATM   22  C5  UNL     1       7.259  -0.802  -2.934  1.00  0.00     0.107 A 
ATOM     23  H2  UNL     1       5.161  -0.781  -2.889  1.00  0.00     0.167 HD
HETATM   24  C21 UNL     1       3.976   0.583   1.509  1.00  0.00     0.193 A 
BRANCH  19  25
HETATM   25  C2  UNL     1       8.191   0.215   0.379  1.00  0.00     0.083 C 
HETATM   26  C1  UNL     1       7.938  -0.705   1.531  1.00  0.00     0.032 C 
HETATM   27  C3  UNL     1       7.947   1.657   0.776  1.00  0.00     0.032 C 
ENDBRANCH  19  25
ENDBRANCH   1  13
BRANCH  12  28
HETATM   28  C15 UNL     1      -4.505  -0.864   0.035  1.00  0.00     0.306 C 
BRANCH  28  29
HETATM   29  C16 UNL     1      -5.639   0.088  -0.001  1.00  0.00     0.153 C 
BRANCH  29  30
HETATM   30  O2  UNL     1      -5.597   1.071   0.983  1.00  0.00    -0.393 OA
ATOM     31  H2  UNL     1      -6.324   1.682   0.960  1.00  0.00     0.210 HD
ENDBRANCH  29  30
BRANCH  29  32
HETATM   32  C17 UNL     1      -6.916  -0.712   0.297  1.00  0.00    -0.024 C 
HETATM   33  C18 UNL     1      -8.122   0.208   0.274  1.00  0.00     0.017 C 
HETATM   34  C19 UNL     1      -6.773  -1.216   1.720  1.00  0.00     0.017 C 
HETATM   35  C20 UNL     1      -7.099  -1.857  -0.640  1.00  0.00     0.017 C 
ENDBRANCH  29  32
ENDBRANCH  28  29
ENDBRANCH  12  28
TORSDOF 6
