REMARK  7 active torsions:
REMARK  status: ('A' for Active; 'I' for Inactive)
REMARK    1  A    between atoms: C3_3  and  C4_4 
REMARK    2  A    between atoms: C4_4  and  C7_7 
REMARK    3  A    between atoms: C7_7  and  C8_8 
REMARK    4  A    between atoms: C8_8  and  C9_9 
REMARK    5  A    between atoms: C9_9  and  C10_10 
REMARK    6  A    between atoms: C11_13  and  N2_14 
REMARK       I    between atoms: N2_14  and  C12_16 
REMARK    7  A    between atoms: C15_23  and  O3_24 
ROOT
HETATM    1  C1  UNL     1       6.381   0.340   1.912  1.00  0.00     0.112 C 
HETATM    2  C2  UNL     1       5.103   0.463   1.214  1.00  0.00    -0.110 C 
HETATM    3  C3  UNL     1       4.056   0.556   0.626  1.00  0.00    -0.098 C 
ENDROOT
BRANCH   3   4
HETATM    4  C4  UNL     1       2.749   0.695  -0.124  1.00  0.00     0.016 C 
HETATM    5  C5  UNL     1       2.994   0.522  -1.587  1.00  0.00     0.029 C 
HETATM    6  C6  UNL     1       2.253   2.079   0.256  1.00  0.00     0.029 C 
BRANCH   4   7
HETATM    7  C7  UNL     1       1.900  -0.377   0.425  1.00  0.00     0.022 C 
BRANCH   7   8
HETATM    8  C8  UNL     1       0.545  -0.560  -0.129  1.00  0.00     0.008 C 
BRANCH   8   9
HETATM    9  C9  UNL     1      -0.449   0.546  -0.024  1.00  0.00     0.061 C 
BRANCH   9  10
HETATM   10  C10 UNL     1      -1.721   0.004  -0.656  1.00  0.00     0.065 A 
HETATM   11  N1  UNL     1      -2.720  -0.488   0.120  1.00  0.00    -0.192 N 
HETATM   12  C11 UNL     1      -3.818  -0.986  -0.475  1.00  0.00     0.688 A 
ATOM     13  H1  UNL     1      -2.639  -0.480   1.137  1.00  0.00     0.184 HD
HETATM   14  N3  UNL     1      -3.901  -0.985  -1.822  1.00  0.00    -0.153 N 
HETATM   15  C14 UNL     1      -2.925  -0.503  -2.606  1.00  0.00     0.294 A 
ATOM     16  H3  UNL     1      -4.739  -1.366  -2.261  1.00  0.00     0.187 HD
HETATM   17  O2  UNL     1      -3.017  -0.507  -3.875  1.00  0.00    -0.265 OA
HETATM   18  C15 UNL     1      -1.768   0.023  -2.030  1.00  0.00     0.158 A 
BRANCH  12  19
HETATM   19  N2  UNL     1      -4.779  -1.469   0.231  1.00  0.00    -0.160 N 
HETATM   20  C12 UNL     1      -4.813  -1.539   1.639  1.00  0.00     0.231 C 
HETATM   21  C13 UNL     1      -5.825  -0.823   2.457  1.00  0.00     0.118 C 
HETATM   22  O1  UNL     1      -3.919  -2.258   2.190  1.00  0.00    -0.273 OA
ATOM     23  H2  UNL     1      -5.588  -1.834  -0.272  1.00  0.00     0.187 HD
ENDBRANCH  12  19
BRANCH  18  24
HETATM   24  O3  UNL     1      -0.802   0.505  -2.855  1.00  0.00    -0.354 OA
ATOM     25  H3  UNL     1      -0.834   0.518  -3.804  1.00  0.00     0.218 HD
ENDBRANCH  18  24
ENDBRANCH   9  10
ENDBRANCH   8   9
ENDBRANCH   7   8
ENDBRANCH   4   7
ENDBRANCH   3   4
TORSDOF 7
