REMARK  6 active torsions:
REMARK  status: ('A' for Active; 'I' for Inactive)
REMARK    1  A    between atoms: C2_2  and  O1_3 
REMARK    2  A    between atoms: O1_3  and  C3_4 
REMARK    3  A    between atoms: C3_4  and  C4_7 
REMARK    4  A    between atoms: C9_15  and  C10_16 
REMARK    5  A    between atoms: C11_17  and  C12_18 
REMARK    6  A    between atoms: C12_18  and  O2_19 
ROOT
HETATM    1  C4  UNL     1       1.022  -0.904   0.178  1.00  0.00     0.065 A 
HETATM    2  C5  UNL     1       1.982  -1.866   0.253  1.00  0.00     0.043 A 
HETATM    3  C6  UNL     1       1.656  -3.207   0.122  1.00  0.00     0.058 A 
HETATM    4 CL1  UNL     1       2.933  -4.401   0.226  1.00  0.00    -0.082 Cl
HETATM    5  C7  UNL     1       0.342  -3.534  -0.085  1.00  0.00     0.079 A 
HETATM    6 CL2  UNL     1      -0.067  -5.228  -0.251  1.00  0.00    -0.081 Cl
HETATM    7  C8  UNL     1      -0.628  -2.557  -0.160  1.00  0.00     0.077 A 
HETATM    8 CL3  UNL     1      -2.306  -2.987  -0.424  1.00  0.00    -0.081 Cl
HETATM    9  C9  UNL     1      -0.326  -1.214  -0.032  1.00  0.00     0.056 A 
ENDROOT
BRANCH   9  10
HETATM   10  C10 UNL     1      -1.358  -0.221  -0.103  1.00  0.00    -0.061 C 
HETATM   11  C11 UNL     1      -2.259   0.609  -0.157  1.00  0.00    -0.051 C 
BRANCH  11  12
HETATM   12  C12 UNL     1      -3.345   1.587  -0.239  1.00  0.00     0.218 C 
HETATM   13  C13 UNL     1      -3.512   2.299   1.065  1.00  0.00     0.184 C 
HETATM   14  N1  UNL     1      -4.487   1.315   1.413  1.00  0.00    -0.353 N 
HETATM   15  C14 UNL     1      -4.690   1.034   0.042  1.00  0.00     0.266 C 
ATOM     16  H1  UNL     1      -4.876   0.962   2.287  1.00  0.00     0.162 HD
HETATM   17  O3  UNL     1      -5.563   0.543  -0.723  1.00  0.00    -0.269 OA
BRANCH  12  18
HETATM   18  O2  UNL     1      -3.277   2.405  -1.363  1.00  0.00    -0.368 OA
ATOM     19  H2  UNL     1      -3.982   3.040  -1.416  1.00  0.00     0.212 HD
ENDBRANCH  12  18
ENDBRANCH  11  12
ENDBRANCH   9  10
BRANCH   1  20
HETATM   20  C3  UNL     1       1.299   0.561   0.351  1.00  0.00     0.386 C 
HETATM   21  F1  UNL     1       0.757   0.876   1.624  1.00  0.00    -0.170 F 
HETATM   22  F2  UNL     1       0.697   1.288  -0.603  1.00  0.00    -0.170 F 
BRANCH  20  23
HETATM   23  O1  UNL     1       2.653   0.758   0.501  1.00  0.00    -0.322 OA
BRANCH  23  24
HETATM   24  C2  UNL     1       3.354   0.733  -0.676  1.00  0.00     0.170 C 
HETATM   25  C1  UNL     1       4.835   0.915  -0.345  1.00  0.00     0.033 C 
ENDBRANCH  23  24
ENDBRANCH  20  23
ENDBRANCH   1  20
TORSDOF 6
