REMARK  8 active torsions:
REMARK  status: ('A' for Active; 'I' for Inactive)
REMARK    1  A    between atoms: C3_4  and  N1_5 
REMARK    2  A    between atoms: N1_5  and  C4_7 
REMARK    3  A    between atoms: C4_7  and  C5_8 
REMARK    4  A    between atoms: C5_8  and  O1_9 
REMARK    5  A    between atoms: C5_8  and  C6_11 
REMARK    6  A    between atoms: C10_17  and  C11_18 
REMARK    7  A    between atoms: C11_18  and  N3_19 
REMARK    8  A    between atoms: C15_23  and  O2_24 
ROOT
HETATM    1  C1  UNL     1       2.299  -3.406   1.391  1.00  0.00     0.058 C 
HETATM    2  C2  UNL     1       1.336  -2.303   1.006  1.00  0.00     0.006 A 
HETATM    3  S1  UNL     1      -0.234  -2.054   1.627  1.00  0.00    -0.057 SA
HETATM    4  C3  UNL     1      -0.638  -0.607   0.684  1.00  0.00     0.145 A 
HETATM    5  N2  UNL     1       0.467  -0.441  -0.016  1.00  0.00    -0.338 N 
ATOM      6  H2  UNL     1       0.540   0.342  -0.665  1.00  0.00     0.168 HD
HETATM    7  C10 UNL     1       1.474  -1.273   0.114  1.00  0.00     0.052 A 
ENDROOT
BRANCH   4   8
HETATM    8  N1  UNL     1      -1.771  -0.116   0.755  1.00  0.00    -0.368 N 
ATOM      9  H1  UNL     1      -2.271  -0.711   1.415  1.00  0.00     0.161 HD
BRANCH   8  10
HETATM   10  C4  UNL     1      -2.690   0.841   0.380  1.00  0.00     0.154 C 
BRANCH  10  11
HETATM   11  C5  UNL     1      -4.082   0.191   0.571  1.00  0.00     0.143 C 
BRANCH  11  12
HETATM   12  O1  UNL     1      -4.205  -0.109   1.961  1.00  0.00    -0.393 OA
ATOM     13  H1  UNL     1      -5.059  -0.508   2.078  1.00  0.00     0.210 HD
ENDBRANCH  11  12
BRANCH  11  14
HETATM   14  C6  UNL     1      -5.280   0.823   0.053  1.00  0.00    -0.024 C 
HETATM   15  C7  UNL     1      -5.279   1.075  -1.450  1.00  0.00     0.017 C 
HETATM   16  C8  UNL     1      -5.864   1.985   0.774  1.00  0.00     0.017 C 
HETATM   17  C9  UNL     1      -6.427  -0.272   0.194  1.00  0.00     0.017 C 
ENDBRANCH  11  14
ENDBRANCH  10  11
ENDBRANCH   8  10
ENDBRANCH   4   8
BRANCH   7  18
HETATM   18  C11 UNL     1       2.611  -1.323  -0.868  1.00  0.00     0.330 C 
BRANCH  18  19
HETATM   19  N3  UNL     1       3.656  -0.367  -0.731  1.00  0.00     0.096 N 
HETATM   20  C12 UNL     1       4.579  -0.994   0.298  1.00  0.00     0.273 C 
HETATM   21  C13 UNL     1       5.955  -0.449   0.150  1.00  0.00     0.033 C 
HETATM   22  C14 UNL     1       5.848   0.910  -0.501  1.00  0.00     0.035 C 
HETATM   23  C15 UNL     1       4.652   1.659   0.058  1.00  0.00     0.146 C 
HETATM   24  C16 UNL     1       3.328   0.942  -0.247  1.00  0.00     0.304 C 
BRANCH  23  25
HETATM   25  O2  UNL     1       4.696   2.945  -0.415  1.00  0.00    -0.394 OA
ATOM     26  H2  UNL     1       3.947   3.414  -0.065  1.00  0.00     0.210 HD
ENDBRANCH  23  25
ENDBRANCH  18  19
ENDBRANCH   7  18
TORSDOF 8
