REMARK  9 active torsions:
REMARK  status: ('A' for Active; 'I' for Inactive)
REMARK    1  A    between atoms: C2_2  and  C3_3 
REMARK    2  A    between atoms: C3_3  and  C4_4 
REMARK    3  A    between atoms: C4_4  and  N1_5 
REMARK    4  A    between atoms: N1_5  and  C5_7 
REMARK    5  A    between atoms: C5_7  and  C6_8 
REMARK    6  A    between atoms: C6_8  and  N2_9 
REMARK    7  A    between atoms: N3_12  and  C9_13 
REMARK    8  A    between atoms: C9_13  and  C11_15 
REMARK    9  A    between atoms: C11_15  and  O1_16 
ROOT
HETATM    1  C5  UNL     1      -0.899   1.805   0.180  1.00  0.00     0.077 C 
HETATM    2  C14 UNL     1      -1.553   2.573   1.398  1.00  0.00     0.061 C 
HETATM    3  C15 UNL     1      -1.186   3.986   1.070  1.00  0.00     0.235 C 
HETATM    4  N4  UNL     1      -1.538   4.064  -0.329  1.00  0.00    -0.073 N 
ATOM      5  H41 UNL     1      -1.232   4.922  -0.788  1.00  0.00     0.277 HD
ATOM      6  H42 UNL     1      -2.535   4.192  -0.501  1.00  0.00     0.277 HD
HETATM    7  C16 UNL     1      -1.001   2.882  -0.896  1.00  0.00     0.264 C 
ENDROOT
BRANCH   1   8
HETATM    8  N1  UNL     1      -1.755   0.774  -0.185  1.00  0.00    -0.407 N 
ATOM      9  H1  UNL     1      -2.059   0.707  -1.156  1.00  0.00     0.154 HD
BRANCH   8  10
HETATM   10  C4  UNL     1      -2.215  -0.176   0.735  1.00  0.00     0.152 C 
BRANCH  10  11
HETATM   11  C3  UNL     1      -3.375  -0.970   0.112  1.00  0.00     0.076 A 
HETATM   12  C17 UNL     1      -2.986  -1.671  -1.135  1.00  0.00     0.042 A 
HETATM   13  C18 UNL     1      -3.879  -1.103  -2.206  1.00  0.00     0.029 A 
HETATM   14  C19 UNL     1      -4.709  -0.097  -1.489  1.00  0.00     0.169 A 
HETATM   15  O2  UNL     1      -4.378  -0.044  -0.172  1.00  0.00    -0.379 OA
BRANCH  11  16
HETATM   16  C2  UNL     1      -3.908  -1.886   1.184  1.00  0.00     0.035 C 
HETATM   17  C1  UNL     1      -5.064  -2.722   0.677  1.00  0.00     0.008 C 
ENDBRANCH  11  16
ENDBRANCH  10  11
ENDBRANCH   8  10
ENDBRANCH   1   8
BRANCH   1  18
HETATM   18  C6  UNL     1       0.488   1.590   0.615  1.00  0.00     0.304 C 
BRANCH  18  19
HETATM   19  N2  UNL     1       1.409   0.968  -0.295  1.00  0.00     0.094 N 
HETATM   20  C7  UNL     1       2.798   1.312   0.133  1.00  0.00     0.302 C 
HETATM   21  C8  UNL     1       3.692   0.795  -0.983  1.00  0.00     0.303 C 
HETATM   22  N3  UNL     1       3.732  -0.650  -0.830  1.00  0.00     0.098 N 
HETATM   23  C12 UNL     1       2.749  -1.104   0.080  1.00  0.00     0.303 C 
HETATM   24  C13 UNL     1       1.384  -0.493  -0.102  1.00  0.00     0.302 C 
BRANCH  22  25
HETATM   25  C9  UNL     1       5.043  -1.134  -0.572  1.00  0.00     0.242 C 
HETATM   26  C10 UNL     1       5.682  -0.611   0.695  1.00  0.00     0.045 C 
BRANCH  25  27
HETATM   27  C11 UNL     1       5.062  -2.643  -0.581  1.00  0.00     0.199 C 
BRANCH  27  28
HETATM   28  O1  UNL     1       6.377  -3.102  -0.318  1.00  0.00    -0.399 OA
ATOM     29  H1  UNL     1       6.389  -4.052  -0.324  1.00  0.00     0.209 HD
ENDBRANCH  27  28
ENDBRANCH  25  27
ENDBRANCH  22  25
ENDBRANCH  18  19
ENDBRANCH   1  18
TORSDOF 9
