REMARK  7 active torsions:
REMARK  status: ('A' for Active; 'I' for Inactive)
REMARK    1  A    between atoms: C2_2  and  C3_3 
REMARK    2  A    between atoms: C2_2  and  N2_18 
REMARK    3  A    between atoms: C3_3  and  C4_4 
REMARK    4  A    between atoms: C6_6  and  N1_7 
REMARK    5  A    between atoms: C10_13  and  O2_14 
REMARK       I    between atoms: N2_18  and  C12_20 
REMARK    6  A    between atoms: C12_20  and  C13_22 
REMARK    7  A    between atoms: C13_22  and  C14_23 
ROOT
HETATM    1  C4  UNL     1       1.717   0.243   1.492  1.00  0.00     0.129 C 
HETATM    2  C5  UNL     1       2.823   0.830   0.616  1.00  0.00     0.086 C 
HETATM    3  C6  UNL     1       3.992   0.220   1.438  1.00  0.00     0.013 C 
HETATM    4  C11 UNL     1       3.471  -1.129   1.661  1.00  0.00     0.220 C 
HETATM    5  O3  UNL     1       2.060  -1.095   1.499  1.00  0.00    -0.380 OA
ENDROOT
BRANCH   1   6
HETATM    6  C3  UNL     1       0.371   0.624   1.156  1.00  0.00     0.057 C 
BRANCH   6   7
HETATM    7  C2  UNL     1      -0.221   0.331  -0.161  1.00  0.00     0.082 C 
HETATM    8  C1  UNL     1       0.431   0.912  -1.359  1.00  0.00     0.032 C 
BRANCH   7   9
HETATM    9  N2  UNL     1      -1.598   0.850  -0.112  1.00  0.00    -0.357 N 
HETATM   10  C12 UNL     1      -2.739   0.045  -0.254  1.00  0.00     0.218 C 
HETATM   11  O4  UNL     1      -2.668  -1.191  -0.435  1.00  0.00    -0.274 OA
ATOM     12  H2  UNL     1      -1.730   1.851   0.033  1.00  0.00     0.162 HD
BRANCH  10  13
HETATM   13  C13 UNL     1      -4.075   0.669  -0.188  1.00  0.00     0.107 C 
BRANCH  13  14
HETATM   14  C14 UNL     1      -5.142  -0.358  -0.339  1.00  0.00    -0.002 C 
HETATM   15  C15 UNL     1      -5.154  -1.431   0.700  1.00  0.00     0.005 C 
HETATM   16  C16 UNL     1      -6.619  -1.812   0.889  1.00  0.00     0.001 C 
HETATM   17  C17 UNL     1      -7.388  -0.993  -0.155  1.00  0.00     0.005 C 
HETATM   18  C18 UNL     1      -6.523   0.250  -0.234  1.00  0.00    -0.014 C 
HETATM   19  C19 UNL     1      -6.817   1.107  -1.422  1.00  0.00     0.010 C 
ENDBRANCH  13  14
ENDBRANCH  10  13
ENDBRANCH   7   9
ENDBRANCH   6   7
ENDBRANCH   1   6
BRANCH   3  20
HETATM   20  N1  UNL     1       5.248   0.554   1.086  1.00  0.00    -0.364 N 
HETATM   21  C7  UNL     1       5.987   0.371  -0.038  1.00  0.00     0.041 C 
HETATM   22  C8  UNL     1       5.585   0.983  -1.352  1.00  0.00     0.223 C 
HETATM   23  C10 UNL     1       6.432  -1.019  -0.433  1.00  0.00     0.189 C 
HETATM   24  O1  UNL     1       6.693   0.564  -2.143  1.00  0.00    -0.383 OA
HETATM   25  C9  UNL     1       6.798  -0.802  -1.887  1.00  0.00     0.205 C 
ATOM     26  H1  UNL     1       5.752   1.051   1.821  1.00  0.00     0.165 HD
BRANCH  23  27
HETATM   27  O2  UNL     1       7.619  -1.393   0.212  1.00  0.00    -0.388 OA
ATOM     28  H2  UNL     1       7.899  -2.266  -0.036  1.00  0.00     0.210 HD
ENDBRANCH  23  27
ENDBRANCH   3  20
TORSDOF 7
