REMARK  8 active torsions:
REMARK  status: ('A' for Active; 'I' for Inactive)
REMARK    1  A    between atoms: C2_3  and  O2_4 
REMARK    2  A    between atoms: C3_6  and  O3_7 
REMARK    3  A    between atoms: C4_9  and  C5_11 
REMARK    4  A    between atoms: N1_14  and  C7_15 
REMARK    5  A    between atoms: C7_15  and  C8_16 
REMARK    6  A    between atoms: C8_16  and  C9_17 
REMARK    7  A    between atoms: C9_17  and  C10_18 
REMARK    8  A    between atoms: C10_18  and  C11_19 
ROOT
HETATM    1  O1  UNL     1      -1.366  -1.525   2.597  1.00  0.00    -0.270 OA
HETATM    2  C1  UNL     1      -1.392  -1.024   1.464  1.00  0.00     0.251 C 
HETATM    3  C2  UNL     1      -2.274  -1.556   0.418  1.00  0.00     0.240 C 
HETATM    4  C3  UNL     1      -2.157  -0.752  -0.852  1.00  0.00     0.177 C 
HETATM    5  C4  UNL     1      -2.039   0.711  -0.612  1.00  0.00     0.072 C 
HETATM    6 BR1  UNL     1      -1.524   1.513  -2.331  1.00  0.00    -0.080 Br
HETATM    7  C6  UNL     1      -1.056   1.157   0.403  1.00  0.00     0.150 C 
HETATM    8  N1  UNL     1      -0.554   0.070   1.198  1.00  0.00    -0.348 N 
ENDROOT
BRANCH   8   9
HETATM    9  C7  UNL     1       0.784   0.201   1.679  1.00  0.00     0.126 C 
BRANCH   9  10
HETATM   10  C8  UNL     1       1.917  -0.292   0.906  1.00  0.00     0.020 C 
BRANCH  10  11
HETATM   11  C9  UNL     1       2.099   0.334  -0.452  1.00  0.00     0.003 C 
BRANCH  11  12
HETATM   12  C10 UNL     1       3.309  -0.249  -1.179  1.00  0.00     0.015 C 
BRANCH  12  13
HETATM   13  C11 UNL     1       4.581  -0.022  -0.404  1.00  0.00     0.114 C 
HETATM   14 CL1  UNL     1       4.849   1.721  -0.186  1.00  0.00    -0.130 Cl
ENDBRANCH  12  13
ENDBRANCH  11  12
ENDBRANCH  10  11
ENDBRANCH   9  10
ENDBRANCH   8   9
BRANCH   3  15
HETATM   15  O2  UNL     1      -3.579  -1.636   0.897  1.00  0.00    -0.383 OA
ATOM     16  H2  UNL     1      -4.150  -1.980   0.220  1.00  0.00     0.210 HD
ENDBRANCH   3  15
BRANCH   5  17
HETATM   17  C5  UNL     1      -3.422   1.263  -0.246  1.00  0.00     0.110 C 
HETATM   18 BR2  UNL     1      -3.247   3.169   0.062  1.00  0.00    -0.095 Br
ENDBRANCH   5  17
BRANCH   4  19
HETATM   19  O3  UNL     1      -1.161  -1.293  -1.649  1.00  0.00    -0.391 OA
ATOM     20  H3  UNL     1      -1.087  -0.786  -2.449  1.00  0.00     0.210 HD
ENDBRANCH   4  19
TORSDOF 8
