REMARK  7 active torsions:
REMARK  status: ('A' for Active; 'I' for Inactive)
REMARK    1  A    between atoms: C2_2  and  C3_3 
REMARK    2  A    between atoms: C3_3  and  N1_4 
REMARK    3  A    between atoms: C3_3  and  C13_17 
REMARK    4  A    between atoms: N1_4  and  C4_6 
REMARK    5  A    between atoms: C13_17  and  O1_18 
REMARK    6  A    between atoms: C13_17  and  C14_20 
REMARK    7  A    between atoms: C18_28  and  O3_29 
ROOT
HETATM    1  C3  UNL     1       0.727  -0.336  -0.434  1.00  0.00     0.134 C 
ENDROOT
BRANCH   1   2
HETATM    2  C2  UNL     1       0.610  -0.784  -1.893  1.00  0.00     0.027 C 
HETATM    3  C1  UNL     1       1.774  -1.630  -2.346  1.00  0.00     0.007 C 
ENDBRANCH   1   2
BRANCH   1   4
HETATM    4  N1  UNL     1      -0.377   0.494  -0.065  1.00  0.00    -0.402 N 
ATOM      5  H1  UNL     1      -0.169   1.459   0.191  1.00  0.00     0.154 HD
BRANCH   4   6
HETATM    6  C4  UNL     1      -1.697   0.102  -0.025  1.00  0.00     0.034 C 
HETATM    7  C5  UNL     1      -2.425  -0.305  -1.248  1.00  0.00     0.074 C 
HETATM    8  C6  UNL     1      -3.869   0.111  -0.903  1.00  0.00     0.107 C 
HETATM    9  F1  UNL     1      -4.691  -0.015  -1.974  1.00  0.00    -0.243 F 
HETATM   10  C7  UNL     1      -3.596   1.550  -0.520  1.00  0.00     0.050 C 
HETATM   11  C11 UNL     1      -4.327  -0.723   0.270  1.00  0.00     0.064 C 
HETATM   12  C8  UNL     1      -2.485   1.331   0.483  1.00  0.00     0.018 C 
HETATM   13  C9  UNL     1      -3.150   0.894   1.769  1.00  0.00     0.028 C 
HETATM   14  C10 UNL     1      -3.404  -0.578   1.431  1.00  0.00     0.024 C 
HETATM   15 BR1  UNL     1      -4.020  -1.565   2.956  1.00  0.00    -0.085 Br
HETATM   16  C12 UNL     1      -2.002  -0.974   1.021  1.00  0.00     0.052 C 
ENDBRANCH   4   6
ENDBRANCH   1   4
BRANCH   1  17
HETATM   17  C13 UNL     1       1.933   0.477  -0.264  1.00  0.00     0.080 C 
BRANCH  17  18
HETATM   18  O1  UNL     1       1.755   1.665  -0.789  1.00  0.00    -0.362 OA
ATOM     19  H1  UNL     1       2.537   2.192  -0.679  1.00  0.00     0.217 HD
ENDBRANCH  17  18
BRANCH  17  20
HETATM   20  C14 UNL     1       3.211   0.285   0.317  1.00  0.00     0.057 A 
HETATM   21  C15 UNL     1       3.601  -0.830   1.000  1.00  0.00     0.065 A 
HETATM   22 CL1  UNL     1       2.566  -2.237   1.280  1.00  0.00    -0.082 Cl
HETATM   23  C16 UNL     1       4.883  -0.861   1.557  1.00  0.00     0.116 A 
HETATM   24  N2  UNL     1       5.760   0.147   1.461  1.00  0.00    -0.330 N 
HETATM   25  C17 UNL     1       5.401   1.260   0.794  1.00  0.00     0.279 A 
ATOM     26  H2  UNL     1       6.684   0.073   1.886  1.00  0.00     0.168 HD
HETATM   27  O2  UNL     1       6.219   2.215   0.699  1.00  0.00    -0.265 OA
HETATM   28  C18 UNL     1       4.157   1.331   0.234  1.00  0.00     0.148 A 
BRANCH  28  29
HETATM   29  O3  UNL     1       3.850   2.510  -0.442  1.00  0.00    -0.355 OA
ATOM     30  H3  UNL     1       4.486   3.213  -0.498  1.00  0.00     0.218 HD
ENDBRANCH  28  29
ENDBRANCH  17  20
ENDBRANCH   1  17
TORSDOF 7
