REMARK  7 active torsions:
REMARK  status: ('A' for Active; 'I' for Inactive)
REMARK    1  A    between atoms: C2_2  and  N1_4 
REMARK    2  A    between atoms: N2_7  and  C6_8 
REMARK    3  A    between atoms: C6_8  and  C7_9 
REMARK    4  A    between atoms: C10_12  and  C11_13 
REMARK    5  A    between atoms: C13_18  and  N3_19 
REMARK    6  A    between atoms: N3_19  and  C14_21 
REMARK    7  A    between atoms: C14_21  and  C15_25 
ROOT
HETATM    1  C7  UNL     1      -0.691  -1.201  -0.132  1.00  0.00     0.006 A 
HETATM    2  C8  UNL     1      -1.414  -2.341  -0.262  1.00  0.00     0.016 A 
HETATM    3  C9  UNL     1      -0.915  -3.619  -0.071  1.00  0.00     0.017 A 
HETATM    4  C10 UNL     1       0.445  -3.735   0.294  1.00  0.00     0.050 A 
HETATM    5  C12 UNL     1       1.169  -2.572   0.421  1.00  0.00     0.046 A 
HETATM    6  C13 UNL     1       0.661  -1.357   0.212  1.00  0.00     0.045 A 
ENDROOT
BRANCH   6   7
HETATM    7  N3  UNL     1       1.466  -0.136   0.138  1.00  0.00    -0.345 N 
ATOM      8  H3  UNL     1       1.355   0.629   0.804  1.00  0.00     0.167 HD
BRANCH   7   9
HETATM    9  C14 UNL     1       2.401  -0.086  -0.910  1.00  0.00     0.080 C 
HETATM   10  N4  UNL     1       2.228  -0.860  -1.988  1.00  0.00    -0.389 N 
ATOM     11  H42 UNL     1       1.374  -1.418  -1.971  1.00  0.00     0.157 HD
ATOM     12  H41 UNL     1       2.907  -0.824  -2.749  1.00  0.00     0.157 HD
BRANCH   9  13
HETATM   13  C15 UNL     1       3.646   0.727  -0.935  1.00  0.00     0.060 C 
HETATM   14  C16 UNL     1       3.434   2.180  -0.761  1.00  0.00     0.013 C 
HETATM   15  C17 UNL     1       4.772   2.867  -0.958  1.00  0.00     0.001 C 
HETATM   16  C18 UNL     1       5.873   2.253  -0.145  1.00  0.00     0.001 C 
HETATM   17  C19 UNL     1       5.998   0.784  -0.423  1.00  0.00     0.009 C 
HETATM   18  C20 UNL     1       4.686   0.115  -0.057  1.00  0.00    -0.037 C 
HETATM   19  C21 UNL     1       4.833  -1.344  -0.339  1.00  0.00     0.015 C 
HETATM   20  C22 UNL     1       4.365   0.323   1.407  1.00  0.00     0.015 C 
ENDBRANCH   9  13
ENDBRANCH   7   9
ENDBRANCH   6   7
BRANCH   1  21
HETATM   21  C6  UNL     1      -1.151   0.151  -0.362  1.00  0.00     0.099 C 
BRANCH  21  22
HETATM   22  N2  UNL     1      -2.192   0.631   0.443  1.00  0.00    -0.386 N 
HETATM   23  C5  UNL     1      -2.626   1.942   0.110  1.00  0.00     0.152 C 
HETATM   24  C4  UNL     1      -3.962   1.753  -0.665  1.00  0.00     0.292 C 
HETATM   25  N1  UNL     1      -4.838   1.098   0.273  1.00  0.00     0.095 N 
HETATM   26  C24 UNL     1      -4.416  -0.265   0.459  1.00  0.00     0.292 C 
HETATM   27  C23 UNL     1      -3.047  -0.157   1.188  1.00  0.00     0.152 C 
BRANCH  25  28
HETATM   28  C2  UNL     1      -6.228   1.186  -0.136  1.00  0.00     0.215 C 
HETATM   29  C1  UNL     1      -7.018   0.111   0.556  1.00  0.00     0.042 C 
HETATM   30  C3  UNL     1      -6.736   2.520   0.374  1.00  0.00     0.042 C 
ENDBRANCH  25  28
ENDBRANCH  21  22
ENDBRANCH   1  21
BRANCH   4  31
HETATM   31  C11 UNL     1       1.040  -5.046   0.542  1.00  0.00     0.417 C 
HETATM   32  F1  UNL     1       0.189  -6.048   0.203  1.00  0.00    -0.166 F 
HETATM   33  F2  UNL     1       1.346  -5.147   1.902  1.00  0.00    -0.166 F 
HETATM   34  F3  UNL     1       2.212  -5.192  -0.196  1.00  0.00    -0.166 F 
ENDBRANCH   4  31
TORSDOF 7
