REMARK  4 active torsions:
REMARK  status: ('A' for Active; 'I' for Inactive)
REMARK    1  A    between atoms: N1_1  and  C1_5 
REMARK    2  A    between atoms: C1_5  and  C2_6 
REMARK    3  A    between atoms: C7_11  and  N2_12 
REMARK    4  A    between atoms: C8_16  and  O1_17 
ROOT
HETATM    1  C2  UNL     1      -0.751  -0.183  -0.037  1.00  0.00     0.043 C 
HETATM    2  C3  UNL     1      -0.518  -1.665   0.102  1.00  0.00     0.020 C 
HETATM    3  C4  UNL     1       0.924  -2.083  -0.354  1.00  0.00     0.080 C 
HETATM    4  C5  UNL     1       1.670  -0.895  -0.344  1.00  0.00    -0.181 C 
HETATM    5  C6  UNL     1       2.381   0.312  -0.302  1.00  0.00     0.115 C 
HETATM    6  C7  UNL     1       1.331   1.412   0.080  1.00  0.00     0.222 C 
HETATM    7  C8  UNL     1       0.026   0.845   0.583  1.00  0.00     0.155 C 
ENDROOT
BRANCH   1   8
HETATM    8  C1  UNL     1      -2.194  -0.043   0.530  1.00  0.00     0.236 C 
BRANCH   8   9
HETATM    9  N1  UNL     1      -3.097  -0.835  -0.254  1.00  0.00    -0.079 N 
ATOM     10  H13 UNL     1      -3.049  -0.604  -1.246  1.00  0.00     0.274 HD
ATOM     11  H12 UNL     1      -2.801  -1.809  -0.316  1.00  0.00     0.274 HD
ATOM     12  H11 UNL     1      -4.042  -0.743   0.118  1.00  0.00     0.274 HD
ENDBRANCH   8   9
ENDBRANCH   1   8
BRANCH   7  13
HETATM   13  O1  UNL     1       0.004   0.747   2.002  1.00  0.00    -0.393 OA
ATOM     14  H1  UNL     1       0.520   1.430   2.414  1.00  0.00     0.210 HD
ENDBRANCH   7  13
BRANCH   6  15
HETATM   15  N2  UNL     1       1.166   2.322  -1.024  1.00  0.00    -0.072 N 
ATOM     16  H23 UNL     1       2.053   2.724  -1.328  1.00  0.00     0.274 HD
ATOM     17  H22 UNL     1       0.921   1.839  -1.888  1.00  0.00     0.274 HD
ATOM     18  H21 UNL     1       0.483   3.038  -0.775  1.00  0.00     0.274 HD
ENDBRANCH   6  15
TORSDOF 4
