REMARK  8 active torsions:
REMARK  status: ('A' for Active; 'I' for Inactive)
REMARK    1  A    between atoms: O1_2  and  C2_3 
REMARK    2  A    between atoms: C5_12  and  N4_13 
REMARK    3  A    between atoms: N5_17  and  C7_18 
REMARK    4  A    between atoms: C7_18  and  C8_19 
REMARK    5  A    between atoms: C8_19  and  N6_20 
REMARK    6  A    between atoms: N6_20  and  N7_21 
REMARK    7  A    between atoms: N7_21  and  C9_23 
REMARK    8  A    between atoms: C9_23  and  N8_24 
ROOT
HETATM    1  C2  UNL     1      -2.329   1.317   0.107  1.00  0.00     0.227 A 
HETATM    2  N1  UNL     1      -3.498   0.701   0.172  1.00  0.00    -0.306 N 
ATOM      3  H1  UNL     1      -4.373   1.159   0.428  1.00  0.00     0.171 HD
HETATM    4  C3  UNL     1      -3.391  -0.622  -0.146  1.00  0.00     0.140 A 
HETATM    5  N2  UNL     1      -4.281  -1.621  -0.218  1.00  0.00    -0.336 N 
ATOM      6  H2  UNL     1      -5.266  -1.453  -0.011  1.00  0.00     0.168 HD
HETATM    7  C4  UNL     1      -3.854  -2.857  -0.570  1.00  0.00     0.183 A 
HETATM    8  N3  UNL     1      -2.532  -3.073  -0.845  1.00  0.00    -0.337 N 
ATOM      9  H3  UNL     1      -2.218  -4.008  -1.105  1.00  0.00     0.168 HD
HETATM   10  C5  UNL     1      -1.652  -2.082  -0.778  1.00  0.00     0.131 A 
HETATM   11  C6  UNL     1      -2.058  -0.791  -0.422  1.00  0.00     0.126 A 
HETATM   12  N5  UNL     1      -1.393   0.353  -0.284  1.00  0.00    -0.305 N 
ENDROOT
BRANCH  12  13
HETATM   13  C7  UNL     1      -0.021   0.643  -0.514  1.00  0.00     0.151 C 
BRANCH  13  14
HETATM   14  C8  UNL     1       1.013   0.359   0.521  1.00  0.00     0.155 C 
BRANCH  14  15
HETATM   15  N6  UNL     1       2.295   0.897  -0.007  1.00  0.00    -0.143 NA
BRANCH  15  16
HETATM   16  N7  UNL     1       3.318   0.039   0.098  1.00  0.00    -0.315 N 
ATOM     17  H7  UNL     1       3.137  -0.913  -0.221  1.00  0.00     0.177 HD
BRANCH  16  18
HETATM   18  C9  UNL     1       4.592   0.282   0.586  1.00  0.00     0.364 C 
BRANCH  18  19
HETATM   19  N8  UNL     1       5.459  -0.884   0.224  1.00  0.00    -0.063 N 
ATOM     20  H83 UNL     1       5.077  -1.774   0.545  1.00  0.00     0.276 HD
ATOM     21  H82 UNL     1       5.452  -1.085  -0.776  1.00  0.00     0.276 HD
ATOM     22  H81 UNL     1       6.397  -0.705   0.583  1.00  0.00     0.276 HD
ENDBRANCH  18  19
ENDBRANCH  16  18
ENDBRANCH  15  16
ENDBRANCH  14  15
ENDBRANCH  13  14
ENDBRANCH  12  13
BRANCH   1  23
HETATM   23  O1  UNL     1      -1.994   2.606   0.344  1.00  0.00    -0.327 OA
HETATM   24  C1  UNL     1      -2.693   3.724   0.713  1.00  0.00     0.213 C 
ENDBRANCH   1  23
BRANCH  10  25
HETATM   25  N4  UNL     1      -0.429  -2.289  -0.991  1.00  0.00    -0.383 N 
ATOM     26  H42 UNL     1      -0.133  -3.230  -1.250  1.00  0.00     0.157 HD
ATOM     27  H41 UNL     1       0.247  -1.527  -0.940  1.00  0.00     0.157 HD
ENDBRANCH  10  25
TORSDOF 8
