REMARK  8 active torsions:
REMARK  status: ('A' for Active; 'I' for Inactive)
REMARK    1  A    between atoms: N1_1  and  N2_4 
REMARK    2  A    between atoms: C1_6  and  N3_7 
REMARK    3  A    between atoms: N3_7  and  C2_9 
REMARK    4  A    between atoms: C2_9  and  C3_10 
REMARK    5  A    between atoms: C4_12  and  N4_13 
REMARK    6  A    between atoms: N4_13  and  N5_14 
REMARK    7  A    between atoms: N5_14  and  C5_16 
REMARK    8  A    between atoms: C11_22  and  N6_23 
ROOT
HETATM    1  C3  UNL     1       1.636   0.435   1.625  1.00  0.00     0.175 C 
HETATM    2  O1  UNL     1       0.712  -0.563   1.876  1.00  0.00    -0.357 OA
HETATM    3  C4  UNL     1       0.005  -0.322   0.699  1.00  0.00     0.267 C 
HETATM    4  C11 UNL     1       0.813   0.935   0.488  1.00  0.00     0.260 C 
ENDROOT
BRANCH   1   5
HETATM    5  C2  UNL     1       3.009   0.035   1.279  1.00  0.00     0.154 C 
BRANCH   5   6
HETATM    6  N3  UNL     1       3.226  -0.807   0.168  1.00  0.00    -0.383 N 
ATOM      7  H3  UNL     1       2.437  -1.179  -0.361  1.00  0.00     0.160 HD
BRANCH   6   8
HETATM    8  C1  UNL     1       4.559  -1.129  -0.203  1.00  0.00     0.192 C 
HETATM    9  N2  UNL     1       5.520  -0.994   0.638  1.00  0.00    -0.303 N 
ATOM     10  H2  UNL     1       5.268  -0.650   1.564  1.00  0.00     0.187 HD
BRANCH   9  11
HETATM   11  N1  UNL     1       6.851  -1.263   0.426  1.00  0.00    -0.344 N 
ATOM     12  H12 UNL     1       7.083  -1.606  -0.506  1.00  0.00     0.176 HD
ATOM     13  H11 UNL     1       7.614  -1.156   1.094  1.00  0.00     0.176 HD
ENDBRANCH   9  11
ENDBRANCH   6   8
ENDBRANCH   5   6
ENDBRANCH   1   5
BRANCH   4  14
HETATM   14  N6  UNL     1       1.392   1.006  -0.813  1.00  0.00    -0.069 N 
ATOM     15  H63 UNL     1       2.247   1.559  -0.760  1.00  0.00     0.275 HD
ATOM     16  H62 UNL     1       1.762   0.087  -1.057  1.00  0.00     0.275 HD
ATOM     17  H61 UNL     1       0.829   1.348  -1.591  1.00  0.00     0.275 HD
ENDBRANCH   4  14
BRANCH   3  18
HETATM   18  N4  UNL     1      -1.392   0.010   0.902  1.00  0.00    -0.106 NA
BRANCH  18  19
HETATM   19  N5  UNL     1      -1.973   0.220  -0.366  1.00  0.00    -0.302 N 
ATOM     20  H5  UNL     1      -1.372   0.399  -1.171  1.00  0.00     0.182 HD
BRANCH  19  21
HETATM   21  C5  UNL     1      -3.389   0.186  -0.539  1.00  0.00     0.044 A 
HETATM   22  C6  UNL     1      -3.927   0.398  -1.788  1.00  0.00     0.030 A 
HETATM   23  C7  UNL     1      -5.313   0.372  -1.993  1.00  0.00     0.002 A 
HETATM   24  C8  UNL     1      -6.134   0.129  -0.917  1.00  0.00     0.000 A 
HETATM   25  C9  UNL     1      -5.622  -0.084   0.331  1.00  0.00     0.002 A 
HETATM   26  C10 UNL     1      -4.252  -0.052   0.503  1.00  0.00     0.030 A 
ENDBRANCH  19  21
ENDBRANCH  18  19
ENDBRANCH   3  18
TORSDOF 8
