REMARK  8 active torsions:
REMARK  status: ('A' for Active; 'I' for Inactive)
REMARK    1  A    between atoms: C2_2  and  C3_3 
REMARK    2  A    between atoms: C2_2  and  N2_16 
REMARK    3  A    between atoms: C3_3  and  C4_4 
REMARK    4  A    between atoms: C4_4  and  O1_5 
REMARK    5  A    between atoms: C4_4  and  C5_7 
REMARK    6  A    between atoms: C5_7  and  N1_8 
REMARK    7  A    between atoms: N2_16  and  C13_18 
REMARK    8  A    between atoms: C13_18  and  C15_20 
ROOT
HETATM    1  C1  UNL     1      -0.316   0.080   2.788  1.00  0.00     0.032 C 
HETATM    2  C2  UNL     1      -0.104  -0.327   1.351  1.00  0.00     0.075 C 
ENDROOT
BRANCH   2   3
HETATM    3  C3  UNL     1       1.153   0.298   0.779  1.00  0.00     0.061 C 
BRANCH   3   4
HETATM    4  C4  UNL     1       2.398  -0.114   1.539  1.00  0.00     0.158 C 
BRANCH   4   5
HETATM    5  O1  UNL     1       2.595  -1.476   1.525  1.00  0.00    -0.390 OA
ATOM      6  H1  UNL     1       3.375  -1.734   2.001  1.00  0.00     0.210 HD
ENDBRANCH   4   5
BRANCH   4   7
HETATM    7  C5  UNL     1       3.605   0.657   1.091  1.00  0.00     0.090 C 
BRANCH   7   8
HETATM    8  N1  UNL     1       4.087   0.487  -0.195  1.00  0.00    -0.382 N 
HETATM    9  C6  UNL     1       5.180   1.333  -0.543  1.00  0.00     0.080 C 
HETATM   10  C7  UNL     1       5.376   2.415   0.523  1.00  0.00     0.032 C 
HETATM   11  C8  UNL     1       6.444   0.613  -0.842  1.00  0.00     0.025 C 
HETATM   12  C9  UNL     1       6.474  -0.810  -0.414  1.00  0.00     0.004 C 
HETATM   13  C10 UNL     1       5.218  -1.565  -0.674  1.00  0.00     0.025 C 
HETATM   14  C11 UNL     1       4.007  -0.686  -0.936  1.00  0.00     0.080 C 
HETATM   15  C12 UNL     1       3.941  -0.421  -2.452  1.00  0.00     0.032 C 
ENDBRANCH   7   8
ENDBRANCH   4   7
ENDBRANCH   3   4
ENDBRANCH   2   3
BRANCH   2  16
HETATM   16  N2  UNL     1      -1.214  -0.080   0.491  1.00  0.00    -0.413 N 
ATOM     17  H2  UNL     1      -1.153   0.571  -0.292  1.00  0.00     0.154 HD
BRANCH  16  18
HETATM   18  C13 UNL     1      -2.414  -0.791   0.784  1.00  0.00     0.081 C 
HETATM   19  C14 UNL     1      -2.117  -2.262   0.626  1.00  0.00     0.032 C 
BRANCH  18  20
HETATM   20  C15 UNL     1      -3.608  -0.318   0.013  1.00  0.00    -0.020 C 
HETATM   21  C16 UNL     1      -3.850   1.161   0.347  1.00  0.00     0.016 C 
HETATM   22  C17 UNL     1      -5.064   1.696  -0.337  1.00  0.00    -0.013 C 
HETATM   23  C18 UNL     1      -4.894   1.556  -1.826  1.00  0.00     0.009 C 
HETATM   24  C22 UNL     1      -6.268   0.945   0.182  1.00  0.00     0.009 C 
HETATM   25  C19 UNL     1      -4.714   0.088  -2.135  1.00  0.00    -0.013 C 
HETATM   26  C20 UNL     1      -5.945  -0.650  -1.680  1.00  0.00     0.009 C 
HETATM   27  C24 UNL     1      -3.452  -0.387  -1.472  1.00  0.00     0.016 C 
HETATM   28  C21 UNL     1      -6.101  -0.495  -0.163  1.00  0.00    -0.013 C 
HETATM   29  C23 UNL     1      -4.814  -1.095   0.422  1.00  0.00     0.016 C 
ENDBRANCH  18  20
ENDBRANCH  16  18
ENDBRANCH   2  16
TORSDOF 8
