REMARK  12 active torsions:
REMARK  status: ('A' for Active; 'I' for Inactive)
REMARK    1  A    between atoms: C2_2  and  C3_3 
REMARK    2  A    between atoms: C3_3  and  C4_4 
REMARK    3  A    between atoms: C4_4  and  C5_5 
REMARK    4  A    between atoms: C5_5  and  N1_6 
REMARK    5  A    between atoms: N1_6  and  C6_9 
REMARK    6  A    between atoms: C6_9  and  C7_10 
REMARK    7  A    between atoms: C7_10  and  C8_11 
REMARK    8  A    between atoms: C11_14  and  O1_15 
REMARK    9  A    between atoms: O1_15  and  C12_16 
REMARK   10  A    between atoms: C12_16  and  C13_17 
REMARK   11  A    between atoms: C13_17  and  C14_18 
REMARK   12  A    between atoms: C14_18  and  C15_19 
ROOT
HETATM    1  C8  UNL     1       1.315   0.889  -0.277  1.00  0.00    -0.056 A 
HETATM    2  C9  UNL     1       0.445  -0.157  -0.482  1.00  0.00     0.010 A 
HETATM    3  C10 UNL     1      -0.898  -0.115  -0.114  1.00  0.00     0.037 A 
HETATM    4  C11 UNL     1      -1.422   1.006   0.485  1.00  0.00     0.068 A 
HETATM    5  C21 UNL     1      -0.534   2.083   0.699  1.00  0.00     0.037 A 
HETATM    6  C22 UNL     1       0.777   2.007   0.326  1.00  0.00     0.010 A 
ENDROOT
BRANCH   1   7
HETATM    7  C7  UNL     1       2.746   0.831  -0.674  1.00  0.00     0.066 C 
BRANCH   7   8
HETATM    8  C6  UNL     1       3.533   0.272   0.508  1.00  0.00     0.237 C 
BRANCH   8   9
HETATM    9  N1  UNL     1       4.955   0.179   0.197  1.00  0.00    -0.075 N 
ATOM     10  H12 UNL     1       5.502   0.020   1.043  1.00  0.00     0.277 HD
ATOM     11  H11 UNL     1       5.328   1.089  -0.075  1.00  0.00     0.277 HD
BRANCH   9  12
HETATM   12  C5  UNL     1       5.246  -0.795  -0.780  1.00  0.00     0.236 C 
BRANCH  12  13
HETATM   13  C4  UNL     1       6.695  -0.962  -1.090  1.00  0.00     0.054 C 
BRANCH  13  14
HETATM   14  C3  UNL     1       7.592  -1.380  -0.001  1.00  0.00    -0.026 C 
BRANCH  14  15
HETATM   15  C2  UNL     1       7.915  -0.522   1.109  1.00  0.00    -0.014 C 
HETATM   16  C1  UNL     1       7.846   0.778   1.246  1.00  0.00     0.011 C 
ENDBRANCH  14  15
ENDBRANCH  13  14
ENDBRANCH  12  13
ENDBRANCH   9  12
ENDBRANCH   8   9
ENDBRANCH   7   8
ENDBRANCH   1   7
BRANCH   4  17
HETATM   17  O1  UNL     1      -2.731   1.151   0.879  1.00  0.00    -0.351 OA
BRANCH  17  18
HETATM   18  C12 UNL     1      -3.720   0.215   0.689  1.00  0.00     0.176 C 
BRANCH  18  19
HETATM   19  C13 UNL     1      -4.052   0.021  -0.745  1.00  0.00     0.031 C 
BRANCH  19  20
HETATM   20  C14 UNL     1      -5.096  -1.032  -1.017  1.00  0.00     0.041 C 
BRANCH  20  21
HETATM   21  C15 UNL     1      -6.357  -0.664  -0.339  1.00  0.00    -0.058 A 
HETATM   22  C16 UNL     1      -6.687  -1.096   0.928  1.00  0.00     0.007 A 
HETATM   23  C17 UNL     1      -7.857  -0.765   1.572  1.00  0.00     0.001 A 
HETATM   24  C18 UNL     1      -8.776   0.045   0.942  1.00  0.00     0.000 A 
HETATM   25  C19 UNL     1      -8.477   0.494  -0.326  1.00  0.00     0.001 A 
HETATM   26  C20 UNL     1      -7.303   0.158  -0.964  1.00  0.00     0.007 A 
ENDBRANCH  20  21
ENDBRANCH  19  20
ENDBRANCH  18  19
ENDBRANCH  17  18
ENDBRANCH   4  17
TORSDOF 12
