REMARK  4 active torsions:
REMARK  status: ('A' for Active; 'I' for Inactive)
REMARK    1  A    between atoms: C2_2  and  O1_3 
REMARK    2  A    between atoms: C2_2  and  C3_5 
REMARK    3  A    between atoms: C4_7  and  N1_8 
REMARK    4  A    between atoms: C7_14  and  C8_15 
ROOT
HETATM    1  N1  UNL     1      -0.406  -0.248   0.804  1.00  0.00    -0.314 N 
HETATM    2  C5  UNL     1       0.001  -0.588   2.052  1.00  0.00     0.186 A 
HETATM    3  N2  UNL     1      -0.973  -1.249   2.687  1.00  0.00    -0.345 N 
ATOM      4  H2  UNL     1      -0.930  -1.619   3.637  1.00  0.00     0.167 HD
HETATM    5  C6  UNL     1      -2.004  -1.336   1.858  1.00  0.00     0.104 A 
HETATM    6 BR1  UNL     1      -3.671  -2.193   2.272  1.00  0.00    -0.029 Br
HETATM    7  C7  UNL     1      -1.643  -0.700   0.667  1.00  0.00     0.058 A 
ENDROOT
BRANCH   1   8
HETATM    8  C4  UNL     1       0.437   0.414  -0.153  1.00  0.00     0.251 C 
HETATM    9  O2  UNL     1       1.533  -0.427  -0.487  1.00  0.00    -0.349 OA
HETATM   10  C3  UNL     1       2.652   0.026   0.129  1.00  0.00     0.223 C 
HETATM   11  C14 UNL     1       2.469   1.482   0.232  1.00  0.00     0.176 C 
HETATM   12  C13 UNL     1       1.003   1.715   0.255  1.00  0.00     0.179 C 
HETATM   13  O3  UNL     1       3.350   2.317   0.286  1.00  0.00    -0.294 OA
HETATM   14 BR2  UNL     1       0.524   2.339   1.998  1.00  0.00    -0.078 Br
BRANCH  10  15
HETATM   15  C2  UNL     1       3.875  -0.314  -0.735  1.00  0.00     0.150 C 
HETATM   16  C1  UNL     1       5.112   0.106   0.015  1.00  0.00     0.042 C 
BRANCH  15  17
HETATM   17  O1  UNL     1       3.896  -1.701  -0.858  1.00  0.00    -0.393 OA
ATOM     18  H1  UNL     1       3.116  -1.966  -1.331  1.00  0.00     0.210 HD
ENDBRANCH  15  17
ENDBRANCH  10  15
ENDBRANCH   1   8
BRANCH   7  19
HETATM   19  C8  UNL     1      -2.578  -0.699  -0.479  1.00  0.00     0.005 A 
HETATM   20  C9  UNL     1      -2.888  -2.098  -1.076  1.00  0.00     0.022 C 
HETATM   21  C10 UNL     1      -3.995  -0.098  -0.090  1.00  0.00     0.021 A 
HETATM   22  C11 UNL     1      -3.045   0.536  -1.099  1.00  0.00    -0.003 A 
HETATM   23  C12 UNL     1      -2.674   1.917  -0.672  1.00  0.00     0.011 C 
ENDBRANCH   7  19
TORSDOF 4
