REMARK  14 active torsions:
REMARK  status: ('A' for Active; 'I' for Inactive)
REMARK    1  A    between atoms: C2_2  and  C3_3 
REMARK    2  A    between atoms: C3_3  and  C4_4 
REMARK    3  A    between atoms: C4_4  and  C5_5 
REMARK    4  A    between atoms: C8_10  and  N2_11 
REMARK    5  A    between atoms: C9_14  and  C10_15 
REMARK    6  A    between atoms: C10_15  and  O1_16 
REMARK    7  A    between atoms: C10_15  and  N3_18 
REMARK    8  A    between atoms: N3_18  and  C11_20 
REMARK    9  A    between atoms: C11_20  and  C12_21 
REMARK   10  A    between atoms: C12_21  and  C13_22 
REMARK   11  A    between atoms: C13_22  and  N4_23 
REMARK   12  A    between atoms: C18_29  and  S1_30 
REMARK   13  A    between atoms: S1_30  and  C19_31 
REMARK   14  A    between atoms: C19_31  and  C20_32 
REMARK       I    between atoms: C20_32  and  N5_34 
ROOT
HETATM    1  C5  UNL     1      -4.630  -1.493  -0.536  1.00  0.00    -0.035 A 
HETATM    2  C6  UNL     1      -3.792  -2.258  -1.352  1.00  0.00     0.096 A 
HETATM    3  N1  UNL     1      -2.469  -1.972  -1.443  1.00  0.00    -0.362 N 
ATOM      4  H1  UNL     1      -1.890  -2.554  -2.049  1.00  0.00     0.165 HD
HETATM    5  C7  UNL     1      -1.881  -0.965  -0.779  1.00  0.00     0.087 A 
HETATM    6  C8  UNL     1      -0.533  -0.720  -0.904  1.00  0.00     0.072 A 
HETATM    7  C9  UNL     1       0.049   0.346  -0.187  1.00  0.00     0.076 A 
HETATM    8  C18 UNL     1      -0.754   1.119   0.622  1.00  0.00     0.087 A 
HETATM    9  N6  UNL     1      -2.085   0.808   0.691  1.00  0.00    -0.348 N 
ATOM     10  H6  UNL     1      -2.673   1.384   1.293  1.00  0.00     0.166 HD
HETATM   11  C23 UNL     1      -2.669  -0.185   0.035  1.00  0.00     0.069 A 
HETATM   12  C24 UNL     1      -4.038  -0.458   0.149  1.00  0.00    -0.025 A 
HETATM   13  C25 UNL     1      -4.836   0.411   1.020  1.00  0.00     0.051 C 
ENDROOT
BRANCH   7  14
HETATM   14  C10 UNL     1       1.459   0.544  -0.348  1.00  0.00     0.151 C 
BRANCH  14  15
HETATM   15  O1  UNL     1       2.014  -0.147  -1.305  1.00  0.00    -0.346 OA
ATOM     16  H1  UNL     1       2.949  -0.016  -1.412  1.00  0.00     0.219 HD
ENDBRANCH  14  15
BRANCH  14  17
HETATM   17  N3  UNL     1       2.377   1.343   0.330  1.00  0.00    -0.370 N 
ATOM     18  H3  UNL     1       2.034   1.925   1.095  1.00  0.00     0.161 HD
BRANCH  17  19
HETATM   19  C11 UNL     1       3.800   1.397   0.011  1.00  0.00     0.127 C 
BRANCH  19  20
HETATM   20  C12 UNL     1       4.487   0.089   0.279  1.00  0.00     0.064 C 
BRANCH  20  21
HETATM   21  C13 UNL     1       5.963   0.204  -0.032  1.00  0.00     0.065 C 
BRANCH  21  22
HETATM   22  N4  UNL     1       6.731  -0.940   0.217  1.00  0.00    -0.370 N 
HETATM   23  C14 UNL     1       6.544  -2.099  -0.559  1.00  0.00     0.089 C 
HETATM   24  C15 UNL     1       6.027  -3.286   0.215  1.00  0.00     0.212 C 
HETATM   25  O2  UNL     1       5.902  -3.081   1.557  1.00  0.00    -0.385 OA
HETATM   26  C16 UNL     1       6.923  -2.400   2.176  1.00  0.00     0.188 C 
HETATM   27  C17 UNL     1       7.278  -1.098   1.511  1.00  0.00     0.153 C 
ENDBRANCH  21  22
ENDBRANCH  20  21
ENDBRANCH  19  20
ENDBRANCH  17  19
ENDBRANCH  14  17
ENDBRANCH   7  14
BRANCH   6  28
HETATM   28  N2  UNL     1       0.226  -1.434  -1.656  1.00  0.00    -0.396 N 
ATOM     29  H22 UNL     1      -0.195  -2.205  -2.175  1.00  0.00     0.156 HD
ATOM     30  H21 UNL     1       1.225  -1.252  -1.749  1.00  0.00     0.156 HD
ENDBRANCH   6  28
BRANCH   8  31
HETATM   31  S1  UNL     1      -0.137   2.507   1.541  1.00  0.00    -0.102 SA
BRANCH  31  32
HETATM   32  C19 UNL     1      -0.118   3.989   0.551  1.00  0.00     0.183 C 
BRANCH  32  33
HETATM   33  C20 UNL     1      -1.415   4.576   0.204  1.00  0.00     0.228 C 
HETATM   34  O3  UNL     1      -2.493   4.073   0.549  1.00  0.00    -0.273 OA
HETATM   35  N5  UNL     1      -1.425   5.767  -0.557  1.00  0.00    -0.360 N 
HETATM   36  C21 UNL     1      -2.677   6.376  -0.921  1.00  0.00     0.152 C 
HETATM   37  C22 UNL     1      -0.186   6.380  -0.961  1.00  0.00     0.152 C 
ENDBRANCH  32  33
ENDBRANCH  31  32
ENDBRANCH   8  31
BRANCH   1  38
HETATM   38  C4  UNL     1      -6.062  -1.864  -0.453  1.00  0.00     0.040 C 
BRANCH  38  39
HETATM   39  C3  UNL     1      -6.303  -3.329  -0.680  1.00  0.00     0.004 C 
BRANCH  39  40
HETATM   40  C2  UNL     1      -5.634  -4.256   0.275  1.00  0.00    -0.004 C 
HETATM   41  C1  UNL     1      -6.033  -5.676  -0.177  1.00  0.00     0.005 C 
ENDBRANCH  39  40
ENDBRANCH  38  39
ENDBRANCH   1  38
TORSDOF 14
