REMARK  11 active torsions:
REMARK  status: ('A' for Active; 'I' for Inactive)
REMARK    1  A    between atoms: C2_2  and  C4_4 
REMARK    2  A    between atoms: C4_4  and  C5_6 
REMARK    3  A    between atoms: C5_6  and  N1_7 
REMARK    4  A    between atoms: C5_6  and  C22_39 
REMARK       I    between atoms: N1_7  and  C6_9 
REMARK    5  A    between atoms: C6_9  and  C7_11 
REMARK    6  A    between atoms: C7_11  and  N2_12 
REMARK    7  A    between atoms: C7_11  and  C19_36 
REMARK       I    between atoms: N2_12  and  C8_14 
REMARK    8  A    between atoms: C8_14  and  C9_16 
REMARK    9  A    between atoms: C9_16  and  C10_17 
REMARK   10  A    between atoms: C11_18  and  C12_19 
REMARK   11  A    between atoms: C16_28  and  C17_29 
ROOT
HETATM    1  N2  UNL     1       1.028   1.280   0.179  1.00  0.00    -0.347 N 
ATOM      2  H2  UNL     1       1.172   1.396   1.182  1.00  0.00     0.163 HD
HETATM    3  C8  UNL     1       2.118   0.850  -0.648  1.00  0.00     0.222 C 
HETATM    4  O3  UNL     1       1.968   0.697  -1.893  1.00  0.00    -0.273 OA
ENDROOT
BRANCH   3   5
HETATM    5  C9  UNL     1       3.448   0.576  -0.054  1.00  0.00     0.141 C 
BRANCH   5   6
HETATM    6  C10 UNL     1       4.421  -0.173  -0.835  1.00  0.00    -0.020 C 
HETATM    7  C11 UNL     1       4.221  -1.536  -1.257  1.00  0.00     0.022 C 
HETATM    8  N3  UNL     1       5.254  -2.190  -1.705  1.00  0.00    -0.312 N 
HETATM    9  C15 UNL     1       6.558  -1.711  -1.816  1.00  0.00     0.321 C 
ATOM     10  H3  UNL     1       5.092  -3.151  -2.005  1.00  0.00     0.170 HD
HETATM   11  O4  UNL     1       7.550  -2.335  -2.252  1.00  0.00    -0.247 OA
HETATM   12  N4  UNL     1       6.770  -0.347  -1.379  1.00  0.00    -0.329 N 
HETATM   13  C16 UNL     1       5.838   0.085  -0.319  1.00  0.00     0.170 C 
ATOM     14  H4  UNL     1       7.494   0.258  -1.767  1.00  0.00     0.165 HD
BRANCH   7  15
HETATM   15  C12 UNL     1       2.977  -2.353  -1.222  1.00  0.00     0.028 C 
HETATM   16  C13 UNL     1       3.246  -3.759  -1.809  1.00  0.00     0.016 C 
HETATM   17  C14 UNL     1       2.509  -2.619   0.194  1.00  0.00     0.016 C 
ENDBRANCH   7  15
BRANCH  13  18
HETATM   18  C17 UNL     1       6.082   1.572  -0.151  1.00  0.00     0.061 A 
HETATM   19  C18 UNL     1       6.250   2.151   1.091  1.00  0.00     0.098 A 
HETATM   20  S1  UNL     1       6.485   3.788   0.670  1.00  0.00    -0.009 SA
HETATM   21  N5  UNL     1       6.358   3.634  -1.000  1.00  0.00    -0.270 N 
HETATM   22  N6  UNL     1       6.145   2.369  -1.175  1.00  0.00    -0.296 N 
ATOM     23  H5  UNL     1       6.431   4.365  -1.708  1.00  0.00     0.195 HD
ATOM     24  H6  UNL     1       6.027   1.998  -2.118  1.00  0.00     0.187 HD
ENDBRANCH  13  18
ENDBRANCH   5   6
ENDBRANCH   3   5
BRANCH   1  25
HETATM   25  C7  UNL     1      -0.261   1.549  -0.386  1.00  0.00     0.180 C 
BRANCH  25  26
HETATM   26  C6  UNL     1      -1.282   0.556  -0.018  1.00  0.00     0.241 C 
HETATM   27  N1  UNL     1      -2.652   0.728   0.078  1.00  0.00    -0.347 N 
ATOM     28  H1  UNL     1      -3.048   1.649  -0.110  1.00  0.00     0.163 HD
HETATM   29  O2  UNL     1      -0.827  -0.610   0.245  1.00  0.00    -0.271 OA
BRANCH  27  30
HETATM   30  C5  UNL     1      -3.574  -0.396   0.449  1.00  0.00     0.158 C 
BRANCH  30  31
HETATM   31  C4  UNL     1      -4.606  -0.493  -0.589  1.00  0.00     0.153 C 
HETATM   32  O1  UNL     1      -5.187   0.571  -0.924  1.00  0.00    -0.295 OA
BRANCH  31  33
HETATM   33  C2  UNL     1      -5.021  -1.689  -1.288  1.00  0.00     0.049 C 
HETATM   34  C1  UNL     1      -5.575  -2.844  -0.521  1.00  0.00     0.017 C 
HETATM   35  C3  UNL     1      -6.062  -1.324  -2.371  1.00  0.00     0.017 C 
ENDBRANCH  31  33
ENDBRANCH  30  31
BRANCH  30  36
HETATM   36  C22 UNL     1      -4.053  -0.102   1.835  1.00  0.00     0.007 C 
HETATM   37  C23 UNL     1      -4.976  -1.149   2.361  1.00  0.00     0.012 C 
HETATM   38  C24 UNL     1      -4.752   1.236   1.976  1.00  0.00     0.012 C 
ENDBRANCH  30  36
ENDBRANCH  27  30
ENDBRANCH  25  26
BRANCH  25  39
HETATM   39  C19 UNL     1      -0.664   2.978  -0.282  1.00  0.00     0.009 C 
HETATM   40  C20 UNL     1      -1.087   3.447   1.068  1.00  0.00     0.012 C 
HETATM   41  C21 UNL     1      -1.617   3.396  -1.403  1.00  0.00     0.012 C 
ENDBRANCH  25  39
ENDBRANCH   1  25
TORSDOF 11
