REMARK  14 active torsions:
REMARK  status: ('A' for Active; 'I' for Inactive)
REMARK    1  A    between atoms: O1_2  and  N1_3 
REMARK    2  A    between atoms: C2_5  and  C3_6 
REMARK    3  A    between atoms: C2_5  and  N5_33 
REMARK    4  A    between atoms: C3_6  and  N2_7 
REMARK    5  A    between atoms: C3_6  and  C16_29 
REMARK       I    between atoms: N2_7  and  C4_9 
REMARK    6  A    between atoms: C4_9  and  C5_11 
REMARK    7  A    between atoms: C5_11  and  C6_12 
REMARK    8  A    between atoms: C6_12  and  C7_13 
REMARK    9  A    between atoms: C7_13  and  C8_14 
REMARK   10  A    between atoms: C8_14  and  C9_15 
REMARK   11  A    between atoms: C9_15  and  N3_16 
REMARK       I    between atoms: N4_20  and  C10_22 
REMARK   12  A    between atoms: C10_22  and  C11_24 
REMARK   13  A    between atoms: C11_24  and  C12_25 
REMARK   14  A    between atoms: C22_37  and  C23_38 
ROOT
HETATM    1  N2  UNL     1       0.936   0.244  -0.429  1.00  0.00    -0.344 N 
ATOM      2  H2  UNL     1       0.557   0.004  -1.345  1.00  0.00     0.163 HD
HETATM    3  C4  UNL     1       0.107   0.095   0.684  1.00  0.00     0.264 C 
HETATM    4  O2  UNL     1       0.538   0.378   1.815  1.00  0.00    -0.266 OA
ENDROOT
BRANCH   1   5
HETATM    5  C3  UNL     1       2.313   0.723  -0.360  1.00  0.00     0.161 C 
BRANCH   5   6
HETATM    6  C2  UNL     1       3.324  -0.324  -0.441  1.00  0.00     0.125 C 
HETATM    7  N1  UNL     1       3.053  -1.507  -0.839  1.00  0.00    -0.253 N 
ATOM      8  H1  UNL     1       3.812  -2.188  -0.870  1.00  0.00     0.195 HD
BRANCH   7   9
HETATM    9  O1  UNL     1       1.838  -1.906  -1.216  1.00  0.00    -0.284 OA
HETATM   10  C1  UNL     1       1.288  -3.195  -1.057  1.00  0.00     0.237 C 
ENDBRANCH   7   9
BRANCH   6  11
HETATM   11  N5  UNL     1       4.727  -0.158  -0.074  1.00  0.00    -0.343 N 
HETATM   12  C20 UNL     1       5.857  -0.225  -0.961  1.00  0.00     0.199 C 
HETATM   13  S1  UNL     1       7.081  -1.104   0.078  1.00  0.00    -0.147 SA
HETATM   14  C21 UNL     1       5.992  -1.269   1.564  1.00  0.00     0.112 C 
HETATM   15  C22 UNL     1       5.174   0.033   1.267  1.00  0.00     0.197 C 
BRANCH  15  16
HETATM   16  C23 UNL     1       6.106   1.118   1.552  1.00  0.00     0.197 C 
HETATM   17  O4  UNL     1       6.609   1.852   0.700  1.00  0.00    -0.646 OA
HETATM   18  O5  UNL     1       6.505   1.404   2.886  1.00  0.00    -0.646 OA
ENDBRANCH  15  16
ENDBRANCH   6  11
ENDBRANCH   5   6
BRANCH   5  19
HETATM   19  C16 UNL     1       2.403   1.840  -1.344  1.00  0.00    -0.024 C 
HETATM   20  C17 UNL     1       3.668   2.639  -1.263  1.00  0.00     0.017 C 
HETATM   21  C18 UNL     1       2.137   1.362  -2.770  1.00  0.00     0.017 C 
HETATM   22  C19 UNL     1       1.258   2.831  -1.068  1.00  0.00     0.017 C 
ENDBRANCH   5  19
ENDBRANCH   1   5
BRANCH   3  23
HETATM   23  C5  UNL     1      -1.291  -0.401   0.583  1.00  0.00     0.080 C 
HETATM   24  N4  UNL     1      -1.667  -0.704  -0.561  1.00  0.00    -0.326 N 
HETATM   25  C10 UNL     1      -2.744  -1.176  -1.242  1.00  0.00     0.222 C 
ATOM     26  H4  UNL     1      -0.903  -0.543  -1.217  1.00  0.00     0.168 HD
HETATM   27  O3  UNL     1      -2.689  -1.094  -2.524  1.00  0.00    -0.273 OA
BRANCH  23  28
HETATM   28  C6  UNL     1      -2.195  -0.479   1.738  1.00  0.00     0.063 C 
BRANCH  28  29
HETATM   29  C7  UNL     1      -2.864   0.759   2.181  1.00  0.00     0.008 C 
BRANCH  29  30
HETATM   30  C8  UNL     1      -2.033   1.901   2.599  1.00  0.00     0.027 C 
BRANCH  30  31
HETATM   31  C9  UNL     1      -2.962   3.056   3.034  1.00  0.00     0.229 C 
BRANCH  31  32
HETATM   32  N3  UNL     1      -3.806   2.662   4.134  1.00  0.00    -0.079 N 
ATOM     33  H33 UNL     1      -4.335   1.817   3.916  1.00  0.00     0.274 HD
ATOM     34  H32 UNL     1      -3.258   2.306   4.918  1.00  0.00     0.274 HD
ATOM     35  H31 UNL     1      -4.419   3.425   4.421  1.00  0.00     0.274 HD
ENDBRANCH  31  32
ENDBRANCH  30  31
ENDBRANCH  29  30
ENDBRANCH  28  29
ENDBRANCH  23  28
BRANCH  25  36
HETATM   36  C11 UNL     1      -3.936  -1.758  -0.664  1.00  0.00     0.111 C 
BRANCH  36  37
HETATM   37  C12 UNL     1      -4.979  -2.195  -1.652  1.00  0.00    -0.043 C 
HETATM   38  C13 UNL     1      -6.154  -2.777  -0.867  1.00  0.00     0.015 C 
HETATM   39  C14 UNL     1      -4.531  -3.230  -2.617  1.00  0.00     0.015 C 
HETATM   40  C15 UNL     1      -5.531  -1.020  -2.432  1.00  0.00     0.015 C 
ENDBRANCH  36  37
ENDBRANCH  25  36
ENDBRANCH   3  23
TORSDOF 14
