REMARK  13 active torsions:
REMARK  status: ('A' for Active; 'I' for Inactive)
REMARK    1  A    between atoms: C6_8  and  C7_9 
REMARK    2  A    between atoms: C8_12  and  C9_13 
REMARK    3  A    between atoms: C9_13  and  C10_14 
REMARK    4  A    between atoms: C10_14  and  C11_15 
REMARK    5  A    between atoms: C11_15  and  C12_16 
REMARK    6  A    between atoms: C12_16  and  C13_17 
REMARK    7  A    between atoms: C14_22  and  N5_23 
REMARK    8  A    between atoms: C15_25  and  O1_26 
REMARK    9  A    between atoms: C15_25  and  C16_28 
REMARK   10  A    between atoms: C16_28  and  C18_30 
REMARK   11  A    between atoms: C18_30  and  C19_31 
REMARK   12  A    between atoms: C19_31  and  C20_32 
REMARK   13  A    between atoms: C20_32  and  N6_33 
ROOT
HETATM    1  C13 UNL     1       0.695  -0.165  -0.914  1.00  0.00     0.069 A 
HETATM    2  N3  UNL     1       1.199   0.366   0.169  1.00  0.00    -0.296 N 
ATOM      3  H3  UNL     1       0.593   0.504   0.978  1.00  0.00     0.187 HD
HETATM    4  N4  UNL     1       2.414   0.715   0.248  1.00  0.00    -0.279 N 
ATOM      5  H4  UNL     1       2.772   1.127   1.110  1.00  0.00     0.189 HD
HETATM    6  C14 UNL     1       3.221   0.544  -0.794  1.00  0.00     0.166 A 
HETATM    7  S1  UNL     1       2.097  -0.172  -1.939  1.00  0.00    -0.038 SA
ENDROOT
BRANCH   1   8
HETATM    8  C12 UNL     1      -0.658  -0.668  -1.291  1.00  0.00     0.066 C 
BRANCH   8   9
HETATM    9  C11 UNL     1      -1.634  -0.519  -0.190  1.00  0.00     0.007 C 
BRANCH   9  10
HETATM   10  C10 UNL     1      -1.894   0.891   0.207  1.00  0.00     0.008 C 
BRANCH  10  11
HETATM   11  C9  UNL     1      -2.899   1.044   1.330  1.00  0.00     0.076 C 
BRANCH  11  12
HETATM   12  C8  UNL     1      -4.245   0.503   1.016  1.00  0.00     0.084 A 
HETATM   13  N2  UNL     1      -5.254   1.187   0.398  1.00  0.00    -0.343 N 
HETATM   14  C7  UNL     1      -6.360   0.425   0.280  1.00  0.00     0.068 A 
ATOM     15  H2  UNL     1      -5.180   2.150   0.069  1.00  0.00     0.167 HD
HETATM   16  C22 UNL     1      -6.045  -0.780   0.841  1.00  0.00     0.040 A 
HETATM   17  N9  UNL     1      -4.755  -0.707   1.281  1.00  0.00    -0.338 N 
HETATM   18  C23 UNL     1      -6.598  -2.129   1.140  1.00  0.00     0.061 C 
HETATM   19  C25 UNL     1      -4.381  -1.977   1.899  1.00  0.00     0.131 C 
HETATM   20  C24 UNL     1      -5.670  -2.720   2.184  1.00  0.00     0.026 C 
BRANCH  14  21
HETATM   21  C6  UNL     1      -7.612   0.869  -0.329  1.00  0.00     0.014 A 
HETATM   22  C2  UNL     1      -7.585   1.384  -1.600  1.00  0.00    -0.047 A 
HETATM   23  C1  UNL     1      -6.276   1.448  -2.310  1.00  0.00     0.049 C 
HETATM   24  C3  UNL     1      -8.739   1.832  -2.208  1.00  0.00     0.024 A 
HETATM   25  C4  UNL     1      -9.950   1.762  -1.526  1.00  0.00     0.088 A 
HETATM   26  N1  UNL     1      -9.962   1.262  -0.295  1.00  0.00    -0.374 N 
HETATM   27  C5  UNL     1      -8.838   0.816   0.319  1.00  0.00     0.101 A 
ATOM     28  H1  UNL     1     -10.849   1.212   0.206  1.00  0.00     0.164 HD
ENDBRANCH  14  21
ENDBRANCH  11  12
ENDBRANCH  10  11
ENDBRANCH   9  10
ENDBRANCH   8   9
ENDBRANCH   1   8
BRANCH   6  29
HETATM   29  N5  UNL     1       4.449   0.783  -1.032  1.00  0.00    -0.319 N 
HETATM   30  C15 UNL     1       5.434   1.326  -0.271  1.00  0.00     0.121 C 
ATOM     31  H5  UNL     1       4.749   0.517  -1.970  1.00  0.00     0.169 HD
BRANCH  30  32
HETATM   32  O1  UNL     1       5.820   2.535  -0.614  1.00  0.00    -0.349 OA
ATOM     33  H1  UNL     1       6.509   2.915  -0.082  1.00  0.00     0.219 HD
ENDBRANCH  30  32
BRANCH  30  34
HETATM   34  C16 UNL     1       6.119   0.727   0.894  1.00  0.00     0.056 C 
HETATM   35  C17 UNL     1       5.644   1.452   2.169  1.00  0.00     0.018 C 
BRANCH  34  36
HETATM   36  C18 UNL     1       5.892  -0.734   1.047  1.00  0.00     0.014 C 
BRANCH  36  37
HETATM   37  C19 UNL     1       6.335  -1.583  -0.084  1.00  0.00     0.020 C 
BRANCH  37  38
HETATM   38  C20 UNL     1       7.768  -1.562  -0.453  1.00  0.00     0.122 C 
BRANCH  38  39
HETATM   39  N6  UNL     1       8.252  -0.296  -0.923  1.00  0.00    -0.367 N 
HETATM   40  C21 UNL     1       9.504  -0.071  -1.099  1.00  0.00     0.196 C 
HETATM   41  N7  UNL     1       9.904   1.211  -1.566  1.00  0.00    -0.067 NA
HETATM   42  N8  UNL     1      10.431  -1.116  -0.818  1.00  0.00    -0.067 NA
ATOM     43  H6  UNL     1       7.582   0.447  -1.123  1.00  0.00     0.161 HD
ENDBRANCH  38  39
ENDBRANCH  37  38
ENDBRANCH  36  37
ENDBRANCH  34  36
ENDBRANCH  30  34
ENDBRANCH   6  29
TORSDOF 13
