REMARK  15 active torsions:
REMARK  status: ('A' for Active; 'I' for Inactive)
REMARK    1  A    between atoms: N2_5  and  C4_6 
REMARK    2  A    between atoms: C4_6  and  C5_7 
REMARK    3  A    between atoms: C5_7  and  C6_8 
REMARK    4  A    between atoms: C6_8  and  C7_9 
REMARK    5  A    between atoms: C7_9  and  C8_10 
REMARK    6  A    between atoms: C8_10  and  S1_11 
REMARK    7  A    between atoms: S1_11  and  C9_12 
REMARK    8  A    between atoms: C9_12  and  N5_19 
REMARK    9  A    between atoms: N3_13  and  C10_15 
REMARK   10  A    between atoms: C10_15  and  C11_16 
REMARK   11  A    between atoms: N5_19  and  C13_21 
REMARK   12  A    between atoms: C13_21  and  C14_22 
REMARK   13  A    between atoms: C14_22  and  N6_23 
REMARK       I    between atoms: N6_23  and  C15_25 
REMARK       I    between atoms: C15_25  and  N7_27 
REMARK   14  A    between atoms: N7_27  and  C16_29 
REMARK   15  A    between atoms: C18_31  and  C19_32 
ROOT
HETATM    1  C11 UNL     1      -1.435  -0.953  -3.803  1.00  0.00     0.168 C 
HETATM    2  C12 UNL     1      -0.691  -2.146  -3.435  1.00  0.00     0.064 C 
HETATM    3  N4  UNL     1      -0.097  -3.079  -3.174  1.00  0.00    -0.197 NA
ENDROOT
BRANCH   1   4
HETATM    4  C10 UNL     1      -0.592   0.260  -3.517  1.00  0.00     0.077 C 
BRANCH   4   5
HETATM    5  N3  UNL     1      -0.209   0.421  -2.196  1.00  0.00    -0.350 N 
HETATM    6  C9  UNL     1      -0.597   0.150  -1.057  1.00  0.00     0.139 C 
ATOM      7  H3  UNL     1       0.677   0.924  -2.150  1.00  0.00     0.167 HD
BRANCH   6   8
HETATM    8  S1  UNL     1      -2.109  -0.729  -0.716  1.00  0.00    -0.094 SA
BRANCH   8   9
HETATM    9  C8  UNL     1      -2.546  -0.556   1.045  1.00  0.00     0.082 C 
BRANCH   9  10
HETATM   10  C7  UNL     1      -3.077   0.792   1.376  1.00  0.00     0.010 C 
BRANCH  10  11
HETATM   11  C6  UNL     1      -4.398   1.137   0.790  1.00  0.00     0.002 C 
BRANCH  11  12
HETATM   12  C5  UNL     1      -4.532   1.013  -0.689  1.00  0.00     0.020 C 
BRANCH  12  13
HETATM   13  C4  UNL     1      -5.961   1.508  -1.012  1.00  0.00     0.122 C 
BRANCH  13  14
HETATM   14  N2  UNL     1      -6.885   0.734  -0.288  1.00  0.00    -0.387 N 
HETATM   15  C3  UNL     1      -7.088  -0.616  -0.592  1.00  0.00     0.102 C 
HETATM   16  C2  UNL     1      -8.299  -1.261  -0.011  1.00  0.00     0.102 C 
HETATM   17  N1  UNL     1      -9.019  -0.549   0.959  1.00  0.00    -0.391 N 
HETATM   18  C1  UNL     1      -9.853  -1.296   1.839  1.00  0.00     0.148 C 
HETATM   19  C24 UNL     1      -8.402   0.593   1.533  1.00  0.00     0.141 C 
HETATM   20  C23 UNL     1      -7.939   1.455   0.356  1.00  0.00     0.142 C 
ENDBRANCH  13  14
ENDBRANCH  12  13
ENDBRANCH  11  12
ENDBRANCH  10  11
ENDBRANCH   9  10
ENDBRANCH   8   9
ENDBRANCH   6   8
BRANCH   6  21
HETATM   21  N5  UNL     1       0.195   0.561   0.055  1.00  0.00    -0.369 N 
ATOM     22  H5  UNL     1      -0.222   0.887   0.927  1.00  0.00     0.161 HD
BRANCH  21  23
HETATM   23  C13 UNL     1       1.660   0.485  -0.135  1.00  0.00     0.141 C 
BRANCH  23  24
HETATM   24  C14 UNL     1       1.948  -0.988  -0.236  1.00  0.00     0.144 C 
BRANCH  24  25
HETATM   25  N6  UNL     1       3.316  -1.307  -0.389  1.00  0.00    -0.341 N 
HETATM   26  C15 UNL     1       4.321  -1.009   0.582  1.00  0.00     0.321 C 
HETATM   27  O1  UNL     1       3.937  -0.409   1.630  1.00  0.00    -0.247 OA
HETATM   28  N7  UNL     1       5.673  -1.365   0.390  1.00  0.00    -0.293 N 
ATOM     29  H7  UNL     1       5.885  -2.307   0.063  1.00  0.00     0.172 HD
ATOM     30  H6  UNL     1       3.604  -1.779  -1.246  1.00  0.00     0.164 HD
BRANCH  28  31
HETATM   31  C16 UNL     1       6.641  -0.566   0.606  1.00  0.00     0.132 A 
HETATM   32  C17 UNL     1       8.009  -0.810   0.453  1.00  0.00     0.086 A 
HETATM   33  C18 UNL     1       8.684   0.343   0.804  1.00  0.00     0.087 A 
HETATM   34  O2  UNL     1       7.756   1.207   1.141  1.00  0.00    -0.240 OA
HETATM   35  N8  UNL     1       6.557   0.696   1.033  1.00  0.00    -0.245 N 
ATOM     36  H8  UNL     1       5.688   1.188   1.243  1.00  0.00     0.196 HD
BRANCH  33  37
HETATM   37  C19 UNL     1      10.153   0.551   0.800  1.00  0.00     0.000 C 
HETATM   38  C20 UNL     1      10.886  -0.777   0.639  1.00  0.00     0.021 C 
HETATM   39  C21 UNL     1      10.601   1.443  -0.338  1.00  0.00     0.021 C 
HETATM   40  C22 UNL     1      10.612   1.152   2.127  1.00  0.00     0.021 C 
ENDBRANCH  33  37
ENDBRANCH  28  31
ENDBRANCH  24  25
ENDBRANCH  23  24
ENDBRANCH  21  23
ENDBRANCH   6  21
ENDBRANCH   4   5
ENDBRANCH   1   4
TORSDOF 15
