REMARK  1 active torsions:
REMARK  status: ('A' for Active; 'I' for Inactive)
REMARK    1  A    between atoms: O1_1  and  N1_3 
ROOT
HETATM    1  N1  UNL     1       2.427   0.340   0.150  1.00  0.00    -0.246 N 
HETATM    2  C1  UNL     1       2.308  -0.985  -0.050  1.00  0.00     0.123 A 
HETATM    3  C2  UNL     1       1.028  -1.490  -0.178  1.00  0.00     0.032 A 
HETATM    4  C3  UNL     1      -0.098  -0.691  -0.106  1.00  0.00    -0.023 A 
HETATM    5  C4  UNL     1      -1.378  -1.180  -0.231  1.00  0.00     0.012 A 
HETATM    6  C5  UNL     1      -2.498  -0.379  -0.159  1.00  0.00     0.001 A 
HETATM    7  C6  UNL     1      -2.338   0.975   0.048  1.00  0.00     0.001 A 
HETATM    8  C7  UNL     1      -1.051   1.480   0.175  1.00  0.00     0.014 A 
HETATM    9  C8  UNL     1       0.062   0.666   0.101  1.00  0.00    -0.008 A 
HETATM   10  C9  UNL     1       1.349   1.153   0.226  1.00  0.00     0.134 A 
ENDROOT
BRANCH   1  11
HETATM   11  O1  UNL     1       3.701   0.850   0.277  1.00  0.00    -0.284 OA
ATOM     12  H1  UNL     1       3.785   1.786   0.418  1.00  0.00     0.245 HD
ENDBRANCH   1  11
TORSDOF 1
