REMARK  17 active torsions:
REMARK  status: ('A' for Active; 'I' for Inactive)
REMARK    1  A    between atoms: C2_2  and  N1_3 
REMARK    2  A    between atoms: C2_2  and  N2_6 
REMARK    3  A    between atoms: N2_6  and  C3_8 
REMARK    4  A    between atoms: C3_8  and  C4_9 
REMARK    5  A    between atoms: C4_9  and  N3_10 
REMARK    6  A    between atoms: N3_10  and  C5_13 
REMARK    7  A    between atoms: C5_13  and  C6_14 
REMARK    8  A    between atoms: N5_17  and  C8_18 
REMARK    9  A    between atoms: C8_18  and  C9_19 
REMARK   10  A    between atoms: C9_19  and  O1_20 
REMARK   11  A    between atoms: C9_19  and  C10_22 
REMARK   12  A    between atoms: C10_22  and  C11_23 
REMARK   13  A    between atoms: C11_23  and  O2_24 
REMARK   14  A    between atoms: C11_23  and  C12_26 
REMARK   15  A    between atoms: C12_26  and  N6_27 
REMARK   16  A    between atoms: C15_33  and  C16_34 
REMARK       I    between atoms: C16_34  and  N8_36 
REMARK   17  A    between atoms: N8_36  and  C17_38 
ROOT
HETATM    1  C11 UNL     1       1.617  -0.927   0.625  1.00  0.00     0.158 C 
ENDROOT
BRANCH   1   2
HETATM    2  C10 UNL     1       0.222  -0.291   0.390  1.00  0.00     0.070 C 
BRANCH   2   3
HETATM    3  C9  UNL     1      -0.689  -0.744   1.476  1.00  0.00     0.140 C 
BRANCH   3   4
HETATM    4  C8  UNL     1      -2.116  -0.169   1.340  1.00  0.00     0.170 C 
BRANCH   4   5
HETATM    5  N5  UNL     1      -2.760  -0.796   0.327  1.00  0.00    -0.321 N 
HETATM    6  C6  UNL     1      -3.999  -0.637  -0.249  1.00  0.00     0.140 C 
HETATM    7  C7  UNL     1      -3.638  -1.946  -0.987  1.00  0.00     0.162 C 
HETATM    8  N4  UNL     1      -2.302  -1.583  -0.632  1.00  0.00    -0.141 NA
BRANCH   6   9
HETATM    9  C5  UNL     1      -4.198   0.409  -1.310  1.00  0.00     0.259 C 
BRANCH   9  10
HETATM   10  N3  UNL     1      -4.623   1.691  -0.852  1.00  0.00    -0.072 N 
ATOM     11  H32 UNL     1      -4.517   2.403  -1.575  1.00  0.00     0.277 HD
ATOM     12  H31 UNL     1      -3.980   2.076  -0.160  1.00  0.00     0.277 HD
BRANCH  10  13
HETATM   13  C4  UNL     1      -5.996   1.637  -0.343  1.00  0.00     0.251 C 
BRANCH  13  14
HETATM   14  C3  UNL     1      -6.973   1.312  -1.430  1.00  0.00     0.148 C 
BRANCH  14  15
HETATM   15  N2  UNL     1      -8.333   1.251  -0.922  1.00  0.00    -0.379 N 
ATOM     16  H2  UNL     1      -9.031   1.934  -1.216  1.00  0.00     0.160 HD
BRANCH  15  17
HETATM   17  C2  UNL     1      -8.668   0.219  -0.007  1.00  0.00     0.066 C 
HETATM   18  C1  UNL     1      -9.145   0.619   1.375  1.00  0.00     0.088 C 
BRANCH  17  19
HETATM   19  N1  UNL     1      -8.595  -1.000  -0.281  1.00  0.00    -0.389 N 
ATOM     20  H12 UNL     1      -8.836  -1.742   0.377  1.00  0.00     0.157 HD
ATOM     21  H11 UNL     1      -8.274  -1.269  -1.211  1.00  0.00     0.157 HD
ENDBRANCH  17  19
ENDBRANCH  15  17
ENDBRANCH  14  15
ENDBRANCH  13  14
ENDBRANCH  10  13
ENDBRANCH   9  10
ENDBRANCH   6   9
ENDBRANCH   4   5
ENDBRANCH   3   4
BRANCH   3  22
HETATM   22  O1  UNL     1      -0.693  -2.101   1.709  1.00  0.00    -0.394 OA
ATOM     23  H1  UNL     1       0.185  -2.455   1.793  1.00  0.00     0.210 HD
ENDBRANCH   3  22
ENDBRANCH   2   3
ENDBRANCH   1   2
BRANCH   1  24
HETATM   24  O2  UNL     1       1.959  -0.468   1.898  1.00  0.00    -0.390 OA
ATOM     25  H2  UNL     1       2.813  -0.858   2.042  1.00  0.00     0.210 HD
ENDBRANCH   1  24
BRANCH   1  26
HETATM   26  C12 UNL     1       2.504  -0.442  -0.473  1.00  0.00     0.092 C 
BRANCH  26  27
HETATM   27  N6  UNL     1       3.868  -0.728  -0.417  1.00  0.00    -0.355 N 
HETATM   28  C13 UNL     1       4.237  -2.113  -0.634  1.00  0.00     0.152 C 
HETATM   29  C14 UNL     1       5.207  -2.418   0.503  1.00  0.00     0.255 C 
HETATM   30  N7  UNL     1       5.799  -1.112   0.770  1.00  0.00    -0.044 N 
HETATM   31  C15 UNL     1       4.703  -0.143   0.579  1.00  0.00     0.379 C 
ATOM     32  H72 UNL     1       6.254  -1.045   1.680  1.00  0.00     0.280 HD
ATOM     33  H71 UNL     1       6.627  -0.913   0.209  1.00  0.00     0.280 HD
BRANCH  31  34
HETATM   34  C16 UNL     1       5.336   1.085  -0.081  1.00  0.00     0.274 C 
HETATM   35  O3  UNL     1       5.191   1.345  -1.276  1.00  0.00    -0.269 OA
HETATM   36  N8  UNL     1       6.131   1.915   0.770  1.00  0.00    -0.304 N 
ATOM     37  H8  UNL     1       5.740   2.397   1.580  1.00  0.00     0.171 HD
BRANCH  36  38
HETATM   38  C17 UNL     1       7.384   2.015   0.444  1.00  0.00     0.154 A 
HETATM   39  N9  UNL     1       7.981   1.434  -0.600  1.00  0.00    -0.346 N 
HETATM   40  C18 UNL     1       9.263   1.416  -0.928  1.00  0.00     0.095 A 
ATOM     41  H9  UNL     1       7.360   0.933  -1.235  1.00  0.00     0.167 HD
HETATM   42  C19 UNL     1      10.289   2.013  -0.235  1.00  0.00     0.080 A 
HETATM   43  C20 UNL     1      10.114   2.734   0.924  1.00  0.00     0.217 A 
HETATM   44  O4  UNL     1      11.145   3.248   1.494  1.00  0.00    -0.280 OA
HETATM   45  S1  UNL     1       8.510   2.857   1.482  1.00  0.00    -0.012 SA
ENDBRANCH  36  38
ENDBRANCH  31  34
ENDBRANCH  26  27
ENDBRANCH   1  26
TORSDOF 17
