REMARK  2 active torsions:
REMARK  status: ('A' for Active; 'I' for Inactive)
REMARK    1  A    between atoms: O1_2  and  C2_3 
REMARK    2  A    between atoms: C6_8  and  O2_9 
ROOT
HETATM    1  C2  UNL     1       0.689   0.159   0.073  1.00  0.00     0.263 C 
HETATM    2  C3  UNL     1      -0.258   0.420  -1.029  1.00  0.00     0.061 C 
HETATM    3  C4  UNL     1      -1.633   0.810  -0.652  1.00  0.00     0.015 C 
HETATM    4  C5  UNL     1      -1.997   0.615   0.776  1.00  0.00     0.079 C 
HETATM    5  S1  UNL     1      -2.097  -1.199   1.040  1.00  0.00    -0.110 SA
HETATM    6  C6  UNL     1      -0.471  -1.821   0.461  1.00  0.00     0.325 C 
HETATM    7  O3  UNL     1       0.471  -0.929   0.846  1.00  0.00    -0.323 OA
ENDROOT
BRANCH   1   8
HETATM    8  O1  UNL     1       1.976   0.022  -0.482  1.00  0.00    -0.366 OA
HETATM    9  C1  UNL     1       2.845   1.001  -0.028  1.00  0.00     0.204 C 
ENDBRANCH   1   8
BRANCH   6  10
HETATM   10  O2  UNL     1      -0.256  -3.012   1.195  1.00  0.00    -0.362 OA
ATOM     11  H2  UNL     1       0.586  -3.334   0.895  1.00  0.00     0.213 HD
ENDBRANCH   6  10
TORSDOF 2
