REMARK  2 active torsions:
REMARK  status: ('A' for Active; 'I' for Inactive)
REMARK    1  A    between atoms: S1_2  and  C2_3 
REMARK    2  A    between atoms: C2_3  and  O1_4 
ROOT
HETATM    1  C2  UNL     1       0.794   0.112   0.194  1.00  0.00     0.239 C 
HETATM    2  C3  UNL     1       0.274  -0.477  -1.116  1.00  0.00     0.252 C 
HETATM    3  O2  UNL     1      -0.962   0.197  -1.119  1.00  0.00    -0.349 OA
HETATM    4  C4  UNL     1      -1.420  -0.114   0.162  1.00  0.00     0.161 C 
HETATM    5  C5  UNL     1      -2.398   0.895   0.693  1.00  0.00     0.078 C 
HETATM    6  C6  UNL     1      -2.178  -1.429   0.006  1.00  0.00     0.078 C 
HETATM    7  O3  UNL     1      -0.310  -0.253   0.983  1.00  0.00    -0.308 OA
ENDROOT
BRANCH   1   8
HETATM    8  S1  UNL     1       2.334  -0.570   0.743  1.00  0.00    -0.104 SA
HETATM    9  C1  UNL     1       3.695   0.304  -0.078  1.00  0.00     0.095 C 
ENDBRANCH   1   8
BRANCH   1  10
HETATM   10  O1  UNL     1       0.901   1.500   0.068  1.00  0.00    -0.355 OA
ATOM     11  H1  UNL     1       0.075   1.866  -0.226  1.00  0.00     0.214 HD
ENDBRANCH   1  10
TORSDOF 2
