REMARK  7 active torsions:
REMARK  status: ('A' for Active; 'I' for Inactive)
REMARK    1  A    between atoms: C2_2  and  C3_3 
REMARK    2  A    between atoms: C3_3  and  C4_4 
REMARK    3  A    between atoms: C4_4  and  C5_5 
REMARK    4  A    between atoms: C6_8  and  O1_9 
REMARK    5  A    between atoms: C7_11  and  C8_12 
REMARK    6  A    between atoms: C12_19  and  C13_20 
REMARK    7  A    between atoms: C13_20  and  C14_21 
ROOT
HETATM    1  C5  UNL     1      -3.007   0.003  -1.650  1.00  0.00     0.175 C 
HETATM    2  N1  UNL     1      -1.730   0.295  -2.204  1.00  0.00    -0.359 N 
ATOM      3  H1  UNL     1      -1.380  -0.456  -2.799  1.00  0.00     0.162 HD
HETATM    4  C6  UNL     1      -0.855   1.359  -2.123  1.00  0.00     0.135 C 
HETATM    5  C7  UNL     1      -0.121   2.003  -1.031  1.00  0.00     0.162 C 
HETATM    6  N2  UNL     1       1.316   1.687  -1.181  1.00  0.00    -0.347 N 
ATOM      7  H2  UNL     1       1.915   2.414  -1.572  1.00  0.00     0.163 HD
HETATM    8  C11 UNL     1       1.920   0.482  -0.834  1.00  0.00     0.241 C 
HETATM    9  O2  UNL     1       2.681  -0.060  -1.715  1.00  0.00    -0.271 OA
HETATM   10  C12 UNL     1       1.774  -0.246   0.455  1.00  0.00     0.176 C 
HETATM   11  N3  UNL     1       2.719  -1.347   0.552  1.00  0.00    -0.346 N 
ATOM     12  H3  UNL     1       3.709  -1.103   0.588  1.00  0.00     0.163 HD
HETATM   13  C16 UNL     1       2.400  -2.712   0.601  1.00  0.00     0.240 C 
HETATM   14  O3  UNL     1       2.939  -3.394   1.541  1.00  0.00    -0.271 OA
HETATM   15  C17 UNL     1       1.500  -3.430  -0.338  1.00  0.00     0.172 C 
HETATM   16  C18 UNL     1       2.184  -4.701  -0.814  1.00  0.00     0.042 C 
HETATM   17  N4  UNL     1       0.253  -3.851   0.248  1.00  0.00    -0.347 N 
ATOM     18  H4  UNL     1       0.240  -4.238   1.192  1.00  0.00     0.163 HD
HETATM   19  C19 UNL     1      -0.959  -3.729  -0.483  1.00  0.00     0.236 C 
HETATM   20  O4  UNL     1      -1.944  -4.482  -0.294  1.00  0.00    -0.272 OA
HETATM   21  C20 UNL     1      -1.030  -2.657  -1.504  1.00  0.00     0.225 C 
HETATM   22  N5  UNL     1      -2.332  -2.467  -2.083  1.00  0.00    -0.351 N 
ATOM     23  H5  UNL     1      -2.592  -3.146  -2.799  1.00  0.00     0.163 HD
HETATM   24  C21 UNL     1      -3.291  -1.496  -1.813  1.00  0.00     0.240 C 
HETATM   25  O5  UNL     1      -4.506  -1.791  -1.677  1.00  0.00    -0.271 OA
ENDROOT
BRANCH   1  26
HETATM   26  C4  UNL     1      -3.356   0.362  -0.271  1.00  0.00     0.035 C 
BRANCH  26  27
HETATM   27  C3  UNL     1      -2.597  -0.281   0.847  1.00  0.00     0.002 C 
BRANCH  27  28
HETATM   28  C2  UNL     1      -3.086   0.236   2.201  1.00  0.00    -0.004 C 
HETATM   29  C1  UNL     1      -2.254  -0.478   3.254  1.00  0.00     0.005 C 
ENDBRANCH  27  28
ENDBRANCH  26  27
ENDBRANCH   1  26
BRANCH   4  30
HETATM   30  O1  UNL     1      -0.597   1.950  -3.258  1.00  0.00    -0.348 OA
ATOM     31  H1  UNL     1       0.005   2.682  -3.202  1.00  0.00     0.219 HD
ENDBRANCH   4  30
BRANCH   5  32
HETATM   32  C8  UNL     1      -0.307   3.513  -1.070  1.00  0.00     0.008 C 
HETATM   33  C9  UNL     1       0.154   4.185  -2.300  1.00  0.00     0.012 C 
HETATM   34  C10 UNL     1       0.261   4.117   0.199  1.00  0.00     0.012 C 
ENDBRANCH   5  32
BRANCH  10  35
HETATM   35  C13 UNL     1       2.038   0.672   1.631  1.00  0.00     0.034 C 
BRANCH  35  36
HETATM   36  C14 UNL     1       3.423   1.261   1.609  1.00  0.00    -0.002 C 
HETATM   37  C15 UNL     1       3.508   2.161   2.854  1.00  0.00     0.005 C 
ENDBRANCH  35  36
ENDBRANCH  10  35
TORSDOF 7
