REMARK  6 active torsions:
REMARK  status: ('A' for Active; 'I' for Inactive)
REMARK    1  A    between atoms: C2_2  and  O1_3 
REMARK    2  A    between atoms: O1_3  and  N1_4 
REMARK    3  A    between atoms: N1_4  and  C3_6 
REMARK    4  A    between atoms: C3_6  and  N2_8 
REMARK    5  A    between atoms: N2_8  and  C4_10 
REMARK    6  A    between atoms: C5_15  and  C6_16 
ROOT
HETATM    1  C4  UNL     1       0.907  -0.010  -0.837  1.00  0.00     0.167 A 
HETATM    2  N3  UNL     1       0.097  -0.998  -1.216  1.00  0.00    -0.279 N 
ATOM      3  H3  UNL     1       0.466  -1.818  -1.697  1.00  0.00     0.189 HD
HETATM    4  N4  UNL     1      -1.149  -0.897  -0.965  1.00  0.00    -0.295 N 
ATOM      5  H4  UNL     1      -1.787  -1.641  -1.246  1.00  0.00     0.187 HD
HETATM    6  C5  UNL     1      -1.613   0.167  -0.343  1.00  0.00     0.082 A 
HETATM    7  S2  UNL     1      -0.199   1.077  -0.100  1.00  0.00    -0.037 SA
ENDROOT
BRANCH   1   8
HETATM    8  N2  UNL     1       2.209   0.071  -1.003  1.00  0.00    -0.311 N 
ATOM      9  H2  UNL     1       2.720  -0.678  -1.470  1.00  0.00     0.170 HD
BRANCH   8  10
HETATM   10  C3  UNL     1       2.893   1.220  -0.520  1.00  0.00     0.197 C 
HETATM   11  S1  UNL     1       2.126   2.632  -0.247  1.00  0.00    -0.039 SA
BRANCH  10  12
HETATM   12  N1  UNL     1       4.274   1.131  -0.273  1.00  0.00    -0.241 N 
ATOM     13  H1  UNL     1       4.786   1.942   0.073  1.00  0.00     0.197 HD
BRANCH  12  14
HETATM   14  O1  UNL     1       4.916  -0.029  -0.495  1.00  0.00    -0.279 OA
BRANCH  14  15
HETATM   15  C2  UNL     1       5.803  -0.364   0.519  1.00  0.00     0.197 C 
HETATM   16  C1  UNL     1       6.448  -1.675   0.144  1.00  0.00     0.036 C 
ENDBRANCH  14  15
ENDBRANCH  12  14
ENDBRANCH  10  12
ENDBRANCH   8  10
ENDBRANCH   1   8
BRANCH   6  17
HETATM   17  C6  UNL     1      -3.026   0.521   0.067  1.00  0.00     0.028 A 
HETATM   18  C7  UNL     1      -3.001   2.038   0.289  1.00  0.00     0.027 C 
HETATM   19  C8  UNL     1      -3.967   0.253  -1.008  1.00  0.00    -0.010 A 
HETATM   20  C9  UNL     1      -5.016  -0.530  -0.910  1.00  0.00    -0.003 A 
HETATM   21  C10 UNL     1      -5.342  -1.225   0.333  1.00  0.00    -0.004 A 
HETATM   22  C11 UNL     1      -4.522  -1.015   1.336  1.00  0.00    -0.025 A 
HETATM   23  C12 UNL     1      -3.332  -0.172   1.343  1.00  0.00     0.047 A 
ENDBRANCH   6  17
TORSDOF 6
