REMARK  11 active torsions:
REMARK  status: ('A' for Active; 'I' for Inactive)
REMARK    1  A    between atoms: C2_2  and  C3_4 
REMARK    2  A    between atoms: C3_4  and  C4_5 
REMARK    3  A    between atoms: C4_5  and  C5_6 
REMARK    4  A    between atoms: C5_6  and  C6_7 
REMARK    5  A    between atoms: C6_7  and  C7_8 
REMARK    6  A    between atoms: C6_7  and  O2_12 
REMARK    7  A    between atoms: O2_12  and  C11_13 
REMARK    8  A    between atoms: C18_20  and  O3_21 
REMARK    9  A    between atoms: C26_30  and  C27_31 
REMARK   10  A    between atoms: C29_34  and  O5_35 
REMARK   11  A    between atoms: C33_40  and  O6_41 
ROOT
HETATM    1  C11 UNL     1       2.247  -0.403  -0.723  1.00  0.00     0.261 C 
HETATM    2  C12 UNL     1       1.666  -1.744  -0.356  1.00  0.00     0.061 C 
HETATM    3  C13 UNL     1       0.225  -1.920  -0.724  1.00  0.00     0.017 C 
HETATM    4  C14 UNL     1      -0.614  -0.671  -0.552  1.00  0.00    -0.010 C 
HETATM    5  C15 UNL     1      -0.863  -0.163  -1.956  1.00  0.00     0.018 C 
HETATM    6  C16 UNL     1       0.231   0.419   0.115  1.00  0.00     0.136 C 
HETATM    7  C17 UNL     1      -0.566   1.699  -0.014  1.00  0.00     0.065 C 
HETATM    8  C18 UNL     1      -1.989   1.615   0.359  1.00  0.00     0.128 C 
HETATM    9  C19 UNL     1      -2.424   0.284   0.945  1.00  0.00     0.058 C 
HETATM   10  C20 UNL     1      -1.876  -0.912   0.249  1.00  0.00    -0.025 C 
HETATM   11  C21 UNL     1      -1.436  -1.907   1.349  1.00  0.00     0.016 C 
HETATM   12  C22 UNL     1      -2.824  -1.658  -0.624  1.00  0.00     0.011 C 
HETATM   13  C23 UNL     1      -4.236  -1.760  -0.137  1.00  0.00     0.014 C 
HETATM   14  C24 UNL     1      -4.739  -0.367   0.121  1.00  0.00    -0.005 C 
HETATM   15  C25 UNL     1      -4.883   0.373  -1.140  1.00  0.00     0.019 C 
HETATM   16  C26 UNL     1      -6.079  -0.347   0.865  1.00  0.00     0.032 C 
HETATM   17  C31 UNL     1      -6.017   0.887   1.740  1.00  0.00     0.013 C 
HETATM   18  C32 UNL     1      -4.607   1.475   1.507  1.00  0.00     0.040 C 
HETATM   19  C33 UNL     1      -3.872   0.215   1.183  1.00  0.00     0.072 C 
HETATM   20  O7  UNL     1       1.345   0.617  -0.723  1.00  0.00    -0.355 OA
ENDROOT
BRANCH   1  21
HETATM   21  O2  UNL     1       3.295  -0.093   0.112  1.00  0.00    -0.352 OA
BRANCH  21  22
HETATM   22  C6  UNL     1       4.530   0.008  -0.553  1.00  0.00     0.147 C 
BRANCH  22  23
HETATM   23  C5  UNL     1       5.357  -1.128  -0.115  1.00  0.00     0.036 C 
BRANCH  23  24
HETATM   24  C4  UNL     1       6.607  -1.372  -0.858  1.00  0.00     0.010 C 
BRANCH  24  25
HETATM   25  C3  UNL     1       7.607  -0.279  -0.834  1.00  0.00     0.078 C 
BRANCH  25  26
HETATM   26  C2  UNL     1       8.821  -0.812  -1.585  1.00  0.00     0.123 C 
HETATM   27  C1  UNL     1      10.124  -0.834  -0.882  1.00  0.00     0.091 C 
HETATM   28  O1  UNL     1       8.725  -1.211  -2.727  1.00  0.00    -0.298 OA
ENDBRANCH  25  26
ENDBRANCH  24  25
ENDBRANCH  23  24
ENDBRANCH  22  23
BRANCH  22  29
HETATM   29  C7  UNL     1       5.083   1.358  -0.484  1.00  0.00     0.007 C 
HETATM   30  C8  UNL     1       5.409   2.049   0.573  1.00  0.00    -0.089 C 
HETATM   31  C9  UNL     1       5.242   1.499   1.934  1.00  0.00     0.042 C 
HETATM   32  C10 UNL     1       5.960   3.419   0.444  1.00  0.00     0.042 C 
ENDBRANCH  22  29
ENDBRANCH  21  22
ENDBRANCH   1  21
BRANCH   8  33
HETATM   33  O3  UNL     1      -2.183   2.580   1.385  1.00  0.00    -0.395 OA
ATOM     34  H3  UNL     1      -3.100   2.526   1.625  1.00  0.00     0.210 HD
ENDBRANCH   8  33
BRANCH  19  35
HETATM   35  O6  UNL     1      -4.089  -0.620   2.316  1.00  0.00    -0.389 OA
ATOM     36  H6  UNL     1      -5.025  -0.665   2.470  1.00  0.00     0.210 HD
ENDBRANCH  19  35
BRANCH  16  37
HETATM   37  C27 UNL     1      -7.235  -0.355  -0.028  1.00  0.00    -0.026 A 
HETATM   38  C28 UNL     1      -7.967  -1.507  -0.350  1.00  0.00     0.152 A 
HETATM   39  O4  UNL     1      -8.930  -1.132  -1.154  1.00  0.00    -0.300 OA
HETATM   40  C29 UNL     1      -8.903   0.146  -1.391  1.00  0.00     0.183 A 
HETATM   41  C30 UNL     1      -7.834   0.679  -0.690  1.00  0.00     0.073 A 
BRANCH  40  42
HETATM   42  O5  UNL     1      -9.782   0.843  -2.195  1.00  0.00    -0.341 OA
ATOM     43  H5  UNL     1      -9.762   1.777  -2.368  1.00  0.00     0.220 HD
ENDBRANCH  40  42
ENDBRANCH  16  37
TORSDOF 11
