REMARK  11 active torsions:
REMARK  status: ('A' for Active; 'I' for Inactive)
REMARK    1  A    between atoms: C2_2  and  O1_3 
REMARK    2  A    between atoms: O1_3  and  N1_4 
REMARK    3  A    between atoms: C4_7  and  C5_8 
REMARK    4  A    between atoms: C5_8  and  C6_10 
REMARK    5  A    between atoms: C6_10  and  C7_11 
REMARK    6  A    between atoms: C7_11  and  C8_12 
REMARK    7  A    between atoms: C8_12  and  O3_13 
REMARK    8  A    between atoms: C8_12  and  C9_15 
REMARK    9  A    between atoms: C13_19  and  O4_20 
REMARK   10  A    between atoms: C14_22  and  O5_23 
REMARK   11  A    between atoms: C25_34  and  N2_35 
ROOT
HETATM    1  N1  UNL     1       0.469   1.466   1.531  1.00  0.00    -0.273 N 
ATOM      2  H1  UNL     1       1.485   1.381   1.564  1.00  0.00     0.193 HD
HETATM    3  C3  UNL     1      -0.017   0.353   1.697  1.00  0.00     0.030 C 
HETATM    4  C4  UNL     1       0.869  -0.821   1.899  1.00  0.00     0.103 C 
HETATM    5  C17 UNL     1       0.824  -1.745   0.693  1.00  0.00     0.018 C 
HETATM    6  C18 UNL     1      -0.427  -1.370  -0.079  1.00  0.00     0.007 C 
HETATM    7  C19 UNL     1      -1.630  -1.200   0.867  1.00  0.00     0.004 C 
HETATM    8  C20 UNL     1      -2.892  -1.364   0.138  1.00  0.00    -0.001 C 
HETATM    9  C21 UNL     1      -3.827  -2.417   0.719  1.00  0.00     0.033 C 
HETATM   10  C22 UNL     1      -5.135  -2.388   0.029  1.00  0.00    -0.023 C 
HETATM   11  C23 UNL     1      -5.522  -1.494  -0.871  1.00  0.00    -0.073 C 
HETATM   12  C24 UNL     1      -6.864  -1.581  -1.488  1.00  0.00     0.067 C 
HETATM   13  C25 UNL     1      -7.610  -0.266  -1.424  1.00  0.00     0.187 C 
HETATM   14  C26 UNL     1      -6.747   0.862  -0.946  1.00  0.00     0.034 C 
HETATM   15  C27 UNL     1      -5.437   0.797  -1.685  1.00  0.00     0.016 C 
HETATM   16  C28 UNL     1      -4.596  -0.378  -1.271  1.00  0.00    -0.017 C 
HETATM   17  C29 UNL     1      -3.833  -0.862  -2.497  1.00  0.00     0.020 C 
HETATM   18  C30 UNL     1      -3.731  -0.148  -0.091  1.00  0.00     0.003 C 
HETATM   19  C31 UNL     1      -2.897   1.070  -0.059  1.00  0.00     0.007 C 
HETATM   20  C32 UNL     1      -2.390   1.135   1.396  1.00  0.00     0.016 C 
HETATM   21  C33 UNL     1      -1.464   0.036   1.717  1.00  0.00     0.001 C 
HETATM   22  C34 UNL     1      -1.752  -0.341   3.187  1.00  0.00     0.022 C 
ENDROOT
BRANCH   4  23
HETATM   23  C5  UNL     1       2.249  -0.516   2.307  1.00  0.00     0.136 C 
HETATM   24  O2  UNL     1       2.654  -0.913   3.423  1.00  0.00    -0.297 OA
BRANCH  23  25
HETATM   25  C6  UNL     1       3.248   0.237   1.508  1.00  0.00     0.082 C 
BRANCH  25  26
HETATM   26  C7  UNL     1       4.571   0.202   2.285  1.00  0.00     0.044 C 
BRANCH  26  27
HETATM   27  C8  UNL     1       5.677   0.927   1.583  1.00  0.00     0.151 C 
BRANCH  27  28
HETATM   28  O3  UNL     1       5.358   2.263   1.372  1.00  0.00    -0.391 OA
ATOM     29  H3  UNL     1       6.060   2.723   0.927  1.00  0.00     0.210 HD
ENDBRANCH  27  28
BRANCH  27  30
HETATM   30  C9  UNL     1       6.147   0.220   0.375  1.00  0.00    -0.026 A 
HETATM   31  C10 UNL     1       5.779  -1.068   0.082  1.00  0.00     0.019 A 
HETATM   32  C11 UNL     1       6.223  -1.712  -1.052  1.00  0.00    -0.025 A 
HETATM   33  C12 UNL     1       5.792  -3.107  -1.322  1.00  0.00     0.051 C 
HETATM   34  C13 UNL     1       7.051  -1.043  -1.899  1.00  0.00     0.104 A 
HETATM   35  C14 UNL     1       7.439   0.243  -1.637  1.00  0.00     0.102 A 
HETATM   36  C16 UNL     1       7.001   0.880  -0.517  1.00  0.00     0.049 A 
BRANCH  34  37
HETATM   37  O4  UNL     1       7.505  -1.691  -3.051  1.00  0.00    -0.357 OA
ATOM     38  H4  UNL     1       8.083  -1.224  -3.643  1.00  0.00     0.217 HD
ENDBRANCH  34  37
BRANCH  35  39
HETATM   39  O5  UNL     1       8.290   0.849  -2.562  1.00  0.00    -0.353 OA
HETATM   40  C15 UNL     1       8.767   2.163  -2.419  1.00  0.00     0.210 C 
ENDBRANCH  35  39
ENDBRANCH  27  30
ENDBRANCH  26  27
ENDBRANCH  25  26
ENDBRANCH  23  25
ENDBRANCH   4  23
BRANCH   1  41
HETATM   41  O1  UNL     1       0.169   2.717   1.328  1.00  0.00    -0.281 OA
BRANCH  41  42
HETATM   42  C2  UNL     1       0.417   3.574   0.263  1.00  0.00     0.196 C 
HETATM   43  C1  UNL     1      -0.193   4.934   0.627  1.00  0.00     0.036 C 
ENDBRANCH  41  42
ENDBRANCH   1  41
BRANCH  13  44
HETATM   44  N2  UNL     1      -8.781  -0.352  -0.574  1.00  0.00    -0.075 N 
ATOM     45  H23 UNL     1      -9.395  -1.113  -0.864  1.00  0.00     0.274 HD
ATOM     46  H22 UNL     1      -8.539  -0.687   0.358  1.00  0.00     0.274 HD
ATOM     47  H21 UNL     1      -9.284   0.534  -0.531  1.00  0.00     0.274 HD
ENDBRANCH  13  44
TORSDOF 11
