REMARK  1 active torsions:
REMARK  status: ('A' for Active; 'I' for Inactive)
REMARK    1  A    between atoms: O1_1  and  C1_3 
ROOT
HETATM    1  C1  UNL     1       0.774  -1.228  -0.320  1.00  0.00     0.124 C 
HETATM    2  C2  UNL     1       1.916  -0.335  -0.667  1.00  0.00     0.032 C 
HETATM    3  C3  UNL     1       1.868   1.050  -0.192  1.00  0.00     0.003 C 
HETATM    4  C4  UNL     1       0.539   1.632   0.121  1.00  0.00     0.007 C 
HETATM    5  C5  UNL     1      -0.336   0.607   0.734  1.00  0.00     0.019 C 
HETATM    6  C6  UNL     1      -1.741   0.978   0.981  1.00  0.00     0.237 C 
HETATM    7  N1  UNL     1      -2.596  -0.029   0.369  1.00  0.00    -0.074 N 
ATOM      8  H11 UNL     1      -3.094   0.298  -0.459  1.00  0.00     0.277 HD
ATOM      9  H12 UNL     1      -3.424  -0.259   0.919  1.00  0.00     0.277 HD
HETATM   10  C7  UNL     1      -1.707  -1.179   0.117  1.00  0.00     0.239 C 
HETATM   11  C8  UNL     1      -0.490  -0.470  -0.357  1.00  0.00     0.046 C 
ENDROOT
BRANCH   1  12
HETATM   12  O1  UNL     1       0.691  -2.258  -1.284  1.00  0.00    -0.395 OA
ATOM     13  H1  UNL     1      -0.037  -2.827  -1.063  1.00  0.00     0.210 HD
ENDBRANCH   1  12
TORSDOF 1
