REMARK  1 active torsions:
REMARK  status: ('A' for Active; 'I' for Inactive)
REMARK    1  A    between atoms: C8_12  and  O1_13 
ROOT
HETATM    1  C1  UNL     1       3.906   0.086   0.314  1.00  0.00     0.012 C 
HETATM    2  C2  UNL     1       2.721  -0.010   0.132  1.00  0.00    -0.106 C 
HETATM    3  C3  UNL     1       1.307  -0.103  -0.095  1.00  0.00     0.149 C 
HETATM    4  C4  UNL     1       0.841  -1.489  -0.490  1.00  0.00     0.256 C 
HETATM    5  N1  UNL     1      -0.529  -1.335  -0.949  1.00  0.00    -0.042 N 
ATOM      6  H11 UNL     1      -0.909  -2.233  -1.249  1.00  0.00     0.279 HD
ATOM      7  H12 UNL     1      -0.554  -0.832  -1.836  1.00  0.00     0.279 HD
HETATM    8  C5  UNL     1      -1.391  -0.721  -0.004  1.00  0.00     0.418 C 
HETATM    9  C6  UNL     1      -2.680  -0.333  -0.688  1.00  0.00     0.074 C 
HETATM   10  N2  UNL     1      -0.877   0.410   0.677  1.00  0.00     0.144 N 
HETATM   11  C7  UNL     1      -0.957   1.648  -0.065  1.00  0.00     0.316 C 
HETATM   12  C8  UNL     1       0.489   0.246   1.154  1.00  0.00     0.376 C 
ENDROOT
BRANCH  12  13
HETATM   13  O1  UNL     1       0.927   1.407   1.743  1.00  0.00    -0.367 OA
ATOM     14  H1  UNL     1       0.420   1.623   2.517  1.00  0.00     0.212 HD
ENDBRANCH  12  13
TORSDOF 1
