REMARK  14 active torsions:
REMARK  status: ('A' for Active; 'I' for Inactive)
REMARK    1  A    between atoms: N3_5  and  C3_6 
REMARK    2  A    between atoms: C3_6  and  N4_7 
REMARK    3  A    between atoms: N4_7  and  N5_9 
REMARK    4  A    between atoms: N6_12  and  C4_13 
REMARK    5  A    between atoms: C4_13  and  C5_14 
REMARK    6  A    between atoms: C5_14  and  C6_15 
REMARK    7  A    between atoms: C6_15  and  C7_16 
REMARK    8  A    between atoms: C7_16  and  C8_17 
REMARK    9  A    between atoms: C8_17  and  C9_18 
REMARK   10  A    between atoms: C9_18  and  S1_19 
REMARK   11  A    between atoms: S1_19  and  C11_21 
REMARK   12  A    between atoms: C11_21  and  C12_22 
REMARK   13  A    between atoms: C12_22  and  N7_23 
REMARK   14  A    between atoms: C14_28  and  C15_29 
ROOT
HETATM    1  C1  UNL     1      -6.454   0.576  -0.785  1.00  0.00     0.161 C 
HETATM    2  N1  UNL     1      -4.990   0.489  -0.613  1.00  0.00    -0.305 N 
HETATM    3  C2  UNL     1      -4.259   1.474  -0.098  1.00  0.00     0.218 A 
HETATM    4  N2  UNL     1      -4.691   2.746   0.372  1.00  0.00    -0.061 NA
HETATM    5  N3  UNL     1      -2.953   1.022  -0.101  1.00  0.00    -0.217 N 
HETATM    6  N6  UNL     1      -2.931  -0.189  -0.603  1.00  0.00    -0.262 N 
HETATM    7  C14 UNL     1      -4.199  -0.561  -0.940  1.00  0.00     0.193 A 
ENDROOT
BRANCH   6   8
HETATM    8  C4  UNL     1      -1.839  -1.115  -0.887  1.00  0.00     0.152 C 
BRANCH   8   9
HETATM    9  C5  UNL     1      -1.527  -2.135   0.137  1.00  0.00     0.022 C 
BRANCH   9  10
HETATM   10  C6  UNL     1      -0.953  -1.746   1.416  1.00  0.00     0.002 C 
BRANCH  10  11
HETATM   11  C7  UNL     1       0.384  -1.175   1.626  1.00  0.00     0.001 C 
BRANCH  11  12
HETATM   12  C8  UNL     1       1.591  -1.954   1.314  1.00  0.00     0.009 C 
BRANCH  12  13
HETATM   13  C9  UNL     1       2.055  -2.236  -0.048  1.00  0.00     0.063 C 
BRANCH  13  14
HETATM   14  S1  UNL     1       2.781  -0.987  -0.990  1.00  0.00    -0.222 SA
HETATM   15  C10 UNL     1       1.891   0.414  -1.343  1.00  0.00     0.078 C 
BRANCH  14  16
HETATM   16  C11 UNL     1       4.456  -0.713  -0.507  1.00  0.00     0.082 C 
BRANCH  16  17
HETATM   17  C12 UNL     1       5.056   0.387  -1.355  1.00  0.00     0.131 C 
BRANCH  17  18
HETATM   18  N7  UNL     1       6.421   0.583  -0.934  1.00  0.00    -0.366 N 
HETATM   19  C13 UNL     1       6.672   1.341   0.065  1.00  0.00     0.196 C 
HETATM   20  N8  UNL     1       5.614   1.981   0.751  1.00  0.00    -0.067 NA
HETATM   21  N9  UNL     1       8.009   1.530   0.473  1.00  0.00    -0.067 NA
ATOM     22  H7  UNL     1       7.182   0.120  -1.430  1.00  0.00     0.161 HD
ENDBRANCH  17  18
ENDBRANCH  16  17
ENDBRANCH  14  16
ENDBRANCH  13  14
ENDBRANCH  12  13
ENDBRANCH  11  12
ENDBRANCH  10  11
ENDBRANCH   9  10
ENDBRANCH   8   9
ENDBRANCH   6   8
BRANCH   5  23
HETATM   23  C3  UNL     1      -1.848   1.829   0.302  1.00  0.00     0.225 C 
BRANCH  23  24
HETATM   24  N4  UNL     1      -1.576   1.931   1.679  1.00  0.00    -0.301 N 
ATOM     25  H4  UNL     1      -2.151   1.446   2.368  1.00  0.00     0.187 HD
BRANCH  24  26
HETATM   26  N5  UNL     1      -0.524   2.696   2.058  1.00  0.00    -0.344 N 
ATOM     27  H52 UNL     1       0.041   3.175   1.357  1.00  0.00     0.176 HD
ATOM     28  H51 UNL     1      -0.327   2.770   3.056  1.00  0.00     0.176 HD
ENDBRANCH  24  26
ENDBRANCH  23  24
ENDBRANCH   5  23
BRANCH   7  29
HETATM   29  C15 UNL     1      -4.714  -1.777  -1.544  1.00  0.00     0.300 C 
HETATM   30  N10 UNL     1      -3.985  -2.853  -2.050  1.00  0.00    -0.054 NA
HETATM   31  O1  UNL     1      -5.994  -1.919  -1.648  1.00  0.00    -0.268 OA
ENDBRANCH   7  29
TORSDOF 14
