REMARK  10 active torsions:
REMARK  status: ('A' for Active; 'I' for Inactive)
REMARK    1  A    between atoms: C4_4  and  C5_5 
REMARK    2  A    between atoms: C5_5  and  C6_7 
REMARK    3  A    between atoms: C6_7  and  C7_9 
REMARK    4  A    between atoms: C7_9  and  O3_10 
REMARK    5  A    between atoms: C7_9  and  N1_12 
REMARK    6  A    between atoms: N1_12  and  C8_14 
REMARK    7  A    between atoms: C8_14  and  C9_18 
REMARK    8  A    between atoms: C9_18  and  O4_19 
REMARK    9  A    between atoms: N3_21  and  O5_23 
REMARK   10  A    between atoms: C10_27  and  C11_28 
ROOT
HETATM    1  C7  UNL     1       2.241   1.145  -0.124  1.00  0.00     0.197 C 
ENDROOT
BRANCH   1   2
HETATM    2  C6  UNL     1       1.003   0.519   0.342  1.00  0.00     0.274 C 
HETATM    3  O2  UNL     1       0.746   0.375   1.542  1.00  0.00    -0.279 OA
BRANCH   2   4
HETATM    4  C5  UNL     1       0.011   0.054  -0.680  1.00  0.00     0.248 C 
HETATM    5  O1  UNL     1       0.403  -0.074  -1.857  1.00  0.00    -0.282 OA
BRANCH   4   6
HETATM    6  C4  UNL     1      -1.357  -0.203  -0.301  1.00  0.00     0.065 C 
HETATM    7  C3  UNL     1      -1.878  -1.323   0.451  1.00  0.00     0.092 C 
HETATM    8  C2  UNL     1      -3.309  -1.093   0.961  1.00  0.00     0.126 C 
HETATM    9  C1  UNL     1      -4.191  -2.248   0.525  1.00  0.00     0.040 C 
HETATM   10  O8  UNL     1      -3.916   0.038   0.602  1.00  0.00    -0.351 OA
HETATM   11  C10 UNL     1      -3.427   0.843  -0.370  1.00  0.00     0.324 C 
HETATM   12  N4  UNL     1      -2.032   1.105  -0.014  1.00  0.00    -0.355 N 
ATOM     13  H4  UNL     1      -1.619   1.967   0.342  1.00  0.00     0.162 HD
BRANCH  11  14
HETATM   14  C11 UNL     1      -4.154   2.135  -0.386  1.00  0.00     0.224 C 
HETATM   15  O6  UNL     1      -3.783   3.076   0.321  1.00  0.00    -0.645 OA
HETATM   16  O7  UNL     1      -5.274   2.261  -1.246  1.00  0.00    -0.645 OA
ENDBRANCH  11  14
ENDBRANCH   4   6
ENDBRANCH   2   4
ENDBRANCH   1   2
BRANCH   1  17
HETATM   17  O3  UNL     1       2.502   0.930  -1.467  1.00  0.00    -0.343 OA
ATOM     18  H3  UNL     1       3.306   1.336  -1.770  1.00  0.00     0.219 HD
ENDBRANCH   1  17
BRANCH   1  19
HETATM   19  N1  UNL     1       3.348   1.289   0.706  1.00  0.00    -0.317 N 
ATOM     20  H1  UNL     1       3.257   2.088   1.333  1.00  0.00     0.169 HD
BRANCH  19  21
HETATM   21  C8  UNL     1       4.567   0.601   0.894  1.00  0.00     0.154 C 
HETATM   22  N2  UNL     1       5.434   1.016   1.722  1.00  0.00    -0.382 N 
ATOM     23  H22 UNL     1       5.167   1.873   2.207  1.00  0.00     0.157 HD
ATOM     24  H21 UNL     1       6.314   0.519   1.858  1.00  0.00     0.157 HD
BRANCH  21  25
HETATM   25  C9  UNL     1       4.948  -0.620   0.203  1.00  0.00     0.204 C 
HETATM   26  N3  UNL     1       4.196  -1.184  -0.633  1.00  0.00    -0.244 N 
ATOM     27  H3  UNL     1       3.293  -0.749  -0.825  1.00  0.00     0.196 HD
BRANCH  25  28
HETATM   28  O4  UNL     1       6.206  -1.169   0.482  1.00  0.00    -0.342 OA
ATOM     29  H4  UNL     1       6.455  -1.967   0.030  1.00  0.00     0.219 HD
ENDBRANCH  25  28
BRANCH  26  30
HETATM   30  O5  UNL     1       4.501  -2.345  -1.309  1.00  0.00    -0.288 OA
ATOM     31  H5  UNL     1       3.933  -2.771  -1.940  1.00  0.00     0.244 HD
ENDBRANCH  26  30
ENDBRANCH  21  25
ENDBRANCH  19  21
ENDBRANCH   1  19
TORSDOF 10
