REMARK  5 active torsions:
REMARK  status: ('A' for Active; 'I' for Inactive)
REMARK    1  A    between atoms: O1_2  and  C2_3 
REMARK    2  A    between atoms: C5_6  and  C6_7 
REMARK    3  A    between atoms: C8_10  and  N1_11 
REMARK       I    between atoms: N1_11  and  C9_13 
REMARK       I    between atoms: C9_13  and  N2_15 
REMARK    4  A    between atoms: N2_15  and  C10_17 
REMARK    5  A    between atoms: N4_22  and  C13_23 
ROOT
HETATM    1  N1  UNL     1       1.140  -0.930   2.575  1.00  0.00    -0.288 N 
ATOM      2  H1  UNL     1       1.782  -1.479   3.147  1.00  0.00     0.172 HD
HETATM    3  C9  UNL     1       1.562   0.293   2.035  1.00  0.00     0.340 C 
HETATM    4  O2  UNL     1       0.966   1.339   2.411  1.00  0.00    -0.246 OA
HETATM    5  N2  UNL     1       2.625   0.358   1.094  1.00  0.00    -0.140 N 
ATOM      6  H2  UNL     1       3.502  -0.120   1.300  1.00  0.00     0.189 HD
ENDROOT
BRANCH   1   7
HETATM    7  C8  UNL     1      -0.077  -1.374   2.350  1.00  0.00     0.152 A 
HETATM    8  S1  UNL     1      -0.810  -2.809   2.889  1.00  0.00    -0.063 SA
HETATM    9  C7  UNL     1      -2.340  -2.594   2.159  1.00  0.00     0.083 A 
HETATM   10  C6  UNL     1      -2.187  -1.383   1.520  1.00  0.00     0.051 A 
HETATM   11  N5  UNL     1      -1.033  -0.791   1.634  1.00  0.00    -0.335 N 
ATOM     12  H5  UNL     1      -0.865   0.107   1.180  1.00  0.00     0.168 HD
BRANCH  10  13
HETATM   13  C5  UNL     1      -3.331  -0.829   0.747  1.00  0.00    -0.009 A 
HETATM   14  C4  UNL     1      -3.197   0.368   0.108  1.00  0.00     0.016 A 
HETATM   15  C3  UNL     1      -4.251   0.907  -0.621  1.00  0.00     0.037 A 
HETATM   16  C2  UNL     1      -5.454   0.259  -0.723  1.00  0.00     0.068 A 
HETATM   17  C20 UNL     1      -5.601  -0.950  -0.081  1.00  0.00     0.037 A 
HETATM   18  C19 UNL     1      -4.531  -1.480   0.648  1.00  0.00     0.016 A 
BRANCH  16  19
HETATM   19  O1  UNL     1      -6.501   0.823  -1.463  1.00  0.00    -0.356 OA
HETATM   20  C1  UNL     1      -7.750   0.172  -1.580  1.00  0.00     0.210 C 
ENDBRANCH  16  19
ENDBRANCH  10  13
ENDBRANCH   1   7
BRANCH   5  21
HETATM   21  C10 UNL     1       2.505   1.016  -0.028  1.00  0.00     0.693 A 
HETATM   22  N3  UNL     1       1.427   1.697  -0.450  1.00  0.00    -0.200 N 
HETATM   23  C11 UNL     1       1.750   2.215  -1.655  1.00  0.00     0.124 A 
ATOM     24  H3  UNL     1       0.540   1.802   0.042  1.00  0.00     0.183 HD
HETATM   25  C12 UNL     1       3.040   1.833  -1.947  1.00  0.00     0.133 A 
HETATM   26  N4  UNL     1       3.509   1.086  -0.931  1.00  0.00    -0.157 N 
BRANCH  26  27
HETATM   27  C13 UNL     1       4.797   0.479  -0.808  1.00  0.00     0.056 A 
HETATM   28  C14 UNL     1       5.916   1.284  -0.792  1.00  0.00     0.030 A 
HETATM   29  C15 UNL     1       7.186   0.733  -0.674  1.00  0.00     0.002 A 
HETATM   30  C16 UNL     1       7.368  -0.624  -0.568  1.00  0.00     0.000 A 
HETATM   31  C17 UNL     1       6.256  -1.438  -0.583  1.00  0.00     0.002 A 
HETATM   32  C18 UNL     1       4.981  -0.884  -0.702  1.00  0.00     0.030 A 
ENDBRANCH  26  27
ENDBRANCH   5  21
TORSDOF 5
