REMARK  7 active torsions:
REMARK  status: ('A' for Active; 'I' for Inactive)
REMARK    1  A    between atoms: N1_2  and  C3_4 
REMARK    2  A    between atoms: C3_4  and  C4_5 
REMARK    3  A    between atoms: C6_7  and  S1_8 
REMARK    4  A    between atoms: S1_8  and  C7_9 
REMARK    5  A    between atoms: C10_12  and  C11_13 
REMARK    6  A    between atoms: C19_21  and  N2_22 
REMARK    7  A    between atoms: N2_22  and  C20_23 
ROOT
HETATM    1  C4  UNL     1      -2.154   1.493  -0.630  1.00  0.00     0.012 A 
HETATM    2  C5  UNL     1      -0.922   2.048  -0.665  1.00  0.00     0.031 A 
HETATM    3  C6  UNL     1       0.225   1.398  -0.206  1.00  0.00     0.006 A 
HETATM    4  C17 UNL     1       0.067   0.152   0.303  1.00  0.00     0.022 A 
HETATM    5  C18 UNL     1      -1.156  -0.423   0.343  1.00  0.00     0.047 A 
HETATM    6  C19 UNL     1      -2.344   0.214  -0.126  1.00  0.00     0.115 A 
ENDROOT
BRANCH   6   7
HETATM    7  N2  UNL     1      -3.463  -0.489  -0.144  1.00  0.00    -0.404 NA
BRANCH   7   8
HETATM    8  C20 UNL     1      -4.435  -1.134  -0.044  1.00  0.00     0.121 A 
HETATM    9  C21 UNL     1      -5.256  -1.322  -1.184  1.00  0.00     0.062 A 
HETATM   10  C22 UNL     1      -6.319  -2.170  -1.107  1.00  0.00     0.091 A 
HETATM   11  N3  UNL     1      -6.613  -2.829   0.017  1.00  0.00    -0.365 N 
HETATM   12  C23 UNL     1      -5.865  -2.679   1.125  1.00  0.00     0.045 A 
ATOM     13  H3  UNL     1      -7.417  -3.456   0.036  1.00  0.00     0.165 HD
HETATM   14  C24 UNL     1      -6.255  -3.425   2.221  1.00  0.00     0.033 A 
HETATM   15  C28 UNL     1      -4.785  -1.847   1.112  1.00  0.00     0.034 A 
HETATM   16  C25 UNL     1      -5.523  -3.340   3.401  1.00  0.00     0.044 A 
HETATM   17  C26 UNL     1      -4.427  -2.489   3.388  1.00  0.00     0.117 A 
HETATM   18  F1  UNL     1      -3.703  -2.390   4.533  1.00  0.00    -0.206 F 
HETATM   19  C27 UNL     1      -4.055  -1.751   2.272  1.00  0.00     0.059 A 
ENDBRANCH   7   8
ENDBRANCH   6   7
BRANCH   1  20
HETATM   20  C3  UNL     1      -3.340   2.289  -1.047  1.00  0.00     0.313 C 
BRANCH  20  21
HETATM   21  N1  UNL     1      -2.911   3.593  -1.555  1.00  0.00     0.084 N 
HETATM   22  C1  UNL     1      -4.090   4.459  -1.651  1.00  0.00     0.309 C 
HETATM   23  C2  UNL     1      -2.480   3.443  -2.960  1.00  0.00     0.309 C 
ENDBRANCH  20  21
ENDBRANCH   1  20
BRANCH   3  24
HETATM   24  S1  UNL     1       1.736   2.224  -0.363  1.00  0.00    -0.091 SA
BRANCH  24  25
HETATM   25  C7  UNL     1       3.227   1.270  -0.230  1.00  0.00     0.005 A 
HETATM   26  C8  UNL     1       4.455   1.940  -0.062  1.00  0.00     0.019 A 
HETATM   27  C9  UNL     1       5.644   1.273   0.071  1.00  0.00     0.009 A 
HETATM   28  C10 UNL     1       5.732  -0.107   0.051  1.00  0.00    -0.051 A 
HETATM   29  C15 UNL     1       4.539  -0.769  -0.118  1.00  0.00     0.009 A 
HETATM   30  C16 UNL     1       3.319  -0.091  -0.257  1.00  0.00     0.019 A 
BRANCH  28  31
HETATM   31  C11 UNL     1       6.969  -0.843   0.244  1.00  0.00    -0.024 C 
HETATM   32  C12 UNL     1       7.761  -0.209   1.398  1.00  0.00     0.019 C 
HETATM   33  C13 UNL     1       7.876  -0.897  -0.953  1.00  0.00     0.019 C 
HETATM   34  C14 UNL     1       6.741  -2.290   0.725  1.00  0.00     0.019 C 
ENDBRANCH  28  31
ENDBRANCH  24  25
ENDBRANCH   3  24
TORSDOF 7
