REMARK  3 active torsions:
REMARK  status: ('A' for Active; 'I' for Inactive)
REMARK    1  A    between atoms: C1_2  and  N1_3 
REMARK    2  A    between atoms: N1_3  and  N2_5 
REMARK    3  A    between atoms: C2_7  and  C3_8 
ROOT
HETATM    1  C3  UNL     1      -0.415  -0.080  -0.698  1.00  0.00     0.065 A 
HETATM    2  C4  UNL     1      -1.461   0.475  -1.444  1.00  0.00     0.119 A 
HETATM    3  N3  UNL     1      -2.278   1.018  -0.532  1.00  0.00    -0.360 N 
ATOM      4  H3  UNL     1      -3.146   1.508  -0.747  1.00  0.00     0.166 HD
HETATM    5  C5  UNL     1      -1.793   0.826   0.704  1.00  0.00     0.180 A 
HETATM    6  N4  UNL     1      -0.648   0.151   0.594  1.00  0.00    -0.350 N 
ATOM      7  H4  UNL     1      -0.051  -0.140   1.368  1.00  0.00     0.166 HD
ENDROOT
BRANCH   1   8
HETATM    8  C2  UNL     1       0.717  -0.785  -1.309  1.00  0.00     0.138 C 
HETATM    9  N2  UNL     1       1.621  -1.255  -0.524  1.00  0.00    -0.308 N 
ATOM     10  H2  UNL     1       2.412  -1.747  -0.939  1.00  0.00     0.186 HD
BRANCH   9  11
HETATM   11  N1  UNL     1       1.578  -1.128   0.859  1.00  0.00    -0.278 N 
ATOM     12  H1  UNL     1       0.939  -1.714   1.396  1.00  0.00     0.189 HD
BRANCH  11  13
HETATM   13  C1  UNL     1       2.412  -0.191   1.541  1.00  0.00     0.368 C 
HETATM   14  O1  UNL     1       3.187   0.520   0.867  1.00  0.00    -0.282 OA
ENDBRANCH  11  13
ENDBRANCH   9  11
ENDBRANCH   1   8
TORSDOF 3
