REMARK  8 active torsions:
REMARK  status: ('A' for Active; 'I' for Inactive)
REMARK    1  A    between atoms: C2_2  and  O1_3 
REMARK    2  A    between atoms: O1_3  and  C3_4 
REMARK    3  A    between atoms: C3_4  and  C4_5 
REMARK    4  A    between atoms: C4_5  and  O2_6 
REMARK    5  A    between atoms: O2_6  and  N1_7 
REMARK    6  A    between atoms: N1_7  and  C5_9 
REMARK    7  A    between atoms: C5_9  and  N2_11 
REMARK    8  A    between atoms: N2_11  and  C6_13 
ROOT
HETATM    1  N2  UNL     1      -0.343   0.758   1.068  1.00  0.00    -0.356 N 
ATOM      2  H2  UNL     1      -0.555   1.567   1.651  1.00  0.00     0.162 HD
ENDROOT
BRANCH   1   3
HETATM    3  C5  UNL     1       1.028   0.442   0.882  1.00  0.00     0.192 C 
HETATM    4  S1  UNL     1       1.578  -0.799  -0.016  1.00  0.00    -0.039 SA
BRANCH   3   5
HETATM    5  N1  UNL     1       2.030   1.252   1.509  1.00  0.00    -0.241 N 
ATOM      6  H1  UNL     1       1.720   2.041   2.077  1.00  0.00     0.197 HD
BRANCH   5   7
HETATM    7  O2  UNL     1       3.343   1.040   1.397  1.00  0.00    -0.276 OA
BRANCH   7   8
HETATM    8  C4  UNL     1       3.989   2.027   0.642  1.00  0.00     0.228 C 
BRANCH   8   9
HETATM    9  C3  UNL     1       5.450   1.704   0.574  1.00  0.00     0.203 C 
BRANCH   9  10
HETATM   10  O1  UNL     1       5.611   0.443  -0.038  1.00  0.00    -0.362 OA
BRANCH  10  11
HETATM   11  C2  UNL     1       5.191   0.145  -1.306  1.00  0.00     0.124 C 
HETATM   12  C1  UNL     1       5.753  -0.806  -2.005  1.00  0.00     0.037 C 
ENDBRANCH  10  11
ENDBRANCH   9  10
ENDBRANCH   8   9
ENDBRANCH   7   8
ENDBRANCH   5   7
ENDBRANCH   3   5
ENDBRANCH   1   3
BRANCH   1  13
HETATM   13  C6  UNL     1      -1.456   0.049   0.515  1.00  0.00     0.033 C 
HETATM   14  C7  UNL     1      -1.540  -1.362   0.990  1.00  0.00     0.035 C 
HETATM   15  C8  UNL     1      -2.680  -2.092   0.312  1.00  0.00    -0.012 C 
HETATM   16  C9  UNL     1      -2.603  -2.004  -1.186  1.00  0.00     0.009 C 
HETATM   17  C13 UNL     1      -3.961  -1.460   0.787  1.00  0.00     0.009 C 
HETATM   18  C10 UNL     1      -2.678  -0.540  -1.556  1.00  0.00    -0.012 C 
HETATM   19  C11 UNL     1      -3.958   0.082  -1.094  1.00  0.00     0.009 C 
HETATM   20  C15 UNL     1      -1.491   0.171  -1.005  1.00  0.00     0.035 C 
HETATM   21  C12 UNL     1      -3.955  -0.004   0.435  1.00  0.00    -0.012 C 
HETATM   22  C14 UNL     1      -2.764   0.720   0.968  1.00  0.00     0.035 C 
ENDBRANCH   1  13
TORSDOF 8
