REMARK  7 active torsions:
REMARK  status: ('A' for Active; 'I' for Inactive)
REMARK       I    between atoms: C1_2  and  N1_3 
REMARK    1  A    between atoms: C1_2  and  O2_14 
REMARK    2  A    between atoms: O2_14  and  C9_15 
REMARK    3  A    between atoms: C9_15  and  C10_16 
REMARK    4  A    between atoms: C10_16  and  N3_17 
REMARK    5  A    between atoms: N3_17  and  C11_20 
REMARK    6  A    between atoms: C11_20  and  C12_21 
REMARK    7  A    between atoms: C12_21  and  C13_22 
ROOT
HETATM    1  O1  UNL     1      -0.924   0.448  -1.021  1.00  0.00    -0.238 OA
HETATM    2  C1  UNL     1      -1.003  -0.700  -0.475  1.00  0.00     0.366 C 
HETATM    3  N1  UNL     1      -2.249  -1.347  -0.428  1.00  0.00    -0.292 N 
ATOM      4  H1  UNL     1      -2.296  -2.302  -0.783  1.00  0.00     0.172 HD
HETATM    5  C2  UNL     1      -3.352  -0.821   0.035  1.00  0.00     0.081 C 
HETATM    6  C3  UNL     1      -4.464  -1.772  -0.071  1.00  0.00     0.076 C 
HETATM    7  C4  UNL     1      -5.834  -1.194  -0.038  1.00  0.00     0.007 C 
HETATM    8  C5  UNL     1      -6.057  -0.020   0.839  1.00  0.00     0.000 C 
HETATM    9  C6  UNL     1      -6.200   1.256   0.044  1.00  0.00     0.002 C 
HETATM   10  C7  UNL     1      -4.936   1.749  -0.574  1.00  0.00     0.020 C 
HETATM   11  C8  UNL     1      -3.832   1.740   0.435  1.00  0.00     0.121 C 
HETATM   12  N2  UNL     1      -3.127   0.487   0.491  1.00  0.00    -0.380 N 
ATOM     13  H2  UNL     1      -2.240   0.570   0.987  1.00  0.00     0.160 HD
ENDROOT
BRANCH   2  14
HETATM   14  O2  UNL     1       0.194  -1.192   0.029  1.00  0.00    -0.302 OA
BRANCH  14  15
HETATM   15  C9  UNL     1       1.396  -0.441  -0.054  1.00  0.00     0.208 C 
BRANCH  15  16
HETATM   16  C10 UNL     1       2.511  -1.260   0.582  1.00  0.00     0.259 C 
BRANCH  16  17
HETATM   17  N3  UNL     1       3.763  -0.526   0.532  1.00  0.00    -0.073 N 
ATOM     18  H32 UNL     1       3.660   0.382   0.985  1.00  0.00     0.277 HD
ATOM     19  H31 UNL     1       4.450  -0.955   1.152  1.00  0.00     0.277 HD
BRANCH  17  20
HETATM   20  C11 UNL     1       4.305  -0.368  -0.773  1.00  0.00     0.232 C 
BRANCH  20  21
HETATM   21  C12 UNL     1       5.477   0.616  -0.649  1.00  0.00     0.032 C 
BRANCH  21  22
HETATM   22  C13 UNL     1       6.485   0.002   0.299  1.00  0.00    -0.013 A 
HETATM   23  C14 UNL     1       7.734   0.750   0.624  1.00  0.00     0.005 A 
HETATM   24  C15 UNL     1       7.814  -0.299  -0.392  1.00  0.00     0.005 A 
ENDBRANCH  21  22
ENDBRANCH  20  21
ENDBRANCH  17  20
ENDBRANCH  16  17
ENDBRANCH  15  16
ENDBRANCH  14  15
ENDBRANCH   2  14
TORSDOF 7
