REMARK  6 active torsions:
REMARK  status: ('A' for Active; 'I' for Inactive)
REMARK    1  A    between atoms: N3_5  and  N4_6 
REMARK       I    between atoms: N4_6  and  C2_8 
REMARK    2  A    between atoms: C2_8  and  C3_10 
REMARK    3  A    between atoms: C4_13  and  N6_14 
REMARK    4  A    between atoms: C5_16  and  C6_17 
REMARK    5  A    between atoms: C9_24  and  O2_25 
REMARK    6  A    between atoms: C10_27  and  O3_28 
ROOT
HETATM    1  C3  UNL     1      -0.187   0.631  -0.795  1.00  0.00     0.108 C 
HETATM    2  N5  UNL     1       0.527  -0.617  -0.991  1.00  0.00    -0.363 N 
ATOM      3  H5  UNL     1       0.180  -1.495  -1.377  1.00  0.00     0.161 HD
HETATM    4  C4  UNL     1       1.890  -0.298  -0.489  1.00  0.00     0.213 C 
HETATM    5  C9  UNL     1       2.037   1.221  -0.701  1.00  0.00     0.195 C 
HETATM    6  C10 UNL     1       0.676   1.680  -0.254  1.00  0.00     0.205 C 
ENDROOT
BRANCH   1   7
HETATM    7  C2  UNL     1      -1.591   0.617  -0.556  1.00  0.00     0.286 C 
HETATM    8  N4  UNL     1      -2.264  -0.332   0.249  1.00  0.00    -0.240 N 
ATOM      9  H4  UNL     1      -1.704  -1.021   0.751  1.00  0.00     0.192 HD
HETATM   10  O1  UNL     1      -2.306   1.519  -1.150  1.00  0.00    -0.264 OA
BRANCH   8  11
HETATM   11  N3  UNL     1      -3.641  -0.379   0.394  1.00  0.00    -0.158 N 
HETATM   12  N2  UNL     1      -4.251  -0.364   1.649  1.00  0.00    -0.248 N 
HETATM   13  C1  UNL     1      -5.535  -0.425   1.798  1.00  0.00     0.223 A 
ATOM     14  H2  UNL     1      -3.663  -0.303   2.480  1.00  0.00     0.192 HD
HETATM   15  N1  UNL     1      -6.077  -0.399   3.097  1.00  0.00    -0.061 NA
HETATM   16  N11 UNL     1      -6.319  -0.506   0.588  1.00  0.00    -0.270 N 
HETATM   17  N10 UNL     1      -5.759  -0.518  -0.662  1.00  0.00    -0.268 N 
ATOM     18  H11 UNL     1      -7.335  -0.557   0.668  1.00  0.00     0.189 HD
HETATM   19  C11 UNL     1      -4.429  -0.456  -0.790  1.00  0.00     0.245 A 
ATOM     20  H10 UNL     1      -6.352  -0.574  -1.490  1.00  0.00     0.190 HD
HETATM   21  N9  UNL     1      -3.943  -0.428  -2.121  1.00  0.00    -0.059 NA
ENDBRANCH   8  11
ENDBRANCH   1   7
BRANCH   6  22
HETATM   22  O3  UNL     1       0.418   2.950  -0.874  1.00  0.00    -0.387 OA
ATOM     23  H3  UNL     1       0.979   3.632  -0.522  1.00  0.00     0.210 HD
ENDBRANCH   6  22
BRANCH   4  24
HETATM   24  N6  UNL     1       2.855  -1.008  -1.229  1.00  0.00    -0.374 N 
HETATM   25  C5  UNL     1       4.081  -1.155  -1.022  1.00  0.00     0.116 C 
ATOM     26  H6  UNL     1       2.500  -1.475  -2.063  1.00  0.00     0.161 HD
BRANCH  25  27
HETATM   27  C6  UNL     1       4.947  -0.690   0.047  1.00  0.00     0.063 A 
HETATM   28  C7  UNL     1       6.306  -0.905   0.074  1.00  0.00     0.119 A 
HETATM   29  N7  UNL     1       6.774  -0.375   1.211  1.00  0.00    -0.360 N 
HETATM   30  C8  UNL     1       5.768   0.151   1.886  1.00  0.00     0.180 A 
ATOM     31  H7  UNL     1       7.750  -0.377   1.508  1.00  0.00     0.166 HD
HETATM   32  N8  UNL     1       4.648  -0.052   1.152  1.00  0.00    -0.350 N 
ATOM     33  H8  UNL     1       3.710   0.247   1.420  1.00  0.00     0.166 HD
ENDBRANCH  25  27
ENDBRANCH   4  24
BRANCH   5  34
HETATM   34  O2  UNL     1       2.099   1.369  -2.104  1.00  0.00    -0.389 OA
ATOM     35  H2  UNL     1       2.190   2.306  -2.235  1.00  0.00     0.210 HD
ENDBRANCH   5  34
TORSDOF 6
