REMARK  11 active torsions:
REMARK  status: ('A' for Active; 'I' for Inactive)
REMARK    1  A    between atoms: N1_1  and  C1_5 
REMARK    2  A    between atoms: C1_5  and  O1_6 
REMARK    3  A    between atoms: C5_16  and  O5_17 
REMARK    4  A    between atoms: O5_17  and  C6_18 
REMARK    5  A    between atoms: C7_19  and  O6_20 
REMARK    6  A    between atoms: C9_23  and  C10_24 
REMARK    7  A    between atoms: C10_24  and  O7_25 
REMARK    8  A    between atoms: C10_24  and  O8_27 
REMARK    9  A    between atoms: C12_30  and  C13_31 
REMARK   10  A    between atoms: C13_31  and  O9_32 
REMARK   11  A    between atoms: C13_31  and  O10_34 
ROOT
HETATM    1  C6  UNL     1       0.395   0.163   0.303  1.00  0.00     0.114 A 
HETATM    2  C7  UNL     1       1.013   1.377   0.644  1.00  0.00     0.100 A 
HETATM    3  C8  UNL     1       2.370   1.577   0.578  1.00  0.00     0.051 A 
HETATM    4  C9  UNL     1       3.174   0.566   0.165  1.00  0.00    -0.001 A 
HETATM    5  C11 UNL     1       2.630  -0.624  -0.174  1.00  0.00     0.027 A 
HETATM    6  C12 UNL     1       1.231  -0.824  -0.101  1.00  0.00     0.033 A 
ENDROOT
BRANCH   1   7
HETATM    7  O5  UNL     1      -0.955   0.025   0.380  1.00  0.00    -0.327 OA
BRANCH   7   8
HETATM    8  C5  UNL     1      -1.870   0.360  -0.649  1.00  0.00     0.292 C 
HETATM    9  C1  UNL     1      -3.066  -0.537  -0.784  1.00  0.00     0.328 C 
HETATM   10  C2  UNL     1      -3.512  -0.848   0.599  1.00  0.00     0.282 C 
HETATM   11  O2  UNL     1      -3.717  -2.015   0.992  1.00  0.00    -0.282 OA
HETATM   12  C3  UNL     1      -3.700   0.304   1.487  1.00  0.00     0.299 C 
HETATM   13  O3  UNL     1      -4.295   0.187   2.583  1.00  0.00    -0.264 OA
HETATM   14  N2  UNL     1      -3.188   1.567   1.075  1.00  0.00    -0.288 N 
HETATM   15  C4  UNL     1      -2.521   1.655  -0.170  1.00  0.00     0.259 C 
ATOM     16  H2  UNL     1      -3.300   2.391   1.665  1.00  0.00     0.172 HD
HETATM   17  O4  UNL     1      -2.441   2.685  -0.867  1.00  0.00    -0.270 OA
BRANCH   9  18
HETATM   18  N1  UNL     1      -2.958  -1.635  -1.663  1.00  0.00    -0.036 N 
ATOM     19  H13 UNL     1      -3.832  -2.145  -1.792  1.00  0.00     0.278 HD
ATOM     20  H12 UNL     1      -2.830  -1.369  -2.639  1.00  0.00     0.278 HD
ATOM     21  H11 UNL     1      -2.200  -2.206  -1.290  1.00  0.00     0.278 HD
ENDBRANCH   9  18
BRANCH   9  22
HETATM   22  O1  UNL     1      -4.130   0.264  -1.308  1.00  0.00    -0.357 OA
ATOM     23  H1  UNL     1      -4.203   1.003  -0.716  1.00  0.00     0.213 HD
ENDBRANCH   9  22
ENDBRANCH   7   8
ENDBRANCH   1   7
BRANCH   2  24
HETATM   24  O6  UNL     1       0.249   2.424   1.068  1.00  0.00    -0.358 OA
ATOM     25  H6  UNL     1       0.667   3.245   1.299  1.00  0.00     0.217 HD
ENDBRANCH   2  24
BRANCH   6  26
HETATM   26  C13 UNL     1       0.792  -2.193  -0.395  1.00  0.00     0.291 C 
BRANCH  26  27
HETATM   27  O9  UNL     1       1.774  -3.109   0.119  1.00  0.00    -0.367 OA
ATOM     28  H9  UNL     1       1.490  -3.995  -0.071  1.00  0.00     0.213 HD
ENDBRANCH  26  27
BRANCH  26  29
HETATM   29  O10 UNL     1      -0.339  -2.554   0.358  1.00  0.00    -0.367 OA
ATOM     30  H10 UNL     1      -0.623  -3.440   0.168  1.00  0.00     0.213 HD
ENDBRANCH  26  29
ENDBRANCH   6  26
BRANCH   4  31
HETATM   31  C10 UNL     1       4.658   0.795   0.094  1.00  0.00     0.288 C 
BRANCH  31  32
HETATM   32  O7  UNL     1       4.815   2.048  -0.521  1.00  0.00    -0.367 OA
ATOM     33  H7  UNL     1       5.753   2.193  -0.566  1.00  0.00     0.213 HD
ENDBRANCH  31  32
BRANCH  31  34
HETATM   34  O8  UNL     1       5.212   0.785   1.366  1.00  0.00    -0.367 OA
ATOM     35  H8  UNL     1       6.150   0.930   1.321  1.00  0.00     0.213 HD
ENDBRANCH  31  34
ENDBRANCH   4  31
TORSDOF 11
