REMARK  15 active torsions:
REMARK  status: ('A' for Active; 'I' for Inactive)
REMARK    1  A    between atoms: S1_2  and  N1_5 
REMARK    2  A    between atoms: N1_5  and  C2_7 
REMARK    3  A    between atoms: C2_7  and  C3_8 
REMARK    4  A    between atoms: C2_7  and  N4_17 
REMARK    5  A    between atoms: C3_8  and  C4_9 
REMARK    6  A    between atoms: C5_10  and  C6_11 
REMARK    7  A    between atoms: C6_11  and  N2_12 
REMARK    8  A    between atoms: N4_17  and  C7_19 
REMARK    9  A    between atoms: C7_19  and  C8_20 
REMARK   10  A    between atoms: C8_20  and  N5_21 
REMARK   11  A    between atoms: N5_21  and  C9_23 
REMARK   12  A    between atoms: C9_23  and  C10_25 
REMARK   13  A    between atoms: C10_25  and  N7_26 
REMARK   14  A    between atoms: C10_25  and  N8_29 
REMARK   15  A    between atoms: N8_29  and  N9_31 
ROOT
HETATM    1  N4  UNL     1      -0.537   0.210   1.114  1.00  0.00    -0.364 N 
ATOM      2  H4  UNL     1      -0.488   1.082   1.641  1.00  0.00     0.162 HD
ENDROOT
BRANCH   1   3
HETATM    3  C2  UNL     1      -1.722  -0.119   0.470  1.00  0.00     0.159 C 
BRANCH   3   4
HETATM    4  N1  UNL     1      -2.699   0.985   0.377  1.00  0.00    -0.264 N 
ATOM      5  H1  UNL     1      -3.688   0.773   0.510  1.00  0.00     0.180 HD
BRANCH   4   6
HETATM    6  S1  UNL     1      -2.242   2.615   0.053  1.00  0.00     0.228 S 
HETATM    7  C1  UNL     1      -2.833   3.580   1.483  1.00  0.00     0.186 C 
HETATM    8  O1  UNL     1      -0.765   2.807  -0.037  1.00  0.00    -0.206 OA
HETATM    9  O2  UNL     1      -2.897   3.159  -1.172  1.00  0.00    -0.206 OA
ENDBRANCH   4   6
ENDBRANCH   3   4
BRANCH   3  10
HETATM   10  C3  UNL     1      -2.163  -1.176  -0.024  1.00  0.00    -0.080 C 
BRANCH  10  11
HETATM   11  C4  UNL     1      -2.649  -2.392  -0.583  1.00  0.00     0.061 C 
HETATM   12  C5  UNL     1      -3.825  -2.278  -1.096  1.00  0.00     0.027 C 
BRANCH  12  13
HETATM   13  C6  UNL     1      -4.659  -3.288  -1.739  1.00  0.00     0.107 C 
BRANCH  13  14
HETATM   14  N2  UNL     1      -5.796  -3.404  -0.987  1.00  0.00    -0.318 N 
HETATM   15  N3  UNL     1      -6.289  -4.069  -0.021  1.00  0.00    -0.345 N 
ATOM     16  H32 UNL     1      -5.583  -4.739   0.284  1.00  0.00     0.176 HD
ATOM     17  H31 UNL     1      -7.137  -4.155   0.540  1.00  0.00     0.176 HD
ATOM     18  H2  UNL     1      -6.484  -2.725  -1.312  1.00  0.00     0.185 HD
ENDBRANCH  13  14
ENDBRANCH  12  13
ENDBRANCH  10  11
ENDBRANCH   3  10
ENDBRANCH   1   3
BRANCH   1  19
HETATM   19  C7  UNL     1       0.660  -0.663   1.061  1.00  0.00     0.166 C 
BRANCH  19  20
HETATM   20  C8  UNL     1       1.184  -0.731  -0.335  1.00  0.00     0.082 C 
BRANCH  20  21
HETATM   21  N5  UNL     1       1.956   0.334  -0.831  1.00  0.00    -0.354 N 
ATOM     22  H5  UNL     1       1.500   0.987  -1.468  1.00  0.00     0.166 HD
BRANCH  21  23
HETATM   23  C9  UNL     1       3.279   0.565  -0.525  1.00  0.00     0.161 C 
HETATM   24  N6  UNL     1       3.817  -0.830  -0.219  1.00  0.00    -0.079 NA
BRANCH  23  25
HETATM   25  C10 UNL     1       4.540   1.232  -0.524  1.00  0.00     0.155 C 
BRANCH  25  26
HETATM   26  N7  UNL     1       4.578   2.247  -1.337  1.00  0.00    -0.382 N 
ATOM     27  H72 UNL     1       3.822   2.519  -1.965  1.00  0.00     0.157 HD
ATOM     28  H71 UNL     1       5.480   2.724  -1.336  1.00  0.00     0.157 HD
ENDBRANCH  25  26
BRANCH  25  29
HETATM   29  N8  UNL     1       5.605   0.849   0.361  1.00  0.00    -0.290 N 
ATOM     30  H8  UNL     1       5.722   1.314   1.261  1.00  0.00     0.188 HD
BRANCH  29  31
HETATM   31  N9  UNL     1       6.501  -0.195  -0.039  1.00  0.00    -0.344 N 
ATOM     32  H92 UNL     1       6.371  -0.650  -0.943  1.00  0.00     0.176 HD
ATOM     33  H91 UNL     1       7.257  -0.467   0.589  1.00  0.00     0.176 HD
ENDBRANCH  29  31
ENDBRANCH  25  29
ENDBRANCH  23  25
ENDBRANCH  21  23
ENDBRANCH  20  21
ENDBRANCH  19  20
ENDBRANCH   1  19
TORSDOF 15
