REMARK  8 active torsions:
REMARK  status: ('A' for Active; 'I' for Inactive)
REMARK    1  A    between atoms: C2_2  and  C3_3 
REMARK    2  A    between atoms: C2_2  and  C10_21 
REMARK    3  A    between atoms: C3_3  and  N1_4 
REMARK    4  A    between atoms: C6_9  and  N3_10 
REMARK    5  A    between atoms: C10_21  and  N6_22 
REMARK    6  A    between atoms: C10_21  and  C11_26 
REMARK    7  A    between atoms: C11_26  and  C12_27 
REMARK    8  A    between atoms: C14_30  and  N7_31 
ROOT
HETATM    1  C3  UNL     1       1.008   0.909  -0.100  1.00  0.00     0.139 C 
ENDROOT
BRANCH   1   2
HETATM    2  C2  UNL     1      -0.377   0.576  -0.541  1.00  0.00     0.031 C 
HETATM    3  C1  UNL     1      -1.365   0.580   0.571  1.00  0.00     0.014 C 
BRANCH   2   4
HETATM    4  C10 UNL     1      -0.691   1.460  -1.711  1.00  0.00     0.194 C 
BRANCH   4   5
HETATM    5  N6  UNL     1       0.497   1.324  -2.653  1.00  0.00    -0.074 N 
ATOM      6  H63 UNL     1       1.394   1.528  -2.214  1.00  0.00     0.274 HD
ATOM      7  H62 UNL     1       0.707   0.360  -2.912  1.00  0.00     0.274 HD
ATOM      8  H61 UNL     1       0.283   1.925  -3.449  1.00  0.00     0.274 HD
ENDBRANCH   4   5
BRANCH   4   9
HETATM    9  C11 UNL     1      -1.822   1.097  -2.586  1.00  0.00     0.090 C 
BRANCH   9  10
HETATM   10  C12 UNL     1      -3.183   0.995  -1.997  1.00  0.00     0.019 A 
HETATM   11  C13 UNL     1      -3.666  -0.236  -1.603  1.00  0.00     0.078 A 
HETATM   12  S1  UNL     1      -5.218   0.151  -1.014  1.00  0.00    -0.064 SA
HETATM   13  C14 UNL     1      -5.179   1.829  -1.291  1.00  0.00     0.142 A 
HETATM   14  N8  UNL     1      -3.979   2.023  -1.823  1.00  0.00    -0.340 N 
ATOM     15  H8  UNL     1      -3.679   2.960  -2.093  1.00  0.00     0.167 HD
BRANCH  13  16
HETATM   16  N7  UNL     1      -6.114   2.718  -1.037  1.00  0.00    -0.380 N 
ATOM     17  H72 UNL     1      -7.036   2.569  -0.628  1.00  0.00     0.158 HD
ATOM     18  H71 UNL     1      -6.091   3.724  -1.203  1.00  0.00     0.158 HD
ENDBRANCH  13  16
ENDBRANCH   9  10
ENDBRANCH   4   9
ENDBRANCH   2   4
ENDBRANCH   1   2
BRANCH   1  19
HETATM   19  N1  UNL     1       1.630   0.066   0.851  1.00  0.00    -0.308 N 
HETATM   20  C4  UNL     1       1.662   0.299   2.162  1.00  0.00     0.186 A 
HETATM   21  N2  UNL     1       2.291  -0.503   3.064  1.00  0.00    -0.347 N 
HETATM   22  C5  UNL     1       2.941  -1.617   2.667  1.00  0.00     0.110 A 
ATOM     23  H2  UNL     1       2.271  -0.259   4.054  1.00  0.00     0.167 HD
HETATM   24  C6  UNL     1       3.580  -2.433   3.585  1.00  0.00     0.129 A 
HETATM   25  C8  UNL     1       2.932  -1.893   1.316  1.00  0.00     0.133 A 
HETATM   26  N4  UNL     1       4.205  -3.525   3.115  1.00  0.00    -0.337 N 
HETATM   27  C7  UNL     1       4.187  -3.782   1.788  1.00  0.00     0.182 A 
ATOM     28  H4  UNL     1       4.689  -4.155   3.754  1.00  0.00     0.168 HD
HETATM   29  N5  UNL     1       3.580  -3.014   0.879  1.00  0.00    -0.346 N 
ATOM     30  H5  UNL     1       3.600  -3.257  -0.111  1.00  0.00     0.167 HD
HETATM   31  C9  UNL     1       2.285  -1.060   0.431  1.00  0.00     0.277 A 
HETATM   32  O1  UNL     1       2.313  -1.368  -0.794  1.00  0.00    -0.265 OA
BRANCH  24  33
HETATM   33  N3  UNL     1       3.561  -2.137   4.823  1.00  0.00    -0.384 N 
ATOM     34  H32 UNL     1       3.086  -1.308   5.180  1.00  0.00     0.157 HD
ATOM     35  H31 UNL     1       4.032  -2.738   5.499  1.00  0.00     0.157 HD
ENDBRANCH  24  33
ENDBRANCH   1  19
TORSDOF 8
