REMARK  7 active torsions:
REMARK  status: ('A' for Active; 'I' for Inactive)
REMARK    1  A    between atoms: C3_3  and  C5_5 
REMARK    2  A    between atoms: C3_3  and  O1_12 
REMARK    3  A    between atoms: C5_5  and  C6_6 
REMARK    4  A    between atoms: O1_12  and  C12_13 
REMARK    5  A    between atoms: C12_13  and  C13_15 
REMARK    6  A    between atoms: C15_17  and  O3_18 
REMARK    7  A    between atoms: C19_22  and  C20_23 
ROOT
HETATM    1  C1  UNL     1      -1.990   2.985  -1.692  1.00  0.00     0.015 C 
HETATM    2  C2  UNL     1      -1.664   2.086  -0.953  1.00  0.00    -0.079 C 
HETATM    3  C3  UNL     1      -1.288   0.972  -0.033  1.00  0.00     0.129 C 
HETATM    4  C4  UNL     1      -1.555   1.426   1.352  1.00  0.00     0.061 C 
ENDROOT
BRANCH   3   5
HETATM    5  C5  UNL     1      -1.938  -0.276  -0.491  1.00  0.00     0.056 C 
BRANCH   5   6
HETATM    6  C6  UNL     1      -3.420  -0.266  -0.560  1.00  0.00    -0.011 C 
HETATM    7  C7  UNL     1      -4.155  -0.016   0.712  1.00  0.00     0.005 C 
HETATM    8  C8  UNL     1      -5.426  -0.866   0.811  1.00  0.00     0.000 C 
HETATM    9  C9  UNL     1      -6.191  -0.821  -0.505  1.00  0.00     0.000 C 
HETATM   10  C10 UNL     1      -5.327  -1.344  -1.636  1.00  0.00     0.000 C 
HETATM   11  C11 UNL     1      -3.911  -1.614  -1.114  1.00  0.00     0.005 C 
ENDBRANCH   5   6
ENDBRANCH   3   5
BRANCH   3  12
HETATM   12  O1  UNL     1       0.145   0.913  -0.178  1.00  0.00    -0.293 OA
BRANCH  12  13
HETATM   13  C12 UNL     1       0.964   0.047   0.483  1.00  0.00     0.295 C 
HETATM   14  O2  UNL     1       0.480  -0.769   1.281  1.00  0.00    -0.259 OA
BRANCH  13  15
HETATM   15  C13 UNL     1       2.422   0.112   0.220  1.00  0.00     0.043 A 
HETATM   16  C14 UNL     1       3.306  -0.734   0.853  1.00  0.00     0.055 A 
HETATM   17  C15 UNL     1       4.668  -0.679   0.614  1.00  0.00     0.075 A 
HETATM   18  C17 UNL     1       5.149   0.250  -0.286  1.00  0.00    -0.014 A 
HETATM   19  C18 UNL     1       6.621   0.327  -0.560  1.00  0.00     0.052 C 
HETATM   20  C19 UNL     1       4.297   1.126  -0.950  1.00  0.00     0.057 A 
HETATM   21  C21 UNL     1       2.952   1.021  -0.668  1.00  0.00     0.034 A 
BRANCH  17  22
HETATM   22  O3  UNL     1       5.552  -1.553   1.271  1.00  0.00    -0.355 OA
HETATM   23  C16 UNL     1       5.009  -2.487   2.184  1.00  0.00     0.210 C 
ENDBRANCH  17  22
BRANCH  20  24
HETATM   24  C20 UNL     1       4.817   2.129  -1.922  1.00  0.00     0.418 C 
HETATM   25  F1  UNL     1       5.712   3.005  -1.335  1.00  0.00    -0.166 F 
HETATM   26  F2  UNL     1       3.731   2.914  -2.312  1.00  0.00    -0.166 F 
HETATM   27  F3  UNL     1       5.298   1.543  -3.059  1.00  0.00    -0.166 F 
ENDBRANCH  20  24
ENDBRANCH  13  15
ENDBRANCH  12  13
ENDBRANCH   3  12
TORSDOF 7
