REMARK  7 active torsions:
REMARK  status: ('A' for Active; 'I' for Inactive)
REMARK    1  A    between atoms: C2_2  and  C3_3 
REMARK    2  A    between atoms: C3_3  and  C4_4 
REMARK    3  A    between atoms: C4_4  and  N1_5 
REMARK    4  A    between atoms: N1_5  and  C6_7 
REMARK    5  A    between atoms: C6_7  and  C7_8 
REMARK    6  A    between atoms: C9_10  and  O1_11 
REMARK    7  A    between atoms: N2_22  and  N3_24 
ROOT
HETATM    1  C7  UNL     1       0.512  -0.897   0.611  1.00  0.00     0.011 C 
HETATM    2  C8  UNL     1      -0.178  -2.116   1.222  1.00  0.00     0.039 C 
HETATM    3  C9  UNL     1      -1.356  -2.240   0.280  1.00  0.00     0.127 C 
HETATM    4  C11 UNL     1      -1.635  -0.873  -0.298  1.00  0.00     0.037 C 
HETATM    5  C12 UNL     1      -0.554   0.056   0.269  1.00  0.00     0.011 C 
HETATM    6  C13 UNL     1      -1.251   0.785   1.341  1.00  0.00     0.068 C 
HETATM    7  C14 UNL     1      -2.581   0.061   1.610  1.00  0.00     0.032 C 
HETATM    8  C15 UNL     1      -2.949  -0.370   0.234  1.00  0.00     0.020 A 
HETATM    9  C16 UNL     1      -4.139  -0.303  -0.457  1.00  0.00    -0.060 A 
HETATM   10  C17 UNL     1      -5.409  -0.900  -0.968  1.00  0.00     0.045 C 
HETATM   11  C18 UNL     1      -3.437   0.875  -0.463  1.00  0.00    -0.010 A 
HETATM   12  C19 UNL     1      -2.591   2.074  -0.396  1.00  0.00     0.101 C 
HETATM   13  N2  UNL     1      -2.669   3.002  -1.272  1.00  0.00    -0.303 N 
ATOM     14  H2  UNL     1      -2.074   3.828  -1.211  1.00  0.00     0.186 HD
HETATM   15  C20 UNL     1      -1.668   2.112   0.742  1.00  0.00     0.182 C 
HETATM   16  O2  UNL     1      -1.269   3.213   1.162  1.00  0.00    -0.290 OA
ENDROOT
BRANCH   1  17
HETATM   17  C6  UNL     1       1.675  -0.435   1.395  1.00  0.00     0.126 C 
BRANCH  17  18
HETATM   18  N1  UNL     1       2.345   0.694   0.840  1.00  0.00    -0.397 N 
HETATM   19  C5  UNL     1       2.153   1.915   1.467  1.00  0.00     0.148 C 
BRANCH  18  20
HETATM   20  C4  UNL     1       3.035   0.561  -0.359  1.00  0.00     0.057 C 
BRANCH  20  21
HETATM   21  C3  UNL     1       4.513   0.841  -0.312  1.00  0.00     0.044 C 
BRANCH  21  22
HETATM   22  C2  UNL     1       5.064   0.636  -1.718  1.00  0.00     0.001 C 
HETATM   23  C1  UNL     1       6.537   0.919  -1.669  1.00  0.00     0.005 C 
ENDBRANCH  21  22
ENDBRANCH  20  21
ENDBRANCH  18  20
ENDBRANCH  17  18
ENDBRANCH   1  17
BRANCH   3  24
HETATM   24  O1  UNL     1      -2.446  -2.787   0.916  1.00  0.00    -0.390 OA
HETATM   25  C10 UNL     1      -2.806  -3.993   0.330  1.00  0.00     0.202 C 
ENDBRANCH   3  24
BRANCH  13  26
HETATM   26  N3  UNL     1      -3.582   2.860  -2.309  1.00  0.00    -0.345 N 
ATOM     27  H32 UNL     1      -4.170   2.028  -2.356  1.00  0.00     0.176 HD
ATOM     28  H31 UNL     1      -3.644   3.600  -3.008  1.00  0.00     0.176 HD
ENDBRANCH  13  26
TORSDOF 7
