REMARK  9 active torsions:
REMARK  status: ('A' for Active; 'I' for Inactive)
REMARK    1  A    between atoms: C2_2  and  C3_3 
REMARK       I    between atoms: C3_3  and  N1_5 
REMARK    2  A    between atoms: N1_5  and  N2_7 
REMARK       I    between atoms: N2_7  and  C5_9 
REMARK    3  A    between atoms: C5_9  and  C6_11 
REMARK    4  A    between atoms: C7_15  and  N4_16 
REMARK    5  A    between atoms: C8_22  and  C9_23 
REMARK    6  A    between atoms: C9_23  and  C10_25 
REMARK    7  A    between atoms: C10_25  and  C11_27 
REMARK    8  A    between atoms: C11_27  and  O5_29 
REMARK    9  A    between atoms: C11_27  and  C13_31 
ROOT
HETATM    1  C6  UNL     1       1.617   0.558   0.601  1.00  0.00     0.347 C 
HETATM    2  N3  UNL     1       1.340   1.286   1.824  1.00  0.00    -0.007 N 
ATOM      3  H31 UNL     1       2.166   1.806   2.121  1.00  0.00     0.283 HD
ATOM      4  H32 UNL     1       1.248   0.639   2.607  1.00  0.00     0.283 HD
HETATM    5  C7  UNL     1       0.211   2.148   1.761  1.00  0.00     0.481 C 
HETATM    6  N5  UNL     1      -1.060   1.545   1.775  1.00  0.00    -0.354 N 
ATOM      7  H5  UNL     1      -1.838   1.935   2.307  1.00  0.00     0.158 HD
HETATM    8  C8  UNL     1      -1.197   0.331   0.984  1.00  0.00     0.223 C 
HETATM    9  S1  UNL     1       0.015   0.460  -0.348  1.00  0.00    -0.093 SA
ENDROOT
BRANCH   8  10
HETATM   10  C9  UNL     1      -2.576   0.106   0.578  1.00  0.00     0.230 C 
HETATM   11  O3  UNL     1      -3.473   0.408   1.444  1.00  0.00    -0.286 OA
BRANCH  10  12
HETATM   12  C10 UNL     1      -3.058  -0.416  -0.676  1.00  0.00     0.239 C 
HETATM   13  O4  UNL     1      -2.296  -0.682  -1.658  1.00  0.00    -0.285 OA
BRANCH  12  14
HETATM   14  C11 UNL     1      -4.512  -0.686  -0.918  1.00  0.00     0.181 C 
HETATM   15  C12 UNL     1      -4.659  -2.045  -1.504  1.00  0.00     0.063 C 
BRANCH  14  16
HETATM   16  O5  UNL     1      -5.200  -0.662   0.327  1.00  0.00    -0.374 OA
ATOM     17  H5  UNL     1      -6.122  -0.833   0.174  1.00  0.00     0.211 HD
ENDBRANCH  14  16
BRANCH  14  18
HETATM   18  C13 UNL     1      -5.056   0.420  -1.761  1.00  0.00     0.164 C 
HETATM   19  C14 UNL     1      -6.038   1.396  -1.185  1.00  0.00     0.095 C 
HETATM   20  O6  UNL     1      -4.682   0.502  -2.907  1.00  0.00    -0.295 OA
ENDBRANCH  14  18
ENDBRANCH  12  14
ENDBRANCH  10  12
ENDBRANCH   8  10
BRANCH   5  21
HETATM   21  N4  UNL     1       0.300   3.081   2.870  1.00  0.00    -0.033 N 
ATOM     22  H43 UNL     1       0.391   2.615   3.773  1.00  0.00     0.278 HD
ATOM     23  H42 UNL     1       1.184   3.589   2.889  1.00  0.00     0.278 HD
ATOM     24  H41 UNL     1      -0.510   3.699   2.825  1.00  0.00     0.278 HD
ENDBRANCH   5  21
BRANCH   1  25
HETATM   25  C5  UNL     1       1.905  -0.833   1.034  1.00  0.00     0.279 C 
HETATM   26  N2  UNL     1       2.664  -1.716   0.274  1.00  0.00    -0.261 N 
HETATM   27  C4  UNL     1       2.885  -3.069   0.714  1.00  0.00     0.181 C 
HETATM   28  O2  UNL     1       1.450  -1.270   2.157  1.00  0.00    -0.268 OA
BRANCH  26  29
HETATM   29  N1  UNL     1       3.236  -1.313  -0.940  1.00  0.00    -0.266 N 
HETATM   30  C3  UNL     1       4.458  -0.580  -0.843  1.00  0.00     0.235 C 
HETATM   31  O1  UNL     1       4.998  -0.311   0.264  1.00  0.00    -0.272 OA
ATOM     32  H1  UNL     1       2.806  -1.530  -1.839  1.00  0.00     0.190 HD
BRANCH  30  33
HETATM   33  C2  UNL     1       5.117  -0.122  -2.081  1.00  0.00     0.100 C 
HETATM   34  C1  UNL     1       6.310   0.778  -1.716  1.00  0.00     0.014 C 
ENDBRANCH  30  33
ENDBRANCH  26  29
ENDBRANCH   1  25
TORSDOF 9
