REMARK  12 active torsions:
REMARK  status: ('A' for Active; 'I' for Inactive)
REMARK    1  A    between atoms: O1_2  and  C2_3 
REMARK    2  A    between atoms: C2_3  and  C3_5 
REMARK    3  A    between atoms: C3_5  and  N1_6 
REMARK       I    between atoms: N1_6  and  C4_8 
REMARK       I    between atoms: C4_8  and  N2_10 
REMARK    4  A    between atoms: N2_10  and  C5_12 
REMARK    5  A    between atoms: C5_12  and  C6_13 
REMARK    6  A    between atoms: C5_12  and  C7_16 
REMARK    7  A    between atoms: C6_13  and  O4_14 
REMARK    8  A    between atoms: C7_16  and  O6_18 
REMARK    9  A    between atoms: O6_18  and  C8_19 
REMARK   10  A    between atoms: C8_19  and  C9_21 
REMARK   11  A    between atoms: C12_24  and  N3_25 
REMARK   12  A    between atoms: C13_28  and  N4_29 
ROOT
HETATM    1  C7  UNL     1       0.659   0.474   0.092  1.00  0.00     0.291 C 
HETATM    2  O5  UNL     1       1.179   0.809   1.186  1.00  0.00    -0.262 OA
ENDROOT
BRANCH   1   3
HETATM    3  C5  UNL     1      -0.810   0.498  -0.082  1.00  0.00     0.210 C 
BRANCH   3   4
HETATM    4  N2  UNL     1      -1.516   0.921   1.078  1.00  0.00    -0.327 N 
HETATM    5  C4  UNL     1      -2.483   0.079   1.668  1.00  0.00     0.317 C 
HETATM    6  N1  UNL     1      -3.186   0.497   2.818  1.00  0.00    -0.334 N 
HETATM    7  O3  UNL     1      -2.704  -1.066   1.134  1.00  0.00    -0.247 OA
ATOM      8  H1  UNL     1      -3.005   1.410   3.236  1.00  0.00     0.164 HD
ATOM      9  H2  UNL     1      -1.323   1.836   1.485  1.00  0.00     0.165 HD
BRANCH   6  10
HETATM   10  C3  UNL     1      -4.167  -0.394   3.390  1.00  0.00     0.235 C 
BRANCH  10  11
HETATM   11  C2  UNL     1      -4.805   0.187   4.572  1.00  0.00     0.276 C 
HETATM   12  O2  UNL     1      -4.462   1.330   4.955  1.00  0.00    -0.263 OA
BRANCH  11  13
HETATM   13  O1  UNL     1      -5.773  -0.545   5.240  1.00  0.00    -0.325 OA
HETATM   14  C1  UNL     1      -6.423  -0.042   6.384  1.00  0.00     0.213 C 
ENDBRANCH  11  13
ENDBRANCH  10  11
ENDBRANCH   6  10
ENDBRANCH   3   4
BRANCH   3  15
HETATM   15  C6  UNL     1      -1.109   1.458  -1.212  1.00  0.00     0.199 C 
BRANCH  15  16
HETATM   16  O4  UNL     1      -0.726   2.752  -0.914  1.00  0.00    -0.398 OA
ATOM     17  H4  UNL     1      -0.914   3.355  -1.624  1.00  0.00     0.209 HD
ENDBRANCH  15  16
ENDBRANCH   3  15
ENDBRANCH   1   3
BRANCH   1  18
HETATM   18  O6  UNL     1       1.480   0.085  -0.941  1.00  0.00    -0.238 OA
BRANCH  18  19
HETATM   19  C8  UNL     1       2.865   0.030  -0.873  1.00  0.00     0.317 C 
HETATM   20  O7  UNL     1       3.378   0.367   0.226  1.00  0.00    -0.257 OA
BRANCH  19  21
HETATM   21  C9  UNL     1       3.704  -0.382  -1.974  1.00  0.00     0.110 A 
HETATM   22  C10 UNL     1       5.060  -0.409  -1.819  1.00  0.00     0.038 A 
HETATM   23  C11 UNL     1       5.868  -0.809  -2.883  1.00  0.00     0.042 A 
HETATM   24  C12 UNL     1       5.301  -1.176  -4.085  1.00  0.00     0.146 A 
HETATM   25  C13 UNL     1       3.928  -1.127  -4.177  1.00  0.00     0.133 A 
HETATM   26  N5  UNL     1       3.159  -0.737  -3.137  1.00  0.00    -0.336 N 
ATOM     27  H5  UNL     1       2.145  -0.714  -3.244  1.00  0.00     0.168 HD
BRANCH  24  28
HETATM   28  N3  UNL     1       6.135  -1.581  -5.162  1.00  0.00    -0.112 N 
HETATM   29  O8  UNL     1       7.298  -1.177  -5.276  1.00  0.00    -0.532 OA
HETATM   30  O9  UNL     1       5.638  -2.445  -6.102  1.00  0.00    -0.532 OA
ENDBRANCH  24  28
BRANCH  25  31
HETATM   31  N4  UNL     1       3.404  -1.476  -5.321  1.00  0.00    -0.383 N 
ATOM     32  H42 UNL     1       3.985  -1.770  -6.106  1.00  0.00     0.157 HD
ATOM     33  H41 UNL     1       2.387  -1.440  -5.389  1.00  0.00     0.157 HD
ENDBRANCH  25  31
ENDBRANCH  19  21
ENDBRANCH  18  19
ENDBRANCH   1  18
TORSDOF 12
