REMARK  2 active torsions:
REMARK  status: ('A' for Active; 'I' for Inactive)
REMARK       I    between atoms: N1_1  and  C1_4 
REMARK       I    between atoms: C1_4  and  N5_16 
REMARK       I    between atoms: N2_5  and  C2_7 
REMARK       I    between atoms: C2_7  and  N3_9 
REMARK    1  A    between atoms: N5_16  and  N6_18 
REMARK       I    between atoms: N6_18  and  C7_19 
REMARK    2  A    between atoms: C7_19  and  C8_21 
ROOT
HETATM    1  N1  UNL     1       0.826  -2.768  -0.958  1.00  0.00    -0.232 N 
ATOM      2  H11 UNL     1       1.437  -3.457  -1.397  1.00  0.00     0.174 HD
ATOM      3  H12 UNL     1      -0.145  -3.041  -0.807  1.00  0.00     0.174 HD
HETATM    4  C1  UNL     1       1.265  -1.580  -0.428  1.00  0.00     0.705 C 
HETATM    5  N2  UNL     1       0.499  -0.716   0.122  1.00  0.00    -0.140 N 
ATOM      6  H2  UNL     1       0.880   0.149   0.506  1.00  0.00     0.189 HD
HETATM    7  C2  UNL     1      -0.887  -0.985   0.187  1.00  0.00     0.336 C 
HETATM    8  O1  UNL     1      -1.304  -2.141   0.307  1.00  0.00    -0.246 OA
HETATM    9  N3  UNL     1      -1.806   0.074   0.100  1.00  0.00    -0.331 N 
HETATM   10  C3  UNL     1      -3.221  -0.186  -0.098  1.00  0.00     0.143 C 
HETATM   11  C4  UNL     1      -4.036   0.960  -0.515  1.00  0.00     0.123 C 
HETATM   12  N4  UNL     1      -3.510   2.260  -0.122  1.00  0.00    -0.247 NA
HETATM   13 BR1  UNL     1      -4.611   3.605  -0.758  1.00  0.00     0.012 Br
HETATM   14  C5  UNL     1      -2.117   2.342  -0.623  1.00  0.00     0.123 C 
HETATM   15  C6  UNL     1      -1.332   1.430   0.286  1.00  0.00     0.143 C 
HETATM   16  N5  UNL     1       2.650  -1.190  -0.644  1.00  0.00    -0.062 N 
ATOM     17  H5  UNL     1       2.940  -1.103  -1.618  1.00  0.00     0.221 HD
ENDROOT
BRANCH  16  18
HETATM   18  N6  UNL     1       3.554  -0.941   0.233  1.00  0.00    -0.271 NA
HETATM   19  C7  UNL     1       4.539  -0.673   1.184  1.00  0.00     0.323 C 
HETATM   20  O2  UNL     1       5.708  -1.192   1.142  1.00  0.00    -0.254 OA
BRANCH  19  21
HETATM   21  C8  UNL     1       4.277   0.260   2.329  1.00  0.00     0.206 C 
HETATM   22 BR2  UNL     1       4.617   2.038   1.608  1.00  0.00    -0.085 Br
ENDBRANCH  19  21
ENDBRANCH  16  18
TORSDOF 2
