REMARK  1 active torsions:
REMARK  status: ('A' for Active; 'I' for Inactive)
REMARK       I    between atoms: N3_12  and  C6_13 
REMARK       I    between atoms: C6_13  and  N5_17 
REMARK       I    between atoms: N6_23  and  C12_24 
REMARK    1  A    between atoms: C12_24  and  C13_26 
ROOT
HETATM    1  N1  UNL     1       0.597   1.314  -1.461  1.00  0.00    -0.234 N 
ATOM      2  H11 UNL     1      -0.283   1.227  -0.952  1.00  0.00     0.174 HD
ATOM      3  H12 UNL     1       0.768   1.871  -2.298  1.00  0.00     0.174 HD
HETATM    4  C1  UNL     1       1.541   0.625  -0.943  1.00  0.00     0.688 C 
HETATM    5  N2  UNL     1       2.800   0.749  -1.672  1.00  0.00    -0.223 N 
ATOM      6  H2  UNL     1       2.934   1.578  -2.250  1.00  0.00     0.177 HD
HETATM    7  C2  UNL     1       3.854  -0.209  -1.631  1.00  0.00     0.175 C 
HETATM    8  C3  UNL     1       4.471  -0.488  -0.318  1.00  0.00     0.190 C 
HETATM    9  F1  UNL     1       5.603   0.329  -0.197  1.00  0.00    -0.248 F 
HETATM   10  C4  UNL     1       3.647  -0.254   0.894  1.00  0.00     0.060 C 
HETATM   11  C5  UNL     1       2.309  -0.974   0.891  1.00  0.00     0.169 C 
HETATM   12  N3  UNL     1       1.306  -0.140   0.207  1.00  0.00    -0.014 N 
HETATM   13  C6  UNL     1       0.034  -0.152   0.795  1.00  0.00     0.709 C 
HETATM   14  N4  UNL     1       0.127  -0.162   2.138  1.00  0.00    -0.232 N 
ATOM     15  H41 UNL     1      -0.799  -0.171   2.566  1.00  0.00     0.174 HD
ATOM     16  H42 UNL     1       1.046  -0.118   2.579  1.00  0.00     0.174 HD
HETATM   17  N5  UNL     1      -1.230  -0.213   0.189  1.00  0.00    -0.118 N 
HETATM   18  C7  UNL     1      -1.443  -1.081  -0.994  1.00  0.00     0.173 C 
HETATM   19  C8  UNL     1      -2.629  -1.875  -0.571  1.00  0.00     0.012 A 
HETATM   20  C9  UNL     1      -3.915  -2.079  -1.112  1.00  0.00     0.013 A 
HETATM   21  C10 UNL     1      -3.749  -0.774  -0.590  1.00  0.00     0.012 A 
HETATM   22  C11 UNL     1      -3.653  -0.194   0.746  1.00  0.00     0.158 C 
HETATM   23  N6  UNL     1      -2.302   0.496   0.738  1.00  0.00    -0.244 N 
HETATM   24  C12 UNL     1      -2.304   1.792   1.255  1.00  0.00     0.248 C 
HETATM   25  O1  UNL     1      -3.443   2.150   1.760  1.00  0.00    -0.271 OA
ENDROOT
BRANCH  24  26
HETATM   26  C13 UNL     1      -1.271   2.814   1.328  1.00  0.00     0.189 C 
HETATM   27 BR1  UNL     1      -2.029   4.440   2.141  1.00  0.00    -0.087 Br
ENDBRANCH  24  26
TORSDOF 1
