REMARK  2 active torsions:
REMARK  status: ('A' for Active; 'I' for Inactive)
REMARK       I    between atoms: C3_5  and  N2_6 
REMARK       I    between atoms: C3_5  and  N5_13 
REMARK       I    between atoms: N2_6  and  C4_8 
REMARK    1  A    between atoms: C9_19  and  C10_20 
REMARK    2  A    between atoms: C10_20  and  O1_21 
ROOT
HETATM    1  C1  UNL     1       2.188   3.273  -1.223  1.00  0.00     0.124 C 
HETATM    2  C2  UNL     1       1.195   2.662  -0.844  1.00  0.00    -0.059 C 
HETATM    3  N1  UNL     1       0.058   1.989  -0.407  1.00  0.00    -0.160 N 
ATOM      4  H1  UNL     1      -0.863   2.412  -0.520  1.00  0.00     0.194 HD
HETATM    5  C3  UNL     1       0.175   0.834   0.138  1.00  0.00     0.691 C 
HETATM    6  N2  UNL     1       1.484   0.296   0.268  1.00  0.00    -0.163 N 
ATOM      7  H2  UNL     1       1.875   0.199   1.205  1.00  0.00     0.187 HD
HETATM    8  C4  UNL     1       2.272  -0.111  -0.832  1.00  0.00     0.202 C 
HETATM    9  N3  UNL     1       1.602  -0.384  -2.062  1.00  0.00    -0.063 NA
HETATM   10  N4  UNL     1       3.535  -0.253  -0.807  1.00  0.00    -0.368 N 
ATOM     11  H4  UNL     1       3.994  -0.553  -1.667  1.00  0.00     0.161 HD
HETATM   12  C5  UNL     1       4.368  -0.020   0.351  1.00  0.00     0.148 C 
HETATM   13  N5  UNL     1      -0.962   0.113   0.600  1.00  0.00    -0.195 N 
HETATM   14  C6  UNL     1      -0.905  -0.963   1.566  1.00  0.00     0.176 C 
HETATM   15 BR1  UNL     1       0.161  -2.448   0.979  1.00  0.00    -0.068 Br
HETATM   16  C7  UNL     1      -2.345  -1.360   1.811  1.00  0.00     0.055 C 
HETATM   17  C8  UNL     1      -3.101  -0.135   1.395  1.00  0.00     0.086 C 
HETATM   18 BR2  UNL     1      -4.916  -0.623   0.941  1.00  0.00    -0.089 Br
HETATM   19  C9  UNL     1      -2.326   0.340   0.186  1.00  0.00     0.141 C 
ENDROOT
BRANCH  19  20
HETATM   20  C10 UNL     1      -2.723  -0.531  -0.983  1.00  0.00     0.191 C 
BRANCH  20  21
HETATM   21  O1  UNL     1      -1.945  -0.323  -2.106  1.00  0.00    -0.399 OA
ATOM     22  H1  UNL     1      -2.195  -0.871  -2.841  1.00  0.00     0.209 HD
ENDBRANCH  20  21
ENDBRANCH  19  20
TORSDOF 2
