REMARK  5 active torsions:
REMARK  status: ('A' for Active; 'I' for Inactive)
REMARK    1  A    between atoms: C2_2  and  C3_3 
REMARK    2  A    between atoms: C3_3  and  S1_4 
REMARK    3  A    between atoms: C3_3  and  C6_10 
REMARK    4  A    between atoms: S1_4  and  C4_5 
REMARK       I    between atoms: C4_5  and  N1_7 
REMARK    5  A    between atoms: C6_10  and  C7_12 
ROOT
HETATM    1  C3  UNL     1      -0.504   0.370   0.419  1.00  0.00     0.093 C 
ENDROOT
BRANCH   1   2
HETATM    2  C2  UNL     1      -0.929  -0.976   0.022  1.00  0.00    -0.020 C 
HETATM    3  C1  UNL     1      -0.689  -2.033   0.787  1.00  0.00     0.008 C 
ENDBRANCH   1   2
BRANCH   1   4
HETATM    4  S1  UNL     1       0.941   0.913  -0.561  1.00  0.00    -0.059 SA
BRANCH   4   5
HETATM    5  C4  UNL     1       2.392  -0.036  -0.200  1.00  0.00     0.280 C 
HETATM    6  O1  UNL     1       2.340  -0.934   0.662  1.00  0.00    -0.260 OA
HETATM    7  N1  UNL     1       3.595   0.226  -0.883  1.00  0.00    -0.356 N 
HETATM    8  C5  UNL     1       4.824  -0.519  -0.628  1.00  0.00     0.150 C 
ATOM      9  H1  UNL     1       3.608   0.966  -1.584  1.00  0.00     0.162 HD
ENDBRANCH   4   5
ENDBRANCH   1   4
BRANCH   1  10
HETATM   10  C6  UNL     1      -1.570   1.408   0.203  1.00  0.00     0.075 C 
HETATM   11 BR1  UNL     1      -0.759   3.100   0.786  1.00  0.00    -0.090 Br
BRANCH  10  12
HETATM   12  C7  UNL     1      -2.812   1.246   1.001  1.00  0.00     0.013 C 
HETATM   13  C8  UNL     1      -3.588  -0.004   0.802  1.00  0.00     0.006 C 
ENDBRANCH  10  12
ENDBRANCH   1  10
TORSDOF 5
