REMARK  5 active torsions:
REMARK  status: ('A' for Active; 'I' for Inactive)
REMARK    1  A    between atoms: C2_2  and  C3_3 
REMARK    2  A    between atoms: C3_3  and  C4_4 
REMARK    3  A    between atoms: N1_7  and  N2_9 
REMARK       I    between atoms: N2_9  and  C6_11 
REMARK    4  A    between atoms: C6_11  and  C7_13 
REMARK    5  A    between atoms: C7_13  and  C8_14 
ROOT
HETATM    1  N2  UNL     1       0.962  -0.242  -0.713  1.00  0.00    -0.270 N 
ATOM      2  H2  UNL     1       1.269  -1.098  -1.175  1.00  0.00     0.190 HD
HETATM    3  C6  UNL     1      -0.454  -0.031  -0.521  1.00  0.00     0.236 C 
HETATM    4  O1  UNL     1      -0.799   1.020   0.043  1.00  0.00    -0.272 OA
ENDROOT
BRANCH   1   5
HETATM    5  N1  UNL     1       1.918   0.664  -0.299  1.00  0.00    -0.306 N 
HETATM    6  C2  UNL     1       2.968   0.368   0.372  1.00  0.00     0.003 C 
HETATM    7  C1  UNL     1       3.231  -1.038   0.762  1.00  0.00     0.065 C 
ATOM      8  H1  UNL     1       1.777   1.644  -0.546  1.00  0.00     0.186 HD
BRANCH   6   9
HETATM    9  C3  UNL     1       3.930   1.414   0.766  1.00  0.00     0.081 C 
BRANCH   9  10
HETATM   10  C4  UNL     1       5.284   1.265   0.213  1.00  0.00    -0.009 C 
HETATM   11  C5  UNL     1       5.725   0.346  -0.602  1.00  0.00     0.081 C 
HETATM   12 CL1  UNL     1       7.407   0.321  -1.171  1.00  0.00    -0.097 Cl
ENDBRANCH   9  10
ENDBRANCH   6   9
ENDBRANCH   1   5
BRANCH   3  13
HETATM   13  C7  UNL     1      -1.438  -1.013  -0.972  1.00  0.00     0.109 C 
BRANCH  13  14
HETATM   14  C8  UNL     1      -2.866  -0.703  -0.762  1.00  0.00    -0.006 C 
HETATM   15  C9  UNL     1      -3.403   0.520  -1.414  1.00  0.00     0.005 C 
HETATM   16  C10 UNL     1      -4.821   0.596  -0.834  1.00  0.00     0.000 C 
HETATM   17  C11 UNL     1      -4.773  -0.205   0.470  1.00  0.00     0.000 C 
HETATM   18  C12 UNL     1      -3.274  -0.477   0.682  1.00  0.00     0.005 C 
ENDBRANCH  13  14
ENDBRANCH   3  13
TORSDOF 5
