REMARK  2 active torsions:
REMARK  status: ('A' for Active; 'I' for Inactive)
REMARK    1  A    between atoms: C2_2  and  C3_3 
REMARK    2  A    between atoms: C3_3  and  N1_4 
ROOT
HETATM    1  N1  UNL     1       1.736  -0.357   0.350  1.00  0.00    -0.350 N 
HETATM    2  C4  UNL     1       1.870  -1.389  -0.546  1.00  0.00     0.068 C 
HETATM    3  C5  UNL     1       0.631  -2.154  -0.907  1.00  0.00     0.046 C 
HETATM    4  C6  UNL     1      -0.534  -1.868   0.007  1.00  0.00     0.020 C 
HETATM    5  C7  UNL     1      -0.721  -0.422   0.314  1.00  0.00    -0.007 C 
HETATM    6  C8  UNL     1      -1.800  -0.275   1.365  1.00  0.00     0.015 C 
HETATM    7  C9  UNL     1      -3.156  -0.436   0.711  1.00  0.00     0.001 C 
HETATM    8  C10 UNL     1      -3.467   0.799  -0.101  1.00  0.00     0.000 C 
HETATM    9  C11 UNL     1      -2.188   1.442  -0.521  1.00  0.00     0.001 C 
HETATM   10  C12 UNL     1      -1.113   0.417  -0.857  1.00  0.00     0.015 C 
HETATM   11  C13 UNL     1       0.573   0.095   0.924  1.00  0.00     0.078 C 
ENDROOT
BRANCH   1  12
HETATM   12  C3  UNL     1       2.917   0.344   0.656  1.00  0.00     0.094 C 
BRANCH  12  13
HETATM   13  C2  UNL     1       3.433   1.153  -0.496  1.00  0.00     0.007 C 
HETATM   14  C1  UNL     1       3.558   2.456  -0.325  1.00  0.00     0.012 C 
ENDBRANCH  12  13
ENDBRANCH   1  12
TORSDOF 2
