REMARK  8 active torsions:
REMARK  status: ('A' for Active; 'I' for Inactive)
REMARK    1  A    between atoms: C2_2  and  N1_3 
REMARK    2  A    between atoms: C2_2  and  C10_15 
REMARK    3  A    between atoms: N1_3  and  N2_5 
REMARK    4  A    between atoms: C3_7  and  C4_8 
REMARK    5  A    between atoms: C4_8  and  C5_9 
REMARK       I    between atoms: C10_15  and  N3_17 
REMARK    6  A    between atoms: N3_17  and  C11_19 
REMARK    7  A    between atoms: C11_19  and  C12_20 
REMARK    8  A    between atoms: C12_20  and  C13_21 
ROOT
HETATM    1  C1  UNL     1       0.375   1.638   1.213  1.00  0.00     0.044 C 
HETATM    2  C2  UNL     1       0.104   0.234   1.717  1.00  0.00     0.187 C 
ENDROOT
BRANCH   2   3
HETATM    3  N1  UNL     1       1.073  -0.669   1.166  1.00  0.00    -0.324 N 
ATOM      4  H1  UNL     1       1.677  -1.190   1.801  1.00  0.00     0.181 HD
BRANCH   3   5
HETATM    5  N2  UNL     1       1.216  -0.857  -0.195  1.00  0.00    -0.319 N 
HETATM    6  C3  UNL     1       2.295  -1.279  -0.765  1.00  0.00     0.083 C 
ATOM      7  H2  UNL     1       0.415  -0.648  -0.790  1.00  0.00     0.185 HD
BRANCH   6   8
HETATM    8  C4  UNL     1       3.529  -1.617  -0.016  1.00  0.00     0.074 C 
BRANCH   8   9
HETATM    9  C5  UNL     1       4.265  -0.408   0.424  1.00  0.00    -0.007 C 
HETATM   10  C6  UNL     1       5.499  -0.132   0.064  1.00  0.00    -0.025 C 
HETATM   11  C7  UNL     1       6.435  -0.894  -0.818  1.00  0.00     0.046 C 
HETATM   12  S1  UNL     1       6.489   1.311   0.540  1.00  0.00    -0.135 SA
HETATM   13  C8  UNL     1       7.812  -0.770  -0.219  1.00  0.00     0.015 C 
HETATM   14  C9  UNL     1       8.115   0.702  -0.065  1.00  0.00     0.079 C 
ENDBRANCH   8   9
ENDBRANCH   6   8
ENDBRANCH   3   5
ENDBRANCH   2   3
BRANCH   2  15
HETATM   15  C10 UNL     1      -1.263  -0.206   1.323  1.00  0.00     0.241 C 
HETATM   16  O1  UNL     1      -1.404  -1.219   0.620  1.00  0.00    -0.271 OA
HETATM   17  N3  UNL     1      -2.396   0.537   1.756  1.00  0.00    -0.359 N 
ATOM     18  H3  UNL     1      -2.236   1.361   2.335  1.00  0.00     0.162 HD
BRANCH  17  19
HETATM   19  C11 UNL     1      -3.743   0.199   1.430  1.00  0.00     0.125 C 
BRANCH  19  20
HETATM   20  C12 UNL     1      -4.027   0.206  -0.039  1.00  0.00     0.051 C 
BRANCH  20  21
HETATM   21  C13 UNL     1      -5.487  -0.165  -0.242  1.00  0.00     0.123 C 
HETATM   22  C14 UNL     1      -5.867  -0.186  -1.680  1.00  0.00     0.034 C 
HETATM   23  C15 UNL     1      -7.273   0.385  -1.662  1.00  0.00     0.029 C 
HETATM   24  C16 UNL     1      -7.195   1.268  -0.423  1.00  0.00     0.168 C 
HETATM   25  O2  UNL     1      -6.304   0.689   0.438  1.00  0.00    -0.386 OA
ENDBRANCH  20  21
ENDBRANCH  19  20
ENDBRANCH  17  19
ENDBRANCH   2  15
TORSDOF 8
