REMARK  9 active torsions:
REMARK  status: ('A' for Active; 'I' for Inactive)
REMARK    1  A    between atoms: C3_3  and  C4_4 
REMARK    2  A    between atoms: C8_9  and  C9_10 
REMARK    3  A    between atoms: C9_10  and  O2_11 
REMARK    4  A    between atoms: O2_11  and  C10_12 
REMARK    5  A    between atoms: C13_16  and  C14_17 
REMARK    6  A    between atoms: C15_18  and  C16_19 
REMARK    7  A    between atoms: C16_19  and  C17_20 
REMARK    8  A    between atoms: C17_20  and  O4_21 
REMARK    9  A    between atoms: C18_23  and  O5_24 
ROOT
HETATM    1  C4  UNL     1      -1.173   1.265   0.301  1.00  0.00    -0.011 A 
HETATM    2  C5  UNL     1      -2.314   1.348  -0.359  1.00  0.00    -0.006 A 
HETATM    3  C6  UNL     1      -3.274   2.510  -0.349  1.00  0.00     0.052 C 
HETATM    4  C7  UNL     1      -2.550   0.130  -1.117  1.00  0.00     0.172 A 
HETATM    5  O1  UNL     1      -3.553  -0.147  -1.813  1.00  0.00    -0.292 OA
HETATM    6  C8  UNL     1      -1.387  -0.728  -0.921  1.00  0.00     0.106 A 
HETATM    7  C12 UNL     1      -0.544  -0.874  -2.169  1.00  0.00     0.192 C 
HETATM    8  O3  UNL     1       0.429   0.117  -2.085  1.00  0.00    -0.377 OA
HETATM    9  C13 UNL     1       0.754   0.237  -0.746  1.00  0.00     0.184 C 
HETATM   10  C18 UNL     1      -0.510  -0.028   0.027  1.00  0.00     0.134 A 
ENDROOT
BRANCH   9  11
HETATM   11  C14 UNL     1       1.843  -0.699  -0.348  1.00  0.00     0.004 C 
HETATM   12  C15 UNL     1       3.057  -0.523  -0.802  1.00  0.00    -0.026 C 
BRANCH  12  13
HETATM   13  C16 UNL     1       3.453   0.563  -1.709  1.00  0.00     0.053 C 
BRANCH  13  14
HETATM   14  C17 UNL     1       4.523   1.381  -1.003  1.00  0.00     0.168 C 
BRANCH  14  15
HETATM   15  O4  UNL     1       5.606   0.533  -0.725  1.00  0.00    -0.401 OA
ATOM     16  H4  UNL     1       6.274   1.044  -0.284  1.00  0.00     0.209 HD
ENDBRANCH  14  15
ENDBRANCH  13  14
ENDBRANCH  12  13
ENDBRANCH   9  11
BRANCH  10  17
HETATM   17  O5  UNL     1      -0.260  -0.738   1.203  1.00  0.00    -0.381 OA
ATOM     18  H5  UNL     1       0.166  -1.569   1.027  1.00  0.00     0.211 HD
ENDBRANCH  10  17
BRANCH   1  19
HETATM   19  C3  UNL     1      -0.681   2.349   1.167  1.00  0.00     0.006 C 
HETATM   20  C2  UNL     1       0.438   2.286   1.830  1.00  0.00    -0.030 C 
HETATM   21  C1  UNL     1       0.876   3.434   2.695  1.00  0.00     0.036 C 
ENDBRANCH   1  19
BRANCH   6  22
HETATM   22  C9  UNL     1      -1.776  -2.126  -0.505  1.00  0.00     0.191 C 
BRANCH  22  23
HETATM   23  O2  UNL     1      -2.488  -2.140   0.690  1.00  0.00    -0.390 OA
BRANCH  23  24
HETATM   24  C10 UNL     1      -2.804  -3.461   0.997  1.00  0.00     0.163 C 
HETATM   25  C11 UNL     1      -1.602  -4.330   1.160  1.00  0.00     0.033 C 
ENDBRANCH  23  24
ENDBRANCH  22  23
ENDBRANCH   6  22
TORSDOF 9
