REMARK  3 active torsions:
REMARK  status: ('A' for Active; 'I' for Inactive)
REMARK    1  A    between atoms: C7_7  and  C8_8 
REMARK    2  A    between atoms: C8_8  and  N1_10 
REMARK    3  A    between atoms: N1_10  and  N2_11 
ROOT
HETATM    1  C1  UNL     1      -0.973   2.584   1.763  1.00  0.00     0.012 C 
HETATM    2  C2  UNL     1      -1.239   1.652   1.067  1.00  0.00    -0.112 C 
HETATM    3  C3  UNL     1      -1.568   0.529   0.204  1.00  0.00     0.070 C 
HETATM    4  C4  UNL     1      -1.799  -0.744   0.951  1.00  0.00     0.017 C 
HETATM    5  C5  UNL     1      -1.816  -1.751  -0.209  1.00  0.00     0.002 C 
HETATM    6  C6  UNL     1      -0.643  -1.257  -1.048  1.00  0.00     0.007 C 
HETATM    7  C7  UNL     1      -0.490   0.194  -0.770  1.00  0.00     0.022 C 
ENDROOT
BRANCH   7   8
HETATM    8  C8  UNL     1       0.902   0.595  -0.316  1.00  0.00     0.100 C 
HETATM    9  C9  UNL     1       1.858   0.188  -1.414  1.00  0.00     0.030 C 
BRANCH   8  10
HETATM   10  N1  UNL     1       1.269   0.064   0.960  1.00  0.00    -0.143 NA
BRANCH  10  11
HETATM   11  N2  UNL     1       2.557   0.511   1.267  1.00  0.00    -0.348 N 
ATOM     12  H22 UNL     1       3.126   1.113   0.672  1.00  0.00     0.172 HD
ATOM     13  H21 UNL     1       2.819   0.132   2.177  1.00  0.00     0.172 HD
ENDBRANCH  10  11
ENDBRANCH   8  10
ENDBRANCH   7   8
TORSDOF 3
