REMARK  2 active torsions:
REMARK  status: ('A' for Active; 'I' for Inactive)
REMARK    1  A    between atoms: C2_3  and  N2_4 
REMARK    2  A    between atoms: C2_3  and  C3_8 
ROOT
HETATM    1  N1  UNL     1      -3.302  -2.105  -0.041  1.00  0.00    -0.195 NA
HETATM    2  C1  UNL     1      -2.674  -1.161  -0.272  1.00  0.00     0.094 C 
HETATM    3  C2  UNL     1      -1.861   0.037  -0.572  1.00  0.00     0.319 C 
ENDROOT
BRANCH   3   4
HETATM    4  N2  UNL     1      -2.196   1.012   0.458  1.00  0.00    -0.060 N 
ATOM      5  H23 UNL     1      -3.195   1.204   0.529  1.00  0.00     0.276 HD
ATOM      6  H22 UNL     1      -2.071   0.662   1.408  1.00  0.00     0.276 HD
ATOM      7  H21 UNL     1      -1.635   1.838   0.251  1.00  0.00     0.276 HD
ENDBRANCH   3   4
BRANCH   3   8
HETATM    8  C3  UNL     1      -0.380  -0.274  -0.397  1.00  0.00     0.230 C 
HETATM    9  C4  UNL     1       0.384   0.987  -0.718  1.00  0.00     0.036 C 
HETATM   10  C5  UNL     1       1.853   0.680  -0.554  1.00  0.00     0.004 C 
HETATM   11  C6  UNL     1       2.105  -0.663   0.064  1.00  0.00     0.027 C 
HETATM   12  C7  UNL     1       1.197  -0.981   1.210  1.00  0.00     0.233 C 
HETATM   13  N3  UNL     1      -0.162  -0.582   1.019  1.00  0.00    -0.068 N 
ATOM     14  H32 UNL     1      -0.428   0.191   1.629  1.00  0.00     0.277 HD
ATOM     15  H31 UNL     1      -0.822  -1.276   1.370  1.00  0.00     0.277 HD
ENDBRANCH   3   8
TORSDOF 2
