REMARK  2 active torsions:
REMARK  status: ('A' for Active; 'I' for Inactive)
REMARK    1  A    between atoms: S1_2  and  C2_3 
REMARK    2  A    between atoms: C4_7  and  N2_8 
ROOT
HETATM    1  C2  UNL     1       0.914  -0.158  -0.178  1.00  0.00     0.281 C 
HETATM    2  N1  UNL     1       0.339  -1.414  -0.532  1.00  0.00    -0.387 N 
ATOM      3  H1  UNL     1       0.916  -2.209  -0.805  1.00  0.00     0.156 HD
HETATM    4  C3  UNL     1      -1.080  -1.502  -0.486  1.00  0.00     0.152 C 
HETATM    5  C4  UNL     1      -1.809  -0.337   0.067  1.00  0.00     0.224 C 
HETATM    6  C5  UNL     1      -0.974   0.875   0.359  1.00  0.00     0.205 C 
HETATM    7  O1  UNL     1       0.071   0.896  -0.550  1.00  0.00    -0.356 OA
ENDROOT
BRANCH   5   8
HETATM    8  N2  UNL     1      -2.818   0.077  -0.906  1.00  0.00    -0.071 N 
ATOM      9  H23 UNL     1      -2.422   0.263  -1.827  1.00  0.00     0.274 HD
ATOM     10  H22 UNL     1      -3.441  -0.685  -1.174  1.00  0.00     0.274 HD
ATOM     11  H21 UNL     1      -3.320   0.879  -0.525  1.00  0.00     0.274 HD
ENDBRANCH   5   8
BRANCH   1  12
HETATM   12  S1  UNL     1       2.492   0.130  -1.049  1.00  0.00    -0.121 SA
HETATM   13  C1  UNL     1       3.550   1.103   0.059  1.00  0.00     0.094 C 
ENDBRANCH   1  12
TORSDOF 2
