REMARK  4 active torsions:
REMARK  status: ('A' for Active; 'I' for Inactive)
REMARK    1  A    between atoms: C3_3  and  O1_4 
REMARK    2  A    between atoms: O1_4  and  C4_5 
REMARK    3  A    between atoms: C12_14  and  O2_15 
REMARK    4  A    between atoms: N1_21  and  C17_22 
ROOT
HETATM    1  C1  UNL     1       0.399  -1.717  -1.891  1.00  0.00     0.052 C 
HETATM    2  C2  UNL     1      -0.232  -0.901  -0.824  1.00  0.00    -0.016 A 
HETATM    3  C3  UNL     1       0.534  -0.101  -0.009  1.00  0.00     0.078 A 
HETATM    4  C11 UNL     1      -0.190   0.619   0.958  1.00  0.00     0.076 A 
HETATM    5  C12 UNL     1      -1.540   0.552   1.102  1.00  0.00     0.096 A 
HETATM    6  C13 UNL     1      -2.272  -0.250   0.278  1.00  0.00     0.080 A 
HETATM    7  C14 UNL     1      -1.605  -0.976  -0.686  1.00  0.00     0.004 A 
HETATM    8  C15 UNL     1      -2.559  -1.702  -1.384  1.00  0.00     0.031 A 
HETATM    9  C16 UNL     1      -3.765  -1.386  -0.813  1.00  0.00     0.094 A 
HETATM   10  N1  UNL     1      -3.595  -0.509   0.191  1.00  0.00    -0.325 N 
ENDROOT
BRANCH   3  11
HETATM   11  O1  UNL     1       1.851   0.065  -0.030  1.00  0.00    -0.345 OA
BRANCH  11  12
HETATM   12  C4  UNL     1       2.966  -0.326  -0.672  1.00  0.00     0.129 C 
HETATM   13  C5  UNL     1       3.813   0.842  -1.216  1.00  0.00     0.035 C 
HETATM   14  C6  UNL     1       4.584   1.448  -0.059  1.00  0.00     0.045 C 
HETATM   15  C7  UNL     1       5.745   0.501   0.266  1.00  0.00     0.100 C 
HETATM   16  C8  UNL     1       6.918   0.758  -0.637  1.00  0.00     0.051 C 
HETATM   17  F1  UNL     1       6.120   0.680   1.584  1.00  0.00    -0.243 F 
HETATM   18  C9  UNL     1       5.305  -0.945   0.009  1.00  0.00     0.045 C 
HETATM   19  C10 UNL     1       3.846  -1.030   0.388  1.00  0.00     0.035 C 
ENDBRANCH  11  12
ENDBRANCH   3  11
BRANCH   5  20
HETATM   20  O2  UNL     1      -2.245   1.278   2.073  1.00  0.00    -0.358 OA
ATOM     21  H2  UNL     1      -3.188   1.231   2.174  1.00  0.00     0.217 HD
ENDBRANCH   5  20
BRANCH  10  22
HETATM   22  C17 UNL     1      -4.664   0.032   1.006  1.00  0.00     0.290 C 
HETATM   23  C18 UNL     1      -5.027   1.435   0.664  1.00  0.00     0.057 C 
HETATM   24  C19 UNL     1      -6.373   1.349  -0.015  1.00  0.00     0.031 C 
HETATM   25  C20 UNL     1      -6.868  -0.026   0.260  1.00  0.00     0.235 C 
HETATM   26  N2  UNL     1      -5.848  -0.781   0.900  1.00  0.00    -0.054 N 
ATOM     27  H22 UNL     1      -5.669  -1.669   0.432  1.00  0.00     0.279 HD
ATOM     28  H21 UNL     1      -6.147  -1.153   1.802  1.00  0.00     0.279 HD
ENDBRANCH  10  22
TORSDOF 4
