REMARK  8 active torsions:
REMARK  status: ('A' for Active; 'I' for Inactive)
REMARK    1  A    between atoms: N1_1  and  C1_5 
REMARK    2  A    between atoms: C1_5  and  C2_6 
REMARK    3  A    between atoms: C2_6  and  C3_7 
REMARK    4  A    between atoms: C3_7  and  C4_8 
REMARK    5  A    between atoms: C3_7  and  C9_13 
REMARK    6  A    between atoms: C4_8  and  C5_9 
REMARK    7  A    between atoms: C5_9  and  C6_10 
REMARK    8  A    between atoms: C9_13  and  C10_14 
ROOT
HETATM    1  C3  UNL     1      -0.294   0.404  -1.125  1.00  0.00    -0.013 C 
ENDROOT
BRANCH   1   2
HETATM    2  C2  UNL     1      -1.081   1.687  -1.314  1.00  0.00     0.032 C 
BRANCH   2   3
HETATM    3  C1  UNL     1      -0.917   2.757  -0.325  1.00  0.00     0.230 C 
BRANCH   3   4
HETATM    4  N1  UNL     1      -1.286   2.436   1.036  1.00  0.00    -0.079 N 
ATOM      5  H13 UNL     1      -2.245   2.090   1.060  1.00  0.00     0.274 HD
ATOM      6  H12 UNL     1      -0.781   1.604   1.342  1.00  0.00     0.274 HD
ATOM      7  H11 UNL     1      -1.172   3.180   1.724  1.00  0.00     0.274 HD
ENDBRANCH   3   4
ENDBRANCH   2   3
ENDBRANCH   1   2
BRANCH   1   8
HETATM    8  C4  UNL     1       1.146   0.637  -1.121  1.00  0.00     0.005 C 
BRANCH   8   9
HETATM    9  C5  UNL     1       2.090  -0.476  -0.961  1.00  0.00     0.005 C 
BRANCH   9  10
HETATM   10  C6  UNL     1       2.165  -1.269   0.280  1.00  0.00    -0.014 A 
HETATM   11  C7  UNL     1       2.467  -0.749   1.622  1.00  0.00     0.005 A 
HETATM   12  C8  UNL     1       3.611  -1.301   0.876  1.00  0.00     0.005 A 
ENDBRANCH   9  10
ENDBRANCH   8   9
ENDBRANCH   1   8
BRANCH   1  13
HETATM   13  C9  UNL     1      -0.780  -0.382   0.045  1.00  0.00     0.009 C 
BRANCH  13  14
HETATM   14  C10 UNL     1      -2.251  -0.745  -0.050  1.00  0.00    -0.014 A 
HETATM   15  C11 UNL     1      -2.724  -1.550   1.163  1.00  0.00     0.005 A 
HETATM   16  C12 UNL     1      -2.547  -2.225  -0.124  1.00  0.00     0.005 A 
ENDBRANCH  13  14
ENDBRANCH   1  13
TORSDOF 8
