REMARK  12 active torsions:
REMARK  status: ('A' for Active; 'I' for Inactive)
REMARK    1  A    between atoms: C2_2  and  C3_3 
REMARK    2  A    between atoms: C7_11  and  C8_12 
REMARK    3  A    between atoms: C8_12  and  N3_13 
REMARK    4  A    between atoms: C9_15  and  N4_16 
REMARK    5  A    between atoms: N4_16  and  C10_17 
REMARK    6  A    between atoms: N4_16  and  C14_26 
REMARK    7  A    between atoms: C10_17  and  C11_18 
REMARK    8  A    between atoms: C11_18  and  N5_19 
REMARK    9  A    between atoms: N5_19  and  C12_22 
REMARK   10  A    between atoms: C12_22  and  C13_23 
REMARK   11  A    between atoms: C13_23  and  O1_24 
REMARK   12  A    between atoms: C14_26  and  C15_27 
ROOT
HETATM    1  N4  UNL     1      -2.492   0.022   0.529  1.00  0.00    -0.371 N 
ENDROOT
BRANCH   1   2
HETATM    2  C9  UNL     1      -1.107   0.271   0.667  1.00  0.00     0.174 C 
HETATM    3  N3  UNL     1      -0.185  -0.610   0.712  1.00  0.00    -0.381 N 
ATOM      4  H3  UNL     1      -0.408  -1.603   0.646  1.00  0.00     0.160 HD
BRANCH   3   5
HETATM    5  C8  UNL     1       1.182  -0.166   0.859  1.00  0.00     0.179 C 
BRANCH   5   6
HETATM    6  C7  UNL     1       2.034  -0.501  -0.296  1.00  0.00     0.056 A 
HETATM    7  N2  UNL     1       1.738  -1.143  -1.437  1.00  0.00    -0.302 N 
HETATM    8  N1  UNL     1       2.782  -1.248  -2.226  1.00  0.00    -0.300 N 
ATOM      9  H2  UNL     1       0.812  -1.506  -1.664  1.00  0.00     0.186 HD
HETATM   10  C6  UNL     1       3.827  -0.665  -1.617  1.00  0.00     0.060 A 
ATOM     11  H1  UNL     1       2.797  -1.695  -3.143  1.00  0.00     0.187 HD
HETATM   12  C5  UNL     1       5.129  -0.510  -2.019  1.00  0.00     0.032 A 
HETATM   13  C20 UNL     1       3.385  -0.185  -0.399  1.00  0.00     0.018 A 
HETATM   14  C4  UNL     1       6.027   0.139  -1.199  1.00  0.00     0.009 A 
HETATM   15  C3  UNL     1       5.629   0.636   0.030  1.00  0.00    -0.058 A 
HETATM   16  C21 UNL     1       4.297   0.452   0.390  1.00  0.00     0.023 A 
BRANCH  15  17
HETATM   17  C2  UNL     1       6.616   1.324   0.875  1.00  0.00     0.034 C 
HETATM   18  C1  UNL     1       7.307   0.350   1.792  1.00  0.00     0.010 C 
ENDBRANCH  15  17
ENDBRANCH   5   6
ENDBRANCH   3   5
ENDBRANCH   1   2
BRANCH   1  19
HETATM   19  C10 UNL     1      -3.393   0.720   1.438  1.00  0.00     0.151 C 
BRANCH  19  20
HETATM   20  C11 UNL     1      -4.257   1.738   0.734  1.00  0.00     0.252 C 
BRANCH  20  21
HETATM   21  N5  UNL     1      -3.459   2.758   0.078  1.00  0.00    -0.072 N 
ATOM     22  H52 UNL     1      -2.812   3.195   0.734  1.00  0.00     0.277 HD
ATOM     23  H51 UNL     1      -2.785   2.340  -0.563  1.00  0.00     0.277 HD
BRANCH  21  24
HETATM   24  C12 UNL     1      -4.258   3.737  -0.584  1.00  0.00     0.258 C 
BRANCH  24  25
HETATM   25  C13 UNL     1      -5.012   3.226  -1.788  1.00  0.00     0.191 C 
BRANCH  25  26
HETATM   26  O1  UNL     1      -5.736   4.283  -2.320  1.00  0.00    -0.399 OA
ATOM     27  H1  UNL     1      -6.210   3.961  -3.078  1.00  0.00     0.209 HD
ENDBRANCH  25  26
ENDBRANCH  24  25
ENDBRANCH  21  24
ENDBRANCH  20  21
ENDBRANCH  19  20
ENDBRANCH   1  19
BRANCH   1  28
HETATM   28  C14 UNL     1      -2.980  -0.881  -0.457  1.00  0.00     0.162 C 
BRANCH  28  29
HETATM   29  C15 UNL     1      -2.582  -2.287  -0.310  1.00  0.00    -0.034 A 
HETATM   30  C16 UNL     1      -3.162  -3.107   0.623  1.00  0.00     0.026 A 
HETATM   31  C17 UNL     1      -2.764  -4.435   0.720  1.00  0.00     0.092 A 
HETATM   32  N6  UNL     1      -1.814  -4.943  -0.088  1.00  0.00    -0.334 N 
HETATM   33  C18 UNL     1      -1.232  -4.157  -1.010  1.00  0.00     0.245 A 
ATOM     34  H6  UNL     1      -1.537  -5.921  -0.001  1.00  0.00     0.168 HD
HETATM   35  O2  UNL     1      -0.347  -4.660  -1.750  1.00  0.00    -0.268 OA
HETATM   36  C19 UNL     1      -1.618  -2.815  -1.125  1.00  0.00     0.083 A 
ENDBRANCH  28  29
ENDBRANCH   1  28
TORSDOF 12
