REMARK  13 active torsions:
REMARK  status: ('A' for Active; 'I' for Inactive)
REMARK    1  A    between atoms: C2_2  and  S1_3 
REMARK    2  A    between atoms: S1_3  and  C3_4 
REMARK    3  A    between atoms: C3_4  and  N1_5 
REMARK    4  A    between atoms: C3_4  and  N6_29 
REMARK    5  A    between atoms: N1_5  and  N2_7 
REMARK    6  A    between atoms: C4_9  and  S2_10 
REMARK    7  A    between atoms: C4_9  and  S3_24 
REMARK    8  A    between atoms: S2_10  and  N3_11 
REMARK    9  A    between atoms: N4_13  and  N5_15 
REMARK   10  A    between atoms: C5_17  and  C6_18 
REMARK   11  A    between atoms: C5_17  and  C8_20 
REMARK   12  A    between atoms: S3_24  and  C9_27 
REMARK   13  A    between atoms: N6_29  and  C11_31 
ROOT
HETATM    1  N2  UNL     1       0.196   0.182   0.004  1.00  0.00    -0.285 N 
ATOM      2  H2  UNL     1       0.545   1.140   0.039  1.00  0.00     0.188 HD
HETATM    3  C4  UNL     1       0.768  -0.613  -0.796  1.00  0.00     0.202 C 
ENDROOT
BRANCH   3   4
HETATM    4  S2  UNL     1       2.134   0.041  -1.786  1.00  0.00     0.035 SA
BRANCH   4   5
HETATM    5  N3  UNL     1       2.363   1.722  -1.350  1.00  0.00    -0.253 N 
HETATM    6  N4  UNL     1       3.236   2.029  -0.497  1.00  0.00    -0.236 N 
ATOM      7  H4  UNL     1       3.380   3.004  -0.234  1.00  0.00     0.209 HD
ATOM      8  H3  UNL     1       1.793   2.447  -1.785  1.00  0.00     0.197 HD
BRANCH   6   9
HETATM    9  N5  UNL     1       4.003   1.023   0.084  1.00  0.00    -0.285 N 
HETATM   10  C5  UNL     1       5.287   1.052   0.203  1.00  0.00     0.110 C 
ATOM     11  H5  UNL     1       3.514   0.203   0.442  1.00  0.00     0.188 HD
BRANCH  10  12
HETATM   12  C6  UNL     1       5.989   2.230  -0.313  1.00  0.00     0.059 C 
HETATM   13  C7  UNL     1       6.988   1.922  -1.391  1.00  0.00     0.011 C 
ENDBRANCH  10  12
BRANCH  10  14
HETATM   14  C8  UNL     1       5.936  -0.104   0.847  1.00  0.00     0.430 C 
HETATM   15  F1  UNL     1       4.976  -1.029   1.189  1.00  0.00    -0.165 F 
HETATM   16  F2  UNL     1       6.604   0.225   2.001  1.00  0.00    -0.165 F 
HETATM   17  F3  UNL     1       6.775  -0.693  -0.080  1.00  0.00    -0.165 F 
ENDBRANCH  10  14
ENDBRANCH   6   9
ENDBRANCH   4   5
ENDBRANCH   3   4
BRANCH   3  18
HETATM   18  S3  UNL     1       0.368  -2.286  -1.067  1.00  0.00     0.200 S 
HETATM   19  O1  UNL     1      -1.092  -2.571  -0.819  1.00  0.00    -0.221 OA
HETATM   20  O2  UNL     1       0.635  -2.598  -2.525  1.00  0.00    -0.221 OA
BRANCH  18  21
HETATM   21  C9  UNL     1       1.369  -3.360  -0.111  1.00  0.00     0.143 C 
HETATM   22  C10 UNL     1       1.278  -3.176   1.364  1.00  0.00     0.021 C 
ENDBRANCH  18  21
ENDBRANCH   3  18
BRANCH   1  23
HETATM   23  N1  UNL     1      -0.856  -0.134   0.831  1.00  0.00    -0.303 N 
ATOM     24  H1  UNL     1      -0.751  -0.885   1.513  1.00  0.00     0.183 HD
BRANCH  23  25
HETATM   25  C3  UNL     1      -2.120   0.588   0.748  1.00  0.00     0.261 C 
BRANCH  25  26
HETATM   26  S1  UNL     1      -3.255  -0.089   1.968  1.00  0.00    -0.122 SA
BRANCH  26  27
HETATM   27  C2  UNL     1      -3.718  -1.796   1.583  1.00  0.00     0.073 C 
HETATM   28  C1  UNL     1      -4.673  -2.289   2.652  1.00  0.00     0.016 C 
ENDBRANCH  26  27
ENDBRANCH  25  26
BRANCH  25  29
HETATM   29  N6  UNL     1      -2.626   0.624  -0.585  1.00  0.00    -0.357 N 
ATOM     30  H6  UNL     1      -2.179   0.062  -1.310  1.00  0.00     0.162 HD
BRANCH  29  31
HETATM   31  C11 UNL     1      -3.745   1.433  -0.914  1.00  0.00     0.069 A 
HETATM   32  C12 UNL     1      -4.351   2.256   0.012  1.00  0.00     0.032 A 
HETATM   33  C13 UNL     1      -5.436   3.037  -0.349  1.00  0.00     0.002 A 
HETATM   34  C14 UNL     1      -5.895   2.974  -1.647  1.00  0.00     0.003 A 
HETATM   35  C15 UNL     1      -5.312   2.162  -2.599  1.00  0.00     0.044 A 
HETATM   36  C16 UNL     1      -4.239   1.396  -2.224  1.00  0.00     0.142 A 
HETATM   37  F4  UNL     1      -3.647   0.593  -3.127  1.00  0.00    -0.204 F 
ENDBRANCH  29  31
ENDBRANCH  25  29
ENDBRANCH  23  25
ENDBRANCH   1  23
TORSDOF 13
