REMARK  12 active torsions:
REMARK  status: ('A' for Active; 'I' for Inactive)
REMARK    1  A    between atoms: C2_2  and  O1_5 
REMARK    2  A    between atoms: O1_5  and  C5_6 
REMARK       I    between atoms: C5_6  and  N1_8 
REMARK    3  A    between atoms: C8_12  and  N2_13 
REMARK    4  A    between atoms: N2_13  and  C9_15 
REMARK    5  A    between atoms: C9_15  and  C10_16 
REMARK    6  A    between atoms: C10_16  and  C11_17 
REMARK    7  A    between atoms: C11_17  and  C12_18 
REMARK    8  A    between atoms: C12_18  and  C13_19 
REMARK    9  A    between atoms: C13_19  and  C14_20 
REMARK   10  A    between atoms: C14_20  and  C15_21 
REMARK   11  A    between atoms: C16_26  and  C17_27 
REMARK   12  A    between atoms: N6_33  and  C19_34 
ROOT
HETATM    1  N2  UNL     1      -0.826  -0.009   1.064  1.00  0.00    -0.375 N 
ATOM      2  H2  UNL     1      -1.012   0.368   1.993  1.00  0.00     0.161 HD
ENDROOT
BRANCH   1   3
HETATM    3  C8  UNL     1      -1.877  -0.015   0.074  1.00  0.00     0.129 A 
HETATM    4  C7  UNL     1      -1.733  -0.315  -1.267  1.00  0.00     0.126 A 
HETATM    5  C6  UNL     1      -2.977  -0.375  -1.834  1.00  0.00     0.275 A 
HETATM    6  N1  UNL     1      -3.890  -0.114  -0.838  1.00  0.00    -0.153 N 
HETATM    7  O3  UNL     1      -3.231  -0.624  -3.046  1.00  0.00    -0.266 OA
HETATM    8  C5  UNL     1      -5.310  -0.176  -1.069  1.00  0.00     0.390 C 
HETATM    9  N6  UNL     1      -3.217   0.100   0.268  1.00  0.00    -0.202 N 
HETATM   10  O2  UNL     1      -5.716  -0.402  -2.253  1.00  0.00    -0.236 OA
BRANCH   8  11
HETATM   11  O1  UNL     1      -6.228  -0.032  -0.093  1.00  0.00    -0.292 OA
BRANCH  11  12
HETATM   12  C2  UNL     1      -7.592  -0.143  -0.239  1.00  0.00     0.061 C 
HETATM   13  C1  UNL     1      -8.022  -1.515  -0.788  1.00  0.00     0.046 C 
HETATM   14  C3  UNL     1      -8.197  -0.098   1.179  1.00  0.00     0.046 C 
HETATM   15  C4  UNL     1      -8.210   0.897  -1.111  1.00  0.00     0.046 C 
ENDBRANCH  11  12
ENDBRANCH   8  11
BRANCH   9  16
HETATM   16  C19 UNL     1      -3.753   0.443   1.594  1.00  0.00     0.481 C 
HETATM   17  F1  UNL     1      -3.576  -0.595   2.503  1.00  0.00    -0.189 F 
HETATM   18  F2  UNL     1      -3.072   1.613   2.044  1.00  0.00    -0.189 F 
ENDBRANCH   9  16
ENDBRANCH   1   3
BRANCH   1  19
HETATM   19  C9  UNL     1       0.478  -0.526   0.758  1.00  0.00     0.121 C 
BRANCH  19  20
HETATM   20  C10 UNL     1       1.458   0.365   0.139  1.00  0.00     0.020 C 
BRANCH  20  21
HETATM   21  C11 UNL     1       1.957   1.534   0.911  1.00  0.00     0.002 C 
BRANCH  21  22
HETATM   22  C12 UNL     1       2.964   2.300   0.065  1.00  0.00     0.000 C 
BRANCH  22  23
HETATM   23  C13 UNL     1       4.131   1.497  -0.402  1.00  0.00     0.007 C 
BRANCH  23  24
HETATM   24  C14 UNL     1       4.945   0.968   0.744  1.00  0.00     0.078 C 
BRANCH  24  25
HETATM   25  C15 UNL     1       6.040   0.112   0.164  1.00  0.00     0.097 A 
HETATM   26  N3  UNL     1       6.182  -0.200  -1.153  1.00  0.00    -0.287 N 
HETATM   27  N4  UNL     1       7.239  -0.954  -1.281  1.00  0.00    -0.285 N 
ATOM     28  H3  UNL     1       5.568   0.103  -1.909  1.00  0.00     0.188 HD
HETATM   29  C16 UNL     1       7.827  -1.170  -0.065  1.00  0.00     0.136 A 
ATOM     30  H4  UNL     1       7.580  -1.330  -2.166  1.00  0.00     0.188 HD
HETATM   31  N5  UNL     1       7.044  -0.486   0.796  1.00  0.00    -0.331 N 
ATOM     32  H5  UNL     1       7.203  -0.435   1.802  1.00  0.00     0.168 HD
BRANCH  29  33
HETATM   33  C17 UNL     1       9.053  -1.987   0.164  1.00  0.00     0.168 C 
HETATM   34  C18 UNL     1      10.093  -1.468  -0.844  1.00  0.00     0.059 C 
HETATM   35 CL1  UNL     1       9.752  -1.732   1.766  1.00  0.00    -0.093 Cl
HETATM   36 CL2  UNL     1       8.785  -3.717  -0.069  1.00  0.00    -0.093 Cl
ENDBRANCH  29  33
ENDBRANCH  24  25
ENDBRANCH  23  24
ENDBRANCH  22  23
ENDBRANCH  21  22
ENDBRANCH  20  21
ENDBRANCH  19  20
ENDBRANCH   1  19
TORSDOF 12
