REMARK  9 active torsions:
REMARK  status: ('A' for Active; 'I' for Inactive)
REMARK    1  A    between atoms: C2_2  and  C4_4 
REMARK    2  A    between atoms: C4_4  and  C5_5 
REMARK    3  A    between atoms: C7_8  and  C8_9 
REMARK    4  A    between atoms: C8_9  and  S2_10 
REMARK    5  A    between atoms: S2_10  and  S3_11 
REMARK    6  A    between atoms: S3_11  and  C9_12 
REMARK    7  A    between atoms: C9_12  and  C10_13 
REMARK    8  A    between atoms: C10_13  and  N1_14 
REMARK    9  A    between atoms: N1_14  and  C12_16 
ROOT
HETATM    1  C8  UNL     1       1.071  -0.329  -0.727  1.00  0.00     0.102 C 
ENDROOT
BRANCH   1   2
HETATM    2  C7  UNL     1       1.638  -0.727   0.615  1.00  0.00     0.068 C 
HETATM    3  C6  UNL     1       2.261   0.430   1.344  1.00  0.00     0.091 C 
HETATM    4  S1  UNL     1       3.620   0.970   0.279  1.00  0.00    -0.152 SA
HETATM    5  C5  UNL     1       4.149  -0.517  -0.579  1.00  0.00     0.109 C 
HETATM    6  S4  UNL     1       3.088  -1.768   0.265  1.00  0.00    -0.147 SA
BRANCH   5   7
HETATM    7  C4  UNL     1       5.577  -0.806  -0.399  1.00  0.00     0.029 C 
BRANCH   7   8
HETATM    8  C2  UNL     1       6.471   0.265  -0.931  1.00  0.00    -0.021 C 
HETATM    9  C1  UNL     1       7.910  -0.229  -0.683  1.00  0.00     0.009 C 
HETATM   10  C3  UNL     1       6.314   1.629  -0.339  1.00  0.00     0.009 C 
ENDBRANCH   7   8
ENDBRANCH   5   7
ENDBRANCH   1   2
BRANCH   1  11
HETATM   11  S2  UNL     1      -0.207   0.916  -0.647  1.00  0.00    -0.096 SA
BRANCH  11  12
HETATM   12  S3  UNL     1      -1.912   0.146   0.320  1.00  0.00    -0.092 SA
BRANCH  12  13
HETATM   13  C9  UNL     1      -3.000  -0.602  -0.918  1.00  0.00     0.130 C 
BRANCH  13  14
HETATM   14  C10 UNL     1      -4.236  -1.165  -0.257  1.00  0.00     0.069 C 
BRANCH  14  15
HETATM   15  N1  UNL     1      -5.028  -0.234   0.436  1.00  0.00    -0.393 N 
HETATM   16  C11 UNL     1      -4.526   0.364   1.611  1.00  0.00     0.149 C 
BRANCH  15  17
HETATM   17  C12 UNL     1      -6.091   0.401  -0.242  1.00  0.00     0.074 C 
HETATM   18  C13 UNL     1      -7.091  -0.670  -0.656  1.00  0.00     0.032 C 
HETATM   19  C14 UNL     1      -6.790   1.352   0.719  1.00  0.00     0.032 C 
ENDBRANCH  15  17
ENDBRANCH  14  15
ENDBRANCH  13  14
ENDBRANCH  12  13
ENDBRANCH  11  12
ENDBRANCH   1  11
TORSDOF 9
