REMARK  1 active torsions:
REMARK  status: ('A' for Active; 'I' for Inactive)
REMARK    1  A    between atoms: N2_4  and  N3_6 
ROOT
HETATM    1  N3  UNL     1       1.892   0.771  -0.345  1.00  0.00    -0.269 N 
ATOM      2  H3  UNL     1       2.070   1.693  -0.745  1.00  0.00     0.190 HD
HETATM    3  C1  UNL     1       0.693   0.354  -0.153  1.00  0.00     0.137 C 
HETATM    4  C2  UNL     1      -0.436   1.273  -0.538  1.00  0.00     0.112 C 
HETATM    5  C3  UNL     1      -1.630   0.855   0.288  1.00  0.00    -0.021 C 
HETATM    6  C4  UNL     1      -1.858  -0.410   0.611  1.00  0.00    -0.004 C 
HETATM    7  C5  UNL     1      -0.876  -1.412   0.120  1.00  0.00     0.204 C 
HETATM    8  O1  UNL     1       0.416  -0.896   0.389  1.00  0.00    -0.334 OA
ENDROOT
BRANCH   1   9
HETATM    9  N2  UNL     1       2.940  -0.069   0.007  1.00  0.00    -0.248 N 
HETATM   10  N1  UNL     1       3.467  -0.816  -0.859  1.00  0.00    -0.331 N 
ATOM     11  H12 UNL     1       3.112  -0.792  -1.815  1.00  0.00     0.178 HD
ATOM     12  H11 UNL     1       4.237  -1.433  -0.600  1.00  0.00     0.178 HD
ATOM     13  H2  UNL     1       3.283  -0.081   0.967  1.00  0.00     0.207 HD
ENDBRANCH   1   9
TORSDOF 1
