REMARK  1 active torsions:
REMARK  status: ('A' for Active; 'I' for Inactive)
REMARK    1  A    between atoms: C2_2  and  C3_3 
REMARK       I    between atoms: N1_5  and  C5_6 
ROOT
HETATM    1  C3  UNL     1       0.695  -0.428  -0.492  1.00  0.00     0.129 A 
HETATM    2  C4  UNL     1       0.208  -1.784  -0.438  1.00  0.00     0.157 A 
HETATM    3  N1  UNL     1      -0.719  -0.691  -0.097  1.00  0.00    -0.325 N 
HETATM    4  C5  UNL     1      -2.001  -0.261   0.306  1.00  0.00     0.331 C 
HETATM    5  N2  UNL     1      -2.253   1.128   0.469  1.00  0.00    -0.040 NA
HETATM    6  O1  UNL     1      -2.894  -1.093   0.512  1.00  0.00    -0.251 OA
ENDROOT
BRANCH   1   7
HETATM    7  C2  UNL     1       1.582   0.135   0.546  1.00  0.00    -0.010 C 
HETATM    8  C1  UNL     1       2.188   1.309   0.434  1.00  0.00     0.009 C 
ENDBRANCH   1   7
TORSDOF 1
