REMARK  1 active torsions:
REMARK  status: ('A' for Active; 'I' for Inactive)
REMARK    1  A    between atoms: C1_4  and  C2_5 
ROOT
HETATM    1  C2  UNL     1       0.704  -0.157  -0.373  1.00  0.00     0.122 C 
HETATM    2  C3  UNL     1      -0.169  -0.770   0.705  1.00  0.00     0.040 C 
HETATM    3  C4  UNL     1      -1.550  -0.453   0.161  1.00  0.00     0.105 C 
HETATM    4  C5  UNL     1      -1.348   0.930  -0.356  1.00  0.00     0.218 C 
HETATM    5  O1  UNL     1      -2.226   1.818  -0.507  1.00  0.00    -0.274 OA
HETATM    6  N2  UNL     1       0.032   1.085  -0.658  1.00  0.00    -0.352 N 
ATOM      7  H2  UNL     1       0.472   1.933  -1.016  1.00  0.00     0.163 HD
ENDROOT
BRANCH   1   8
HETATM    8  C1  UNL     1       2.100   0.022   0.049  1.00  0.00     0.078 C 
HETATM    9  N1  UNL     1       2.493   0.151   1.254  1.00  0.00    -0.409 N 
ATOM     10  H12 UNL     1       1.768   0.126   1.971  1.00  0.00     0.155 HD
ATOM     11  H11 UNL     1       3.462   0.275   1.547  1.00  0.00     0.155 HD
ENDBRANCH   1   8
TORSDOF 1
