REMARK  5 active torsions:
REMARK  status: ('A' for Active; 'I' for Inactive)
REMARK    1  A    between atoms: C2_2  and  S1_3 
REMARK    2  A    between atoms: S1_3  and  C3_4 
REMARK    3  A    between atoms: C3_4  and  N1_6 
REMARK    4  A    between atoms: N1_6  and  C4_8 
REMARK    5  A    between atoms: C5_12  and  S4_13 
ROOT
HETATM    1  C4  UNL     1      -0.048  -1.125  -0.109  1.00  0.00     0.116 A 
HETATM    2  S3  UNL     1      -0.143  -0.496  -1.690  1.00  0.00     0.006 SA
HETATM    3  N2  UNL     1      -1.553   0.395  -1.543  1.00  0.00    -0.318 N 
ATOM      4  H2  UNL     1      -2.015   0.960  -2.255  1.00  0.00     0.175 HD
HETATM    5  C5  UNL     1      -1.931   0.197  -0.284  1.00  0.00     0.099 A 
HETATM    6  C7  UNL     1      -1.163  -0.594   0.490  1.00  0.00     0.113 A 
HETATM    7  C8  UNL     1      -1.438  -0.915   1.903  1.00  0.00     0.105 C 
HETATM    8  N3  UNL     1      -1.662  -1.178   3.029  1.00  0.00    -0.191 NA
ENDROOT
BRANCH   1   9
HETATM    9  N1  UNL     1       0.850  -1.918   0.429  1.00  0.00    -0.334 N 
ATOM     10  H1  UNL     1       0.782  -2.221   1.401  1.00  0.00     0.168 HD
BRANCH   9  11
HETATM   11  C3  UNL     1       1.921  -2.334  -0.406  1.00  0.00     0.139 C 
HETATM   12  S2  UNL     1       1.630  -3.461  -1.547  1.00  0.00    -0.053 SA
BRANCH  11  13
HETATM   13  S1  UNL     1       3.580  -1.694  -0.283  1.00  0.00    -0.101 SA
BRANCH  13  14
HETATM   14  C2  UNL     1       3.718  -0.444   1.018  1.00  0.00     0.077 C 
HETATM   15  C1  UNL     1       2.921   0.790   0.673  1.00  0.00     0.016 C 
ENDBRANCH  13  14
ENDBRANCH  11  13
ENDBRANCH   9  11
ENDBRANCH   1   9
BRANCH   5  16
HETATM   16  S4  UNL     1      -3.447   0.986   0.348  1.00  0.00    -0.115 SA
HETATM   17  C6  UNL     1      -4.227   1.970  -0.926  1.00  0.00     0.097 C 
ENDBRANCH   5  16
TORSDOF 5
