REMARK  2 active torsions:
REMARK  status: ('A' for Active; 'I' for Inactive)
REMARK    1  A    between atoms: C2_2  and  C3_3 
REMARK    2  A    between atoms: C4_5  and  O2_7 
ROOT
HETATM    1  C3  UNL     1       1.662   0.403  -0.153  1.00  0.00     0.290 C 
HETATM    2  O1  UNL     1       0.828   1.230   0.559  1.00  0.00    -0.322 OA
HETATM    3  C4  UNL     1       0.089   2.138  -0.120  1.00  0.00     0.161 C 
HETATM    4  C5  UNL     1       0.860   3.471  -0.057  1.00  0.00     0.078 C 
HETATM    5  C6  UNL     1      -1.231   2.381   0.596  1.00  0.00     0.068 C 
HETATM    6  C7  UNL     1      -2.371   1.572   0.026  1.00  0.00     0.005 C 
HETATM    7  C8  UNL     1      -2.867   0.514   0.983  1.00  0.00     0.003 C 
HETATM    8  C9  UNL     1      -3.057  -0.845   0.289  1.00  0.00     0.035 C 
HETATM    9  C10 UNL     1      -1.692  -1.318  -0.007  1.00  0.00     0.160 C 
HETATM   10  C11 UNL     1      -1.501  -2.668  -0.568  1.00  0.00     0.040 C 
HETATM   11  C12 UNL     1      -0.067  -2.636  -1.135  1.00  0.00     0.074 C 
HETATM   12  C13 UNL     1       0.840  -1.797  -0.220  1.00  0.00     0.196 C 
HETATM   13  C14 UNL     1       2.126  -2.629  -0.091  1.00  0.00     0.082 C 
HETATM   14  O3  UNL     1       0.276  -1.733   1.014  1.00  0.00    -0.201 OA
HETATM   15  O4  UNL     1      -0.883  -1.192   1.109  1.00  0.00    -0.233 OA
HETATM   16  O5  UNL     1       1.118  -0.612  -0.831  1.00  0.00    -0.319 OA
ENDROOT
BRANCH   3  17
HETATM   17  O2  UNL     1      -0.078   1.897  -1.469  1.00  0.00    -0.365 OA
ATOM     18  H2  UNL     1      -0.597   2.534  -1.946  1.00  0.00     0.213 HD
ENDBRANCH   3  17
BRANCH   1  19
HETATM   19  C2  UNL     1       2.787   0.061   0.763  1.00  0.00     0.023 C 
HETATM   20  C1  UNL     1       4.067   0.209   0.476  1.00  0.00     0.012 C 
ENDBRANCH   1  19
TORSDOF 2
