REMARK  14 active torsions:
REMARK  status: ('A' for Active; 'I' for Inactive)
REMARK    1  A    between atoms: O1_2  and  C2_3 
REMARK    2  A    between atoms: C5_6  and  C6_7 
REMARK    3  A    between atoms: C6_7  and  C7_8 
REMARK    4  A    between atoms: C7_8  and  N1_9 
REMARK    5  A    between atoms: N1_9  and  C8_10 
REMARK    6  A    between atoms: C9_13  and  N3_14 
REMARK    7  A    between atoms: N3_14  and  C10_16 
REMARK    8  A    between atoms: C10_16  and  C11_17 
REMARK    9  A    between atoms: C11_17  and  C12_18 
REMARK   10  A    between atoms: C12_18  and  C13_19 
REMARK   11  A    between atoms: C13_19  and  N4_20 
REMARK   12  A    between atoms: C18_28  and  N6_29 
REMARK   13  A    between atoms: N6_29  and  C19_31 
REMARK   14  A    between atoms: C28_43  and  O3_44 
ROOT
HETATM    1  C19 UNL     1      -0.170   4.282  -1.331  1.00  0.00     0.051 A 
HETATM    2  C20 UNL     1       0.208   5.327  -0.488  1.00  0.00     0.037 A 
HETATM    3  C21 UNL     1       0.497   6.571  -0.962  1.00  0.00    -0.058 A 
HETATM    4  C22 UNL     1       0.882   7.703  -0.060  1.00  0.00     0.048 C 
HETATM    5  C23 UNL     1       0.425   6.834  -2.311  1.00  0.00     0.029 A 
HETATM    6  C24 UNL     1       0.054   5.821  -3.182  1.00  0.00     0.047 A 
HETATM    7  C25 UNL     1      -0.035   6.049  -4.587  1.00  0.00     0.099 C 
HETATM    8  N7  UNL     1      -0.096   6.261  -5.728  1.00  0.00    -0.191 NA
HETATM    9  C26 UNL     1      -0.234   4.570  -2.668  1.00  0.00     0.052 A 
ENDROOT
BRANCH   1  10
HETATM   10  N6  UNL     1      -0.488   3.026  -0.831  1.00  0.00    -0.191 N 
ATOM     11  H6  UNL     1      -1.381   2.972  -0.340  1.00  0.00     0.184 HD
BRANCH  10  12
HETATM   12  C18 UNL     1       0.159   1.934  -0.889  1.00  0.00     0.700 A 
HETATM   13  N5  UNL     1      -0.423   0.863  -0.298  1.00  0.00    -0.022 N 
HETATM   14  C9  UNL     1       0.105  -0.368  -0.274  1.00  0.00     0.700 A 
ATOM     15  H5  UNL     1      -1.324   1.003   0.159  1.00  0.00     0.203 HD
HETATM   16  N2  UNL     1       1.315  -0.480  -0.914  1.00  0.00    -0.148 N 
HETATM   17  C8  UNL     1       1.957   0.517  -1.514  1.00  0.00     0.287 A 
ATOM     18  H2  UNL     1       1.755  -1.400  -0.930  1.00  0.00     0.188 HD
HETATM   19  N8  UNL     1       1.318   1.748  -1.476  1.00  0.00    -0.148 N 
ATOM     20  H8  UNL     1       1.770   2.545  -1.925  1.00  0.00     0.188 HD
BRANCH  14  21
HETATM   21  N3  UNL     1      -0.374  -1.399   0.291  1.00  0.00    -0.205 N 
ATOM     22  H3  UNL     1       0.218  -2.224   0.190  1.00  0.00     0.183 HD
BRANCH  21  23
HETATM   23  C10 UNL     1      -1.545  -1.645   1.025  1.00  0.00     0.079 C 
BRANCH  23  24
HETATM   24  C11 UNL     1      -2.827  -1.699   0.268  1.00  0.00     0.047 C 
BRANCH  24  25
HETATM   25  C12 UNL     1      -3.983  -2.087   1.215  1.00  0.00     0.035 C 
BRANCH  25  26
HETATM   26  C13 UNL     1      -5.229  -2.140   0.403  1.00  0.00     0.273 C 
BRANCH  26  27
HETATM   27  N4  UNL     1      -6.388  -2.497   1.135  1.00  0.00     0.092 N 
HETATM   28  C14 UNL     1      -7.536  -2.575   0.308  1.00  0.00     0.298 C 
HETATM   29  C15 UNL     1      -8.592  -3.553   0.728  1.00  0.00     0.198 C 
HETATM   30  O2  UNL     1      -8.109  -4.820   0.965  1.00  0.00    -0.388 OA
HETATM   31  C16 UNL     1      -6.757  -4.841   1.259  1.00  0.00     0.198 C 
HETATM   32  C17 UNL     1      -6.314  -3.604   2.003  1.00  0.00     0.298 C 
ENDBRANCH  26  27
ENDBRANCH  25  26
ENDBRANCH  24  25
ENDBRANCH  23  24
ENDBRANCH  21  23
ENDBRANCH  14  21
BRANCH  17  33
HETATM   33  N1  UNL     1       3.061   0.422  -2.041  1.00  0.00    -0.387 NA
BRANCH  33  34
HETATM   34  C7  UNL     1       4.214   0.301  -2.586  1.00  0.00     0.163 C 
BRANCH  34  35
HETATM   35  C6  UNL     1       5.106  -0.946  -2.357  1.00  0.00     0.098 C 
BRANCH  35  36
HETATM   36  C5  UNL     1       5.363  -1.018  -0.914  1.00  0.00    -0.050 A 
HETATM   37  C4  UNL     1       6.307  -0.206  -0.326  1.00  0.00     0.010 A 
HETATM   38  C3  UNL     1       6.467  -0.248   1.062  1.00  0.00     0.040 A 
HETATM   39  C2  UNL     1       5.684  -1.099   1.824  1.00  0.00     0.101 A 
HETATM   40  C28 UNL     1       4.731  -1.931   1.245  1.00  0.00     0.102 A 
HETATM   41  C27 UNL     1       4.621  -1.846  -0.103  1.00  0.00     0.047 A 
BRANCH  39  42
HETATM   42  O1  UNL     1       5.904  -1.055   3.229  1.00  0.00    -0.353 OA
HETATM   43  C1  UNL     1       6.891  -0.201   3.726  1.00  0.00     0.210 C 
ENDBRANCH  39  42
BRANCH  40  44
HETATM   44  O3  UNL     1       4.016  -2.735   2.088  1.00  0.00    -0.353 OA
HETATM   45  C29 UNL     1       3.008  -3.628   1.681  1.00  0.00     0.210 C 
ENDBRANCH  40  44
ENDBRANCH  35  36
ENDBRANCH  34  35
ENDBRANCH  33  34
ENDBRANCH  17  33
ENDBRANCH  10  12
ENDBRANCH   1  10
TORSDOF 14
