REMARK  4 active torsions:
REMARK  status: ('A' for Active; 'I' for Inactive)
REMARK    1  A    between atoms: N1_2  and  C2_5 
REMARK       I    between atoms: N2_7  and  C4_8 
REMARK    2  A    between atoms: C8_13  and  N3_14 
REMARK    3  A    between atoms: N3_14  and  C9_16 
REMARK    4  A    between atoms: C9_16  and  C10_17 
ROOT
HETATM    1  C2  UNL     1      -0.454  -0.950  -0.823  1.00  0.00     0.225 C 
HETATM    2  C3  UNL     1      -1.823  -0.400  -0.851  1.00  0.00     0.160 C 
HETATM    3  N2  UNL     1      -2.151   0.540   0.178  1.00  0.00    -0.350 N 
HETATM    4  C4  UNL     1      -3.481   0.868   0.465  1.00  0.00     0.215 C 
HETATM    5  C5  UNL     1      -3.839   1.846   1.520  1.00  0.00     0.117 C 
HETATM    6  O1  UNL     1      -4.432   0.332  -0.174  1.00  0.00    -0.274 OA
HETATM    7  C6  UNL     1      -1.090   1.155   0.929  1.00  0.00     0.128 C 
HETATM    8  C7  UNL     1       0.081   1.311  -0.013  1.00  0.00     0.047 C 
HETATM    9  C8  UNL     1       0.638  -0.057  -0.292  1.00  0.00     0.114 C 
ENDROOT
BRANCH   9  10
HETATM   10  N3  UNL     1       1.698  -0.079  -1.223  1.00  0.00    -0.394 N 
ATOM     11  H3  UNL     1       1.622  -0.715  -2.017  1.00  0.00     0.159 HD
BRANCH  10  12
HETATM   12  C9  UNL     1       2.829   0.703  -1.130  1.00  0.00     0.071 C 
BRANCH  12  13
HETATM   13  C10 UNL     1       3.848   0.390  -0.081  1.00  0.00     0.091 C 
HETATM   14  C11 UNL     1       3.416   0.433   1.334  1.00  0.00     0.027 C 
HETATM   15 BR1  UNL     1       4.817  -1.235  -0.512  1.00  0.00    -0.086 Br
ENDBRANCH  12  13
ENDBRANCH  10  12
ENDBRANCH   9  10
BRANCH   1  16
HETATM   16  N1  UNL     1      -0.339  -2.273  -0.219  1.00  0.00    -0.071 N 
HETATM   17  C1  UNL     1      -1.069  -3.275  -0.980  1.00  0.00     0.267 C 
ATOM     18  H12 UNL     1      -0.630  -2.263   0.759  1.00  0.00     0.277 HD
ATOM     19  H11 UNL     1       0.637  -2.540  -0.091  1.00  0.00     0.277 HD
ENDBRANCH   1  16
TORSDOF 4
