REMARK  11 active torsions:
REMARK  status: ('A' for Active; 'I' for Inactive)
REMARK    1  A    between atoms: N1_6  and  C6_7 
REMARK    2  A    between atoms: N2_10  and  S1_11 
REMARK    3  A    between atoms: S1_11  and  C9_14 
REMARK    4  A    between atoms: C9_14  and  C10_15 
REMARK    5  A    between atoms: C10_15  and  C11_16 
REMARK    6  A    between atoms: C11_16  and  O3_17 
REMARK    7  A    between atoms: N3_19  and  O4_21 
REMARK    8  A    between atoms: N4_25  and  C14_26 
REMARK    9  A    between atoms: C14_26  and  O5_27 
REMARK   10  A    between atoms: C14_26  and  C15_29 
REMARK   11  A    between atoms: C15_29  and  C16_31 
ROOT
HETATM    1  C10 UNL     1       0.948  -2.013   0.058  1.00  0.00     0.043 C 
HETATM    2  C12 UNL     1       1.680  -1.282   1.127  1.00  0.00     0.039 C 
HETATM    3  C13 UNL     1       2.025   0.138   0.728  1.00  0.00     0.126 C 
HETATM    4  N4  UNL     1       2.915  -0.016  -0.458  1.00  0.00    -0.359 N 
HETATM    5  C22 UNL     1       2.273  -0.648  -1.568  1.00  0.00     0.126 C 
HETATM    6  C23 UNL     1       1.790  -2.049  -1.230  1.00  0.00     0.039 C 
ENDROOT
BRANCH   1   7
HETATM    7  C9  UNL     1      -0.388  -1.430  -0.213  1.00  0.00     0.175 C 
BRANCH   7   8
HETATM    8  S1  UNL     1      -1.559  -1.460   1.079  1.00  0.00     0.212 S 
HETATM    9  O1  UNL     1      -1.141  -0.653   2.300  1.00  0.00    -0.211 OA
HETATM   10  O2  UNL     1      -1.823  -2.855   1.565  1.00  0.00    -0.211 OA
BRANCH   8  11
HETATM   11  N2  UNL     1      -3.076  -0.781   0.599  1.00  0.00    -0.210 NA
HETATM   12  C8  UNL     1      -3.719  -1.462  -0.465  1.00  0.00     0.109 C 
HETATM   13  C7  UNL     1      -4.554  -0.625  -1.360  1.00  0.00     0.051 C 
HETATM   14  C6  UNL     1      -5.184   0.587  -0.758  1.00  0.00     0.226 C 
HETATM   15  C25 UNL     1      -4.519   1.084   0.490  1.00  0.00     0.051 C 
HETATM   16  C24 UNL     1      -3.050   0.635   0.424  1.00  0.00     0.109 C 
BRANCH  14  17
HETATM   17  N1  UNL     1      -6.607   0.397  -0.622  1.00  0.00     0.097 N 
HETATM   18  C2  UNL     1      -7.374   1.554  -0.334  1.00  0.00     0.219 C 
HETATM   19  C1  UNL     1      -6.955   2.814  -1.000  1.00  0.00     0.043 C 
HETATM   20  C3  UNL     1      -7.511   1.663   1.168  1.00  0.00     0.037 C 
HETATM   21  C4  UNL     1      -7.573   0.206   1.555  1.00  0.00     0.032 C 
HETATM   22  C5  UNL     1      -6.967  -0.566   0.385  1.00  0.00     0.273 C 
ENDBRANCH  14  17
ENDBRANCH   8  11
ENDBRANCH   7   8
ENDBRANCH   1   7
BRANCH   1  23
HETATM   23  C11 UNL     1       0.771  -3.436   0.429  1.00  0.00     0.145 C 
HETATM   24  N3  UNL     1       1.156  -3.866   1.568  1.00  0.00    -0.250 N 
ATOM     25  H3  UNL     1       1.591  -3.231   2.237  1.00  0.00     0.196 HD
BRANCH  23  26
HETATM   26  O3  UNL     1       0.184  -4.299  -0.469  1.00  0.00    -0.347 OA
ATOM     27  H3  UNL     1       0.070  -5.212  -0.231  1.00  0.00     0.219 HD
ENDBRANCH  23  26
BRANCH  24  28
HETATM   28  O4  UNL     1       0.980  -5.186   1.884  1.00  0.00    -0.288 OA
ATOM     29  H4  UNL     1       1.266  -5.506   2.731  1.00  0.00     0.244 HD
ENDBRANCH  24  28
ENDBRANCH   1  23
BRANCH   4  30
HETATM   30  C14 UNL     1       4.225   0.463  -0.332  1.00  0.00     0.185 C 
BRANCH  30  31
HETATM   31  O5  UNL     1       4.577   1.008   0.797  1.00  0.00    -0.344 OA
ATOM     32  H5  UNL     1       5.466   1.333   0.882  1.00  0.00     0.219 HD
ENDBRANCH  30  31
BRANCH  30  33
HETATM   33  C15 UNL     1       5.267   0.431  -1.319  1.00  0.00     0.203 C 
HETATM   34  O6  UNL     1       5.094  -0.071  -2.468  1.00  0.00    -0.288 OA
BRANCH  33  35
HETATM   35  C16 UNL     1       6.623   0.993  -1.045  1.00  0.00     0.064 C 
HETATM   36  C17 UNL     1       6.554   2.469  -0.735  1.00  0.00     0.013 C 
HETATM   37  C18 UNL     1       7.978   3.014  -0.886  1.00  0.00     0.001 C 
HETATM   38  C19 UNL     1       8.952   2.142  -0.111  1.00  0.00     0.000 C 
HETATM   39  C20 UNL     1       8.219   1.225   0.842  1.00  0.00     0.001 C 
HETATM   40  C21 UNL     1       7.348   0.239   0.056  1.00  0.00     0.013 C 
ENDBRANCH  33  35
ENDBRANCH  30  33
ENDBRANCH   4  30
TORSDOF 11
