REMARK  16 active torsions:
REMARK  status: ('A' for Active; 'I' for Inactive)
REMARK    1  A    between atoms: S1_2  and  C2_3 
REMARK    2  A    between atoms: C3_6  and  S2_7 
REMARK    3  A    between atoms: S2_7  and  S3_8 
REMARK    4  A    between atoms: S3_8  and  C4_9 
REMARK    5  A    between atoms: C4_9  and  C5_10 
REMARK    6  A    between atoms: C6_12  and  N3_13 
REMARK    7  A    between atoms: C7_20  and  O2_21 
REMARK    8  A    between atoms: O2_21  and  C8_22 
REMARK    9  A    between atoms: C8_22  and  C9_23 
REMARK   10  A    between atoms: C10_24  and  O3_25 
REMARK   11  A    between atoms: C11_27  and  O4_28 
REMARK   12  A    between atoms: C12_30  and  O5_31 
REMARK   13  A    between atoms: C13_33  and  O6_34 
REMARK   14  A    between atoms: C14_36  and  O7_37 
REMARK   15  A    between atoms: C15_39  and  N5_40 
REMARK   16  A    between atoms: C16_44  and  O8_45 
ROOT
HETATM    1  C5  UNL     1       0.060  -0.646  -0.309  1.00  0.00     0.192 C 
HETATM    2  O1  UNL     1       0.447  -1.878  -0.828  1.00  0.00    -0.328 OA
HETATM    3  C6  UNL     1      -0.568  -2.194  -1.700  1.00  0.00     0.525 C 
HETATM    4  N4  UNL     1      -0.738  -0.928  -2.429  1.00  0.00     0.006 N 
ATOM      5  H41 UNL     1      -1.477  -0.907  -3.132  1.00  0.00     0.285 HD
ATOM      6  H42 UNL     1      -0.001  -0.685  -3.091  1.00  0.00     0.285 HD
HETATM    7  C7  UNL     1      -0.906  -0.024  -1.278  1.00  0.00     0.356 C 
ENDROOT
BRANCH   7   8
HETATM    8  O2  UNL     1      -2.205  -0.222  -0.828  1.00  0.00    -0.356 OA
BRANCH   8   9
HETATM    9  C8  UNL     1      -2.924   0.978  -0.790  1.00  0.00     0.180 C 
BRANCH   9  10
HETATM   10  C9  UNL     1      -4.342   0.732  -0.289  1.00  0.00     0.072 C 
HETATM   11  C10 UNL     1      -4.293   0.154   1.082  1.00  0.00     0.158 C 
HETATM   12  C11 UNL     1      -5.481   0.378   1.940  1.00  0.00     0.178 C 
HETATM   13  C12 UNL     1      -6.687   0.636   1.098  1.00  0.00     0.180 C 
HETATM   14  C13 UNL     1      -6.466   1.921   0.335  1.00  0.00     0.178 C 
HETATM   15  C14 UNL     1      -5.196   1.957  -0.420  1.00  0.00     0.158 C 
BRANCH  11  16
HETATM   16  O3  UNL     1      -3.974  -1.215   1.033  1.00  0.00    -0.392 OA
ATOM     17  H3  UNL     1      -3.943  -1.584   1.908  1.00  0.00     0.210 HD
ENDBRANCH  11  16
BRANCH  12  18
HETATM   18  O4  UNL     1      -5.284   1.340   2.925  1.00  0.00    -0.390 OA
ATOM     19  H4  UNL     1      -6.045   1.484   3.475  1.00  0.00     0.210 HD
ENDBRANCH  12  18
BRANCH  13  20
HETATM   20  O5  UNL     1      -6.891  -0.426   0.250  1.00  0.00    -0.390 OA
ATOM     21  H5  UNL     1      -7.658  -0.262  -0.286  1.00  0.00     0.210 HD
ENDBRANCH  13  20
BRANCH  14  22
HETATM   22  O6  UNL     1      -7.536   2.030  -0.562  1.00  0.00    -0.390 OA
ATOM     23  H6  UNL     1      -7.397   2.838  -1.042  1.00  0.00     0.210 HD
ENDBRANCH  14  22
BRANCH  15  24
HETATM   24  O7  UNL     1      -4.429   3.042   0.056  1.00  0.00    -0.392 OA
ATOM     25  H7  UNL     1      -4.970   3.818  -0.027  1.00  0.00     0.210 HD
ENDBRANCH  15  24
ENDBRANCH   9  10
ENDBRANCH   8   9
ENDBRANCH   7   8
BRANCH   1  26
HETATM   26  C4  UNL     1       1.216   0.243   0.029  1.00  0.00     0.122 C 
BRANCH  26  27
HETATM   27  S3  UNL     1       2.259   0.619  -1.389  1.00  0.00    -0.093 SA
BRANCH  27  28
HETATM   28  S2  UNL     1       3.259  -1.102  -2.117  1.00  0.00    -0.072 SA
BRANCH  28  29
HETATM   29  C3  UNL     1       4.853  -1.355  -1.343  1.00  0.00     0.200 C 
HETATM   30  N2  UNL     1       5.761  -0.283  -1.720  1.00  0.00    -0.129 NA
HETATM   31  N1  UNL     1       6.990  -0.412  -1.066  1.00  0.00    -0.129 NA
HETATM   32  C2  UNL     1       6.846  -0.064   0.312  1.00  0.00     0.186 C 
HETATM   33  C16 UNL     1       5.515  -0.418   0.882  1.00  0.00     0.181 C 
HETATM   34  C15 UNL     1       4.799  -1.532   0.152  1.00  0.00     0.245 C 
BRANCH  32  35
HETATM   35  S1  UNL     1       7.133   1.722   0.589  1.00  0.00    -0.148 SA
HETATM   36  C1  UNL     1       6.920   2.030   2.369  1.00  0.00     0.091 C 
ENDBRANCH  32  35
BRANCH  33  37
HETATM   37  O8  UNL     1       4.685   0.688   1.053  1.00  0.00    -0.391 OA
ATOM     38  H8  UNL     1       3.837   0.462   1.416  1.00  0.00     0.210 HD
ENDBRANCH  33  37
BRANCH  34  39
HETATM   39  N5  UNL     1       5.413  -2.790   0.537  1.00  0.00    -0.070 N 
ATOM     40  H53 UNL     1       4.997  -3.581   0.046  1.00  0.00     0.274 HD
ATOM     41  H52 UNL     1       6.365  -2.873   0.179  1.00  0.00     0.274 HD
ATOM     42  H51 UNL     1       5.376  -2.910   1.549  1.00  0.00     0.274 HD
ENDBRANCH  34  39
ENDBRANCH  28  29
ENDBRANCH  27  28
ENDBRANCH  26  27
ENDBRANCH   1  26
BRANCH   3  43
HETATM   43  N3  UNL     1      -0.212  -3.193  -2.666  1.00  0.00    -0.027 N 
ATOM     44  H33 UNL     1       0.627  -2.916  -3.176  1.00  0.00     0.279 HD
ATOM     45  H32 UNL     1       0.138  -4.032  -2.203  1.00  0.00     0.279 HD
ATOM     46  H31 UNL     1      -0.965  -3.427  -3.313  1.00  0.00     0.279 HD
ENDBRANCH   3  43
TORSDOF 16
