REMARK  15 active torsions:
REMARK  status: ('A' for Active; 'I' for Inactive)
REMARK    1  A    between atoms: C2_2  and  C3_3 
REMARK    2  A    between atoms: C3_3  and  N1_4 
REMARK    3  A    between atoms: N1_4  and  C4_6 
REMARK    4  A    between atoms: C5_9  and  C6_10 
REMARK    5  A    between atoms: C6_10  and  N3_11 
REMARK    6  A    between atoms: N4_14  and  C9_15 
REMARK    7  A    between atoms: C12_18  and  C13_19 
REMARK    8  A    between atoms: C13_19  and  C14_20 
REMARK    9  A    between atoms: C14_20  and  N5_21 
REMARK   10  A    between atoms: N6_24  and  C17_25 
REMARK   11  A    between atoms: C17_25  and  C18_26 
REMARK   12  A    between atoms: C18_26  and  O1_27 
REMARK   13  A    between atoms: C18_26  and  C19_29 
REMARK   14  A    between atoms: C19_29  and  C20_30 
REMARK   15  A    between atoms: C20_30  and  C21_31 
REMARK       I    between atoms: C21_31  and  N7_33 
ROOT
HETATM    1  C9  UNL     1      -3.018  -0.722  -0.598  1.00  0.00     0.103 A 
HETATM    2  C10 UNL     1      -2.426  -0.282   0.566  1.00  0.00     0.049 A 
HETATM    3  C11 UNL     1      -1.152  -0.717   0.948  1.00  0.00     0.012 A 
HETATM    4  C12 UNL     1      -0.490  -1.596   0.141  1.00  0.00    -0.041 A 
HETATM    5  C28 UNL     1      -1.092  -2.032  -1.021  1.00  0.00     0.096 A 
HETATM    6  N8  UNL     1      -2.335  -1.586  -1.360  1.00  0.00    -0.352 N 
ATOM      7  H8  UNL     1      -2.760  -1.922  -2.224  1.00  0.00     0.166 HD
ENDROOT
BRANCH   4   8
HETATM    8  C13 UNL     1       0.867  -2.060   0.427  1.00  0.00     0.070 C 
BRANCH   8   9
HETATM    9  C14 UNL     1       1.789  -1.135  -0.385  1.00  0.00     0.277 C 
BRANCH   9  10
HETATM   10  N5  UNL     1       1.714   0.225   0.008  1.00  0.00     0.092 N 
HETATM   11  C15 UNL     1       2.230   1.155  -0.985  1.00  0.00     0.302 C 
HETATM   12  C16 UNL     1       3.655   1.562  -0.707  1.00  0.00     0.302 C 
HETATM   13  N6  UNL     1       4.212   0.364  -0.016  1.00  0.00     0.094 N 
HETATM   14  C26 UNL     1       3.762   0.421   1.328  1.00  0.00     0.302 C 
HETATM   15  C27 UNL     1       2.228   0.500   1.316  1.00  0.00     0.302 C 
BRANCH  13  16
HETATM   16  C17 UNL     1       5.577   0.211  -0.315  1.00  0.00     0.303 C 
BRANCH  16  17
HETATM   17  C18 UNL     1       6.116  -1.119   0.124  1.00  0.00     0.146 C 
BRANCH  17  18
HETATM   18  O1  UNL     1       6.111  -1.355   1.476  1.00  0.00    -0.394 OA
ATOM     19  H1  UNL     1       6.452  -2.197   1.754  1.00  0.00     0.210 HD
ENDBRANCH  17  18
BRANCH  17  20
HETATM   20  C19 UNL     1       7.482  -1.432  -0.445  1.00  0.00     0.042 C 
BRANCH  20  21
HETATM   21  C20 UNL     1       8.468  -0.390   0.006  1.00  0.00     0.105 C 
BRANCH  21  22
HETATM   22  C21 UNL     1       9.804  -0.654  -0.572  1.00  0.00     0.219 C 
HETATM   23  O2  UNL     1       9.922  -1.654  -1.357  1.00  0.00    -0.273 OA
HETATM   24  N7  UNL     1      10.916   0.141  -0.295  1.00  0.00    -0.352 N 
HETATM   25  C22 UNL     1      12.252  -0.044  -0.844  1.00  0.00     0.126 C 
HETATM   26  C25 UNL     1      10.993   1.289   0.576  1.00  0.00     0.126 C 
HETATM   27  C23 UNL     1      13.186   0.611   0.131  1.00  0.00     0.021 C 
HETATM   28  C24 UNL     1      12.299   1.031   1.305  1.00  0.00     0.021 C 
ENDBRANCH  21  22
ENDBRANCH  20  21
ENDBRANCH  17  20
ENDBRANCH  16  17
ENDBRANCH  13  16
ENDBRANCH   9  10
ENDBRANCH   8   9
ENDBRANCH   4   8
BRANCH   1  29
HETATM   29  N4  UNL     1      -4.297  -0.273  -0.999  1.00  0.00    -0.361 N 
HETATM   30  C8  UNL     1      -5.495  -0.919  -0.525  1.00  0.00     0.145 C 
HETATM   31  C7  UNL     1      -6.681  -0.446  -1.378  1.00  0.00     0.147 C 
HETATM   32  N3  UNL     1      -6.764   0.949  -1.345  1.00  0.00    -0.365 N 
HETATM   33  C30 UNL     1      -5.571   1.696  -1.301  1.00  0.00     0.083 C 
HETATM   34  C29 UNL     1      -4.451   0.869  -1.916  1.00  0.00     0.169 C 
BRANCH  32  35
HETATM   35  C6  UNL     1      -7.967   1.598  -1.056  1.00  0.00     0.120 C 
BRANCH  35  36
HETATM   36  C5  UNL     1      -8.520   1.219   0.319  1.00  0.00     0.056 A 
HETATM   37  N2  UNL     1      -9.523   0.408   0.487  1.00  0.00    -0.335 N 
HETATM   38  C4  UNL     1      -9.934   0.128   1.724  1.00  0.00     0.144 A 
ATOM     39  H2  UNL     1      -9.990  -0.009  -0.318  1.00  0.00     0.168 HD
HETATM   40  S1  UNL     1      -8.860   1.048   2.691  1.00  0.00    -0.064 SA
HETATM   41  C31 UNL     1      -7.934   1.746   1.439  1.00  0.00     0.084 A 
BRANCH  38  42
HETATM   42  N1  UNL     1     -10.922  -0.651   2.117  1.00  0.00    -0.370 N 
ATOM     43  H1  UNL     1     -11.114  -0.765   3.112  1.00  0.00     0.161 HD
BRANCH  42  44
HETATM   44  C3  UNL     1     -11.723  -1.335   1.156  1.00  0.00     0.121 C 
BRANCH  44  45
HETATM   45  C2  UNL     1     -13.073  -0.692   0.929  1.00  0.00     0.015 C 
HETATM   46  C1  UNL     1     -12.969   0.720   0.456  1.00  0.00     0.006 C 
ENDBRANCH  44  45
ENDBRANCH  42  44
ENDBRANCH  38  42
ENDBRANCH  35  36
ENDBRANCH  32  35
ENDBRANCH   1  29
TORSDOF 15
