REMARK  4 active torsions:
REMARK  status: ('A' for Active; 'I' for Inactive)
REMARK    1  A    between atoms: C3_3  and  O1_4 
REMARK    2  A    between atoms: C4_6  and  O2_7 
REMARK    3  A    between atoms: C5_9  and  O3_10 
REMARK    4  A    between atoms: C7_13  and  O4_15 
ROOT
HETATM    1  C1  UNL     1      -1.064  -2.159  -0.214  1.00  0.00     0.016 C 
HETATM    2  C2  UNL     1      -0.539  -0.773  -0.575  1.00  0.00     0.047 C 
HETATM    3  C3  UNL     1       0.923  -0.835  -0.761  1.00  0.00     0.156 C 
HETATM    4  C4  UNL     1       1.688   0.141   0.143  1.00  0.00     0.176 C 
HETATM    5  C5  UNL     1       1.020   1.489  -0.169  1.00  0.00     0.152 C 
HETATM    6  C6  UNL     1      -0.282   1.457   0.575  1.00  0.00     0.072 C 
HETATM    7  C7  UNL     1      -1.041   0.187   0.441  1.00  0.00     0.062 C 
HETATM    8  C8  UNL     1      -2.481   0.565   0.059  1.00  0.00     0.046 C 
ENDROOT
BRANCH   7   9
HETATM    9  O4  UNL     1      -1.149  -0.401   1.721  1.00  0.00    -0.390 OA
ATOM     10  H4  UNL     1      -1.470   0.213   2.371  1.00  0.00     0.210 HD
ENDBRANCH   7   9
BRANCH   3  11
HETATM   11  O1  UNL     1       1.495  -2.076  -0.576  1.00  0.00    -0.392 OA
ATOM     12  H1  UNL     1       2.437  -2.116  -0.696  1.00  0.00     0.210 HD
ENDBRANCH   3  11
BRANCH   5  13
HETATM   13  O3  UNL     1       1.791   2.553   0.209  1.00  0.00    -0.393 OA
ATOM     14  H3  UNL     1       1.378   3.386   0.016  1.00  0.00     0.210 HD
ENDBRANCH   5  13
BRANCH   4  15
HETATM   15  O2  UNL     1       3.022   0.138  -0.159  1.00  0.00    -0.390 OA
ATOM     16  H2  UNL     1       3.496   0.742   0.401  1.00  0.00     0.210 HD
ENDBRANCH   4  15
TORSDOF 4
