REMARK  4 active torsions:
REMARK  status: ('A' for Active; 'I' for Inactive)
REMARK    1  A    between atoms: N1_2  and  N2_4 
REMARK    2  A    between atoms: N2_4  and  C1_6 
REMARK    3  A    between atoms: C3_11  and  C4_12 
REMARK    4  A    between atoms: C9_18  and  N4_19 
ROOT
HETATM    1  C1  UNL     1       2.749  -0.180   0.311  1.00  0.00     0.165 C 
HETATM    2  N3  UNL     1       2.967  -0.860  -0.720  1.00  0.00    -0.340 N 
ATOM      3  H3  UNL     1       3.952  -0.910  -0.981  1.00  0.00     0.167 HD
HETATM    4  C2  UNL     1       2.110  -1.568  -1.587  1.00  0.00     0.137 C 
HETATM    5  S1  UNL     1       0.440  -0.832  -1.682  1.00  0.00    -0.104 SA
HETATM    6  C3  UNL     1      -0.125  -0.809   0.093  1.00  0.00     0.157 C 
HETATM    7  S2  UNL     1       1.149   0.073   0.986  1.00  0.00    -0.072 SA
ENDROOT
BRANCH   6   8
HETATM    8  C4  UNL     1      -1.409  -0.060   0.041  1.00  0.00    -0.001 A 
HETATM    9  C5  UNL     1      -1.477   1.047  -0.809  1.00  0.00     0.015 A 
HETATM   10  C6  UNL     1      -2.644   1.756  -0.952  1.00  0.00     0.043 A 
HETATM   11  C7  UNL     1      -3.772   1.377  -0.248  1.00  0.00     0.118 A 
HETATM   12  F1  UNL     1      -4.945   2.073  -0.377  1.00  0.00    -0.206 F 
HETATM   13  C8  UNL     1      -3.730   0.302   0.587  1.00  0.00     0.079 A 
HETATM   14  C9  UNL     1      -2.524  -0.418   0.726  1.00  0.00     0.114 A 
BRANCH  14  15
HETATM   15  N4  UNL     1      -2.536  -1.518   1.620  1.00  0.00    -0.115 N 
HETATM   16  O3  UNL     1      -3.581  -2.191   1.823  1.00  0.00    -0.532 OA
HETATM   17  O4  UNL     1      -1.427  -1.910   2.304  1.00  0.00    -0.532 OA
ENDBRANCH  14  15
ENDBRANCH   6   8
BRANCH   1  18
HETATM   18  N2  UNL     1       3.865   0.409   0.954  1.00  0.00    -0.219 N 
ATOM     19  H2  UNL     1       4.184   0.057   1.857  1.00  0.00     0.195 HD
BRANCH  18  20
HETATM   20  N1  UNL     1       4.517   1.464   0.348  1.00  0.00    -0.037 N 
HETATM   21  O1  UNL     1       4.086   2.615   0.526  1.00  0.00    -0.516 OA
HETATM   22  O2  UNL     1       5.622   1.299  -0.445  1.00  0.00    -0.516 OA
ENDBRANCH  18  20
ENDBRANCH   1  18
TORSDOF 4
