REMARK  9 active torsions:
REMARK  status: ('A' for Active; 'I' for Inactive)
REMARK    1  A    between atoms: C2_3  and  C3_4 
REMARK    2  A    between atoms: C4_7  and  C5_8 
REMARK    3  A    between atoms: C11_16  and  N4_17 
REMARK    4  A    between atoms: N5_19  and  C12_21 
REMARK    5  A    between atoms: C15_24  and  C16_25 
REMARK    6  A    between atoms: C19_28  and  O1_29 
REMARK    7  A    between atoms: C24_37  and  C25_38 
REMARK    8  A    between atoms: C25_38  and  C26_39 
REMARK    9  A    between atoms: C26_39  and  N8_40 
ROOT
HETATM    1  C3  UNL     1      -2.823   0.023  -0.024  1.00  0.00     0.108 A 
HETATM    2  N2  UNL     1      -3.885  -0.818  -0.081  1.00  0.00    -0.337 N 
ATOM      3  H2  UNL     1      -4.829  -0.524  -0.330  1.00  0.00     0.167 HD
HETATM    4  C4  UNL     1      -3.555  -2.075   0.226  1.00  0.00     0.117 A 
HETATM    5  N3  UNL     1      -2.244  -2.050   0.490  1.00  0.00    -0.325 N 
ATOM      6  H3  UNL     1      -1.683  -2.858   0.760  1.00  0.00     0.169 HD
HETATM    7  C11 UNL     1      -1.771  -0.773   0.342  1.00  0.00     0.151 A 
ENDROOT
BRANCH   7   8
HETATM    8  N4  UNL     1      -0.398  -0.394   0.485  1.00  0.00    -0.283 N 
HETATM    9  N5  UNL     1       0.513  -1.044  -0.110  1.00  0.00    -0.299 N 
ATOM     10  H5  UNL     1       0.229  -1.835  -0.688  1.00  0.00     0.187 HD
ATOM     11  H4  UNL     1      -0.151   0.405   1.070  1.00  0.00     0.188 HD
BRANCH   9  12
HETATM   12  C12 UNL     1       1.897  -0.751  -0.031  1.00  0.00     0.050 A 
HETATM   13  C13 UNL     1       2.807  -1.723  -0.429  1.00  0.00     0.032 A 
HETATM   14  C14 UNL     1       4.172  -1.499  -0.371  1.00  0.00     0.016 A 
HETATM   15  C15 UNL     1       4.696  -0.308   0.081  1.00  0.00     0.000 A 
HETATM   16  C22 UNL     1       3.789   0.665   0.479  1.00  0.00     0.059 A 
HETATM   17  N7  UNL     1       4.291   1.907   0.947  1.00  0.00    -0.101 NA
HETATM   18  C23 UNL     1       2.423   0.439   0.420  1.00  0.00     0.058 A 
BRANCH  15  19
HETATM   19  C16 UNL     1       6.128  -0.066   0.160  1.00  0.00     0.000 A 
HETATM   20  C17 UNL     1       6.742   0.429   1.304  1.00  0.00     0.017 A 
HETATM   21  C18 UNL     1       8.107   0.634   1.350  1.00  0.00     0.037 A 
HETATM   22  C19 UNL     1       8.911   0.355   0.265  1.00  0.00     0.067 A 
HETATM   23  C20 UNL     1       8.318  -0.132  -0.865  1.00  0.00     0.064 A 
HETATM   24  C21 UNL     1       6.937  -0.336  -0.905  1.00  0.00     0.060 A 
HETATM   25  N6  UNL     1       6.396  -0.833  -2.107  1.00  0.00    -0.101 NA
BRANCH  22  26
HETATM   26  O1  UNL     1      10.283   0.581   0.367  1.00  0.00    -0.361 OA
ATOM     27  H1  UNL     1      10.837   0.389  -0.380  1.00  0.00     0.217 HD
ENDBRANCH  22  26
ENDBRANCH  15  19
ENDBRANCH   9  12
ENDBRANCH   7   8
BRANCH   1  28
HETATM   28  C2  UNL     1      -2.798   1.430  -0.395  1.00  0.00     0.089 A 
HETATM   29  N1  UNL     1      -3.069   1.705  -1.721  1.00  0.00    -0.185 N 
HETATM   30  C1  UNL     1      -3.439   0.600  -2.579  1.00  0.00     0.175 C 
HETATM   31  C28 UNL     1      -2.955   2.950  -2.179  1.00  0.00     0.678 A 
HETATM   32  N9  UNL     1      -2.565   3.939  -1.317  1.00  0.00    -0.201 N 
HETATM   33  N10 UNL     1      -3.213   3.264  -3.391  1.00  0.00    -0.234 N 
HETATM   34  C27 UNL     1      -2.298   3.705  -0.035  1.00  0.00     0.115 A 
ATOM     35  H9  UNL     1      -2.476   4.891  -1.671  1.00  0.00     0.183 HD
HETATM   36  C24 UNL     1      -2.417   2.394   0.469  1.00  0.00    -0.011 A 
ATOM     37 2H10 UNL     1      -3.504   2.527  -4.033  1.00  0.00     0.174 HD
ATOM     38 1H10 UNL     1      -3.126   4.218  -3.742  1.00  0.00     0.174 HD
BRANCH  36  39
HETATM   39  C25 UNL     1      -2.244   2.172   1.911  1.00  0.00     0.069 C 
BRANCH  39  40
HETATM   40  C26 UNL     1      -3.676   2.189   2.500  1.00  0.00     0.234 C 
BRANCH  40  41
HETATM   41  N8  UNL     1      -4.309   3.449   2.247  1.00  0.00    -0.079 N 
ATOM     42  H83 UNL     1      -3.749   4.230   2.589  1.00  0.00     0.274 HD
ATOM     43  H82 UNL     1      -4.305   3.683   1.254  1.00  0.00     0.274 HD
ATOM     44  H81 UNL     1      -5.252   3.460   2.635  1.00  0.00     0.274 HD
ENDBRANCH  40  41
ENDBRANCH  39  40
ENDBRANCH  36  39
ENDBRANCH   1  28
BRANCH   4  45
HETATM   45  C5  UNL     1      -4.441  -3.231   0.268  1.00  0.00     0.008 A 
HETATM   46  C6  UNL     1      -3.998  -4.496   0.593  1.00  0.00     0.015 A 
HETATM   47  C7  UNL     1      -4.870  -5.583   0.626  1.00  0.00     0.001 A 
HETATM   48  C8  UNL     1      -6.206  -5.424   0.333  1.00  0.00     0.000 A 
HETATM   49  C9  UNL     1      -6.658  -4.167   0.007  1.00  0.00     0.001 A 
HETATM   50  C10 UNL     1      -5.780  -3.105  -0.020  1.00  0.00     0.015 A 
ENDBRANCH   4  45
TORSDOF 9
