REMARK  10 active torsions:
REMARK  status: ('A' for Active; 'I' for Inactive)
REMARK    1  A    between atoms: C2_2  and  N1_3 
REMARK    2  A    between atoms: C2_2  and  C3_7 
REMARK    3  A    between atoms: C2_2  and  C4_12 
REMARK    4  A    between atoms: C3_7  and  N2_8 
REMARK    5  A    between atoms: C7_15  and  C8_16 
REMARK    6  A    between atoms: C10_18  and  N3_19 
REMARK    7  A    between atoms: N3_19  and  N4_20 
REMARK    8  A    between atoms: N3_19  and  C11_23 
REMARK    9  A    between atoms: C11_23  and  C12_24 
REMARK   10  A    between atoms: C15_27  and  C16_28 
ROOT
HETATM    1  C8  UNL     1      -2.796   0.440   0.882  1.00  0.00     0.046 A 
HETATM    2  C9  UNL     1      -1.734  -0.127   0.237  1.00  0.00     0.064 A 
HETATM    3  C10 UNL     1      -0.442   0.067   0.629  1.00  0.00     0.083 A 
HETATM    4  C25 UNL     1      -0.227   0.881   1.731  1.00  0.00     0.109 A 
HETATM    5  N7  UNL     1       0.919   1.231   2.313  1.00  0.00    -0.303 N 
ATOM      6  H7  UNL     1       1.859   0.950   2.034  1.00  0.00     0.171 HD
HETATM    7  C26 UNL     1       0.585   2.035   3.349  1.00  0.00     0.326 A 
HETATM    8  O1  UNL     1       1.414   2.553   4.120  1.00  0.00    -0.247 OA
HETATM    9  N8  UNL     1      -0.747   2.186   3.412  1.00  0.00    -0.292 N 
ATOM     10  H8  UNL     1      -1.258   2.742   4.097  1.00  0.00     0.172 HD
HETATM   11  C27 UNL     1      -1.291   1.464   2.398  1.00  0.00     0.139 A 
HETATM   12  N9  UNL     1      -2.519   1.232   1.962  1.00  0.00    -0.340 N 
ATOM     13  H9  UNL     1      -3.298   1.666   2.457  1.00  0.00     0.167 HD
ENDROOT
BRANCH   3  14
HETATM   14  N3  UNL     1       0.704  -0.508  -0.020  1.00  0.00    -0.292 N 
BRANCH  14  15
HETATM   15  N4  UNL     1       0.831  -1.876   0.107  1.00  0.00    -0.342 N 
ATOM     16  H42 UNL     1       0.215  -2.510   0.616  1.00  0.00     0.177 HD
ATOM     17  H41 UNL     1       1.644  -2.284  -0.354  1.00  0.00     0.177 HD
ENDBRANCH  14  15
BRANCH  14  18
HETATM   18  C11 UNL     1       1.556   0.369  -0.724  1.00  0.00     0.187 C 
BRANCH  18  19
HETATM   19  C12 UNL     1       3.000   0.116  -0.770  1.00  0.00    -0.038 A 
HETATM   20  C13 UNL     1       3.861   1.233  -0.768  1.00  0.00     0.010 A 
HETATM   21  C14 UNL     1       5.218   1.133  -0.755  1.00  0.00     0.016 A 
HETATM   22  C15 UNL     1       5.799  -0.132  -0.740  1.00  0.00     0.008 A 
HETATM   23  C23 UNL     1       4.974  -1.231  -0.746  1.00  0.00     0.016 A 
HETATM   24  C24 UNL     1       3.591  -1.116  -0.761  1.00  0.00     0.010 A 
BRANCH  22  25
HETATM   25  C16 UNL     1       7.255  -0.257  -0.688  1.00  0.00     0.116 A 
HETATM   26  N5  UNL     1       8.098   0.790  -0.631  1.00  0.00    -0.340 N 
HETATM   27  C17 UNL     1       9.364   0.380  -0.557  1.00  0.00     0.060 A 
ATOM     28  H5  UNL     1       7.807   1.768  -0.643  1.00  0.00     0.167 HD
HETATM   29  C18 UNL     1      10.543   1.084  -0.481  1.00  0.00     0.032 A 
HETATM   30  C22 UNL     1       9.323  -1.001  -0.568  1.00  0.00     0.060 A 
HETATM   31  C19 UNL     1      11.732   0.389  -0.406  1.00  0.00     0.002 A 
HETATM   32  C20 UNL     1      11.703  -0.999  -0.410  1.00  0.00     0.002 A 
HETATM   33  C21 UNL     1      10.508  -1.688  -0.491  1.00  0.00     0.032 A 
HETATM   34  N6  UNL     1       8.020  -1.344  -0.649  1.00  0.00    -0.340 N 
ATOM     35  H6  UNL     1       7.671  -2.302  -0.676  1.00  0.00     0.167 HD
ENDBRANCH  22  25
ENDBRANCH  18  19
ENDBRANCH  14  18
ENDBRANCH   3  14
BRANCH   1  36
HETATM   36  C7  UNL     1      -4.178   0.244   0.473  1.00  0.00    -0.009 A 
HETATM   37  C6  UNL     1      -5.205   0.864   1.193  1.00  0.00     0.014 A 
HETATM   38  C5  UNL     1      -6.534   0.739   0.855  1.00  0.00     0.011 A 
HETATM   39  C4  UNL     1      -6.902  -0.016  -0.232  1.00  0.00    -0.021 A 
HETATM   40  C29 UNL     1      -5.907  -0.630  -0.946  1.00  0.00     0.011 A 
HETATM   41  C28 UNL     1      -4.553  -0.507  -0.604  1.00  0.00     0.014 A 
BRANCH  39  42
HETATM   42  C2  UNL     1      -8.334  -0.124  -0.594  1.00  0.00     0.170 C 
HETATM   43  C1  UNL     1      -8.653   0.782  -1.791  1.00  0.00     0.053 C 
BRANCH  42  44
HETATM   44  N1  UNL     1      -9.195   0.350   0.508  1.00  0.00    -0.065 N 
ATOM     45  H13 UNL     1      -9.091   1.345   0.709  1.00  0.00     0.275 HD
ATOM     46  H12 UNL     1     -10.186   0.377   0.269  1.00  0.00     0.275 HD
ATOM     47  H11 UNL     1      -8.983  -0.252   1.304  1.00  0.00     0.275 HD
ENDBRANCH  42  44
BRANCH  42  48
HETATM   48  C3  UNL     1      -8.776  -1.515  -0.896  1.00  0.00     0.272 C 
BRANCH  48  49
HETATM   49  N2  UNL     1     -10.227  -1.458  -1.127  1.00  0.00    -0.077 N 
ATOM     50  H23 UNL     1     -10.741  -1.031  -0.356  1.00  0.00     0.274 HD
ATOM     51  H22 UNL     1     -10.494  -0.786  -1.847  1.00  0.00     0.274 HD
ATOM     52  H21 UNL     1     -10.529  -2.410  -1.334  1.00  0.00     0.274 HD
ENDBRANCH  48  49
ENDBRANCH  42  48
ENDBRANCH  39  42
ENDBRANCH   1  36
TORSDOF 10
