REMARK  7 active torsions:
REMARK  status: ('A' for Active; 'I' for Inactive)
REMARK    1  A    between atoms: N1_2  and  C2_4 
REMARK    2  A    between atoms: C2_4  and  S1_8 
REMARK    3  A    between atoms: S1_8  and  C3_9 
REMARK    4  A    between atoms: C3_9  and  C4_10 
REMARK    5  A    between atoms: C4_10  and  C5_11 
REMARK    6  A    between atoms: C5_11  and  C6_12 
REMARK    7  A    between atoms: C6_12  and  N4_16 
ROOT
HETATM    1  C5  UNL     1       0.281   2.250   0.076  1.00  0.00     0.076 C 
ENDROOT
BRANCH   1   2
HETATM    2  C4  UNL     1       0.932   1.938  -1.215  1.00  0.00     0.018 C 
BRANCH   2   3
HETATM    3  C3  UNL     1       2.129   1.037  -1.086  1.00  0.00     0.082 C 
BRANCH   3   4
HETATM    4  S1  UNL     1       1.791  -0.577  -0.403  1.00  0.00    -0.095 SA
BRANCH   4   5
HETATM    5  C2  UNL     1       3.315  -1.494  -0.327  1.00  0.00     0.133 C 
HETATM    6  N2  UNL     1       3.285  -2.679   0.135  1.00  0.00    -0.380 N 
ATOM      7  H22 UNL     1       4.158  -3.204   0.179  1.00  0.00     0.158 HD
ATOM      8  H21 UNL     1       2.399  -3.075   0.449  1.00  0.00     0.158 HD
BRANCH   5   9
HETATM    9  N1  UNL     1       4.544  -0.944  -0.762  1.00  0.00    -0.376 N 
HETATM   10  C1  UNL     1       5.677  -1.784  -1.068  1.00  0.00     0.148 C 
ATOM     11  H1  UNL     1       4.631   0.067  -0.861  1.00  0.00     0.161 HD
ENDBRANCH   5   9
ENDBRANCH   4   5
ENDBRANCH   3   4
ENDBRANCH   2   3
ENDBRANCH   1   2
BRANCH   1  12
HETATM   12  C6  UNL     1      -0.264   1.150   0.866  1.00  0.00     0.072 C 
HETATM   13  N3  UNL     1       0.309   0.929   2.026  1.00  0.00    -0.389 N 
ATOM     14  H32 UNL     1       1.093   1.526   2.290  1.00  0.00     0.157 HD
ATOM     15  H31 UNL     1      -0.072   0.160   2.578  1.00  0.00     0.157 HD
BRANCH  12  16
HETATM   16  N4  UNL     1      -1.341   0.330   0.504  1.00  0.00    -0.371 N 
HETATM   17  C7  UNL     1      -1.638  -0.749   1.454  1.00  0.00     0.124 C 
HETATM   18  C8  UNL     1      -2.730  -1.659   0.981  1.00  0.00     0.020 C 
HETATM   19  C9  UNL     1      -4.105  -1.038   1.189  1.00  0.00     0.002 C 
HETATM   20  C10 UNL     1      -4.045   0.406   0.681  1.00  0.00     0.002 C 
HETATM   21  C11 UNL     1      -3.497   0.337  -0.707  1.00  0.00     0.020 C 
HETATM   22  C12 UNL     1      -2.013   0.641  -0.716  1.00  0.00     0.124 C 
ENDBRANCH  12  16
ENDBRANCH   1  12
TORSDOF 7
