REMARK  8 active torsions:
REMARK  status: ('A' for Active; 'I' for Inactive)
REMARK    1  A    between atoms: N1_1  and  C1_4 
REMARK    2  A    between atoms: C2_10  and  C3_11 
REMARK    3  A    between atoms: C3_11  and  C4_12 
REMARK    4  A    between atoms: N5_16  and  C6_18 
REMARK    5  A    between atoms: C6_18  and  C7_19 
REMARK    6  A    between atoms: C7_19  and  N6_20 
REMARK    7  A    between atoms: C7_19  and  C8_24 
REMARK    8  A    between atoms: C8_24  and  C9_25 
ROOT
HETATM    1  C4  UNL     1       2.338  -0.860   1.075  1.00  0.00     0.089 A 
HETATM    2  N4  UNL     1       1.523   0.161   1.352  1.00  0.00    -0.332 N 
ATOM      3  H4  UNL     1       1.911   0.975   1.828  1.00  0.00     0.168 HD
HETATM    4  C5  UNL     1       0.203   0.170   1.032  1.00  0.00     0.105 A 
HETATM    5  N5  UNL     1      -0.554   1.151   1.306  1.00  0.00    -0.374 N 
ATOM      6  H5  UNL     1      -0.156   1.960   1.783  1.00  0.00     0.161 HD
HETATM    7  C11 UNL     1      -0.295  -0.934   0.393  1.00  0.00     0.093 A 
HETATM    8  C12 UNL     1       0.549  -2.007   0.098  1.00  0.00     0.121 A 
HETATM    9  N10 UNL     1       0.003  -3.152  -0.572  1.00  0.00    -0.083 NA
HETATM   10  N11 UNL     1       1.840  -1.935   0.449  1.00  0.00    -0.334 N 
ATOM     11  H11 UNL     1       2.459  -2.717   0.235  1.00  0.00     0.168 HD
ENDROOT
BRANCH   5  12
HETATM   12  C6  UNL     1      -1.944   1.165   0.971  1.00  0.00     0.154 C 
BRANCH  12  13
HETATM   13  C7  UNL     1      -2.200   1.612  -0.445  1.00  0.00     0.206 C 
BRANCH  13  14
HETATM   14  N6  UNL     1      -1.686   2.962  -0.652  1.00  0.00    -0.073 N 
ATOM     15  H63 UNL     1      -2.064   3.621   0.029  1.00  0.00     0.274 HD
ATOM     16  H62 UNL     1      -0.700   3.036  -0.403  1.00  0.00     0.274 HD
ATOM     17  H61 UNL     1      -1.859   3.265  -1.611  1.00  0.00     0.274 HD
ENDBRANCH  13  14
BRANCH  13  18
HETATM   18  C8  UNL     1      -3.649   1.508  -0.760  1.00  0.00     0.094 C 
BRANCH  18  19
HETATM   19  C9  UNL     1      -4.192   0.140  -0.646  1.00  0.00     0.046 A 
HETATM   20  C10 UNL     1      -4.232  -0.846  -1.632  1.00  0.00     0.135 A 
HETATM   21  N7  UNL     1      -4.827  -1.930  -1.110  1.00  0.00    -0.296 N 
HETATM   22  N8  UNL     1      -5.152  -1.654   0.143  1.00  0.00    -0.243 N 
ATOM     23  H7  UNL     1      -4.999  -2.811  -1.594  1.00  0.00     0.187 HD
HETATM   24  N9  UNL     1      -4.782  -0.433   0.431  1.00  0.00    -0.289 N 
ATOM     25  H8  UNL     1      -5.619  -2.295   0.785  1.00  0.00     0.208 HD
ATOM     26  H9  UNL     1      -4.918   0.021   1.334  1.00  0.00     0.188 HD
ENDBRANCH  18  19
ENDBRANCH  13  18
ENDBRANCH  12  13
ENDBRANCH   5  12
BRANCH   1  27
HETATM   27  C3  UNL     1       3.761  -0.752   1.474  1.00  0.00     0.139 C 
BRANCH  27  28
HETATM   28  C2  UNL     1       4.609  -0.164   0.432  1.00  0.00     0.086 A 
HETATM   29  C1  UNL     1       4.726   1.170   0.046  1.00  0.00     0.146 A 
HETATM   30  N2  UNL     1       5.620   1.195  -0.941  1.00  0.00    -0.224 N 
HETATM   31  O1  UNL     1       6.020  -0.010  -1.148  1.00  0.00    -0.155 OA
ATOM     32  H2  UNL     1       5.933   2.025  -1.445  1.00  0.00     0.198 HD
HETATM   33  N3  UNL     1       5.448  -0.859  -0.356  1.00  0.00    -0.242 N 
ATOM     34  H3  UNL     1       5.604  -1.867  -0.334  1.00  0.00     0.196 HD
BRANCH  29  35
HETATM   35  N1  UNL     1       4.084   2.140   0.564  1.00  0.00    -0.382 N 
ATOM     36  H12 UNL     1       4.170   3.116   0.281  1.00  0.00     0.157 HD
ATOM     37  H11 UNL     1       3.399   2.121   1.320  1.00  0.00     0.157 HD
ENDBRANCH  29  35
ENDBRANCH  27  28
ENDBRANCH   1  27
TORSDOF 8
