REMARK  7 active torsions:
REMARK  status: ('A' for Active; 'I' for Inactive)
REMARK    1  A    between atoms: C2_2  and  C3_3 
REMARK    2  A    between atoms: C7_8  and  C8_9 
REMARK    3  A    between atoms: C8_9  and  C9_10 
REMARK    4  A    between atoms: C9_10  and  C10_11 
REMARK    5  A    between atoms: C10_11  and  N2_12 
REMARK    6  A    between atoms: C11_13  and  N3_14 
REMARK    7  A    between atoms: C15_18  and  N4_19 
ROOT
HETATM    1  N2  UNL     1       2.295  -0.805   0.105  1.00  0.00    -0.369 N 
HETATM    2  C11 UNL     1       3.264  -1.472   0.618  1.00  0.00     0.078 C 
HETATM    3  C14 UNL     1       4.597  -0.886   0.330  1.00  0.00     0.103 C 
HETATM    4  C15 UNL     1       4.269   0.010  -0.852  1.00  0.00     0.114 C 
HETATM    5  C19 UNL     1       2.835   0.337  -0.590  1.00  0.00     0.150 C 
ENDROOT
BRANCH   1   6
HETATM    6  C10 UNL     1       0.864  -1.118   0.195  1.00  0.00     0.124 C 
BRANCH   6   7
HETATM    7  C9  UNL     1       0.134  -0.117   1.032  1.00  0.00     0.020 C 
BRANCH   7   8
HETATM    8  C8  UNL     1      -1.331  -0.401   1.159  1.00  0.00     0.010 C 
BRANCH   8   9
HETATM    9  C7  UNL     1      -2.006  -0.395  -0.171  1.00  0.00     0.041 C 
HETATM   10  C6  UNL     1      -3.495  -0.671  -0.129  1.00  0.00     0.266 C 
HETATM   11  N1  UNL     1      -3.827   0.696  -0.394  1.00  0.00     0.012 N 
HETATM   12  C5  UNL     1      -4.351   1.397   0.763  1.00  0.00     0.262 C 
HETATM   13  C20 UNL     1      -2.433   0.954  -0.687  1.00  0.00     0.266 C 
HETATM   14  N6  UNL     1      -4.703   0.944  -1.438  1.00  0.00    -0.042 NA
HETATM   15  C4  UNL     1      -5.800   1.639   0.505  1.00  0.00     0.053 C 
HETATM   16  C3  UNL     1      -6.004   1.185  -0.909  1.00  0.00     0.108 C 
BRANCH  16  17
HETATM   17  C2  UNL     1      -6.790  -0.110  -0.943  1.00  0.00     0.019 C 
HETATM   18  C1  UNL     1      -8.134   0.120  -0.294  1.00  0.00     0.007 C 
ENDBRANCH  16  17
ENDBRANCH   8   9
ENDBRANCH   7   8
ENDBRANCH   6   7
ENDBRANCH   1   6
BRANCH   2  19
HETATM   19  N3  UNL     1       3.050  -2.675   1.388  1.00  0.00    -0.379 N 
HETATM   20  C12 UNL     1       2.936  -2.573   2.819  1.00  0.00     0.150 C 
HETATM   21  C13 UNL     1       2.957  -3.937   0.704  1.00  0.00     0.150 C 
ENDBRANCH   2  19
BRANCH   4  22
HETATM   22  N4  UNL     1       5.138   1.136  -0.981  1.00  0.00    -0.326 N 
HETATM   23  C16 UNL     1       5.955   1.462  -2.160  1.00  0.00     0.148 C 
HETATM   24  C17 UNL     1       7.157   2.194  -1.607  1.00  0.00     0.144 C 
HETATM   25  N5  UNL     1       6.575   2.905  -0.485  1.00  0.00    -0.341 N 
HETATM   26  C18 UNL     1       5.426   2.174  -0.065  1.00  0.00     0.318 C 
ATOM     27  H5  UNL     1       6.924   3.770  -0.072  1.00  0.00     0.164 HD
HETATM   28  O1  UNL     1       4.775   2.428   0.972  1.00  0.00    -0.247 OA
ENDBRANCH   4  22
TORSDOF 7
