REMARK  11 active torsions:
REMARK  status: ('A' for Active; 'I' for Inactive)
REMARK    1  A    between atoms: C3_3  and  N1_4 
REMARK    2  A    between atoms: N2_7  and  C6_8 
REMARK    3  A    between atoms: N3_12  and  C9_13 
REMARK    4  A    between atoms: N3_12  and  C13_19 
REMARK    5  A    between atoms: C9_13  and  C10_14 
REMARK    6  A    between atoms: C11_15  and  C12_16 
REMARK    7  A    between atoms: C12_16  and  O2_17 
REMARK    8  A    between atoms: C13_19  and  C14_20 
REMARK    9  A    between atoms: C15_21  and  C16_22 
REMARK   10  A    between atoms: C16_22  and  C17_23 
REMARK   11  A    between atoms: C17_23  and  C18_24 
ROOT
HETATM    1  C1  UNL     1      -2.658  -5.450   0.545  1.00  0.00     0.018 C 
HETATM    2  C2  UNL     1      -2.615  -4.384   1.117  1.00  0.00    -0.072 C 
HETATM    3  C3  UNL     1      -2.566  -3.106   1.825  1.00  0.00     0.158 C 
ENDROOT
BRANCH   3   4
HETATM    4  N1  UNL     1      -2.360  -1.999   1.005  1.00  0.00    -0.314 N 
HETATM    5  C4  UNL     1      -3.525  -1.297   0.436  1.00  0.00     0.152 C 
HETATM    6  C5  UNL     1      -3.302  -0.775  -0.936  1.00  0.00     0.148 C 
HETATM    7  N2  UNL     1      -2.680   0.498  -1.080  1.00  0.00    -0.326 N 
HETATM    8  C8  UNL     1      -1.392   1.159  -1.041  1.00  0.00     0.423 C 
HETATM    9  O1  UNL     1      -1.385   2.338  -1.397  1.00  0.00    -0.239 OA
HETATM   10  N3  UNL     1      -0.115   0.598  -0.635  1.00  0.00     0.060 N 
HETATM   11  C20 UNL     1      -0.226  -0.542   0.121  1.00  0.00     0.290 C 
HETATM   12  C21 UNL     1      -0.978  -1.584   0.750  1.00  0.00     0.272 C 
HETATM   13  O3  UNL     1      -0.196  -2.431   1.255  1.00  0.00    -0.266 OA
BRANCH   7  14
HETATM   14  C6  UNL     1      -3.649   1.544  -1.375  1.00  0.00     0.123 C 
HETATM   15  C7  UNL     1      -4.221   2.212  -0.184  1.00  0.00     0.026 C 
ENDBRANCH   7  14
BRANCH  10  16
HETATM   16  C9  UNL     1       0.698   1.626   0.052  1.00  0.00     0.350 C 
BRANCH  16  17
HETATM   17  C10 UNL     1      -0.161   2.461   0.851  1.00  0.00    -0.075 C 
HETATM   18  C11 UNL     1      -0.870   3.172   1.541  1.00  0.00    -0.079 C 
BRANCH  18  19
HETATM   19  C12 UNL     1      -1.727   4.019   2.382  1.00  0.00     0.257 C 
BRANCH  19  20
HETATM   20  O2  UNL     1      -1.425   5.363   2.234  1.00  0.00    -0.389 OA
ATOM     21  H2  UNL     1      -1.979   5.911   2.778  1.00  0.00     0.210 HD
ENDBRANCH  19  20
ENDBRANCH  18  19
ENDBRANCH  16  17
ENDBRANCH  10  16
BRANCH  10  22
HETATM   22  C13 UNL     1       0.598   0.465  -1.933  1.00  0.00     0.349 C 
BRANCH  22  23
HETATM   23  C14 UNL     1       2.001   0.144  -1.719  1.00  0.00    -0.077 C 
HETATM   24  C15 UNL     1       3.166  -0.123  -1.562  1.00  0.00    -0.105 C 
BRANCH  24  25
HETATM   25  C16 UNL     1       4.581  -0.456  -1.396  1.00  0.00     0.094 C 
BRANCH  25  26
HETATM   26  C17 UNL     1       4.777  -1.440  -0.257  1.00  0.00     0.012 C 
BRANCH  26  27
HETATM   27  C18 UNL     1       6.234  -1.777  -0.094  1.00  0.00    -0.004 C 
HETATM   28  C19 UNL     1       7.080  -0.578   0.209  1.00  0.00     0.005 C 
ENDBRANCH  26  27
ENDBRANCH  25  26
ENDBRANCH  24  25
ENDBRANCH  22  23
ENDBRANCH  10  22
ENDBRANCH   3   4
TORSDOF 11
