REMARK  10 active torsions:
REMARK  status: ('A' for Active; 'I' for Inactive)
REMARK    1  A    between atoms: N1_2  and  C2_5 
REMARK    2  A    between atoms: C2_5  and  C3_7 
REMARK    3  A    between atoms: N2_9  and  C5_10 
REMARK    4  A    between atoms: C5_10  and  C6_11 
REMARK    5  A    between atoms: C6_11  and  C7_12 
REMARK    6  A    between atoms: C7_12  and  C8_13 
REMARK    7  A    between atoms: C8_13  and  N3_14 
REMARK    8  A    between atoms: N4_21  and  C15_22 
REMARK    9  A    between atoms: C15_22  and  O1_23 
REMARK   10  A    between atoms: C15_22  and  N5_25 
ROOT
HETATM    1  C3  UNL     1       0.528   2.195  -0.602  1.00  0.00     0.065 C 
HETATM    2  C4  UNL     1      -0.957   2.214  -0.886  1.00  0.00     0.288 C 
HETATM    3  N2  UNL     1      -1.583   1.218  -0.043  1.00  0.00     0.089 N 
HETATM    4  C12 UNL     1      -0.567   0.660   0.827  1.00  0.00     0.279 C 
HETATM    5  C13 UNL     1       0.609   1.605   0.767  1.00  0.00     0.048 C 
HETATM    6  C14 UNL     1       1.948   0.884   0.755  1.00  0.00     0.134 C 
HETATM    7  N4  UNL     1       2.237   0.597  -0.612  1.00  0.00    -0.346 N 
HETATM    8  C21 UNL     1       1.281   1.292  -1.506  1.00  0.00     0.143 C 
ENDROOT
BRANCH   7   9
HETATM    9  C15 UNL     1       3.274  -0.234  -1.106  1.00  0.00     0.217 C 
BRANCH   9  10
HETATM   10  O1  UNL     1       3.340  -0.360  -2.404  1.00  0.00    -0.333 OA
ATOM     11  H1  UNL     1       4.035  -0.917  -2.735  1.00  0.00     0.220 HD
ENDBRANCH   9  10
BRANCH   9  12
HETATM   12  N5  UNL     1       4.219  -0.926  -0.396  1.00  0.00    -0.348 N 
HETATM   13  C16 UNL     1       5.178  -1.768  -1.186  1.00  0.00     0.126 C 
HETATM   14  C17 UNL     1       4.906  -3.200  -0.714  1.00  0.00     0.020 C 
HETATM   15  C18 UNL     1       5.069  -3.329   0.767  1.00  0.00     0.003 C 
HETATM   16  C19 UNL     1       4.044  -2.413   1.446  1.00  0.00     0.020 C 
HETATM   17  C20 UNL     1       4.464  -0.996   1.007  1.00  0.00     0.126 C 
ENDBRANCH   9  12
ENDBRANCH   7   9
BRANCH   1  18
HETATM   18  C2  UNL     1       1.147   3.548  -0.641  1.00  0.00     0.379 C 
HETATM   19  F1  UNL     1       2.519   3.455  -0.413  1.00  0.00    -0.218 F 
BRANCH  18  20
HETATM   20  N1  UNL     1       0.632   4.504   0.286  1.00  0.00    -0.047 N 
HETATM   21  C1  UNL     1       1.276   5.797  -0.005  1.00  0.00     0.270 C 
ATOM     22  H12 UNL     1       0.743   4.215   1.258  1.00  0.00     0.280 HD
ATOM     23  H11 UNL     1      -0.387   4.557   0.278  1.00  0.00     0.280 HD
ENDBRANCH  18  20
ENDBRANCH   1  18
BRANCH   3  24
HETATM   24  C5  UNL     1      -2.649   1.833   0.673  1.00  0.00     0.272 C 
BRANCH  24  25
HETATM   25  C6  UNL     1      -3.456   0.992   1.577  1.00  0.00     0.032 C 
BRANCH  25  26
HETATM   26  C7  UNL     1      -4.230  -0.131   1.020  1.00  0.00     0.029 C 
BRANCH  26  27
HETATM   27  C8  UNL     1      -3.440  -1.179   0.328  1.00  0.00     0.236 C 
BRANCH  27  28
HETATM   28  N3  UNL     1      -4.319  -2.252  -0.148  1.00  0.00    -0.079 N 
HETATM   29  C9  UNL     1      -5.632  -1.769  -0.472  1.00  0.00     0.271 C 
HETATM   30  C10 UNL     1      -3.754  -2.864  -1.333  1.00  0.00     0.271 C 
HETATM   31  C11 UNL     1      -4.425  -3.267   0.866  1.00  0.00     0.271 C 
ENDBRANCH  27  28
ENDBRANCH  26  27
ENDBRANCH  25  26
ENDBRANCH  24  25
ENDBRANCH   3  24
TORSDOF 10
