REMARK  3 active torsions:
REMARK  status: ('A' for Active; 'I' for Inactive)
REMARK    1  A    between atoms: C7_9  and  N2_10 
REMARK    2  A    between atoms: N2_10  and  C8_12 
REMARK    3  A    between atoms: C9_15  and  O1_16 
ROOT
HETATM    1  C1  UNL     1      -1.110  -1.674   0.468  1.00  0.00     0.013 C 
HETATM    2  C2  UNL     1      -1.507  -0.710  -0.619  1.00  0.00     0.020 C 
HETATM    3  C3  UNL     1      -2.941  -0.880  -1.044  1.00  0.00     0.007 C 
HETATM    4  C4  UNL     1      -3.717  -0.228   0.062  1.00  0.00     0.004 C 
HETATM    5  C5  UNL     1      -2.842   0.856   0.649  1.00  0.00     0.043 C 
HETATM    6  C6  UNL     1      -1.517   0.676  -0.017  1.00  0.00     0.083 C 
HETATM    7  N1  UNL     1      -0.385   0.904   0.777  1.00  0.00    -0.360 N 
ATOM      8  H1  UNL     1      -0.357   0.513   1.719  1.00  0.00     0.162 HD
HETATM    9  C7  UNL     1       0.582   1.563   0.375  1.00  0.00     0.089 C 
HETATM   10  C11 UNL     1       0.525   2.120  -0.996  1.00  0.00     0.152 C 
HETATM   11  S2  UNL     1      -1.253   1.933  -1.335  1.00  0.00    -0.130 SA
ENDROOT
BRANCH   9  12
HETATM   12  N2  UNL     1       1.747   1.795   1.201  1.00  0.00    -0.326 N 
ATOM     13  H2  UNL     1       1.756   2.553   1.883  1.00  0.00     0.169 HD
BRANCH  12  14
HETATM   14  C8  UNL     1       2.793   1.014   1.058  1.00  0.00     0.151 A 
HETATM   15  N3  UNL     1       2.937  -0.009   0.221  1.00  0.00    -0.317 N 
HETATM   16  C9  UNL     1       4.075  -0.670   0.236  1.00  0.00     0.148 A 
ATOM     17  H3  UNL     1       2.186  -0.274  -0.416  1.00  0.00     0.170 HD
HETATM   18  C10 UNL     1       5.037  -0.256   1.117  1.00  0.00     0.109 A 
HETATM   19  S1  UNL     1       4.273   1.060   1.887  1.00  0.00    -0.061 SA
BRANCH  16  20
HETATM   20  O1  UNL     1       4.338  -1.784  -0.621  1.00  0.00    -0.346 OA
ATOM     21  H1  UNL     1       5.159  -2.261  -0.610  1.00  0.00     0.219 HD
ENDBRANCH  16  20
ENDBRANCH  12  14
ENDBRANCH   9  12
TORSDOF 3
