REMARK  15 active torsions:
REMARK  status: ('A' for Active; 'I' for Inactive)
REMARK    1  A    between atoms: O1_2  and  C2_3 
REMARK    2  A    between atoms: C2_3  and  C3_4 
REMARK    3  A    between atoms: C2_3  and  C16_22 
REMARK    4  A    between atoms: C4_5  and  C5_6 
REMARK    5  A    between atoms: C5_6  and  C6_7 
REMARK    6  A    between atoms: C7_9  and  O3_10 
REMARK    7  A    between atoms: C8_12  and  O4_13 
REMARK    8  A    between atoms: O4_13  and  C9_14 
REMARK    9  A    between atoms: C9_14  and  C10_16 
REMARK   10  A    between atoms: C16_22  and  C17_23 
REMARK   11  A    between atoms: C18_25  and  C19_26 
REMARK   12  A    between atoms: C19_26  and  O7_27 
REMARK   13  A    between atoms: C20_29  and  O8_30 
REMARK   14  A    between atoms: C21_32  and  O9_33 
REMARK   15  A    between atoms: C22_35  and  O10_36 
ROOT
HETATM    1  C2  UNL     1      -1.738  -0.281  -0.976  1.00  0.00     0.146 C 
ENDROOT
BRANCH   1   2
HETATM    2  O1  UNL     1      -2.314  -1.206  -1.871  1.00  0.00    -0.387 OA
HETATM    3  C1  UNL     1      -1.838  -2.481  -1.668  1.00  0.00     0.202 C 
ENDBRANCH   1   2
BRANCH   1   4
HETATM    4  C3  UNL     1      -0.956   0.646  -1.865  1.00  0.00     0.001 C 
HETATM    5  C4  UNL     1       0.063   1.311  -1.357  1.00  0.00    -0.026 C 
BRANCH   5   6
HETATM    6  C5  UNL     1       0.455   1.176   0.040  1.00  0.00     0.059 C 
BRANCH   6   7
HETATM    7  C6  UNL     1       1.880   0.656   0.243  1.00  0.00     0.134 C 
HETATM    8  O2  UNL     1       2.047  -0.577  -0.325  1.00  0.00    -0.353 OA
HETATM    9  C7  UNL     1       3.194  -0.578  -1.115  1.00  0.00     0.287 C 
HETATM   10  C8  UNL     1       3.960   0.680  -0.802  1.00  0.00     0.193 C 
HETATM   11  C14 UNL     1       2.888   1.614  -0.291  1.00  0.00     0.045 C 
HETATM   12  C15 UNL     1       3.384   2.621   0.708  1.00  0.00     0.015 C 
BRANCH   9  13
HETATM   13  O3  UNL     1       2.768  -0.598  -2.444  1.00  0.00    -0.369 OA
ATOM     14  H3  UNL     1       3.550  -0.599  -2.983  1.00  0.00     0.212 HD
ENDBRANCH   9  13
BRANCH  10  15
HETATM   15  O4  UNL     1       5.046   0.496   0.034  1.00  0.00    -0.307 OA
BRANCH  15  16
HETATM   16  C9  UNL     1       6.346   0.809  -0.240  1.00  0.00     0.283 C 
HETATM   17  O5  UNL     1       6.564   1.319  -1.369  1.00  0.00    -0.260 OA
BRANCH  16  18
HETATM   18  C10 UNL     1       7.445   0.594   0.661  1.00  0.00     0.084 C 
HETATM   19  C11 UNL     1       7.340   0.070   1.844  1.00  0.00    -0.082 C 
HETATM   20  C12 UNL     1       8.589  -0.095   2.686  1.00  0.00     0.043 C 
HETATM   21  C13 UNL     1       6.033  -0.366   2.367  1.00  0.00     0.043 C 
ENDBRANCH  16  18
ENDBRANCH  15  16
ENDBRANCH  10  15
ENDBRANCH   6   7
ENDBRANCH   5   6
ENDBRANCH   1   4
BRANCH   1  22
HETATM   22  C16 UNL     1      -2.807   0.473  -0.272  1.00  0.00     0.070 C 
BRANCH  22  23
HETATM   23  C17 UNL     1      -3.712  -0.431   0.510  1.00  0.00     0.156 C 
HETATM   24  O6  UNL     1      -4.338  -1.323  -0.309  1.00  0.00    -0.373 OA
HETATM   25  C18 UNL     1      -5.666  -1.541  -0.064  1.00  0.00     0.176 C 
HETATM   26  C20 UNL     1      -6.499  -0.282  -0.053  1.00  0.00     0.180 C 
HETATM   27  C21 UNL     1      -5.881   0.822   0.737  1.00  0.00     0.180 C 
HETATM   28  C22 UNL     1      -4.647   0.332   1.418  1.00  0.00     0.178 C 
BRANCH  25  29
HETATM   29  C19 UNL     1      -6.203  -2.393  -1.222  1.00  0.00     0.198 C 
BRANCH  29  30
HETATM   30  O7  UNL     1      -5.538  -3.606  -1.310  1.00  0.00    -0.398 OA
ATOM     31  H7  UNL     1      -5.870  -4.133  -2.027  1.00  0.00     0.209 HD
ENDBRANCH  29  30
ENDBRANCH  25  29
BRANCH  26  32
HETATM   32  O8  UNL     1      -6.839   0.083  -1.349  1.00  0.00    -0.390 OA
ATOM     33  H8  UNL     1      -7.363   0.875  -1.342  1.00  0.00     0.210 HD
ENDBRANCH  26  32
BRANCH  27  34
HETATM   34  O9  UNL     1      -5.553   1.862  -0.127  1.00  0.00    -0.390 OA
ATOM     35  H9  UNL     1      -5.159   2.565   0.376  1.00  0.00     0.210 HD
ENDBRANCH  27  34
BRANCH  28  36
HETATM   36  O10 UNL     1      -4.913  -0.445   2.543  1.00  0.00    -0.390 OA
ATOM     37  H10 UNL     1      -5.501   0.035   3.114  1.00  0.00     0.210 HD
ENDBRANCH  28  36
ENDBRANCH  22  23
ENDBRANCH   1  22
TORSDOF 15
