REMARK  15 active torsions:
REMARK  status: ('A' for Active; 'I' for Inactive)
REMARK    1  A    between atoms: C2_2  and  C3_3 
REMARK    2  A    between atoms: C3_3  and  C4_4 
REMARK    3  A    between atoms: C4_4  and  C5_5 
REMARK    4  A    between atoms: C5_5  and  C6_6 
REMARK    5  A    between atoms: C6_6  and  O2_8 
REMARK    6  A    between atoms: O2_8  and  C7_9 
REMARK    7  A    between atoms: C8_10  and  C9_11 
REMARK    8  A    between atoms: C9_11  and  O3_12 
REMARK    9  A    between atoms: O3_12  and  C10_13 
REMARK   10  A    between atoms: C11_15  and  C12_16 
REMARK   11  A    between atoms: C12_16  and  O5_17 
REMARK   12  A    between atoms: C13_19  and  O6_20 
REMARK   13  A    between atoms: C14_22  and  O7_23 
REMARK   14  A    between atoms: C15_25  and  O8_26 
REMARK   15  A    between atoms: C17_29  and  O9_31 
ROOT
HETATM    1  C7  UNL     1       0.968  -1.975  -0.562  1.00  0.00     0.151 C 
HETATM    2  C8  UNL     1      -0.471  -2.306  -0.321  1.00  0.00     0.044 C 
HETATM    3  C16 UNL     1      -0.696  -2.983   1.016  1.00  0.00     0.058 C 
HETATM    4  C17 UNL     1      -0.376  -4.447   0.911  1.00  0.00     0.103 C 
HETATM    5  C18 UNL     1       0.061  -5.018   2.241  1.00  0.00     0.058 C 
HETATM    6  S1  UNL     1       0.834  -4.716  -0.382  1.00  0.00    -0.125 SA
HETATM    7  C19 UNL     1       1.840  -3.217  -0.540  1.00  0.00     0.076 C 
HETATM    8  C20 UNL     1       2.857  -3.184   0.577  1.00  0.00     0.024 C 
ENDROOT
BRANCH   2   9
HETATM    9  C9  UNL     1      -1.435  -1.225  -0.625  1.00  0.00     0.178 C 
BRANCH   9  10
HETATM   10  O3  UNL     1      -1.316  -0.048   0.058  1.00  0.00    -0.358 OA
BRANCH  10  11
HETATM   11  C10 UNL     1      -2.286   0.885  -0.284  1.00  0.00     0.291 C 
HETATM   12  O4  UNL     1      -3.034   1.164   0.855  1.00  0.00    -0.348 OA
HETATM   13  C11 UNL     1      -4.244   1.785   0.604  1.00  0.00     0.179 C 
HETATM   14  C13 UNL     1      -4.134   2.771  -0.498  1.00  0.00     0.180 C 
HETATM   15  C14 UNL     1      -2.719   3.302  -0.710  1.00  0.00     0.183 C 
HETATM   16  C15 UNL     1      -1.748   2.147  -0.915  1.00  0.00     0.204 C 
BRANCH  13  17
HETATM   17  C12 UNL     1      -5.374   0.798   0.448  1.00  0.00     0.198 C 
BRANCH  17  18
HETATM   18  O5  UNL     1      -6.588   1.381   0.199  1.00  0.00    -0.398 OA
ATOM     19  H5  UNL     1      -7.300   0.759   0.101  1.00  0.00     0.209 HD
ENDBRANCH  17  18
ENDBRANCH  13  17
BRANCH  14  20
HETATM   20  O6  UNL     1      -4.638   2.308  -1.717  1.00  0.00    -0.390 OA
ATOM     21  H6  UNL     1      -4.568   2.940  -2.423  1.00  0.00     0.210 HD
ENDBRANCH  14  20
BRANCH  15  22
HETATM   22  O7  UNL     1      -2.645   4.123  -1.821  1.00  0.00    -0.390 OA
ATOM     23  H7  UNL     1      -1.764   4.454  -1.953  1.00  0.00     0.210 HD
ENDBRANCH  15  22
BRANCH  16  24
HETATM   24  O8  UNL     1      -0.527   2.553  -0.443  1.00  0.00    -0.388 OA
ATOM     25  H8  UNL     1      -0.189   3.347  -0.840  1.00  0.00     0.210 HD
ENDBRANCH  16  24
ENDBRANCH  10  11
ENDBRANCH   9  10
ENDBRANCH   2   9
BRANCH   1  26
HETATM   26  O2  UNL     1       1.534  -1.083   0.376  1.00  0.00    -0.314 OA
BRANCH  26  27
HETATM   27  C6  UNL     1       2.125   0.127  -0.031  1.00  0.00     0.259 C 
HETATM   28  O1  UNL     1       2.105   0.337  -1.270  1.00  0.00    -0.265 OA
BRANCH  27  29
HETATM   29  C5  UNL     1       2.723   1.076   0.930  1.00  0.00     0.111 C 
BRANCH  29  30
HETATM   30  C4  UNL     1       4.229   1.033   0.929  1.00  0.00     0.010 C 
BRANCH  30  31
HETATM   31  C3  UNL     1       4.841   1.378  -0.398  1.00  0.00     0.000 C 
BRANCH  31  32
HETATM   32  C2  UNL     1       4.503   2.750  -0.880  1.00  0.00    -0.005 C 
HETATM   33  C1  UNL     1       4.974   3.817   0.087  1.00  0.00     0.005 C 
ENDBRANCH  31  32
ENDBRANCH  30  31
ENDBRANCH  29  30
ENDBRANCH  27  29
ENDBRANCH  26  27
ENDBRANCH   1  26
BRANCH   4  34
HETATM   34  O9  UNL     1      -1.557  -5.109   0.511  1.00  0.00    -0.380 OA
ATOM     35  H9  UNL     1      -1.355  -6.035   0.445  1.00  0.00     0.211 HD
ENDBRANCH   4  34
TORSDOF 15
