REMARK  5 active torsions:
REMARK  status: ('A' for Active; 'I' for Inactive)
REMARK    1  A    between atoms: N1_2  and  C2_4 
REMARK    2  A    between atoms: C5_9  and  C6_10 
REMARK    3  A    between atoms: C6_10  and  N3_11 
REMARK    4  A    between atoms: N3_11  and  C7_14 
REMARK    5  A    between atoms: C7_14  and  C8_15 
ROOT
HETATM    1  C2  UNL     1      -3.968   1.011   0.512  1.00  0.00     0.678 A 
HETATM    2  N2  UNL     1      -3.847  -0.258   0.091  1.00  0.00    -0.195 N 
ATOM      3  H2  UNL     1      -4.699  -0.807  -0.022  1.00  0.00     0.184 HD
HETATM    4  C3  UNL     1      -2.685  -0.845  -0.188  1.00  0.00     0.033 A 
HETATM    5  C4  UNL     1      -2.606  -2.265  -0.660  1.00  0.00     0.069 C 
HETATM    6  C5  UNL     1      -1.519  -0.076  -0.026  1.00  0.00     0.025 A 
HETATM    7  C12 UNL     1      -1.601   1.225   0.401  1.00  0.00     0.105 A 
HETATM    8 BR1  UNL     1      -0.071   2.361   0.598  1.00  0.00    -0.030 Br
HETATM    9  N4  UNL     1      -2.843   1.716   0.654  1.00  0.00    -0.185 N 
ATOM     10  H4  UNL     1      -2.920   2.682   0.972  1.00  0.00     0.185 HD
ENDROOT
BRANCH   6  11
HETATM   11  C6  UNL     1      -0.274  -0.751  -0.348  1.00  0.00     0.275 C 
BRANCH  11  12
HETATM   12  N3  UNL     1       0.945  -0.029  -0.123  1.00  0.00    -0.069 N 
ATOM     13  H32 UNL     1       0.944   0.901  -0.541  1.00  0.00     0.277 HD
ATOM     14  H31 UNL     1       1.065   0.265   0.846  1.00  0.00     0.277 HD
BRANCH  12  15
HETATM   15  C7  UNL     1       2.042  -0.882  -0.610  1.00  0.00     0.264 C 
BRANCH  15  16
HETATM   16  C8  UNL     1       3.393  -0.384  -0.286  1.00  0.00     0.147 C 
HETATM   17  C9  UNL     1       3.761   0.977  -0.759  1.00  0.00     0.036 C 
HETATM   18  C10 UNL     1       5.045   1.236   0.048  1.00  0.00     0.029 C 
HETATM   19  C11 UNL     1       4.995   0.111   1.067  1.00  0.00     0.168 C 
HETATM   20  O1  UNL     1       3.632  -0.282   1.092  1.00  0.00    -0.384 OA
ENDBRANCH  15  16
ENDBRANCH  12  15
ENDBRANCH  11  12
ENDBRANCH   6  11
BRANCH   1  21
HETATM   21  N1  UNL     1      -5.125   1.533   0.784  1.00  0.00    -0.230 N 
HETATM   22  C1  UNL     1      -6.278   0.663   0.609  1.00  0.00     0.165 C 
ATOM     23  H1  UNL     1      -5.220   2.497   1.102  1.00  0.00     0.177 HD
ENDBRANCH   1  21
TORSDOF 5
