REMARK  3 active torsions:
REMARK  status: ('A' for Active; 'I' for Inactive)
REMARK    1  A    between atoms: C2_2  and  C3_3 
REMARK    2  A    between atoms: C3_3  and  C4_4 
REMARK    3  A    between atoms: C5_5  and  C6_6 
ROOT
HETATM    1  C4  UNL     1      -1.127  -0.281   0.341  1.00  0.00    -0.011 A 
HETATM    2  C5  UNL     1      -1.651  -1.490  -0.061  1.00  0.00     0.062 A 
HETATM    3  O1  UNL     1      -0.692  -2.277  -0.500  1.00  0.00    -0.297 OA
HETATM    4  C8  UNL     1       0.454  -1.651  -0.410  1.00  0.00     0.161 A 
HETATM    5  N1  UNL     1       1.771  -1.792  -0.644  1.00  0.00    -0.337 N 
ATOM      6  H1  UNL     1       2.209  -2.628  -1.031  1.00  0.00     0.168 HD
HETATM    7  C9  UNL     1       2.428  -0.671  -0.294  1.00  0.00     0.040 A 
HETATM    8  C10 UNL     1       1.480   0.202   0.177  1.00  0.00     0.085 A 
HETATM    9  C11 UNL     1       0.244  -0.398   0.110  1.00  0.00     0.054 A 
HETATM   10  N2  UNL     1       1.702   1.512   0.661  1.00  0.00    -0.302 N 
ATOM     11  H2  UNL     1       0.910   1.929   1.150  1.00  0.00     0.186 HD
HETATM   12  N3  UNL     1       2.732   2.250   0.582  1.00  0.00    -0.336 N 
ATOM     13  H3  UNL     1       2.673   3.175   1.008  1.00  0.00     0.180 HD
HETATM   14  C12 UNL     1       3.982   1.899  -0.057  1.00  0.00     0.139 C 
HETATM   15  C13 UNL     1       4.504   0.551   0.325  1.00  0.00     0.027 C 
HETATM   16  C14 UNL     1       3.891  -0.581  -0.457  1.00  0.00     0.061 C 
ENDROOT
BRANCH   1  17
HETATM   17  C3  UNL     1      -1.786   0.922   0.894  1.00  0.00     0.042 C 
BRANCH  17  18
HETATM   18  C2  UNL     1      -2.476   1.753  -0.144  1.00  0.00     0.000 C 
HETATM   19  C1  UNL     1      -3.107   2.952   0.539  1.00  0.00     0.005 C 
ENDBRANCH  17  18
ENDBRANCH   1  17
BRANCH   2  20
HETATM   20  C6  UNL     1      -3.107  -1.839   0.001  1.00  0.00     0.061 C 
HETATM   21  C7  UNL     1      -3.239  -3.275  -0.503  1.00  0.00     0.012 C 
ENDBRANCH   2  20
TORSDOF 3
