REMARK  7 active torsions:
REMARK  status: ('A' for Active; 'I' for Inactive)
REMARK    1  A    between atoms: C6_7  and  O1_8 
REMARK    2  A    between atoms: O1_8  and  C7_9 
REMARK    3  A    between atoms: C8_10  and  C9_11 
REMARK    4  A    between atoms: C12_16  and  N1_17 
REMARK    5  A    between atoms: N1_17  and  S1_19 
REMARK    6  A    between atoms: S1_19  and  C13_22 
REMARK    7  A    between atoms: C15_27  and  C16_28 
ROOT
HETATM    1  C7  UNL     1      -1.262  -0.692  -1.468  1.00  0.00     0.132 A 
HETATM    2  C8  UNL     1      -1.187   0.238  -2.515  1.00  0.00     0.063 A 
HETATM    3  C10 UNL     1       0.057   0.556  -3.031  1.00  0.00     0.022 A 
HETATM    4  C11 UNL     1       1.216  -0.012  -2.552  1.00  0.00     0.034 A 
HETATM    5  C12 UNL     1       1.172  -0.927  -1.529  1.00  0.00     0.084 A 
HETATM    6  C17 UNL     1      -0.081  -1.231  -1.025  1.00  0.00     0.178 A 
HETATM    7  F2  UNL     1      -0.060  -2.139  -0.002  1.00  0.00    -0.201 F 
ENDROOT
BRANCH   5   8
HETATM    8  N1  UNL     1       2.357  -1.522  -1.036  1.00  0.00    -0.276 N 
ATOM      9  H1  UNL     1       2.245  -2.386  -0.506  1.00  0.00     0.179 HD
BRANCH   8  10
HETATM   10  S1  UNL     1       3.942  -0.955  -1.230  1.00  0.00     0.280 S 
HETATM   11  O3  UNL     1       4.934  -1.927  -0.697  1.00  0.00    -0.199 OA
HETATM   12  O4  UNL     1       4.297  -0.860  -2.729  1.00  0.00    -0.199 OA
BRANCH  10  13
HETATM   13  C13 UNL     1       4.185   0.651  -0.488  1.00  0.00     0.173 A 
HETATM   14  N2  UNL     1       4.128   1.725  -1.242  1.00  0.00    -0.348 N 
HETATM   15  C14 UNL     1       4.295   2.915  -0.721  1.00  0.00     0.140 A 
ATOM     16  H2  UNL     1       3.952   1.631  -2.242  1.00  0.00     0.166 HD
HETATM   17  S2  UNL     1       4.549   2.568   0.921  1.00  0.00    -0.075 SA
HETATM   18  C15 UNL     1       4.420   0.835   0.843  1.00  0.00     0.122 A 
BRANCH  18  19
HETATM   19  C16 UNL     1       4.514  -0.096   1.972  1.00  0.00     0.219 C 
HETATM   20  O5  UNL     1       4.360  -1.308   1.890  1.00  0.00    -0.643 OA
HETATM   21  O6  UNL     1       4.801   0.436   3.245  1.00  0.00    -0.643 OA
ENDBRANCH  18  19
ENDBRANCH  10  13
ENDBRANCH   8  10
ENDBRANCH   5   8
BRANCH   1  22
HETATM   22  O1  UNL     1      -2.492  -0.975  -0.976  1.00  0.00    -0.300 OA
BRANCH  22  23
HETATM   23  C6  UNL     1      -3.069  -0.813   0.229  1.00  0.00     0.153 A 
HETATM   24  C5  UNL     1      -3.408  -1.985   0.924  1.00  0.00     0.153 A 
HETATM   25  C4  UNL     1      -3.999  -1.966   2.172  1.00  0.00     0.046 A 
HETATM   26  F1  UNL     1      -3.194  -3.214   0.373  1.00  0.00    -0.203 F 
HETATM   27  C3  UNL     1      -4.280  -0.762   2.782  1.00  0.00     0.013 A 
HETATM   28  C2  UNL     1      -3.962   0.406   2.130  1.00  0.00    -0.020 A 
HETATM   29  C1  UNL     1      -4.273   1.691   2.807  1.00  0.00     0.051 C 
HETATM   30  C18 UNL     1      -3.368   0.349   0.879  1.00  0.00     0.159 A 
HETATM   31  F3  UNL     1      -3.067   1.525   0.318  1.00  0.00    -0.203 F 
ENDBRANCH  22  23
ENDBRANCH   1  22
BRANCH   2  32
HETATM   32  C9  UNL     1      -2.364   0.829  -3.138  1.00  0.00     0.255 C 
HETATM   33  O2  UNL     1      -3.549   0.560  -2.837  1.00  0.00    -0.274 OA
HETATM   34 CL1  UNL     1      -2.126   2.009  -4.405  1.00  0.00    -0.038 Cl
ENDBRANCH   2  32
TORSDOF 7
