REMARK  3 active torsions:
REMARK  status: ('A' for Active; 'I' for Inactive)
REMARK       I    between atoms: C2_2  and  N1_4 
REMARK       I    between atoms: N1_4  and  C3_6 
REMARK    1  A    between atoms: C3_6  and  C4_8 
REMARK    2  A    between atoms: N4_13  and  N5_14 
REMARK    3  A    between atoms: C5_17  and  N6_18 
ROOT
HETATM    1  C4  UNL     1      -0.650   0.255  -0.234  1.00  0.00     0.165 A 
HETATM    2  N2  UNL     1      -1.374   0.942  -1.187  1.00  0.00    -0.276 N 
ATOM      3  H2  UNL     1      -0.975   1.517  -1.929  1.00  0.00     0.189 HD
HETATM    4  N3  UNL     1      -2.653   0.740  -0.990  1.00  0.00    -0.219 N 
ATOM      5  H3  UNL     1      -3.393   1.142  -1.566  1.00  0.00     0.210 HD
HETATM    6  N4  UNL     1      -2.863  -0.043   0.040  1.00  0.00    -0.170 N 
HETATM    7  C5  UNL     1      -1.596  -0.363   0.535  1.00  0.00     0.174 A 
ENDROOT
BRANCH   1   8
HETATM    8  C3  UNL     1       0.801   0.285  -0.191  1.00  0.00     0.280 C 
HETATM    9  N1  UNL     1       1.656  -0.355   0.701  1.00  0.00    -0.292 N 
HETATM   10  C2  UNL     1       3.072  -0.219   0.601  1.00  0.00     0.220 C 
ATOM     11  H1  UNL     1       1.261  -0.934   1.442  1.00  0.00     0.172 HD
HETATM   12  C1  UNL     1       3.802   0.569  -0.395  1.00  0.00     0.117 C 
HETATM   13  O1  UNL     1       3.768  -0.853   1.474  1.00  0.00    -0.274 OA
HETATM   14  O2  UNL     1       1.377   1.000  -1.103  1.00  0.00    -0.265 OA
ENDBRANCH   1   8
BRANCH   7  15
HETATM   15  N6  UNL     1      -1.464  -1.105   1.530  1.00  0.00    -0.381 N 
ATOM     16  H62 UNL     1      -0.539  -1.339   1.891  1.00  0.00     0.157 HD
ATOM     17  H61 UNL     1      -2.170  -1.566   2.104  1.00  0.00     0.157 HD
ENDBRANCH   7  15
BRANCH   6  18
HETATM   18  N5  UNL     1      -4.056  -0.502   0.582  1.00  0.00    -0.321 N 
ATOM     19  H52 UNL     1      -4.981  -0.268   0.221  1.00  0.00     0.179 HD
ATOM     20  H51 UNL     1      -4.219  -1.111   1.384  1.00  0.00     0.179 HD
ENDBRANCH   6  18
TORSDOF 3
