REMARK  8 active torsions:
REMARK  status: ('A' for Active; 'I' for Inactive)
REMARK    1  A    between atoms: C2_2  and  C3_3 
REMARK    2  A    between atoms: C3_3  and  N1_4 
REMARK    3  A    between atoms: N1_4  and  C4_7 
REMARK    4  A    between atoms: C4_7  and  C5_8 
REMARK    5  A    between atoms: C7_12  and  N3_13 
REMARK    6  A    between atoms: N3_13  and  C8_15 
REMARK    7  A    between atoms: C8_15  and  C9_16 
REMARK    8  A    between atoms: C9_16  and  N4_17 
ROOT
HETATM    1  C5  UNL     1      -0.397   1.245  -0.453  1.00  0.00     0.097 C 
HETATM    2  C6  UNL     1       0.012   1.398   0.993  1.00  0.00     0.152 C 
HETATM    3  N2  UNL     1       1.424   1.168   1.117  1.00  0.00    -0.225 N 
ATOM      4  H2  UNL     1       1.899   1.669   1.868  1.00  0.00     0.177 HD
HETATM    5  C7  UNL     1       2.156   0.404   0.391  1.00  0.00     0.675 C 
HETATM    6  N5  UNL     1       1.496  -0.294  -0.686  1.00  0.00    -0.181 N 
ATOM      7  H5  UNL     1       2.018  -0.918  -1.301  1.00  0.00     0.185 HD
HETATM    8  C10 UNL     1       0.101  -0.092  -0.870  1.00  0.00     0.098 C 
HETATM    9  N6  UNL     1      -0.656  -1.001  -1.362  1.00  0.00    -0.388 N 
ATOM     10  H61 UNL     1      -0.314  -1.918  -1.648  1.00  0.00     0.157 HD
ATOM     11  H62 UNL     1      -1.657  -0.856  -1.494  1.00  0.00     0.157 HD
ENDROOT
BRANCH   5  12
HETATM   12  N3  UNL     1       3.551   0.249   0.604  1.00  0.00    -0.225 N 
ATOM     13  H3  UNL     1       4.024   0.829   1.297  1.00  0.00     0.177 HD
BRANCH  12  14
HETATM   14  C8  UNL     1       4.302  -0.716  -0.146  1.00  0.00     0.165 C 
BRANCH  14  15
HETATM   15  C9  UNL     1       5.764  -0.718   0.235  1.00  0.00     0.249 C 
BRANCH  15  16
HETATM   16  N4  UNL     1       5.970  -1.030   1.622  1.00  0.00    -0.078 N 
ATOM     17  H43 UNL     1       5.435  -0.403   2.223  1.00  0.00     0.274 HD
ATOM     18  H42 UNL     1       5.525  -1.914   1.870  1.00  0.00     0.274 HD
ATOM     19  H41 UNL     1       6.957  -1.031   1.879  1.00  0.00     0.274 HD
ENDBRANCH  15  16
ENDBRANCH  14  15
ENDBRANCH  12  14
ENDBRANCH   5  12
BRANCH   1  20
HETATM   20  C4  UNL     1      -1.876   1.359  -0.685  1.00  0.00     0.246 C 
BRANCH  20  21
HETATM   21  N1  UNL     1      -2.543   0.331   0.060  1.00  0.00    -0.074 N 
ATOM     22  H12 UNL     1      -2.305   0.378   1.051  1.00  0.00     0.277 HD
ATOM     23  H11 UNL     1      -2.159  -0.590  -0.154  1.00  0.00     0.277 HD
BRANCH  21  24
HETATM   24  C3  UNL     1      -3.985   0.362  -0.140  1.00  0.00     0.232 C 
BRANCH  24  25
HETATM   25  C2  UNL     1      -4.573  -0.757   0.688  1.00  0.00     0.023 C 
HETATM   26  C1  UNL     1      -6.093  -0.796   0.533  1.00  0.00     0.007 C 
ENDBRANCH  24  25
ENDBRANCH  21  24
ENDBRANCH  20  21
ENDBRANCH   1  20
TORSDOF 8
