REMARK  5 active torsions:
REMARK  status: ('A' for Active; 'I' for Inactive)
REMARK    1  A    between atoms: C3_5  and  C4_6 
REMARK    2  A    between atoms: C4_6  and  S1_7 
REMARK    3  A    between atoms: S1_7  and  C5_8 
REMARK    4  A    between atoms: C5_8  and  C6_9 
REMARK    5  A    between atoms: C6_9  and  N2_12 
ROOT
HETATM    1  C4  UNL     1      -0.463  -0.867   0.249  1.00  0.00     0.099 C 
ENDROOT
BRANCH   1   2
HETATM    2  C3  UNL     1      -1.776  -0.264   0.769  1.00  0.00     0.090 C 
HETATM    3  N1  UNL     1      -2.827  -1.159   0.441  1.00  0.00    -0.391 N 
HETATM    4  C2  UNL     1      -3.702  -0.991  -0.451  1.00  0.00    -0.022 C 
ATOM      5  H1  UNL     1      -2.880  -2.023   0.980  1.00  0.00     0.159 HD
HETATM    6  C1  UNL     1      -4.778  -2.015  -0.714  1.00  0.00     0.062 C 
HETATM    7  C11 UNL     1      -3.645   0.264  -1.252  1.00  0.00     0.052 C 
HETATM    8  C10 UNL     1      -3.329   1.386  -0.309  1.00  0.00     0.008 C 
HETATM    9  C9  UNL     1      -1.968   1.129   0.293  1.00  0.00     0.026 C 
ENDBRANCH   1   2
BRANCH   1  10
HETATM   10  S1  UNL     1       0.925   0.243   0.645  1.00  0.00    -0.165 SA
BRANCH  10  11
HETATM   11  C5  UNL     1       2.431  -0.504   0.017  1.00  0.00     0.111 C 
BRANCH  11  12
HETATM   12  C6  UNL     1       3.646   0.359   0.304  1.00  0.00     0.125 C 
HETATM   13  C7  UNL     1       4.895  -0.300  -0.237  1.00  0.00     0.046 C 
HETATM   14  C8  UNL     1       3.828   0.585   1.773  1.00  0.00     0.046 C 
BRANCH  12  15
HETATM   15  N2  UNL     1       3.522   1.656  -0.357  1.00  0.00    -0.070 N 
ATOM     16  H23 UNL     1       3.356   1.556  -1.358  1.00  0.00     0.275 HD
ATOM     17  H22 UNL     1       2.654   2.128  -0.105  1.00  0.00     0.275 HD
ATOM     18  H21 UNL     1       4.339   2.236  -0.164  1.00  0.00     0.275 HD
ENDBRANCH  12  15
ENDBRANCH  11  12
ENDBRANCH  10  11
ENDBRANCH   1  10
TORSDOF 5
