REMARK  6 active torsions:
REMARK  status: ('A' for Active; 'I' for Inactive)
REMARK    1  A    between atoms: C2_2  and  O1_3 
REMARK    2  A    between atoms: O1_3  and  C3_4 
REMARK    3  A    between atoms: C3_4  and  C4_6 
REMARK    4  A    between atoms: C5_8  and  N1_9 
REMARK    5  A    between atoms: N1_9  and  C6_11 
REMARK    6  A    between atoms: C6_11  and  C9_14 
ROOT
HETATM    1  C4  UNL     1      -1.457   0.786   0.446  1.00  0.00     0.105 A 
HETATM    2  S1  UNL     1      -0.066   1.593   1.007  1.00  0.00    -0.046 SA
HETATM    3  C5  UNL     1       1.149   0.534   0.324  1.00  0.00     0.146 A 
HETATM    4  N2  UNL     1       0.378  -0.367  -0.290  1.00  0.00    -0.339 N 
ATOM      5  H2  UNL     1       0.807  -1.141  -0.798  1.00  0.00     0.168 HD
HETATM    6  C10 UNL     1      -0.914  -0.262  -0.243  1.00  0.00     0.030 A 
HETATM    7  C11 UNL     1      -1.864  -1.246  -0.915  1.00  0.00     0.070 C 
ENDROOT
BRANCH   3   8
HETATM    8  N1  UNL     1       2.397   0.666   0.434  1.00  0.00    -0.353 N 
ATOM      9  H1  UNL     1       2.532   1.506   0.996  1.00  0.00     0.162 HD
BRANCH   8  10
HETATM   10  C6  UNL     1       3.636   0.219   0.158  1.00  0.00     0.122 C 
HETATM   11  C7  UNL     1       4.407   0.108   1.508  1.00  0.00     0.047 C 
HETATM   12  C8  UNL     1       4.526   1.190  -0.639  1.00  0.00     0.047 C 
BRANCH  10  13
HETATM   13  C9  UNL     1       3.861  -1.129  -0.481  1.00  0.00     0.411 C 
HETATM   14  F1  UNL     1       3.346  -2.103   0.313  1.00  0.00    -0.168 F 
HETATM   15  F2  UNL     1       5.262  -1.359  -0.454  1.00  0.00    -0.168 F 
HETATM   16  F3  UNL     1       3.539  -1.193  -1.806  1.00  0.00    -0.168 F 
ENDBRANCH  10  13
ENDBRANCH   8  10
ENDBRANCH   3   8
BRANCH   1  17
HETATM   17  C3  UNL     1      -2.865   1.133   0.652  1.00  0.00     0.302 C 
HETATM   18  O2  UNL     1      -3.190   2.139   1.317  1.00  0.00    -0.259 OA
BRANCH  17  19
HETATM   19  O1  UNL     1      -3.843   0.342   0.108  1.00  0.00    -0.317 OA
BRANCH  19  20
HETATM   20  C2  UNL     1      -5.230   0.600   0.256  1.00  0.00     0.174 C 
HETATM   21  C1  UNL     1      -6.045  -0.452  -0.459  1.00  0.00     0.034 C 
ENDBRANCH  19  20
ENDBRANCH  17  19
ENDBRANCH   1  17
TORSDOF 6
