REMARK  6 active torsions:
REMARK  status: ('A' for Active; 'I' for Inactive)
REMARK    1  A    between atoms: C2_2  and  C3_3 
REMARK    2  A    between atoms: C4_4  and  C5_5 
REMARK    3  A    between atoms: C7_12  and  C8_13 
REMARK    4  A    between atoms: C8_13  and  O4_16 
REMARK    5  A    between atoms: N2_19  and  S1_20 
REMARK    6  A    between atoms: S1_20  and  C11_23 
ROOT
HETATM    1  C3  UNL     1      -1.221   0.985   0.090  1.00  0.00     0.159 C 
HETATM    2  C4  UNL     1      -0.856   1.559   1.397  1.00  0.00     0.210 C 
HETATM    3  N1  UNL     1       0.280   0.821   1.971  1.00  0.00    -0.342 N 
ATOM      4  H1  UNL     1       0.284   0.771   2.990  1.00  0.00     0.163 HD
HETATM    5  C6  UNL     1       1.361   0.173   1.347  1.00  0.00     0.252 C 
HETATM    6  O3  UNL     1       2.145  -0.459   2.085  1.00  0.00    -0.270 OA
HETATM    7  C7  UNL     1       1.675   0.156  -0.087  1.00  0.00     0.272 C 
HETATM    8  O5  UNL     1       0.546  -0.094  -0.853  1.00  0.00    -0.270 OA
HETATM    9  N2  UNL     1      -0.577  -0.297  -0.127  1.00  0.00    -0.074 NA
ENDROOT
BRANCH   7  10
HETATM   10  C8  UNL     1       2.824  -0.752  -0.354  1.00  0.00     0.087 C 
HETATM   11  C9  UNL     1       2.534  -2.194   0.003  1.00  0.00     0.049 C 
HETATM   12  C10 UNL     1       3.350  -0.652  -1.766  1.00  0.00     0.049 C 
BRANCH  10  13
HETATM   13  O4  UNL     1       3.894  -0.367   0.489  1.00  0.00    -0.387 OA
ATOM     14  H4  UNL     1       4.627  -0.946   0.319  1.00  0.00     0.210 HD
ENDBRANCH  10  13
ENDBRANCH   7  10
BRANCH   9  15
HETATM   15  S1  UNL     1      -1.581  -1.361  -1.042  1.00  0.00     0.234 S 
HETATM   16  O6  UNL     1      -1.913  -0.802  -2.394  1.00  0.00    -0.209 OA
HETATM   17  O7  UNL     1      -0.851  -2.653  -1.247  1.00  0.00    -0.209 OA
BRANCH  15  18
HETATM   18  C11 UNL     1      -3.103  -1.723  -0.222  1.00  0.00     0.155 C 
HETATM   19  C12 UNL     1      -2.764  -2.381   1.101  1.00  0.00     0.022 C 
ENDBRANCH  15  18
ENDBRANCH   9  15
BRANCH   2  20
HETATM   20  C5  UNL     1      -0.533   2.977   1.419  1.00  0.00     0.198 C 
HETATM   21  O1  UNL     1       0.564   3.381   1.876  1.00  0.00    -0.646 OA
HETATM   22  O2  UNL     1      -1.399   3.963   0.947  1.00  0.00    -0.646 OA
ENDBRANCH   2  20
BRANCH   1  23
HETATM   23  C2  UNL     1      -0.994   1.825  -1.100  1.00  0.00    -0.011 C 
HETATM   24  C1  UNL     1      -1.903   2.507  -1.743  1.00  0.00     0.008 C 
ENDBRANCH   1  23
TORSDOF 6
