REMARK  8 active torsions:
REMARK  status: ('A' for Active; 'I' for Inactive)
REMARK    1  A    between atoms: C2_2  and  S1_4 
REMARK    2  A    between atoms: S1_4  and  C4_7 
REMARK    3  A    between atoms: C5_9  and  N1_10 
REMARK       I    between atoms: N1_10  and  C6_12 
REMARK    4  A    between atoms: C6_12  and  C7_14 
REMARK    5  A    between atoms: C7_14  and  N2_15 
REMARK    6  A    between atoms: N2_15  and  C9_17 
REMARK    7  A    between atoms: C9_17  and  C10_18 
REMARK    8  A    between atoms: C16_27  and  C17_28 
ROOT
HETATM    1  N1  UNL     1       0.196  -0.525  -0.380  1.00  0.00    -0.317 N 
ATOM      2  H1  UNL     1      -0.309  -1.403  -0.499  1.00  0.00     0.169 HD
HETATM    3  C6  UNL     1      -0.512   0.671  -0.165  1.00  0.00     0.261 C 
HETATM    4  O3  UNL     1       0.115   1.756  -0.029  1.00  0.00    -0.267 OA
ENDROOT
BRANCH   1   5
HETATM    5  C5  UNL     1       1.650  -0.508  -0.433  1.00  0.00     0.079 A 
HETATM    6  S2  UNL     1       2.695   0.824  -0.261  1.00  0.00    -0.060 SA
HETATM    7  C4  UNL     1       4.208   0.012  -0.449  1.00  0.00     0.117 A 
HETATM    8  C16 UNL     1       3.829  -1.277  -0.643  1.00  0.00     0.079 A 
HETATM    9  C15 UNL     1       2.505  -1.553  -0.634  1.00  0.00     0.055 A 
BRANCH   7  10
HETATM   10  S1  UNL     1       5.773   0.811  -0.417  1.00  0.00     0.186 S 
HETATM   11  O1  UNL     1       5.625   2.060  -1.284  1.00  0.00    -0.222 OA
HETATM   12  O2  UNL     1       6.820  -0.017  -1.059  1.00  0.00    -0.222 OA
BRANCH  10  13
HETATM   13  C2  UNL     1       6.229   1.359   1.188  1.00  0.00     0.106 C 
HETATM   14  C1  UNL     1       6.252   0.310   2.254  1.00  0.00     0.026 C 
HETATM   15  C3  UNL     1       7.558   2.101   1.091  1.00  0.00     0.026 C 
ENDBRANCH  10  13
ENDBRANCH   7  10
BRANCH   8  16
HETATM   16  C17 UNL     1       4.840  -2.373  -0.939  1.00  0.00     0.419 C 
HETATM   17  F1  UNL     1       5.784  -2.521   0.017  1.00  0.00    -0.166 F 
HETATM   18  F2  UNL     1       4.203  -3.621  -1.028  1.00  0.00    -0.166 F 
HETATM   19  F3  UNL     1       5.365  -2.196  -2.229  1.00  0.00    -0.166 F 
ENDBRANCH   8  16
ENDBRANCH   1   5
BRANCH   3  20
HETATM   20  C7  UNL     1      -2.003   0.655  -0.106  1.00  0.00     0.164 C 
BRANCH  20  21
HETATM   21  N2  UNL     1      -2.587  -0.622  -0.176  1.00  0.00    -0.369 N 
HETATM   22  C8  UNL     1      -2.432  -1.441   0.974  1.00  0.00     0.154 C 
BRANCH  21  23
HETATM   23  C9  UNL     1      -3.535  -0.954  -1.136  1.00  0.00     0.069 C 
BRANCH  23  24
HETATM   24  C10 UNL     1      -4.899  -0.418  -0.987  1.00  0.00     0.050 C 
HETATM   25  C11 UNL     1      -5.613  -0.883   0.286  1.00  0.00     0.013 C 
HETATM   26  C12 UNL     1      -5.938   0.284   1.169  1.00  0.00     0.028 C 
HETATM   27  C13 UNL     1      -6.799   1.314   0.458  1.00  0.00     0.232 C 
HETATM   28  N3  UNL     1      -6.362   1.528  -0.920  1.00  0.00    -0.074 N 
HETATM   29  C14 UNL     1      -4.962   1.090  -1.039  1.00  0.00     0.242 C 
ATOM     30  H32 UNL     1      -6.973   1.075  -1.599  1.00  0.00     0.277 HD
ATOM     31  H31 UNL     1      -6.499   2.490  -1.229  1.00  0.00     0.277 HD
ENDBRANCH  23  24
ENDBRANCH  21  23
ENDBRANCH  20  21
ENDBRANCH   3  20
TORSDOF 8
