REMARK  5 active torsions:
REMARK  status: ('A' for Active; 'I' for Inactive)
REMARK    1  A    between atoms: C1_2  and  C2_4 
REMARK    2  A    between atoms: C5_8  and  C6_9 
REMARK    3  A    between atoms: C6_9  and  O3_10 
REMARK    4  A    between atoms: C6_9  and  O4_12 
REMARK    5  A    between atoms: C10_17  and  O5_18 
ROOT
HETATM    1  C2  UNL     1       1.726  -1.008  -0.610  1.00  0.00     0.093 A 
HETATM    2  S1  UNL     1       0.339  -1.973  -1.004  1.00  0.00    -0.084 SA
HETATM    3  C3  UNL     1      -0.877  -0.978  -0.385  1.00  0.00     0.019 A 
HETATM    4  C4  UNL     1      -0.196   0.089   0.121  1.00  0.00    -0.030 A 
HETATM    5  C5  UNL     1       1.165   0.073   0.004  1.00  0.00     0.027 A 
HETATM    6  C7  UNL     1      -1.013   1.219   0.773  1.00  0.00     0.040 C 
HETATM    7  C8  UNL     1      -2.335   1.207   0.100  1.00  0.00     0.007 C 
HETATM    8  C9  UNL     1      -3.013  -0.098   0.453  1.00  0.00     0.037 C 
HETATM    9  C10 UNL     1      -2.362  -1.161  -0.361  1.00  0.00     0.158 C 
ENDROOT
BRANCH   5  10
HETATM   10  C6  UNL     1       2.054   1.180   0.575  1.00  0.00     0.290 C 
BRANCH  10  11
HETATM   11  O3  UNL     1       3.037   0.612   1.343  1.00  0.00    -0.367 OA
ATOM     12  H3  UNL     1       3.589   1.299   1.697  1.00  0.00     0.213 HD
ENDBRANCH  10  11
BRANCH  10  13
HETATM   13  O4  UNL     1       2.592   1.921  -0.486  1.00  0.00    -0.367 OA
ATOM     14  H4  UNL     1       3.144   2.608  -0.132  1.00  0.00     0.213 HD
ENDBRANCH  10  13
ENDBRANCH   5  10
BRANCH   1  15
HETATM   15  C1  UNL     1       3.124  -1.354  -0.932  1.00  0.00     0.217 C 
HETATM   16  O1  UNL     1       4.133  -0.714  -0.709  1.00  0.00    -0.643 OA
HETATM   17  O2  UNL     1       3.312  -2.593  -1.586  1.00  0.00    -0.643 OA
ENDBRANCH   1  15
BRANCH   9  18
HETATM   18  O5  UNL     1      -2.878  -1.224  -1.659  1.00  0.00    -0.390 OA
ATOM     19  H5  UNL     1      -3.821  -1.340  -1.644  1.00  0.00     0.210 HD
ENDBRANCH   9  18
TORSDOF 5
