REMARK  4 active torsions:
REMARK  status: ('A' for Active; 'I' for Inactive)
REMARK    1  A    between atoms: N2_3  and  C2_5 
REMARK    2  A    between atoms: C3_7  and  O2_8 
REMARK    3  A    between atoms: O2_8  and  C4_9 
REMARK    4  A    between atoms: C4_9  and  N3_10 
ROOT
HETATM    1  C2  UNL     1       2.109  -1.865  -0.460  1.00  0.00     0.280 A 
HETATM    2  O1  UNL     1       1.173  -2.170  -1.562  1.00  0.00    -0.327 OA
HETATM    3  C3  UNL     1       0.712  -1.730  -0.195  1.00  0.00     0.313 A 
ENDROOT
BRANCH   3   4
HETATM    4  O2  UNL     1      -0.041  -0.601  -0.358  1.00  0.00    -0.336 OA
BRANCH   4   5
HETATM    5  C4  UNL     1      -1.296  -0.809   0.185  1.00  0.00     0.315 C 
BRANCH   5   6
HETATM    6  N3  UNL     1      -2.154   0.350   0.049  1.00  0.00    -0.283 N 
HETATM    7  C5  UNL     1      -2.090   1.524  -0.433  1.00  0.00     0.116 A 
HETATM    8  C6  UNL     1      -3.451   1.911  -0.082  1.00  0.00     0.210 A 
HETATM    9 BR1  UNL     1      -4.667   2.187  -1.547  1.00  0.00    -0.065 Br
HETATM   10  N4  UNL     1      -3.456   0.572   0.441  1.00  0.00    -0.116 NA
ENDBRANCH   5   6
ENDBRANCH   4   5
ENDBRANCH   3   4
BRANCH   1  11
HETATM   11  N2  UNL     1       2.978  -0.756  -0.770  1.00  0.00    -0.358 N 
HETATM   12  C1  UNL     1       3.286   0.159   0.075  1.00  0.00     0.187 C 
HETATM   13  N1  UNL     1       4.161   1.199  -0.373  1.00  0.00    -0.097 NA
ATOM     14  H2  UNL     1       3.368  -0.696  -1.711  1.00  0.00     0.162 HD
ENDBRANCH   1  11
TORSDOF 4
