REMARK  6 active torsions:
REMARK  status: ('A' for Active; 'I' for Inactive)
REMARK    1  A    between atoms: S1_2  and  C2_4 
REMARK    2  A    between atoms: C2_4  and  C3_5 
REMARK    3  A    between atoms: C4_7  and  C5_8 
REMARK    4  A    between atoms: C5_8  and  O2_9 
REMARK    5  A    between atoms: C6_11  and  O3_12 
REMARK    6  A    between atoms: C7_14  and  O4_15 
ROOT
HETATM    1  C3  UNL     1      -0.555  -0.451   0.143  1.00  0.00     0.163 C 
HETATM    2  O1  UNL     1       0.350   0.525  -0.167  1.00  0.00    -0.372 OA
HETATM    3  C4  UNL     1       1.618   0.065   0.184  1.00  0.00     0.176 C 
HETATM    4  C6  UNL     1       1.535  -1.392  -0.261  1.00  0.00     0.180 C 
HETATM    5  C7  UNL     1       0.170  -1.744   0.349  1.00  0.00     0.179 C 
ENDROOT
BRANCH   1   6
HETATM    6  C2  UNL     1      -1.472  -0.104   1.292  1.00  0.00     0.113 C 
BRANCH   6   7
HETATM    7  S1  UNL     1      -2.438   1.323   1.008  1.00  0.00    -0.127 SA
HETATM    8  C1  UNL     1      -3.489   1.196  -0.390  1.00  0.00     0.096 C 
HETATM    9 CL1  UNL     1      -1.348   3.058   1.010  1.00  0.00    -0.056 Cl
ENDBRANCH   6   7
ENDBRANCH   1   6
BRANCH   5  10
HETATM   10  O4  UNL     1       0.428  -1.991   1.711  1.00  0.00    -0.390 OA
ATOM     11  H4  UNL     1       0.888  -2.812   1.842  1.00  0.00     0.210 HD
ENDBRANCH   5  10
BRANCH   3  12
HETATM   12  C5  UNL     1       2.702   0.744  -0.613  1.00  0.00     0.198 C 
BRANCH  12  13
HETATM   13  O2  UNL     1       2.688   2.109  -0.410  1.00  0.00    -0.398 OA
ATOM     14  H2  UNL     1       3.371   2.537  -0.912  1.00  0.00     0.209 HD
ENDBRANCH  12  13
ENDBRANCH   3  12
BRANCH   4  15
HETATM   15  O3  UNL     1       1.462  -1.364  -1.651  1.00  0.00    -0.390 OA
ATOM     16  H3  UNL     1       1.410  -2.271  -1.928  1.00  0.00     0.210 HD
ENDBRANCH   4  15
TORSDOF 6
