REMARK  6 active torsions:
REMARK  status: ('A' for Active; 'I' for Inactive)
REMARK    1  A    between atoms: N1_2  and  C4_5 
REMARK    2  A    between atoms: C4_5  and  C5_6 
REMARK    3  A    between atoms: C7_10  and  N2_11 
REMARK    4  A    between atoms: N2_11  and  O2_13 
REMARK    5  A    between atoms: C8_15  and  O3_16 
REMARK    6  A    between atoms: C9_18  and  O4_19 
ROOT
HETATM    1  C5  UNL     1       0.388  -0.477  -0.632  1.00  0.00     0.182 C 
HETATM    2  O1  UNL     1       0.727   0.734  -1.144  1.00  0.00    -0.345 OA
HETATM    3  C6  UNL     1       1.534   1.533  -0.410  1.00  0.00     0.334 C 
HETATM    4  F1  UNL     1       0.900   2.220   0.611  1.00  0.00    -0.217 F 
HETATM    5  C7  UNL     1       2.739   0.860   0.187  1.00  0.00     0.197 C 
HETATM    6  C8  UNL     1       2.393  -0.437   0.880  1.00  0.00     0.179 C 
HETATM    7  C9  UNL     1       1.540  -1.246  -0.027  1.00  0.00     0.179 C 
ENDROOT
BRANCH   1   8
HETATM    8  C4  UNL     1      -0.762  -0.450   0.332  1.00  0.00     0.270 C 
BRANCH   8   9
HETATM    9  N1  UNL     1      -1.982   0.036  -0.198  1.00  0.00    -0.076 N 
HETATM   10  C1  UNL     1      -2.996  -1.017  -0.345  1.00  0.00     0.271 C 
HETATM   11  C2  UNL     1      -1.898   0.716  -1.448  1.00  0.00     0.271 C 
HETATM   12  C3  UNL     1      -2.563   0.984   0.768  1.00  0.00     0.271 C 
ENDBRANCH   8   9
ENDBRANCH   1   8
BRANCH   7  13
HETATM   13  O4  UNL     1       1.049  -2.346   0.661  1.00  0.00    -0.390 OA
ATOM     14  H4  UNL     1       1.773  -2.829   1.041  1.00  0.00     0.210 HD
ENDBRANCH   7  13
BRANCH   6  15
HETATM   15  O3  UNL     1       1.833  -0.197   2.115  1.00  0.00    -0.391 OA
ATOM     16  H3  UNL     1       1.615  -1.013   2.551  1.00  0.00     0.210 HD
ENDBRANCH   6  15
BRANCH   5  17
HETATM   17  N2  UNL     1       3.729   0.710  -0.821  1.00  0.00    -0.293 N 
ATOM     18  H2  UNL     1       3.426   0.381  -1.738  1.00  0.00     0.188 HD
BRANCH  17  19
HETATM   19  O2  UNL     1       4.891   0.942  -0.670  1.00  0.00    -0.294 OA
ATOM     20  H2  UNL     1       5.553   0.842  -1.344  1.00  0.00     0.244 HD
ENDBRANCH  17  19
ENDBRANCH   5  17
TORSDOF 6
