REMARK  6 active torsions:
REMARK  status: ('A' for Active; 'I' for Inactive)
REMARK    1  A    between atoms: N1_2  and  C4_5 
REMARK    2  A    between atoms: C4_5  and  C5_6 
REMARK    3  A    between atoms: C6_7  and  O1_8 
REMARK    4  A    between atoms: C9_13  and  C10_14 
REMARK    5  A    between atoms: C10_14  and  O2_15 
REMARK    6  A    between atoms: C11_17  and  O3_18 
ROOT
HETATM    1  C5  UNL     1       0.056   0.538   0.488  1.00  0.00     0.072 C 
HETATM    2  C6  UNL     1       0.815   1.896   0.263  1.00  0.00     0.160 C 
HETATM    3  C7  UNL     1       2.229   1.749   0.721  1.00  0.00     0.199 C 
HETATM    4  F1  UNL     1       2.878   2.932   0.470  1.00  0.00    -0.247 F 
HETATM    5  C8  UNL     1       2.956   0.643  -0.015  1.00  0.00     0.049 C 
HETATM    6  C9  UNL     1       2.181  -0.648   0.129  1.00  0.00     0.041 C 
HETATM    7  C11 UNL     1       0.792  -0.384  -0.451  1.00  0.00     0.132 C 
ENDROOT
BRANCH   1   8
HETATM    8  C4  UNL     1      -1.359   0.767   0.175  1.00  0.00     0.245 C 
BRANCH   8   9
HETATM    9  N1  UNL     1      -2.355  -0.194   0.292  1.00  0.00    -0.078 N 
HETATM   10  C1  UNL     1      -2.180  -1.320   1.114  1.00  0.00     0.271 C 
HETATM   11  C2  UNL     1      -2.754  -0.660  -1.028  1.00  0.00     0.271 C 
HETATM   12  C3  UNL     1      -3.587   0.490   0.807  1.00  0.00     0.271 C 
ENDBRANCH   8   9
ENDBRANCH   1   8
BRANCH   2  13
HETATM   13  O1  UNL     1       0.687   2.297  -1.043  1.00  0.00    -0.392 OA
ATOM     14  H1  UNL     1       1.146   3.118  -1.179  1.00  0.00     0.210 HD
ENDBRANCH   2  13
BRANCH   7  15
HETATM   15  O3  UNL     1       0.165  -1.541  -0.797  1.00  0.00    -0.395 OA
ATOM     16  H3  UNL     1       0.629  -2.122  -1.389  1.00  0.00     0.210 HD
ENDBRANCH   7  15
BRANCH   6  17
HETATM   17  C10 UNL     1       2.902  -1.727  -0.664  1.00  0.00     0.171 C 
BRANCH  17  18
HETATM   18  O2  UNL     1       2.996  -1.425  -1.998  1.00  0.00    -0.400 OA
ATOM     19  H2  UNL     1       3.446  -2.099  -2.493  1.00  0.00     0.209 HD
ENDBRANCH  17  18
ENDBRANCH   6  17
TORSDOF 6
