REMARK  7 active torsions:
REMARK  status: ('A' for Active; 'I' for Inactive)
REMARK    1  A    between atoms: N1_2  and  C3_4 
REMARK    2  A    between atoms: C3_4  and  C4_5 
REMARK    3  A    between atoms: C4_5  and  C5_6 
REMARK    4  A    between atoms: C5_6  and  C6_7 
REMARK    5  A    between atoms: C6_7  and  O1_9 
REMARK    6  A    between atoms: C6_7  and  C8_11 
REMARK    7  A    between atoms: C19_22  and  O2_23 
ROOT
HETATM    1  C8  UNL     1       0.092   0.886   0.752  1.00  0.00     0.049 C 
HETATM    2  C9  UNL     1      -0.387   1.727  -0.410  1.00  0.00     0.010 C 
HETATM    3  C10 UNL     1      -1.823   2.118  -0.146  1.00  0.00     0.005 C 
HETATM    4  C11 UNL     1      -2.589   0.818  -0.345  1.00  0.00    -0.007 C 
HETATM    5  C12 UNL     1      -4.071   1.043  -0.354  1.00  0.00     0.014 C 
HETATM    6  C13 UNL     1      -4.751  -0.312  -0.399  1.00  0.00    -0.047 C 
HETATM    7  C14 UNL     1      -5.774  -0.339  -1.544  1.00  0.00     0.015 C 
HETATM    8  C15 UNL     1      -5.470  -0.623   0.889  1.00  0.00     0.015 C 
HETATM    9  C16 UNL     1      -3.783  -1.440  -0.679  1.00  0.00     0.009 C 
HETATM   10  C17 UNL     1      -2.650  -1.502   0.309  1.00  0.00     0.008 C 
HETATM   11  C18 UNL     1      -2.256  -0.117   0.782  1.00  0.00     0.019 C 
HETATM   12  C19 UNL     1      -0.864  -0.110   1.269  1.00  0.00     0.129 C 
ENDROOT
BRANCH   1  13
HETATM   13  C6  UNL     1       1.398   0.174   0.348  1.00  0.00     0.060 C 
HETATM   14  C7  UNL     1       1.865  -0.823   1.353  1.00  0.00     0.046 C 
BRANCH  13  15
HETATM   15  C5  UNL     1       2.448   1.143  -0.039  1.00  0.00     0.039 C 
BRANCH  15  16
HETATM   16  C4  UNL     1       3.677   0.664  -0.710  1.00  0.00     0.033 C 
BRANCH  16  17
HETATM   17  C3  UNL     1       4.568  -0.297  -0.031  1.00  0.00     0.271 C 
BRANCH  17  18
HETATM   18  N1  UNL     1       5.750  -0.588  -0.888  1.00  0.00     0.080 N 
HETATM   19  C1  UNL     1       6.599  -1.533  -0.188  1.00  0.00     0.309 C 
HETATM   20  C2  UNL     1       6.522   0.663  -0.967  1.00  0.00     0.309 C 
ENDBRANCH  17  18
ENDBRANCH  16  17
ENDBRANCH  15  16
ENDBRANCH  13  15
BRANCH  13  21
HETATM   21  O1  UNL     1       1.131  -0.589  -0.831  1.00  0.00    -0.390 OA
ATOM     22  H1  UNL     1       0.457  -1.211  -0.583  1.00  0.00     0.210 HD
ENDBRANCH  13  21
ENDBRANCH   1  13
BRANCH  12  23
HETATM   23  O2  UNL     1      -0.960   0.078   2.680  1.00  0.00    -0.395 OA
ATOM     24  H2  UNL     1      -1.576  -0.564   3.013  1.00  0.00     0.210 HD
ENDBRANCH  12  23
TORSDOF 7
