REMARK  13 active torsions:
REMARK  status: ('A' for Active; 'I' for Inactive)
REMARK    1  A    between atoms: C4_9  and  N3_10 
REMARK    2  A    between atoms: N3_10  and  C5_11 
REMARK    3  A    between atoms: N3_10  and  C13_22 
REMARK    4  A    between atoms: C8_14  and  O2_15 
REMARK    5  A    between atoms: O2_15  and  C9_16 
REMARK    6  A    between atoms: C9_16  and  C10_17 
REMARK    7  A    between atoms: C13_22  and  C14_23 
REMARK    8  A    between atoms: C13_22  and  C15_26 
REMARK    9  A    between atoms: C15_26  and  O7_27 
REMARK   10  A    between atoms: N4_29  and  O8_31 
REMARK   11  A    between atoms: C17_37  and  O11_38 
REMARK   12  A    between atoms: O11_38  and  C18_39 
REMARK   13  A    between atoms: C19_42  and  C20_43 
ROOT
HETATM    1  N3  UNL     1       0.446  -1.773   0.270  1.00  0.00    -0.321 N 
ENDROOT
BRANCH   1   2
HETATM    2  C4  UNL     1      -0.894  -1.339   0.420  1.00  0.00     0.092 A 
HETATM    3  C1  UNL     1      -1.829  -2.125   1.240  1.00  0.00     0.124 A 
HETATM    4  N1  UNL     1      -1.621  -3.193   1.899  1.00  0.00    -0.393 N 
HETATM    5  C2  UNL     1      -3.095  -1.404   1.163  1.00  0.00     0.281 A 
ATOM      6  H12 UNL     1      -2.269  -3.738   2.468  1.00  0.00     0.156 HD
ATOM      7  H11 UNL     1      -0.736  -3.697   1.953  1.00  0.00     0.156 HD
HETATM    8  O1  UNL     1      -4.103  -1.833   1.769  1.00  0.00    -0.265 OA
HETATM    9  N2  UNL     1      -2.883  -0.267   0.337  1.00  0.00    -0.268 N 
HETATM   10  C3  UNL     1      -1.538  -0.284  -0.074  1.00  0.00     0.064 A 
HETATM   11  C19 UNL     1      -3.865   0.699  -0.090  1.00  0.00     0.165 C 
HETATM   12  C16 UNL     1      -0.857   0.777  -0.885  1.00  0.00     0.208 C 
HETATM   13  S1  UNL     1      -1.994   1.865  -1.628  1.00  0.00     0.205 S 
HETATM   14  O9  UNL     1      -2.100   1.635  -3.133  1.00  0.00    -0.220 OA
HETATM   15  O10 UNL     1      -1.511   3.283  -1.446  1.00  0.00    -0.220 OA
HETATM   16  C17 UNL     1      -3.564   1.648  -0.923  1.00  0.00     0.209 C 
BRANCH  16  17
HETATM   17  O11 UNL     1      -4.532   2.614  -1.330  1.00  0.00    -0.249 OA
BRANCH  17  18
HETATM   18  C18 UNL     1      -4.524   3.850  -0.641  1.00  0.00     0.378 C 
HETATM   19  N5  UNL     1      -5.460   4.826  -1.026  1.00  0.00    -0.032 NA
HETATM   20  O12 UNL     1      -3.682   4.003   0.274  1.00  0.00    -0.242 OA
ENDBRANCH  17  18
ENDBRANCH  16  17
BRANCH  11  21
HETATM   21  C20 UNL     1      -5.269   0.631   0.326  1.00  0.00     0.231 C 
HETATM   22  O13 UNL     1      -6.087   1.473  -0.188  1.00  0.00    -0.643 OA
HETATM   23  O14 UNL     1      -5.857  -0.222   1.208  1.00  0.00    -0.643 OA
ENDBRANCH  11  21
ENDBRANCH   1   2
BRANCH   1  24
HETATM   24  C5  UNL     1       1.537  -0.947   0.639  1.00  0.00     0.036 A 
HETATM   25  C6  UNL     1       2.355  -0.307  -0.254  1.00  0.00     0.032 A 
HETATM   26  C7  UNL     1       3.425   0.503   0.138  1.00  0.00     0.039 A 
HETATM   27  C8  UNL     1       3.704   0.693   1.454  1.00  0.00     0.069 A 
HETATM   28  C11 UNL     1       2.872   0.040   2.371  1.00  0.00     0.039 A 
HETATM   29  C12 UNL     1       1.835  -0.745   1.990  1.00  0.00     0.032 A 
BRANCH  27  30
HETATM   30  O2  UNL     1       4.742   1.481   1.923  1.00  0.00    -0.341 OA
BRANCH  30  31
HETATM   31  C9  UNL     1       5.625   2.200   1.140  1.00  0.00     0.288 C 
BRANCH  31  32
HETATM   32  C10 UNL     1       5.050   3.267   0.321  1.00  0.00     0.198 C 
HETATM   33  O3  UNL     1       5.746   3.937  -0.493  1.00  0.00    -0.646 OA
HETATM   34  O4  UNL     1       3.703   3.572   0.427  1.00  0.00    -0.646 OA
ENDBRANCH  31  32
ENDBRANCH  30  31
ENDBRANCH  27  30
ENDBRANCH   1  24
BRANCH   1  35
HETATM   35  C13 UNL     1       0.676  -3.114  -0.244  1.00  0.00     0.267 C 
BRANCH  35  36
HETATM   36  C14 UNL     1      -0.065  -3.325  -1.502  1.00  0.00     0.205 C 
HETATM   37  O5  UNL     1      -0.839  -2.551  -2.069  1.00  0.00    -0.646 OA
HETATM   38  O6  UNL     1       0.108  -4.568  -2.179  1.00  0.00    -0.646 OA
ENDBRANCH  35  36
BRANCH  35  39
HETATM   39  C15 UNL     1       2.130  -3.338  -0.488  1.00  0.00     0.170 C 
HETATM   40  N4  UNL     1       2.540  -3.617  -1.656  1.00  0.00    -0.249 N 
ATOM     41  H4  UNL     1       1.838  -3.677  -2.393  1.00  0.00     0.196 HD
BRANCH  39  42
HETATM   42  O7  UNL     1       3.005  -3.237   0.558  1.00  0.00    -0.346 OA
ATOM     43  H7  UNL     1       3.931  -3.380   0.403  1.00  0.00     0.219 HD
ENDBRANCH  39  42
BRANCH  40  44
HETATM   44  O8  UNL     1       3.830  -3.843  -2.011  1.00  0.00    -0.288 OA
ATOM     45  H8  UNL     1       4.137  -4.052  -2.885  1.00  0.00     0.244 HD
ENDBRANCH  40  44
ENDBRANCH  35  39
ENDBRANCH   1  35
TORSDOF 13
