REMARK  4 active torsions:
REMARK  status: ('A' for Active; 'I' for Inactive)
REMARK    1  A    between atoms: C4_7  and  C5_8 
REMARK    2  A    between atoms: C5_8  and  C6_9 
REMARK    3  A    between atoms: C6_9  and  C7_10 
REMARK    4  A    between atoms: N5_19  and  O1_20 
ROOT
HETATM    1  N1  UNL     1      -4.684  -0.854  -1.688  1.00  0.00    -0.190 NA
HETATM    2  C1  UNL     1      -3.939  -0.438  -0.902  1.00  0.00     0.124 C 
HETATM    3  C2  UNL     1      -3.020   0.080   0.052  1.00  0.00     0.191 A 
HETATM    4  C3  UNL     1      -1.670  -0.187   0.146  1.00  0.00     0.121 A 
HETATM    5  N2  UNL     1      -0.620  -0.852  -0.363  1.00  0.00    -0.340 N 
ATOM      6  H2  UNL     1      -0.670  -1.474  -1.170  1.00  0.00     0.167 HD
HETATM    7  C4  UNL     1       0.519  -0.592   0.334  1.00  0.00     0.083 A 
HETATM    8  N3  UNL     1       0.162   0.272   1.318  1.00  0.00    -0.329 N 
ATOM      9  H3  UNL     1       0.794   0.662   2.017  1.00  0.00     0.168 HD
HETATM   10  C8  UNL     1      -1.151   0.533   1.228  1.00  0.00     0.153 A 
HETATM   11  N4  UNL     1      -2.218   1.195   1.727  1.00  0.00    -0.256 N 
ATOM     12  H4  UNL     1      -2.181   1.819   2.533  1.00  0.00     0.191 HD
HETATM   13  N5  UNL     1      -3.315   0.932   1.040  1.00  0.00    -0.149 N 
ENDROOT
BRANCH  13  14
HETATM   14  O1  UNL     1      -4.569   1.471   1.323  1.00  0.00    -0.267 OA
ATOM     15  H1  UNL     1      -4.779   2.076   2.025  1.00  0.00     0.247 HD
ENDBRANCH  13  14
BRANCH   7  16
HETATM   16  C5  UNL     1       1.826  -1.206   0.025  1.00  0.00     0.082 C 
BRANCH  16  17
HETATM   17  C6  UNL     1       2.654  -0.505  -0.996  1.00  0.00     0.085 C 
BRANCH  17  18
HETATM   18  C7  UNL     1       3.014   0.882  -0.632  1.00  0.00     0.255 C 
HETATM   19  F1  UNL     1       1.965   1.730  -0.454  1.00  0.00    -0.207 F 
HETATM   20 CL1  UNL     1       4.027   1.593  -1.923  1.00  0.00    -0.066 Cl
HETATM   21 CL2  UNL     1       4.024   0.788   0.855  1.00  0.00    -0.066 Cl
ENDBRANCH  17  18
ENDBRANCH  16  17
ENDBRANCH   7  16
TORSDOF 4
