REMARK  6 active torsions:
REMARK  status: ('A' for Active; 'I' for Inactive)
REMARK    1  A    between atoms: N1_2  and  C1_3 
REMARK    2  A    between atoms: C1_3  and  N2_4 
REMARK    3  A    between atoms: N2_4  and  C2_7 
REMARK    4  A    between atoms: C2_7  and  C3_8 
REMARK    5  A    between atoms: C7_16  and  O2_17 
REMARK    6  A    between atoms: C7_16  and  C8_19 
ROOT
HETATM    1  O1  UNL     1       0.061   1.101   1.040  1.00  0.00    -0.059 OA
HETATM    2  N1  UNL     1      -0.310  -0.040   0.298  1.00  0.00     0.082 N 
HETATM    3  C4  UNL     1      -0.866  -0.917   1.311  1.00  0.00     0.371 C 
HETATM    4  C5  UNL     1       0.266  -1.762   1.717  1.00  0.00     0.069 C 
HETATM    5 CL1  UNL     1       0.332  -2.805   3.162  1.00  0.00    -0.085 Cl
HETATM    6  C6  UNL     1       1.267  -1.648   0.867  1.00  0.00     0.103 C 
HETATM    7 CL2  UNL     1       2.822  -2.472   0.943  1.00  0.00    -0.082 Cl
HETATM    8  C7  UNL     1       0.878  -0.657  -0.198  1.00  0.00     0.329 C 
ENDROOT
BRANCH   2   9
HETATM    9  C1  UNL     1      -1.281   0.440  -0.618  1.00  0.00     0.546 C 
BRANCH   9  10
HETATM   10  N2  UNL     1      -2.381  -0.513  -0.774  1.00  0.00    -0.038 N 
ATOM     11  H22 UNL     1      -2.505  -0.795  -1.746  1.00  0.00     0.280 HD
ATOM     12  H21 UNL     1      -2.152  -1.426  -0.380  1.00  0.00     0.280 HD
BRANCH  10  13
HETATM   13  C2  UNL     1      -3.589   0.023  -0.215  1.00  0.00     0.305 C 
BRANCH  13  14
HETATM   14  C3  UNL     1      -4.176   1.244  -0.816  1.00  0.00     0.378 C 
HETATM   15  F1  UNL     1      -5.349   1.510  -0.068  1.00  0.00    -0.213 F 
HETATM   16  F2  UNL     1      -4.621   1.116  -2.110  1.00  0.00    -0.213 F 
ENDBRANCH  13  14
ENDBRANCH  10  13
ENDBRANCH   9  10
ENDBRANCH   2   9
BRANCH   8  17
HETATM   17  O2  UNL     1       0.711  -1.407  -1.354  1.00  0.00    -0.353 OA
ATOM     18  H2  UNL     1       1.502  -1.818  -1.684  1.00  0.00     0.213 HD
ENDBRANCH   8  17
BRANCH   8  19
HETATM   19  C8  UNL     1       1.924   0.414  -0.346  1.00  0.00     0.070 C 
HETATM   20  C9  UNL     1       3.242   0.094  -0.920  1.00  0.00     0.047 C 
HETATM   21  C10 UNL     1       3.899   0.887   0.200  1.00  0.00     0.171 C 
HETATM   22  F3  UNL     1       4.171   2.198  -0.148  1.00  0.00    -0.249 F 
HETATM   23  C11 UNL     1       2.567   0.797   0.950  1.00  0.00     0.047 C 
ENDBRANCH   8  19
TORSDOF 6
