REMARK  7 active torsions:
REMARK  status: ('A' for Active; 'I' for Inactive)
REMARK    1  A    between atoms: C2_2  and  C3_3 
REMARK    2  A    between atoms: C3_3  and  C4_4 
REMARK    3  A    between atoms: C4_4  and  C5_5 
REMARK    4  A    between atoms: C4_4  and  N1_8 
REMARK    5  A    between atoms: C5_5  and  O1_6 
REMARK    6  A    between atoms: C13_16  and  C14_17 
REMARK    7  A    between atoms: C14_17  and  O2_18 
ROOT
HETATM    1  N1  UNL     1       0.528  -0.183  -0.501  1.00  0.00     0.101 N 
HETATM    2  C6  UNL     1       0.168  -1.330  -1.305  1.00  0.00     0.274 C 
HETATM    3  C7  UNL     1      -1.338  -1.495  -1.219  1.00  0.00     0.042 C 
HETATM    4  C8  UNL     1      -1.679  -0.827   0.057  1.00  0.00    -0.003 C 
HETATM    5  C9  UNL     1      -2.441  -1.630   1.071  1.00  0.00     0.012 C 
HETATM    6  C10 UNL     1      -3.869  -1.116   0.873  1.00  0.00     0.001 C 
HETATM    7  C11 UNL     1      -3.650   0.379   0.812  1.00  0.00     0.006 C 
HETATM    8  C12 UNL     1      -2.391   0.483  -0.012  1.00  0.00     0.004 C 
HETATM    9  C13 UNL     1      -1.209   1.093   0.754  1.00  0.00     0.048 C 
HETATM   10  C15 UNL     1      -0.410  -0.177   0.572  1.00  0.00     0.239 C 
ENDROOT
BRANCH   1  11
HETATM   11  C4  UNL     1       1.906  -0.409  -0.053  1.00  0.00     0.250 C 
BRANCH  11  12
HETATM   12  C3  UNL     1       2.318   0.586   0.969  1.00  0.00     0.064 C 
BRANCH  12  13
HETATM   13  C2  UNL     1       3.691   0.328   1.446  1.00  0.00    -0.035 C 
HETATM   14  C1  UNL     1       4.663   1.236   1.407  1.00  0.00     0.007 C 
ENDBRANCH  12  13
ENDBRANCH  11  12
BRANCH  11  15
HETATM   15  C5  UNL     1       2.799  -0.373  -1.240  1.00  0.00     0.200 C 
BRANCH  15  16
HETATM   16  O1  UNL     1       4.109  -0.611  -0.878  1.00  0.00    -0.399 OA
ATOM     17  H1  UNL     1       4.680  -0.588  -1.637  1.00  0.00     0.209 HD
ENDBRANCH  15  16
ENDBRANCH  11  15
ENDBRANCH   1  11
BRANCH   9  18
HETATM   18  C14 UNL     1      -0.721   2.293   0.015  1.00  0.00     0.171 C 
BRANCH  18  19
HETATM   19  O2  UNL     1      -1.745   3.218  -0.082  1.00  0.00    -0.400 OA
ATOM     20  H2  UNL     1      -1.434   3.982  -0.553  1.00  0.00     0.209 HD
ENDBRANCH  18  19
ENDBRANCH   9  18
TORSDOF 7
