REMARK  5 active torsions:
REMARK  status: ('A' for Active; 'I' for Inactive)
REMARK    1  A    between atoms: C2_2  and  C4_4 
REMARK    2  A    between atoms: C5_5  and  C6_6 
REMARK    3  A    between atoms: C6_6  and  O1_7 
REMARK    4  A    between atoms: C8_10  and  C9_11 
REMARK    5  A    between atoms: C9_11  and  N1_12 
ROOT
HETATM    1  C4  UNL     1      -1.774   0.110  -0.356  1.00  0.00     0.001 C 
HETATM    2  C5  UNL     1      -2.876  -0.873  -0.721  1.00  0.00     0.014 C 
HETATM    3  C7  UNL     1      -1.988  -1.986  -0.285  1.00  0.00     0.013 C 
HETATM    4  C8  UNL     1      -1.007  -0.990   0.337  1.00  0.00     0.019 C 
ENDROOT
BRANCH   4   5
HETATM    5  C9  UNL     1       0.360  -1.299  -0.122  1.00  0.00     0.277 C 
BRANCH   5   6
HETATM    6  N1  UNL     1       1.371  -0.322  -0.046  1.00  0.00     0.092 N 
HETATM    7  C10 UNL     1       1.807  -0.033   1.305  1.00  0.00     0.302 C 
HETATM    8  C11 UNL     1       2.930   0.944   1.342  1.00  0.00     0.302 C 
HETATM    9  N2  UNL     1       3.983   0.660   0.397  1.00  0.00     0.087 N 
HETATM   10  C12 UNL     1       4.203   1.704  -0.546  1.00  0.00     0.310 C 
HETATM   11  C13 UNL     1       3.807  -0.622  -0.203  1.00  0.00     0.302 C 
HETATM   12  C14 UNL     1       2.473  -0.716  -0.900  1.00  0.00     0.302 C 
ENDBRANCH   5   6
ENDBRANCH   4   5
BRANCH   1  13
HETATM   13  C2  UNL     1      -2.320   1.217   0.476  1.00  0.00    -0.018 C 
HETATM   14  C1  UNL     1      -1.284   2.256   0.848  1.00  0.00     0.010 C 
HETATM   15  C3  UNL     1      -2.951   0.751   1.769  1.00  0.00     0.010 C 
ENDBRANCH   1  13
BRANCH   2  16
HETATM   16  C6  UNL     1      -3.185  -0.793  -2.201  1.00  0.00     0.169 C 
BRANCH  16  17
HETATM   17  O1  UNL     1      -4.188  -1.682  -2.566  1.00  0.00    -0.400 OA
ATOM     18  H1  UNL     1      -4.382  -1.632  -3.495  1.00  0.00     0.209 HD
ENDBRANCH  16  17
ENDBRANCH   2  16
TORSDOF 5
