REMARK  5 active torsions:
REMARK  status: ('A' for Active; 'I' for Inactive)
REMARK    1  A    between atoms: O1_2  and  C2_3 
REMARK    2  A    between atoms: C2_3  and  C3_4 
REMARK    3  A    between atoms: C3_4  and  N1_5 
REMARK    4  A    between atoms: C3_4  and  C12_19 
REMARK       I    between atoms: N1_5  and  C4_7 
REMARK    5  A    between atoms: C4_7  and  C5_9 
ROOT
HETATM    1  N1  UNL     1      -0.794  -0.053  -0.058  1.00  0.00    -0.352 N 
ATOM      2  H1  UNL     1      -0.537  -0.838  -0.656  1.00  0.00     0.163 HD
HETATM    3  C4  UNL     1       0.237   0.686   0.556  1.00  0.00     0.249 C 
HETATM    4  O2  UNL     1      -0.074   1.662   1.300  1.00  0.00    -0.271 OA
ENDROOT
BRANCH   3   5
HETATM    5  C5  UNL     1       1.667   0.351   0.354  1.00  0.00     0.281 C 
HETATM    6  N2  UNL     1       2.503   1.268   1.098  1.00  0.00    -0.062 N 
HETATM    7  C6  UNL     1       3.876   1.082   0.746  1.00  0.00     0.238 C 
ATOM      8  H22 UNL     1       2.207   2.237   0.978  1.00  0.00     0.278 HD
ATOM      9  H21 UNL     1       2.354   1.189   2.104  1.00  0.00     0.278 HD
HETATM   10  C7  UNL     1       4.220  -0.405   0.690  1.00  0.00     0.012 C 
HETATM   11  C8  UNL     1       3.889  -0.995  -0.663  1.00  0.00     0.007 C 
HETATM   12  C11 UNL     1       3.224  -1.102   1.618  1.00  0.00     0.013 C 
HETATM   13  C9  UNL     1       2.597  -1.733  -0.531  1.00  0.00     0.007 C 
HETATM   14  C10 UNL     1       1.985  -1.072   0.712  1.00  0.00     0.026 C 
ENDBRANCH   3   5
BRANCH   1  15
HETATM   15  C3  UNL     1      -2.216   0.251   0.120  1.00  0.00     0.111 C 
BRANCH  15  16
HETATM   16  C2  UNL     1      -2.948  -0.866   0.774  1.00  0.00     0.192 C 
BRANCH  16  17
HETATM   17  O1  UNL     1      -4.282  -0.578   0.936  1.00  0.00    -0.394 OA
HETATM   18  C1  UNL     1      -4.566   0.517   1.719  1.00  0.00     0.201 C 
ENDBRANCH  16  17
ENDBRANCH  15  16
BRANCH  15  19
HETATM   19  C12 UNL     1      -2.837   0.687  -1.188  1.00  0.00     0.002 C 
HETATM   20  C13 UNL     1      -2.062   1.823  -1.817  1.00  0.00     0.011 C 
HETATM   21  C14 UNL     1      -2.915  -0.432  -2.191  1.00  0.00     0.011 C 
ENDBRANCH  15  19
ENDBRANCH   1  15
TORSDOF 5
