REMARK  2 active torsions:
REMARK  status: ('A' for Active; 'I' for Inactive)
REMARK    1  A    between atoms: C4_4  and  C5_5 
REMARK    2  A    between atoms: C5_5  and  C6_6 
ROOT
HETATM    1  C6  UNL     1       0.104   0.056   0.266  1.00  0.00    -0.017 C 
HETATM    2  C7  UNL     1       0.586  -1.318   0.765  1.00  0.00     0.018 C 
HETATM    3  C8  UNL     1      -0.670   0.581   1.489  1.00  0.00     0.014 C 
HETATM    4  C9  UNL     1      -1.976  -0.139   1.650  1.00  0.00     0.031 C 
HETATM    5  C10 UNL     1      -2.778   0.032   0.404  1.00  0.00     0.019 C 
HETATM    6  C11 UNL     1      -3.726   1.232   0.572  1.00  0.00     0.037 C 
HETATM    7  C12 UNL     1      -3.698  -1.199   0.315  1.00  0.00     0.037 C 
HETATM    8  N1  UNL     1      -2.121   0.163  -0.803  1.00  0.00    -0.405 N 
ATOM      9  H1  UNL     1      -2.664   0.411  -1.630  1.00  0.00     0.154 HD
HETATM   10  C13 UNL     1      -0.724  -0.032  -0.943  1.00  0.00     0.026 C 
HETATM   11  C14 UNL     1      -0.621  -1.492  -1.454  1.00  0.00     0.038 C 
HETATM   12  C15 UNL     1      -0.299   0.799  -2.127  1.00  0.00     0.038 C 
ENDROOT
BRANCH   1  13
HETATM   13  C5  UNL     1       1.321   0.951   0.201  1.00  0.00     0.039 C 
BRANCH  13  14
HETATM   14  C4  UNL     1       2.394   0.501  -0.680  1.00  0.00    -0.024 C 
HETATM   15  C2  UNL     1       3.611   0.272  -0.199  1.00  0.00    -0.091 C 
HETATM   16  C1  UNL     1       4.735  -0.190  -1.074  1.00  0.00     0.042 C 
HETATM   17  C3  UNL     1       3.866   0.481   1.233  1.00  0.00     0.042 C 
ENDBRANCH  13  14
ENDBRANCH   1  13
TORSDOF 2
