REMARK  5 active torsions:
REMARK  status: ('A' for Active; 'I' for Inactive)
REMARK    1  A    between atoms: C1_2  and  N1_3 
REMARK    2  A    between atoms: N1_3  and  C2_5 
REMARK    3  A    between atoms: C2_5  and  C3_6 
REMARK    4  A    between atoms: C4_7  and  C5_8 
REMARK    5  A    between atoms: C5_8  and  C6_9 
ROOT
HETATM    1  C3  UNL     1       1.656   0.446  -1.214  1.00  0.00    -0.011 C 
HETATM    2  C4  UNL     1       0.725   0.516  -0.278  1.00  0.00    -0.029 C 
ENDROOT
BRANCH   2   3
HETATM    3  C5  UNL     1       0.517  -0.532   0.752  1.00  0.00     0.031 C 
BRANCH   3   4
HETATM    4  C6  UNL     1      -0.876  -1.116   0.669  1.00  0.00    -0.011 C 
HETATM    5  C7  UNL     1      -1.092  -2.186   1.719  1.00  0.00     0.005 C 
HETATM    6  C8  UNL     1      -2.614  -2.343   1.640  1.00  0.00     0.000 C 
HETATM    7  C9  UNL     1      -3.048  -0.894   1.713  1.00  0.00     0.000 C 
HETATM    8  C10 UNL     1      -1.948  -0.127   0.987  1.00  0.00     0.005 C 
ENDBRANCH   3   4
ENDBRANCH   2   3
BRANCH   1   9
HETATM    9  C2  UNL     1       1.789   1.542  -2.201  1.00  0.00     0.149 C 
BRANCH   9  10
HETATM   10  N1  UNL     1       3.106   2.146  -2.130  1.00  0.00    -0.365 N 
ATOM     11  H1  UNL     1       3.791   1.799  -1.458  1.00  0.00     0.162 HD
BRANCH  10  12
HETATM   12  C1  UNL     1       3.439   3.216  -2.993  1.00  0.00     0.348 C 
HETATM   13  O1  UNL     1       2.611   3.649  -3.819  1.00  0.00    -0.284 OA
ENDBRANCH  10  12
ENDBRANCH   9  10
ENDBRANCH   1   9
TORSDOF 5
