REMARK  4 active torsions:
REMARK  status: ('A' for Active; 'I' for Inactive)
REMARK    1  A    between atoms: C2_2  and  N1_4 
REMARK    2  A    between atoms: N1_4  and  N2_5 
REMARK    3  A    between atoms: N2_5  and  C4_6 
REMARK    4  A    between atoms: N2_5  and  C7_9 
ROOT
HETATM    1  N2  UNL     1       0.316   0.273  -0.221  1.00  0.00    -0.226 NA
ENDROOT
BRANCH   1   2
HETATM    2  N1  UNL     1      -0.984   0.264   0.297  1.00  0.00    -0.160 NA
BRANCH   2   3
HETATM    3  C2  UNL     1      -1.838  -0.756  -0.259  1.00  0.00     0.085 C 
HETATM    4  C1  UNL     1      -1.965  -0.705  -1.763  1.00  0.00     0.029 C 
HETATM    5  C3  UNL     1      -3.227  -0.527   0.376  1.00  0.00     0.029 C 
ENDBRANCH   2   3
ENDBRANCH   1   2
BRANCH   1   6
HETATM    6  C4  UNL     1       0.849   1.629  -0.200  1.00  0.00     0.068 C 
HETATM    7  C5  UNL     1       0.840   2.278   1.139  1.00  0.00     0.027 C 
HETATM    8  C6  UNL     1       0.091   2.491  -1.174  1.00  0.00     0.027 C 
ENDBRANCH   1   6
BRANCH   1   9
HETATM    9  C7  UNL     1       1.105  -0.617   0.585  1.00  0.00     0.076 C 
HETATM   10  C8  UNL     1       2.557  -0.771   0.136  1.00  0.00     0.021 C 
HETATM   11  C9  UNL     1       2.475  -2.136   0.794  1.00  0.00     0.003 C 
HETATM   12  C10 UNL     1       1.014  -2.097   0.307  1.00  0.00     0.021 C 
ENDBRANCH   1   9
TORSDOF 4
