REMARK  11 active torsions:
REMARK  status: ('A' for Active; 'I' for Inactive)
REMARK    1  A    between atoms: C4_9  and  C5_10 
REMARK    2  A    between atoms: N3_11  and  C6_13 
REMARK    3  A    between atoms: C9_16  and  O2_17 
REMARK    4  A    between atoms: O2_17  and  C10_18 
REMARK    5  A    between atoms: C10_18  and  C11_19 
REMARK    6  A    between atoms: C11_19  and  C12_20 
REMARK    7  A    between atoms: C12_20  and  N4_21 
REMARK    8  A    between atoms: N5_24  and  C15_25 
REMARK    9  A    between atoms: C15_25  and  C16_26 
REMARK   10  A    between atoms: C23_36  and  C24_37 
REMARK   11  A    between atoms: C24_37  and  N7_38 
ROOT
HETATM    1  C6  UNL     1      -5.167   1.283  -0.167  1.00  0.00     0.032 A 
HETATM    2  C7  UNL     1      -4.177   2.241  -0.161  1.00  0.00     0.032 A 
HETATM    3  C8  UNL     1      -2.848   1.888  -0.103  1.00  0.00     0.039 A 
HETATM    4  C9  UNL     1      -2.441   0.584  -0.049  1.00  0.00     0.076 A 
HETATM    5  C23 UNL     1      -3.425  -0.415  -0.055  1.00  0.00    -0.005 A 
HETATM    6  C27 UNL     1      -4.749  -0.056  -0.112  1.00  0.00     0.041 A 
ENDROOT
BRANCH   4   7
HETATM    7  O2  UNL     1      -1.091   0.247   0.009  1.00  0.00    -0.350 OA
BRANCH   7   8
HETATM    8  C10 UNL     1      -0.091   1.269   0.015  1.00  0.00     0.177 C 
BRANCH   8   9
HETATM    9  C11 UNL     1       1.300   0.683   0.087  1.00  0.00     0.057 C 
BRANCH   9  10
HETATM   10  C12 UNL     1       1.393  -0.115   1.356  1.00  0.00     0.274 C 
BRANCH  10  11
HETATM   11  N4  UNL     1       2.672  -0.725   1.558  1.00  0.00     0.091 N 
HETATM   12  C13 UNL     1       3.727   0.228   1.818  1.00  0.00     0.302 C 
HETATM   13  C14 UNL     1       5.001  -0.585   1.910  1.00  0.00     0.302 C 
HETATM   14  N5  UNL     1       5.394  -0.997   0.592  1.00  0.00     0.092 N 
HETATM   15  C21 UNL     1       4.265  -1.446  -0.176  1.00  0.00     0.302 C 
HETATM   16  C22 UNL     1       3.033  -1.718   0.594  1.00  0.00     0.302 C 
BRANCH  14  17
HETATM   17  C15 UNL     1       6.043   0.052  -0.160  1.00  0.00     0.277 C 
BRANCH  17  18
HETATM   18  C16 UNL     1       7.394   0.422   0.398  1.00  0.00     0.017 C 
HETATM   19  C17 UNL     1       7.973   1.518  -0.463  1.00  0.00     0.034 C 
HETATM   20  C18 UNL     1       9.467   1.358  -0.653  1.00  0.00     0.232 C 
HETATM   21  N6  UNL     1       9.675   0.074  -1.289  1.00  0.00    -0.075 N 
HETATM   22  C19 UNL     1       9.230  -1.045  -0.522  1.00  0.00     0.232 C 
ATOM     23  H62 UNL     1       9.247   0.063  -2.215  1.00  0.00     0.277 HD
ATOM     24  H61 UNL     1      10.655  -0.040  -1.548  1.00  0.00     0.277 HD
HETATM   25  C20 UNL     1       8.307  -0.733   0.607  1.00  0.00     0.034 C 
ENDBRANCH  17  18
ENDBRANCH  14  17
ENDBRANCH  10  11
ENDBRANCH   9  10
ENDBRANCH   8   9
ENDBRANCH   7   8
ENDBRANCH   4   7
BRANCH   5  26
HETATM   26  C24 UNL     1      -2.968  -1.816   0.035  1.00  0.00     0.157 C 
BRANCH  26  27
HETATM   27  N7  UNL     1      -4.042  -2.734  -0.035  1.00  0.00    -0.417 N 
HETATM   28  C25 UNL     1      -4.697  -2.829  -1.300  1.00  0.00     0.142 C 
HETATM   29  C26 UNL     1      -3.867  -3.985   0.631  1.00  0.00     0.142 C 
ENDBRANCH  26  27
ENDBRANCH   5  26
BRANCH   1  30
HETATM   30  N3  UNL     1      -6.552   1.586  -0.223  1.00  0.00    -0.365 N 
HETATM   31  C5  UNL     1      -7.396   0.837  -0.838  1.00  0.00     0.107 C 
ATOM     32  H3  UNL     1      -6.890   2.429   0.242  1.00  0.00     0.165 HD
BRANCH  31  33
HETATM   33  C4  UNL     1      -8.799   1.177  -0.874  1.00  0.00     0.072 A 
HETATM   34  C2  UNL     1      -9.410   2.291  -0.288  1.00  0.00     0.039 A 
HETATM   35  C1  UNL     1      -8.684   3.333   0.491  1.00  0.00     0.071 C 
HETATM   36  N1  UNL     1     -10.701   2.189  -0.579  1.00  0.00    -0.301 N 
HETATM   37  N2  UNL     1     -10.932   1.102  -1.296  1.00  0.00    -0.266 N 
ATOM     38  H1  UNL     1     -11.416   2.857  -0.290  1.00  0.00     0.186 HD
HETATM   39  C3  UNL     1      -9.791   0.427  -1.515  1.00  0.00     0.273 A 
ATOM     40  H2  UNL     1     -11.850   0.815  -1.636  1.00  0.00     0.190 HD
HETATM   41  O1  UNL     1      -9.610  -0.650  -2.153  1.00  0.00    -0.266 OA
ENDBRANCH  31  33
ENDBRANCH   1  30
TORSDOF 11
