REMARK  13 active torsions:
REMARK  status: ('A' for Active; 'I' for Inactive)
REMARK    1  A    between atoms: C7_7  and  C8_8 
REMARK    2  A    between atoms: C8_8  and  C9_9 
REMARK       I    between atoms: C9_9  and  N1_11 
REMARK    3  A    between atoms: N1_11  and  C10_13 
REMARK    4  A    between atoms: C11_18  and  C12_19 
REMARK    5  A    between atoms: C12_19  and  C13_20 
REMARK    6  A    between atoms: C13_20  and  C14_21 
REMARK    7  A    between atoms: C14_21  and  C15_22 
REMARK    8  A    between atoms: C15_22  and  C16_23 
REMARK    9  A    between atoms: C19_26  and  N4_27 
REMARK       I    between atoms: N4_27  and  C20_29 
REMARK   10  A    between atoms: C20_29  and  C21_31 
REMARK   11  A    between atoms: C21_31  and  S1_32 
REMARK   12  A    between atoms: S1_32  and  C22_33 
REMARK   13  A    between atoms: C22_33  and  C23_34 
ROOT
HETATM    1  C15 UNL     1       1.513  -0.984   0.578  1.00  0.00     0.058 C 
ENDROOT
BRANCH   1   2
HETATM    2  C14 UNL     1       0.546  -0.399  -0.407  1.00  0.00     0.006 C 
BRANCH   2   3
HETATM    3  C13 UNL     1       0.424   1.059  -0.477  1.00  0.00     0.007 C 
BRANCH   3   4
HETATM    4  C12 UNL     1      -0.017   1.836   0.686  1.00  0.00     0.066 C 
BRANCH   4   5
HETATM    5  C11 UNL     1      -1.410   1.494   1.140  1.00  0.00     0.069 A 
HETATM    6  N3  UNL     1      -2.081   2.023   2.154  1.00  0.00    -0.296 N 
HETATM    7  N2  UNL     1      -3.257   1.648   2.417  1.00  0.00    -0.279 N 
ATOM      8  H3  UNL     1      -1.641   2.742   2.729  1.00  0.00     0.187 HD
HETATM    9  C10 UNL     1      -3.817   0.700   1.648  1.00  0.00     0.167 A 
ATOM     10  H2  UNL     1      -3.771   2.056   3.197  1.00  0.00     0.189 HD
HETATM   11  S2  UNL     1      -2.561   0.385   0.536  1.00  0.00    -0.038 SA
BRANCH   9  12
HETATM   12  N1  UNL     1      -5.004   0.238   1.831  1.00  0.00    -0.306 N 
HETATM   13  C9  UNL     1      -5.676  -0.730   1.107  1.00  0.00     0.227 C 
HETATM   14  O1  UNL     1      -6.176  -1.725   1.740  1.00  0.00    -0.273 OA
ATOM     15  H1  UNL     1      -5.518   0.640   2.615  1.00  0.00     0.171 HD
BRANCH  13  16
HETATM   16  C8  UNL     1      -5.901  -0.761  -0.360  1.00  0.00     0.141 C 
BRANCH  16  17
HETATM   17  C7  UNL     1      -7.378  -0.788  -0.553  1.00  0.00    -0.048 A 
HETATM   18  C6  UNL     1      -8.101  -1.946  -0.571  1.00  0.00     0.014 A 
HETATM   19  C4  UNL     1      -9.483  -1.943  -0.752  1.00  0.00    -0.061 A 
HETATM   20  C3  UNL     1     -10.108  -0.718  -0.914  1.00  0.00     0.013 A 
HETATM   21  C5  UNL     1     -10.299  -3.184  -0.773  1.00  0.00     0.048 C 
HETATM   22  C2  UNL     1      -9.384   0.472  -0.897  1.00  0.00    -0.061 A 
HETATM   23  C1  UNL     1     -10.093   1.774  -1.075  1.00  0.00     0.048 C 
HETATM   24  C25 UNL     1      -8.022   0.433  -0.717  1.00  0.00     0.014 A 
ENDBRANCH  16  17
ENDBRANCH  13  16
ENDBRANCH   9  12
ENDBRANCH   4   5
ENDBRANCH   3   4
ENDBRANCH   2   3
ENDBRANCH   1   2
BRANCH   1  25
HETATM   25  C16 UNL     1       2.920  -0.527   0.303  1.00  0.00     0.026 A 
HETATM   26  C17 UNL     1       3.462   0.584   0.898  1.00  0.00     0.030 A 
HETATM   27  C18 UNL     1       4.769   0.968   0.589  1.00  0.00     0.052 A 
HETATM   28  C19 UNL     1       5.538   0.264  -0.299  1.00  0.00     0.122 A 
HETATM   29  N8  UNL     1       4.959  -0.823  -0.858  1.00  0.00    -0.285 N 
HETATM   30  N9  UNL     1       3.724  -1.187  -0.567  1.00  0.00    -0.303 N 
ATOM     31  H8  UNL     1       5.494  -1.379  -1.525  1.00  0.00     0.188 HD
ATOM     32  H9  UNL     1       3.351  -2.018  -1.026  1.00  0.00     0.186 HD
BRANCH  28  33
HETATM   33  N4  UNL     1       6.764   0.620  -0.606  1.00  0.00    -0.311 N 
HETATM   34  C20 UNL     1       7.325   1.777  -0.002  1.00  0.00     0.232 C 
HETATM   35  O2  UNL     1       6.861   2.943  -0.257  1.00  0.00    -0.272 OA
ATOM     36  H4  UNL     1       7.308   0.071  -1.272  1.00  0.00     0.170 HD
BRANCH  34  37
HETATM   37  C21 UNL     1       8.461   1.761   0.951  1.00  0.00     0.177 C 
BRANCH  37  38
HETATM   38  S1  UNL     1       9.987   2.168   0.074  1.00  0.00    -0.152 SA
BRANCH  38  39
HETATM   39  C22 UNL     1      10.367   0.840  -1.091  1.00  0.00     0.152 C 
BRANCH  39  40
HETATM   40  C23 UNL     1      10.710  -0.408  -0.399  1.00  0.00     0.106 A 
HETATM   41  N5  UNL     1      11.977  -0.717  -0.021  1.00  0.00    -0.339 N 
HETATM   42  C24 UNL     1      11.964  -1.909   0.576  1.00  0.00     0.198 A 
ATOM     43  H5  UNL     1      12.801  -0.134  -0.169  1.00  0.00     0.168 HD
HETATM   44  N6  UNL     1      10.701  -2.345   0.573  1.00  0.00    -0.295 N 
HETATM   45  N7  UNL     1       9.951  -1.426  -0.020  1.00  0.00    -0.287 N 
ATOM     46  H6  UNL     1      10.371  -3.230   0.959  1.00  0.00     0.187 HD
ATOM     47  H7  UNL     1       8.943  -1.493  -0.163  1.00  0.00     0.188 HD
ENDBRANCH  39  40
ENDBRANCH  38  39
ENDBRANCH  37  38
ENDBRANCH  34  37
ENDBRANCH  28  33
ENDBRANCH   1  25
TORSDOF 13
