REMARK  2 active torsions:
REMARK  status: ('A' for Active; 'I' for Inactive)
REMARK    1  A    between atoms: C2_2  and  O2_4 
REMARK    2  A    between atoms: O2_4  and  C3_5 
ROOT
HETATM    1  C3  UNL     1       0.653  -0.081  -0.547  1.00  0.00     0.273 C 
HETATM    2  C4  UNL     1       0.184   1.094  -1.437  1.00  0.00     0.116 C 
HETATM    3  C5  UNL     1      -0.284   2.172  -0.555  1.00  0.00     0.065 C 
HETATM    4  N1  UNL     1      -1.637   2.212  -0.198  1.00  0.00    -0.380 N 
ATOM      5  H1  UNL     1      -2.068   3.104   0.046  1.00  0.00     0.164 HD
HETATM    6  C6  UNL     1      -2.401   1.048  -0.172  1.00  0.00     0.096 C 
HETATM    7  C7  UNL     1      -1.724  -0.239  -0.469  1.00  0.00     0.267 C 
HETATM    8  C8  UNL     1      -2.230  -1.430   0.362  1.00  0.00     0.077 C 
HETATM    9  C9  UNL     1      -0.721  -1.724   0.411  1.00  0.00     0.230 C 
HETATM   10  C10 UNL     1      -0.199  -2.271  -0.872  1.00  0.00     0.041 C 
HETATM   11  C11 UNL     1       0.838  -1.257  -1.347  1.00  0.00     0.075 C 
HETATM   12  N2  UNL     1      -0.515  -0.320   0.320  1.00  0.00     0.138 N 
ENDROOT
BRANCH   1  13
HETATM   13  O2  UNL     1       1.605   0.476   0.239  1.00  0.00    -0.278 OA
BRANCH  13  14
HETATM   14  C2  UNL     1       2.412   0.008   1.216  1.00  0.00     0.257 C 
HETATM   15  C1  UNL     1       3.409   0.817   1.970  1.00  0.00     0.126 C 
HETATM   16  O1  UNL     1       2.236  -1.201   1.432  1.00  0.00    -0.266 OA
ENDBRANCH  13  14
ENDBRANCH   1  13
TORSDOF 2
