REMARK  1 active torsions:
REMARK  status: ('A' for Active; 'I' for Inactive)
REMARK    1  A    between atoms: C4_4  and  C5_5 
ROOT
HETATM    1  C5  UNL     1      -1.129   0.550  -0.569  1.00  0.00     0.205 A 
HETATM    2  O1  UNL     1      -0.706   1.479   0.402  1.00  0.00    -0.342 OA
HETATM    3  C6  UNL     1       0.286   0.477  -0.049  1.00  0.00     0.179 A 
HETATM    4  C7  UNL     1       1.398   1.012  -0.867  1.00  0.00     0.068 C 
HETATM    5  C8  UNL     1       2.609   1.431  -0.092  1.00  0.00     0.039 C 
HETATM    6  C9  UNL     1       3.420   0.304   0.447  1.00  0.00     0.156 C 
HETATM    7  C10 UNL     1       3.561  -0.857  -0.498  1.00  0.00     0.058 C 
HETATM    8  C11 UNL     1       2.371  -1.712  -0.119  1.00  0.00     0.179 C 
HETATM    9  N1  UNL     1       1.821  -1.006   0.990  1.00  0.00    -0.200 N 
HETATM   10  N2  UNL     1       0.572  -0.531   0.873  1.00  0.00    -0.277 N 
ATOM     11  H2  UNL     1      -0.172  -0.908   1.460  1.00  0.00     0.185 HD
HETATM   12  O2  UNL     1       2.744  -0.239   1.535  1.00  0.00    -0.258 OA
ENDROOT
BRANCH   1  13
HETATM   13  C4  UNL     1      -2.084  -0.461  -0.021  1.00  0.00     0.012 C 
HETATM   14  C2  UNL     1      -3.347  -0.189   0.194  1.00  0.00    -0.089 C 
HETATM   15  C1  UNL     1      -4.275  -1.206   0.736  1.00  0.00     0.042 C 
HETATM   16  C3  UNL     1      -3.865   1.165  -0.111  1.00  0.00     0.042 C 
ENDBRANCH   1  13
TORSDOF 1
