REMARK  2 active torsions:
REMARK  status: ('A' for Active; 'I' for Inactive)
REMARK    1  A    between atoms: O1_2  and  C2_3 
REMARK    2  A    between atoms: C2_3  and  C3_5 
ROOT
HETATM    1  C3  UNL     1      -1.751   1.121  -0.281  1.00  0.00     0.081 C 
HETATM    2  C4  UNL     1      -1.200   0.119  -1.246  1.00  0.00     0.068 C 
HETATM    3  C5  UNL     1       0.097  -0.466  -0.821  1.00  0.00     0.076 C 
HETATM    4  C6  UNL     1       1.017   0.522  -0.170  1.00  0.00     0.187 C 
HETATM    5  C7  UNL     1       0.405   1.835   0.179  1.00  0.00     0.188 C 
HETATM    6  N1  UNL     1      -0.936   1.575   0.764  1.00  0.00    -0.383 N 
ATOM      7  H1  UNL     1      -1.210   1.702   1.738  1.00  0.00     0.159 HD
HETATM    8  O3  UNL     1       1.701  -0.004   0.930  1.00  0.00    -0.318 OA
HETATM    9  C8  UNL     1       2.813  -0.269   0.154  1.00  0.00     0.164 C 
HETATM   10  C9  UNL     1       2.917  -1.715  -0.279  1.00  0.00     0.078 C 
HETATM   11  C10 UNL     1       4.129   0.227   0.694  1.00  0.00     0.078 C 
HETATM   12  O4  UNL     1       2.273   0.593  -0.811  1.00  0.00    -0.318 OA
ENDROOT
BRANCH   1  13
HETATM   13  C2  UNL     1      -3.166   0.772  -0.024  1.00  0.00     0.305 C 
HETATM   14  O2  UNL     1      -4.136   1.336  -0.245  1.00  0.00    -0.258 OA
BRANCH  13  15
HETATM   15  O1  UNL     1      -3.265  -0.565   0.554  1.00  0.00    -0.322 OA
HETATM   16  C1  UNL     1      -4.530  -1.124   0.750  1.00  0.00     0.213 C 
ENDBRANCH  13  15
ENDBRANCH   1  13
TORSDOF 2
