REMARK  1 active torsions:
REMARK  status: ('A' for Active; 'I' for Inactive)
REMARK       I    between atoms: N1_2  and  C2_4 
REMARK       I    between atoms: C2_4  and  N4_9 
REMARK    1  A    between atoms: N4_9  and  N5_11 
ROOT
HETATM    1  C1  UNL     1      -2.513  -1.298   0.651  1.00  0.00     0.165 C 
HETATM    2  N1  UNL     1      -2.029  -0.217  -0.199  1.00  0.00    -0.229 N 
ATOM      3  H1  UNL     1      -2.519   0.058  -1.050  1.00  0.00     0.177 HD
HETATM    4  C2  UNL     1      -0.838   0.432   0.222  1.00  0.00     0.701 C 
HETATM    5  N2  UNL     1      -0.740   1.680   0.462  1.00  0.00    -0.125 N 
ATOM      6  H2  UNL     1       0.162   2.051   0.759  1.00  0.00     0.197 HD
HETATM    7  C3  UNL     1      -1.814   2.558   0.335  1.00  0.00     0.196 C 
HETATM    8  N3  UNL     1      -2.685   3.294   0.235  1.00  0.00    -0.171 NA
HETATM    9  N4  UNL     1       0.321  -0.370   0.384  1.00  0.00    -0.135 N 
ATOM     10  H4  UNL     1       0.242  -1.327   0.729  1.00  0.00     0.205 HD
ENDROOT
BRANCH   9  11
HETATM   11  N5  UNL     1       1.549   0.156   0.072  1.00  0.00    -0.322 N 
HETATM   12  C4  UNL     1       2.587  -0.104   1.015  1.00  0.00     0.171 C 
HETATM   13  C5  UNL     1       1.934   0.054  -1.297  1.00  0.00     0.171 C 
ENDBRANCH   9  11
TORSDOF 1
