REMARK  2 active torsions:
REMARK  status: ('A' for Active; 'I' for Inactive)
REMARK    1  A    between atoms: O1_1  and  C1_3 
REMARK    2  A    between atoms: C1_3  and  C2_4 
ROOT
HETATM    1  C2  UNL     1       1.483  -0.555  -0.006  1.00  0.00     0.169 C 
HETATM    2  C3  UNL     1       0.845  -1.308  -1.130  1.00  0.00     0.205 C 
HETATM    3  O2  UNL     1      -0.328  -0.709  -1.601  1.00  0.00    -0.356 OA
HETATM    4  C4  UNL     1      -1.179  -0.618  -0.523  1.00  0.00     0.288 C 
HETATM    5  O3  UNL     1      -2.367   0.006  -0.752  1.00  0.00    -0.359 OA
HETATM    6  C5  UNL     1      -2.803   0.609   0.401  1.00  0.00     0.173 C 
HETATM    7  C6  UNL     1      -1.656   0.569   1.403  1.00  0.00     0.063 C 
HETATM    8  C7  UNL     1      -0.501   0.370   0.442  1.00  0.00     0.179 C 
HETATM    9  O4  UNL     1       0.608  -0.186   0.998  1.00  0.00    -0.371 OA
ENDROOT
BRANCH   1  10
HETATM   10  C1  UNL     1       2.234   0.618  -0.589  1.00  0.00     0.198 C 
BRANCH  10  11
HETATM   11  O1  UNL     1       2.997   1.295   0.332  1.00  0.00    -0.398 OA
ATOM     12  H1  UNL     1       3.470   2.033  -0.035  1.00  0.00     0.209 HD
ENDBRANCH  10  11
ENDBRANCH   1  10
TORSDOF 2
