REMARK  5 active torsions:
REMARK  status: ('A' for Active; 'I' for Inactive)
REMARK    1  A    between atoms: O1_2  and  C2_3 
REMARK    2  A    between atoms: C4_5  and  O2_6 
REMARK    3  A    between atoms: O2_6  and  C5_7 
REMARK    4  A    between atoms: C9_15  and  C10_16 
REMARK    5  A    between atoms: C10_16  and  C11_17 
ROOT
HETATM    1  C5  UNL     1      -0.009   0.973  -0.939  1.00  0.00     0.172 A 
HETATM    2  N1  UNL     1       0.493   2.229  -0.787  1.00  0.00    -0.263 N 
ATOM      3  H1  UNL     1       1.486   2.456  -0.736  1.00  0.00     0.190 HD
HETATM    4  N2  UNL     1      -0.489   3.116  -0.715  1.00  0.00    -0.193 N 
HETATM    5  C6  UNL     1      -0.336   4.501  -0.557  1.00  0.00     0.205 C 
HETATM    6  N3  UNL     1      -0.200   5.650  -0.407  1.00  0.00    -0.170 NA
HETATM    7  C7  UNL     1      -1.644   2.425  -0.823  1.00  0.00     0.052 A 
HETATM    8  C8  UNL     1      -2.985   3.047  -0.791  1.00  0.00     0.072 C 
HETATM    9  C9  UNL     1      -1.382   1.086  -0.964  1.00  0.00     0.024 A 
ENDROOT
BRANCH   1  10
HETATM   10  O2  UNL     1       0.689  -0.210  -1.052  1.00  0.00    -0.289 OA
BRANCH  10  11
HETATM   11  C4  UNL     1       2.052  -0.294  -1.040  1.00  0.00     0.122 A 
HETATM   12  C3  UNL     1       2.693  -1.010  -0.059  1.00  0.00     0.080 A 
HETATM   13  C2  UNL     1       4.083  -1.112  -0.025  1.00  0.00     0.112 A 
HETATM   14  C19 UNL     1       4.821  -0.477  -1.000  1.00  0.00     0.191 A 
HETATM   15  C18 UNL     1       4.199   0.248  -1.996  1.00  0.00     0.199 A 
HETATM   16  F3  UNL     1       6.190  -0.546  -1.012  1.00  0.00    -0.200 F 
HETATM   17  C17 UNL     1       2.798   0.329  -2.000  1.00  0.00     0.192 A 
HETATM   18  F2  UNL     1       4.917   0.875  -2.958  1.00  0.00    -0.199 F 
HETATM   19  F1  UNL     1       2.170   1.025  -2.969  1.00  0.00    -0.200 F 
BRANCH  13  20
HETATM   20  O1  UNL     1       4.753  -1.820   0.941  1.00  0.00    -0.353 OA
HETATM   21  C1  UNL     1       4.055  -2.493   1.967  1.00  0.00     0.210 C 
ENDBRANCH  13  20
ENDBRANCH  10  11
ENDBRANCH   1  10
BRANCH   9  22
HETATM   22  C10 UNL     1      -2.386   0.018  -1.102  1.00  0.00     0.083 C 
BRANCH  22  23
HETATM   23  C11 UNL     1      -2.628  -0.769   0.109  1.00  0.00    -0.054 A 
HETATM   24  C12 UNL     1      -1.938  -1.914   0.445  1.00  0.00     0.007 A 
HETATM   25  C13 UNL     1      -2.249  -2.584   1.616  1.00  0.00     0.001 A 
HETATM   26  C14 UNL     1      -3.226  -2.163   2.483  1.00  0.00     0.000 A 
HETATM   27  C15 UNL     1      -3.927  -1.007   2.150  1.00  0.00     0.001 A 
HETATM   28  C16 UNL     1      -3.617  -0.343   0.986  1.00  0.00     0.007 A 
ENDBRANCH  22  23
ENDBRANCH   9  22
TORSDOF 5
