REMARK  6 active torsions:
REMARK  status: ('A' for Active; 'I' for Inactive)
REMARK    1  A    between atoms: N1_7  and  S1_8 
REMARK    2  A    between atoms: S1_8  and  N2_11 
REMARK    3  A    between atoms: N2_11  and  C6_13 
REMARK    4  A    between atoms: C6_13  and  C7_14 
REMARK    5  A    between atoms: C7_14  and  C8_15 
REMARK       I    between atoms: C8_15  and  N3_17 
REMARK    6  A    between atoms: N3_17  and  C9_18 
ROOT
HETATM    1  C7  UNL     1      -0.517   0.556   0.727  1.00  0.00     0.139 C 
ENDROOT
BRANCH   1   2
HETATM    2  C6  UNL     1      -1.738   0.350  -0.078  1.00  0.00     0.143 C 
BRANCH   2   3
HETATM    3  N2  UNL     1      -2.503  -0.836   0.028  1.00  0.00    -0.306 N 
ATOM      4  H2  UNL     1      -2.289  -1.627   0.636  1.00  0.00     0.173 HD
BRANCH   3   5
HETATM    5  S1  UNL     1      -3.875  -0.725  -1.053  1.00  0.00     0.299 S 
HETATM    6  O1  UNL     1      -3.589  -1.574  -2.245  1.00  0.00    -0.188 OA
HETATM    7  O2  UNL     1      -3.892   0.736  -1.549  1.00  0.00    -0.188 OA
BRANCH   5   8
HETATM    8  N1  UNL     1      -5.354  -1.077  -0.278  1.00  0.00    -0.186 NA
HETATM    9  C2  UNL     1      -5.619  -0.150   0.766  1.00  0.00     0.074 C 
HETATM   10  C1  UNL     1      -6.333  -0.766   1.950  1.00  0.00     0.027 C 
HETATM   11  C3  UNL     1      -6.526   0.921   0.189  1.00  0.00     0.058 C 
HETATM   12  C4  UNL     1      -7.163   0.271  -1.021  1.00  0.00     0.185 C 
HETATM   13  F1  UNL     1      -7.041   1.141  -2.085  1.00  0.00    -0.248 F 
HETATM   14  C5  UNL     1      -6.419  -1.016  -1.240  1.00  0.00     0.146 C 
ENDBRANCH   5   8
ENDBRANCH   3   5
ENDBRANCH   2   3
ENDBRANCH   1   2
BRANCH   1  15
HETATM   15  C8  UNL     1       0.581  -0.452   0.552  1.00  0.00     0.288 C 
HETATM   16  O3  UNL     1       0.113  -1.629   0.312  1.00  0.00    -0.258 OA
HETATM   17  N3  UNL     1       1.903  -0.138   0.633  1.00  0.00    -0.409 NA
BRANCH  17  18
HETATM   18  C9  UNL     1       3.244   0.179   0.715  1.00  0.00     0.175 C 
HETATM   19  C10 UNL     1       4.268  -0.953   0.595  1.00  0.00     0.023 C 
HETATM   20  C11 UNL     1       4.502  -1.413  -0.797  1.00  0.00     0.012 C 
HETATM   21  C15 UNL     1       5.570  -0.442   1.159  1.00  0.00     0.012 C 
HETATM   22  C12 UNL     1       4.995  -0.215  -1.632  1.00  0.00    -0.013 C 
HETATM   23  C13 UNL     1       6.284   0.299  -1.058  1.00  0.00     0.009 C 
HETATM   24  C18 UNL     1       3.877   0.801  -1.609  1.00  0.00     0.012 C 
HETATM   25  C14 UNL     1       6.045   0.739   0.356  1.00  0.00    -0.013 C 
HETATM   26  C16 UNL     1       5.003   1.836   0.321  1.00  0.00     0.012 C 
HETATM   27  C17 UNL     1       3.697   1.295  -0.183  1.00  0.00     0.023 C 
ENDBRANCH  17  18
ENDBRANCH   1  15
TORSDOF 6
