REMARK  10 active torsions:
REMARK  status: ('A' for Active; 'I' for Inactive)
REMARK    1  A    between atoms: O1_2  and  C2_3 
REMARK    2  A    between atoms: C2_3  and  C3_5 
REMARK    3  A    between atoms: C3_5  and  C4_6 
REMARK    4  A    between atoms: C4_6  and  N1_7 
REMARK       I    between atoms: N1_7  and  C5_8 
REMARK    5  A    between atoms: N1_7  and  C14_21 
REMARK    6  A    between atoms: C5_8  and  C6_10 
REMARK    7  A    between atoms: C6_10  and  O4_11 
REMARK    8  A    between atoms: O4_11  and  C7_12 
REMARK    9  A    between atoms: C7_12  and  C8_14 
REMARK   10  A    between atoms: C19_26  and  C20_27 
ROOT
HETATM    1  N1  UNL     1      -1.206   0.339   0.511  1.00  0.00    -0.315 N 
HETATM    2  C5  UNL     1       0.126  -0.134   0.347  1.00  0.00     0.248 C 
HETATM    3  O3  UNL     1       1.016   0.419   1.067  1.00  0.00    -0.271 OA
ENDROOT
BRANCH   1   4
HETATM    4  C4  UNL     1      -2.247  -0.266  -0.286  1.00  0.00     0.142 C 
BRANCH   4   5
HETATM    5  C3  UNL     1      -2.904  -1.455   0.332  1.00  0.00     0.131 C 
BRANCH   5   6
HETATM    6  C2  UNL     1      -3.948  -1.912  -0.633  1.00  0.00     0.259 C 
HETATM    7  O2  UNL     1      -4.839  -1.096  -0.991  1.00  0.00    -0.265 OA
BRANCH   6   8
HETATM    8  O1  UNL     1      -3.974  -3.187  -1.145  1.00  0.00    -0.326 OA
HETATM    9  C1  UNL     1      -5.024  -3.526  -2.069  1.00  0.00     0.213 C 
ENDBRANCH   6   8
ENDBRANCH   5   6
ENDBRANCH   4   5
ENDBRANCH   1   4
BRANCH   1  10
HETATM   10  C14 UNL     1      -1.451   1.370   1.445  1.00  0.00     0.054 A 
HETATM   11  C15 UNL     1      -1.757   1.056   2.752  1.00  0.00     0.031 A 
HETATM   12  C16 UNL     1      -2.012   1.986   3.737  1.00  0.00     0.002 A 
HETATM   13  C17 UNL     1      -1.955   3.317   3.372  1.00  0.00     0.001 A 
HETATM   14  C18 UNL     1      -1.656   3.680   2.086  1.00  0.00     0.021 A 
HETATM   15  C19 UNL     1      -1.398   2.690   1.102  1.00  0.00     0.067 A 
BRANCH  15  16
HETATM   16  C20 UNL     1      -1.091   3.115  -0.235  1.00  0.00     0.211 C 
HETATM   17  O6  UNL     1      -0.860   2.306  -1.147  1.00  0.00    -0.644 OA
HETATM   18  O7  UNL     1      -1.044   4.464  -0.535  1.00  0.00    -0.644 OA
ENDBRANCH  15  16
ENDBRANCH   1  10
BRANCH   2  19
HETATM   19  C6  UNL     1       0.536  -1.190  -0.571  1.00  0.00     0.282 C 
BRANCH  19  20
HETATM   20  O4  UNL     1       1.927  -1.356  -0.560  1.00  0.00    -0.308 OA
BRANCH  20  21
HETATM   21  C7  UNL     1       2.775  -0.359  -0.984  1.00  0.00     0.293 C 
HETATM   22  O5  UNL     1       2.309   0.735  -1.401  1.00  0.00    -0.259 OA
BRANCH  21  23
HETATM   23  C8  UNL     1       4.210  -0.575  -0.947  1.00  0.00     0.039 A 
HETATM   24  C9  UNL     1       4.706  -1.768  -0.478  1.00  0.00     0.019 A 
HETATM   25  C10 UNL     1       6.080  -1.964  -0.453  1.00  0.00     0.020 A 
HETATM   26  C11 UNL     1       6.896  -0.952  -0.898  1.00  0.00     0.011 A 
HETATM   27 BR1  UNL     1       8.796  -1.236  -0.858  1.00  0.00    -0.051 Br
HETATM   28  C12 UNL     1       6.434   0.249  -1.371  1.00  0.00     0.020 A 
HETATM   29  C13 UNL     1       5.051   0.441  -1.395  1.00  0.00     0.019 A 
ENDBRANCH  21  23
ENDBRANCH  20  21
ENDBRANCH  19  20
ENDBRANCH   2  19
TORSDOF 10
