REMARK  9 active torsions:
REMARK  status: ('A' for Active; 'I' for Inactive)
REMARK       I    between atoms: C1_2  and  N1_3 
REMARK    1  A    between atoms: C1_2  and  C6_12 
REMARK    2  A    between atoms: N1_3  and  C2_5 
REMARK    3  A    between atoms: C6_12  and  C7_13 
REMARK    4  A    between atoms: C6_12  and  N2_16 
REMARK    5  A    between atoms: N2_16  and  C10_17 
REMARK    6  A    between atoms: N2_16  and  C15_23 
REMARK    7  A    between atoms: C10_17  and  C11_18 
REMARK    8  A    between atoms: C15_23  and  O5_24 
REMARK    9  A    between atoms: C15_23  and  C16_26 
ROOT
HETATM    1  N2  UNL     1      -0.580  -0.392  -0.543  1.00  0.00    -0.341 N 
ENDROOT
BRANCH   1   2
HETATM    2  C6  UNL     1       0.410  -1.336  -1.170  1.00  0.00     0.182 C 
BRANCH   2   3
HETATM    3  C1  UNL     1       1.764  -1.039  -0.656  1.00  0.00     0.241 C 
HETATM    4  O1  UNL     1       2.650  -1.919  -0.890  1.00  0.00    -0.271 OA
HETATM    5  N1  UNL     1       2.111   0.127   0.050  1.00  0.00    -0.354 N 
ATOM      6  H1  UNL     1       1.383   0.821   0.224  1.00  0.00     0.162 HD
BRANCH   5   7
HETATM    7  C2  UNL     1       3.447   0.396   0.544  1.00  0.00     0.099 C 
HETATM    8  C3  UNL     1       3.359   0.599   2.016  1.00  0.00     0.041 C 
HETATM    9  C4  UNL     1       4.596   1.271   2.499  1.00  0.00     0.142 C 
HETATM   10  S1  UNL     1       4.927   2.421   1.156  1.00  0.00     0.146 S 
HETATM   11  O2  UNL     1       6.364   2.418   0.783  1.00  0.00    -0.228 OA
HETATM   12  O3  UNL     1       4.391   3.777   1.462  1.00  0.00    -0.228 OA
HETATM   13  C5  UNL     1       3.891   1.687  -0.089  1.00  0.00     0.165 C 
ENDBRANCH   5   7
ENDBRANCH   2   3
BRANCH   2  14
HETATM   14  C7  UNL     1       0.060  -2.759  -1.031  1.00  0.00     0.018 A 
HETATM   15  C8  UNL     1      -1.220  -3.357  -1.480  1.00  0.00     0.007 A 
HETATM   16  C9  UNL     1      -0.051  -3.579  -2.334  1.00  0.00     0.007 A 
ENDBRANCH   2  14
ENDBRANCH   1   2
BRANCH   1  17
HETATM   17  C10 UNL     1      -0.801  -0.536   0.849  1.00  0.00     0.191 C 
BRANCH  17  18
HETATM   18  C11 UNL     1      -1.851  -1.446   1.311  1.00  0.00     0.070 A 
HETATM   19  C12 UNL     1      -3.200  -1.436   1.182  1.00  0.00     0.036 A 
HETATM   20  C13 UNL     1      -3.716  -2.535   1.810  1.00  0.00     0.027 A 
HETATM   21  C14 UNL     1      -2.638  -3.210   2.324  1.00  0.00     0.142 A 
HETATM   22  O4  UNL     1      -1.573  -2.547   2.013  1.00  0.00    -0.325 OA
ENDBRANCH  17  18
ENDBRANCH   1  17
BRANCH   1  23
HETATM   23  C15 UNL     1      -1.155   0.512  -1.426  1.00  0.00     0.149 C 
BRANCH  23  24
HETATM   24  O5  UNL     1      -0.752   0.370  -2.702  1.00  0.00    -0.346 OA
ATOM     25  H5  UNL     1      -1.145   0.989  -3.306  1.00  0.00     0.219 HD
ENDBRANCH  23  24
BRANCH  23  26
HETATM   26  C16 UNL     1      -2.095   1.593  -1.322  1.00  0.00     0.015 A 
HETATM   27  C17 UNL     1      -2.466   2.295  -2.485  1.00  0.00     0.017 A 
HETATM   28  C18 UNL     1      -3.338   3.354  -2.494  1.00  0.00     0.025 A 
HETATM   29  C19 UNL     1      -3.895   3.772  -1.307  1.00  0.00     0.034 A 
HETATM   30 CL1  UNL     1      -5.000   5.116  -1.325  1.00  0.00    -0.084 Cl
HETATM   31  C20 UNL     1      -3.556   3.111  -0.158  1.00  0.00     0.025 A 
HETATM   32  C21 UNL     1      -2.683   2.054  -0.171  1.00  0.00     0.017 A 
ENDBRANCH  23  26
ENDBRANCH   1  23
TORSDOF 9
