REMARK  8 active torsions:
REMARK  status: ('A' for Active; 'I' for Inactive)
REMARK    1  A    between atoms: C2_2  and  C3_3 
REMARK    2  A    between atoms: C3_3  and  C4_4 
REMARK    3  A    between atoms: C4_4  and  C5_5 
REMARK    4  A    between atoms: C5_5  and  C6_6 
REMARK    5  A    between atoms: C6_6  and  C7_7 
REMARK    6  A    between atoms: C7_7  and  C8_9 
REMARK    7  A    between atoms: C15_19  and  C16_20 
REMARK    8  A    between atoms: C16_20  and  O3_22 
ROOT
HETATM    1  C8  UNL     1       0.267   0.926   0.917  1.00  0.00     0.298 C 
HETATM    2  N1  UNL     1      -0.236   2.279   1.094  1.00  0.00    -0.324 N 
ATOM      3  H1  UNL     1       0.204   3.043   1.607  1.00  0.00     0.165 HD
HETATM    4  C9  UNL     1      -1.474   2.304   0.396  1.00  0.00     0.283 C 
HETATM    5  O2  UNL     1      -2.116   3.313   0.052  1.00  0.00    -0.267 OA
HETATM    6  C10 UNL     1      -1.827   0.850   0.169  1.00  0.00     0.250 C 
HETATM    7  C11 UNL     1      -2.278   0.334   1.484  1.00  0.00     0.080 C 
HETATM    8  C12 UNL     1      -3.792   0.303   1.491  1.00  0.00     0.013 C 
HETATM    9  C13 UNL     1      -4.151  -0.669   0.364  1.00  0.00     0.013 C 
HETATM   10  C14 UNL     1      -3.465  -1.974   0.685  1.00  0.00     0.012 C 
HETATM   11  C15 UNL     1      -3.704  -0.055  -0.915  1.00  0.00     0.157 C 
HETATM   12  O4  UNL     1      -2.669   0.815  -0.872  1.00  0.00    -0.339 OA
HETATM   13  O5  UNL     1      -0.545   0.356  -0.064  1.00  0.00    -0.315 OA
ENDROOT
BRANCH  11  14
HETATM   14  C16 UNL     1      -4.912   0.744  -1.443  1.00  0.00     0.143 C 
HETATM   15  C17 UNL     1      -4.591   1.375  -2.771  1.00  0.00     0.042 C 
BRANCH  14  16
HETATM   16  O3  UNL     1      -6.048  -0.053  -1.531  1.00  0.00    -0.393 OA
ATOM     17  H3  UNL     1      -6.792   0.439  -1.856  1.00  0.00     0.210 HD
ENDBRANCH  14  16
ENDBRANCH  11  14
BRANCH   1  18
HETATM   18  C7  UNL     1       1.665   0.990   0.454  1.00  0.00     0.175 C 
HETATM   19  O1  UNL     1       2.205   2.067   0.285  1.00  0.00    -0.293 OA
BRANCH  18  20
HETATM   20  C6  UNL     1       2.480  -0.232   0.174  1.00  0.00     0.083 C 
BRANCH  20  21
HETATM   21  C5  UNL     1       3.530  -0.431   1.247  1.00  0.00     0.007 C 
BRANCH  21  22
HETATM   22  C4  UNL     1       4.369  -1.658   0.986  1.00  0.00     0.000 C 
BRANCH  22  23
HETATM   23  C3  UNL     1       5.102  -1.581  -0.325  1.00  0.00    -0.000 C 
BRANCH  23  24
HETATM   24  C2  UNL     1       6.036  -0.379  -0.359  1.00  0.00    -0.005 C 
HETATM   25  C1  UNL     1       6.731  -0.387  -1.719  1.00  0.00     0.005 C 
ENDBRANCH  23  24
ENDBRANCH  22  23
ENDBRANCH  21  22
ENDBRANCH  20  21
ENDBRANCH  18  20
ENDBRANCH   1  18
TORSDOF 8
