REMARK  12 active torsions:
REMARK  status: ('A' for Active; 'I' for Inactive)
REMARK    1  A    between atoms: N1_6  and  C5_7 
REMARK    2  A    between atoms: C5_7  and  O1_8 
REMARK    3  A    between atoms: C5_7  and  C6_10 
REMARK    4  A    between atoms: C6_10  and  N2_11 
REMARK    5  A    between atoms: C6_10  and  C12_21 
REMARK       I    between atoms: N2_11  and  C7_13 
REMARK       I    between atoms: C7_13  and  N3_15 
REMARK       I    between atoms: C12_21  and  N4_23 
REMARK    6  A    between atoms: C15_27  and  C16_28 
REMARK    7  A    between atoms: C18_32  and  O7_33 
REMARK    8  A    between atoms: C18_32  and  N5_35 
REMARK    9  A    between atoms: N5_35  and  C19_37 
REMARK   10  A    between atoms: C19_37  and  C20_38 
REMARK   11  A    between atoms: C20_38  and  C21_39 
REMARK   12  A    between atoms: C21_39  and  S3_40 
ROOT
HETATM    1  C1  UNL     1       0.972  -3.751  -1.098  1.00  0.00     0.034 C 
HETATM    2  C2  UNL     1       1.273  -3.776   0.364  1.00  0.00     0.049 C 
HETATM    3  C3  UNL     1       2.496  -4.517   0.752  1.00  0.00     0.034 C 
HETATM    4  S1  UNL     1      -0.164  -4.644   1.169  1.00  0.00    -0.133 SA
HETATM    5  C4  UNL     1      -0.954  -3.104   1.850  1.00  0.00     0.205 C 
HETATM    6  N1  UNL     1      -0.351  -2.161   0.881  1.00  0.00    -0.318 N 
HETATM    7  C17 UNL     1       1.071  -2.455   1.047  1.00  0.00     0.083 C 
HETATM    8  C18 UNL     1       2.076  -1.457   0.938  1.00  0.00     0.161 C 
ENDROOT
BRANCH   6   9
HETATM    9  C5  UNL     1      -0.980  -1.268   0.025  1.00  0.00     0.151 C 
BRANCH   9  10
HETATM   10  O1  UNL     1      -0.158  -0.601  -0.743  1.00  0.00    -0.347 OA
ATOM     11  H1  UNL     1      -0.589   0.010  -1.329  1.00  0.00     0.219 HD
ENDBRANCH   9  10
BRANCH   9  12
HETATM   12  C6  UNL     1      -2.363  -0.917  -0.194  1.00  0.00     0.253 C 
BRANCH  12  13
HETATM   13  N2  UNL     1      -2.359   0.568  -0.339  1.00  0.00    -0.322 N 
HETATM   14  C7  UNL     1      -2.646   1.222  -1.546  1.00  0.00     0.319 C 
HETATM   15  O2  UNL     1      -2.914   0.501  -2.541  1.00  0.00    -0.247 OA
HETATM   16  N3  UNL     1      -2.646   2.630  -1.689  1.00  0.00    -0.330 N 
HETATM   17  C8  UNL     1      -2.345   3.439  -0.522  1.00  0.00     0.153 C 
HETATM   18  C11 UNL     1      -2.933   3.220  -2.965  1.00  0.00     0.153 C 
HETATM   19  C9  UNL     1      -2.761   4.879  -0.721  1.00  0.00     0.187 C 
HETATM   20  O3  UNL     1      -2.601   5.324  -2.013  1.00  0.00    -0.388 OA
HETATM   21  C10 UNL     1      -3.532   4.619  -2.811  1.00  0.00     0.187 C 
ATOM     22  H2  UNL     1      -2.137   1.135   0.479  1.00  0.00     0.165 HD
ENDBRANCH  12  13
BRANCH  12  23
HETATM   23  C12 UNL     1      -3.420  -1.325   0.689  1.00  0.00     0.252 C 
HETATM   24  O4  UNL     1      -3.574  -0.635   1.762  1.00  0.00    -0.270 OA
HETATM   25  N4  UNL     1      -4.343  -2.406   0.530  1.00  0.00    -0.326 N 
HETATM   26  C13 UNL     1      -4.280  -3.269  -0.632  1.00  0.00     0.201 C 
HETATM   27  C15 UNL     1      -5.413  -2.780   1.427  1.00  0.00     0.198 C 
HETATM   28  S2  UNL     1      -6.059  -3.673  -0.863  1.00  0.00    -0.147 SA
HETATM   29  C14 UNL     1      -6.703  -2.747   0.589  1.00  0.00     0.112 C 
BRANCH  27  30
HETATM   30  C16 UNL     1      -5.288  -4.128   1.977  1.00  0.00     0.197 C 
HETATM   31  O5  UNL     1      -4.350  -4.900   1.714  1.00  0.00    -0.646 OA
HETATM   32  O6  UNL     1      -6.270  -4.579   2.844  1.00  0.00    -0.646 OA
ENDBRANCH  27  30
ENDBRANCH  12  23
ENDBRANCH   9  12
ENDBRANCH   6   9
BRANCH   8  33
HETATM   33  O7  UNL     1       3.243  -1.893   0.548  1.00  0.00    -0.345 OA
ATOM     34  H7  UNL     1       3.915  -1.226   0.475  1.00  0.00     0.219 HD
ENDBRANCH   8  33
BRANCH   8  35
HETATM   35  N5  UNL     1       2.021  -0.076   1.193  1.00  0.00    -0.360 N 
ATOM     36  H5  UNL     1       1.115   0.286   1.489  1.00  0.00     0.162 HD
BRANCH  35  37
HETATM   37  C19 UNL     1       3.076   0.887   1.090  1.00  0.00     0.033 C 
HETATM   38  C23 UNL     1       4.165   0.507   2.101  1.00  0.00     0.031 C 
HETATM   39  C24 UNL     1       5.239   1.514   2.240  1.00  0.00     0.002 C 
HETATM   40  C25 UNL     1       4.839   2.938   2.330  1.00  0.00     0.000 C 
HETATM   41  C26 UNL     1       3.565   3.291   1.631  1.00  0.00     0.002 C 
HETATM   42  C27 UNL     1       2.540   2.209   1.631  1.00  0.00     0.031 C 
BRANCH  37  43
HETATM   43  C20 UNL     1       3.724   1.015  -0.219  1.00  0.00     0.046 C 
BRANCH  43  44
HETATM   44  C21 UNL     1       2.916   1.408  -1.396  1.00  0.00     0.142 C 
BRANCH  44  45
HETATM   45  S3  UNL     1       4.018   1.497  -2.828  1.00  0.00     0.140 S 
HETATM   46  C22 UNL     1       5.291   2.694  -2.546  1.00  0.00     0.161 C 
HETATM   47  O8  UNL     1       4.627   0.177  -3.117  1.00  0.00    -0.228 OA
HETATM   48  O9  UNL     1       3.240   1.935  -4.037  1.00  0.00    -0.228 OA
ENDBRANCH  44  45
ENDBRANCH  43  44
ENDBRANCH  37  43
ENDBRANCH  35  37
ENDBRANCH   8  35
TORSDOF 12
