REMARK  3 active torsions:
REMARK  status: ('A' for Active; 'I' for Inactive)
REMARK    1  A    between atoms: N1_2  and  C1_4 
REMARK    2  A    between atoms: C3_6  and  C4_7 
REMARK    3  A    between atoms: C8_14  and  N3_15 
ROOT
HETATM    1  C1  UNL     1       0.014   1.673  -0.461  1.00  0.00     0.148 A 
HETATM    2  C2  UNL     1       1.321   1.223  -0.239  1.00  0.00     0.066 A 
HETATM    3  C3  UNL     1       1.292  -0.093   0.139  1.00  0.00     0.027 A 
HETATM    4  N2  UNL     1      -0.010  -0.487   0.162  1.00  0.00    -0.343 N 
ATOM      5  H2  UNL     1      -0.347  -1.418   0.408  1.00  0.00     0.167 HD
HETATM    6  C8  UNL     1      -0.770   0.549  -0.191  1.00  0.00     0.137 A 
ENDROOT
BRANCH   6   7
HETATM    7  N3  UNL     1      -2.189   0.503  -0.283  1.00  0.00    -0.362 N 
HETATM    8  C9  UNL     1      -2.804   0.047  -1.494  1.00  0.00     0.152 C 
HETATM    9  C10 UNL     1      -4.048  -0.729  -1.113  1.00  0.00     0.252 C 
HETATM   10  N4  UNL     1      -4.019  -1.203   0.246  1.00  0.00    -0.072 N 
HETATM   11  C11 UNL     1      -3.956  -0.156   1.227  1.00  0.00     0.252 C 
ATOM     12  H42 UNL     1      -4.812  -1.818   0.428  1.00  0.00     0.277 HD
ATOM     13  H41 UNL     1      -3.254  -1.865   0.379  1.00  0.00     0.277 HD
HETATM   14  C12 UNL     1      -2.957   0.925   0.863  1.00  0.00     0.152 C 
ENDBRANCH   6   7
BRANCH   1  15
HETATM   15  N1  UNL     1      -0.382   2.969  -0.861  1.00  0.00    -0.112 N 
HETATM   16  O1  UNL     1      -1.386   3.115  -1.557  1.00  0.00    -0.532 OA
HETATM   17  O2  UNL     1       0.351   4.048  -0.473  1.00  0.00    -0.532 OA
ENDBRANCH   1  15
BRANCH   3  18
HETATM   18  C4  UNL     1       2.460  -0.960   0.474  1.00  0.00     0.097 C 
HETATM   19  C5  UNL     1       3.581  -0.862  -0.476  1.00  0.00     0.022 C 
HETATM   20  C6  UNL     1       4.898  -0.936   0.125  1.00  0.00     0.012 C 
HETATM   21  C7  UNL     1       4.914  -1.040   1.606  1.00  0.00     0.075 C 
HETATM   22  S1  UNL     1       3.255  -0.363   2.025  1.00  0.00    -0.158 SA
ENDBRANCH   3  18
TORSDOF 3
