REMARK  17 active torsions:
REMARK  status: ('A' for Active; 'I' for Inactive)
REMARK    1  A    between atoms: C2_2  and  C3_3 
REMARK       I    between atoms: N2_6  and  C4_7 
REMARK    2  A    between atoms: C4_7  and  C5_9 
REMARK    3  A    between atoms: C5_9  and  N3_10 
REMARK    4  A    between atoms: N3_10  and  C6_12 
REMARK    5  A    between atoms: C6_12  and  O2_13 
REMARK    6  A    between atoms: C6_12  and  C7_15 
REMARK    7  A    between atoms: C7_15  and  C8_16 
REMARK    8  A    between atoms: C7_15  and  C15_25 
REMARK    9  A    between atoms: C8_16  and  C9_17 
REMARK   10  A    between atoms: C9_17  and  C11_19 
REMARK   11  A    between atoms: C11_19  and  C12_20 
REMARK   12  A    between atoms: C11_19  and  C14_22 
REMARK   13  A    between atoms: C14_22  and  O3_23 
REMARK   14  A    between atoms: C15_25  and  O4_28 
REMARK   15  A    between atoms: O4_28  and  C18_29 
REMARK   16  A    between atoms: C18_29  and  C19_31 
REMARK   17  A    between atoms: C20_32  and  C21_33 
ROOT
HETATM    1  C7  UNL     1      -1.618  -0.179   0.564  1.00  0.00     0.023 C 
ENDROOT
BRANCH   1   2
HETATM    2  C6  UNL     1      -0.248  -0.101   0.144  1.00  0.00     0.145 C 
BRANCH   2   3
HETATM    3  N3  UNL     1       0.772  -1.027   0.015  1.00  0.00    -0.362 N 
ATOM      4  H3  UNL     1       0.585  -2.004   0.241  1.00  0.00     0.162 HD
BRANCH   3   5
HETATM    5  C5  UNL     1       2.127  -0.642  -0.442  1.00  0.00     0.226 C 
BRANCH   5   6
HETATM    6  C4  UNL     1       2.772   0.267   0.500  1.00  0.00     0.257 C 
HETATM    7  N2  UNL     1       4.092   0.847   0.268  1.00  0.00    -0.239 N 
HETATM    8  N1  UNL     1       4.680   1.685   1.166  1.00  0.00    -0.292 N 
HETATM    9  C22 UNL     1       4.823   0.561  -0.937  1.00  0.00     0.103 A 
HETATM   10  C3  UNL     1       5.815   2.144   0.968  1.00  0.00     0.064 A 
ATOM     11  H1  UNL     1       4.178   1.940   2.017  1.00  0.00     0.187 HD
HETATM   12  S1  UNL     1       6.366   1.491  -0.585  1.00  0.00    -0.082 SA
HETATM   13  C23 UNL     1       5.237  -0.876  -1.092  1.00  0.00     0.053 C 
HETATM   14  C24 UNL     1       4.169   1.106  -2.187  1.00  0.00     0.053 C 
HETATM   15  O1  UNL     1       2.151   0.568   1.578  1.00  0.00    -0.270 OA
BRANCH  10  16
HETATM   16  C2  UNL     1       6.595   3.054   1.822  1.00  0.00     0.061 C 
HETATM   17  C1  UNL     1       7.900   2.347   2.211  1.00  0.00     0.012 C 
ENDBRANCH  10  16
ENDBRANCH   5   6
ENDBRANCH   3   5
ENDBRANCH   2   3
BRANCH   2  18
HETATM   18  O2  UNL     1       0.119   1.116  -0.195  1.00  0.00    -0.346 OA
ATOM     19  H2  UNL     1      -0.581   1.752  -0.106  1.00  0.00     0.219 HD
ENDBRANCH   2  18
ENDBRANCH   1   2
BRANCH   1  20
HETATM   20  C8  UNL     1      -2.267  -1.198   0.948  1.00  0.00    -0.008 C 
BRANCH  20  21
HETATM   21  C9  UNL     1      -1.967  -2.632   1.130  1.00  0.00     0.011 C 
HETATM   22  C10 UNL     1      -2.402  -2.966   2.563  1.00  0.00     0.015 C 
BRANCH  21  23
HETATM   23  C11 UNL     1      -2.902  -3.381   0.187  1.00  0.00     0.016 C 
BRANCH  23  24
HETATM   24  C12 UNL     1      -4.349  -3.177   0.469  1.00  0.00     0.003 C 
HETATM   25  C13 UNL     1      -5.129  -3.993  -0.574  1.00  0.00     0.005 C 
ENDBRANCH  23  24
BRANCH  23  26
HETATM   26  C14 UNL     1      -2.580  -4.828   0.018  1.00  0.00     0.169 C 
BRANCH  26  27
HETATM   27  O3  UNL     1      -2.629  -5.584   1.168  1.00  0.00    -0.400 OA
ATOM     28  H3  UNL     1      -2.424  -6.505   1.060  1.00  0.00     0.209 HD
ENDBRANCH  26  27
ENDBRANCH  23  26
ENDBRANCH  21  23
ENDBRANCH  20  21
ENDBRANCH   1  20
BRANCH   1  29
HETATM   29  C15 UNL     1      -2.390   1.179   0.544  1.00  0.00     0.094 C 
HETATM   30  C16 UNL     1      -3.821   0.964   0.894  1.00  0.00     0.052 C 
HETATM   31  C17 UNL     1      -1.751   1.986   1.629  1.00  0.00     0.052 C 
BRANCH  29  32
HETATM   32  O4  UNL     1      -2.284   1.696  -0.730  1.00  0.00    -0.302 OA
BRANCH  32  33
HETATM   33  C18 UNL     1      -2.728   2.868  -1.270  1.00  0.00     0.284 C 
HETATM   34  O5  UNL     1      -3.342   3.642  -0.467  1.00  0.00    -0.260 OA
BRANCH  33  35
HETATM   35  C19 UNL     1      -2.529   3.242  -2.667  1.00  0.00     0.089 C 
HETATM   36  C20 UNL     1      -2.976   4.378  -3.146  1.00  0.00     0.090 C 
BRANCH  36  37
HETATM   37  C21 UNL     1      -2.798   4.781  -4.525  1.00  0.00     0.198 C 
HETATM   38  O6  UNL     1      -3.230   5.867  -4.973  1.00  0.00    -0.645 OA
HETATM   39  O7  UNL     1      -2.123   3.939  -5.394  1.00  0.00    -0.645 OA
ENDBRANCH  36  37
ENDBRANCH  33  35
ENDBRANCH  32  33
ENDBRANCH  29  32
ENDBRANCH   1  29
TORSDOF 17
