REMARK  9 active torsions:
REMARK  status: ('A' for Active; 'I' for Inactive)
REMARK    1  A    between atoms: S1_2  and  N1_5 
REMARK    2  A    between atoms: N1_5  and  C2_7 
REMARK    3  A    between atoms: C4_11  and  N3_12 
REMARK    4  A    between atoms: N3_12  and  C5_14 
REMARK    5  A    between atoms: C5_14  and  C6_15 
REMARK    6  A    between atoms: C6_15  and  C7_16 
REMARK    7  A    between atoms: C7_16  and  N4_17 
REMARK    8  A    between atoms: N4_17  and  C8_19 
REMARK    9  A    between atoms: C11_25  and  N7_26 
ROOT
HETATM    1  N3  UNL     1       0.693   0.209  -1.099  1.00  0.00    -0.374 N 
ATOM      2  H3  UNL     1       0.423   1.106  -1.502  1.00  0.00     0.161 HD
ENDROOT
BRANCH   1   3
HETATM    3  C4  UNL     1       1.913   0.006  -0.843  1.00  0.00     0.132 A 
HETATM    4  C3  UNL     1       2.855   0.990  -1.108  1.00  0.00     0.155 A 
HETATM    5  N2  UNL     1       4.160   0.799  -0.845  1.00  0.00    -0.196 N 
HETATM    6  C2  UNL     1       4.578  -0.353  -0.318  1.00  0.00     0.706 A 
ATOM      7  H2  UNL     1       4.833   1.538  -1.049  1.00  0.00     0.183 HD
HETATM    8  N10 UNL     1       3.660  -1.299  -0.065  1.00  0.00    -0.130 N 
HETATM    9  N9  UNL     1       2.349  -1.139  -0.317  1.00  0.00    -0.270 N 
ATOM     10  H10 UNL     1       3.972  -2.182   0.338  1.00  0.00     0.205 HD
ATOM     11  H9  UNL     1       1.691  -1.890  -0.107  1.00  0.00     0.189 HD
BRANCH   6  12
HETATM   12  N1  UNL     1       5.813  -0.613  -0.037  1.00  0.00    -0.115 N 
ATOM     13  H1  UNL     1       6.039  -1.523   0.364  1.00  0.00     0.197 HD
BRANCH  12  14
HETATM   14  S1  UNL     1       7.090   0.500  -0.307  1.00  0.00     0.240 S 
HETATM   15  C1  UNL     1       7.836   1.066   1.180  1.00  0.00     0.186 C 
HETATM   16  O1  UNL     1       8.137  -0.200  -1.134  1.00  0.00    -0.206 OA
HETATM   17  O2  UNL     1       6.587   1.687  -1.066  1.00  0.00    -0.206 OA
ENDBRANCH  12  14
ENDBRANCH   6  12
ENDBRANCH   1   3
BRANCH   1  18
HETATM   18  C5  UNL     1      -0.320  -0.755  -0.852  1.00  0.00     0.123 C 
BRANCH  18  19
HETATM   19  C6  UNL     1      -0.808  -0.688   0.604  1.00  0.00     0.039 C 
BRANCH  19  20
HETATM   20  C7  UNL     1      -1.883  -1.778   0.704  1.00  0.00     0.123 C 
BRANCH  20  21
HETATM   21  N4  UNL     1      -2.910  -1.444  -0.243  1.00  0.00    -0.376 N 
ATOM     22  H4  UNL     1      -2.903  -1.866  -1.172  1.00  0.00     0.161 HD
BRANCH  21  23
HETATM   23  C8  UNL     1      -3.836  -0.616   0.078  1.00  0.00     0.120 A 
HETATM   24  C9  UNL     1      -4.841  -0.287  -0.842  1.00  0.00     0.094 A 
HETATM   25  C10 UNL     1      -5.852   0.594  -0.543  1.00  0.00     0.135 A 
HETATM   26  N5  UNL     1      -6.877   0.926  -1.491  1.00  0.00    -0.082 NA
HETATM   27  N6  UNL     1      -5.875   1.162   0.683  1.00  0.00    -0.179 N 
HETATM   28  C11 UNL     1      -4.922   0.858   1.574  1.00  0.00     0.678 A 
ATOM     29  H6  UNL     1      -6.615   1.820   0.929  1.00  0.00     0.185 HD
HETATM   30  N8  UNL     1      -3.932  -0.009   1.273  1.00  0.00    -0.177 N 
ATOM     31  H8  UNL     1      -3.227  -0.212   1.982  1.00  0.00     0.185 HD
BRANCH  28  32
HETATM   32  N7  UNL     1      -4.979   1.424   2.738  1.00  0.00    -0.234 N 
ATOM     33  H72 UNL     1      -5.727   2.079   2.965  1.00  0.00     0.174 HD
ATOM     34  H71 UNL     1      -4.253   1.193   3.416  1.00  0.00     0.174 HD
ENDBRANCH  28  32
ENDBRANCH  21  23
ENDBRANCH  20  21
ENDBRANCH  19  20
ENDBRANCH  18  19
ENDBRANCH   1  18
TORSDOF 9
