REMARK  7 active torsions:
REMARK  status: ('A' for Active; 'I' for Inactive)
REMARK    1  A    between atoms: C4_11  and  N4_12 
REMARK    2  A    between atoms: N4_12  and  C5_14 
REMARK    3  A    between atoms: C5_14  and  C6_15 
REMARK    4  A    between atoms: C6_15  and  C7_16 
REMARK    5  A    between atoms: C7_16  and  N5_17 
REMARK    6  A    between atoms: C10_20  and  N6_21 
REMARK    7  A    between atoms: C16_30  and  N8_31 
ROOT
HETATM    1  N1  UNL     1      -7.083  -0.288   2.761  1.00  0.00    -0.235 N 
ATOM      2  H11 UNL     1      -6.796   0.237   3.587  1.00  0.00     0.174 HD
ATOM      3  H12 UNL     1      -7.766  -1.032   2.905  1.00  0.00     0.174 HD
HETATM    4  C1  UNL     1      -6.628  -0.052   1.591  1.00  0.00     0.670 C 
HETATM    5  N2  UNL     1      -7.024  -0.777   0.449  1.00  0.00    -0.220 N 
ATOM      6  H2  UNL     1      -7.656  -1.566   0.583  1.00  0.00     0.178 HD
HETATM    7  C2  UNL     1      -6.594  -0.477  -0.903  1.00  0.00     0.121 C 
HETATM    8  C3  UNL     1      -5.489  -1.410  -1.368  1.00  0.00     0.146 C 
HETATM    9  N3  UNL     1      -4.253  -1.178  -0.648  1.00  0.00    -0.374 N 
ATOM     10  H3  UNL     1      -3.538  -1.906  -0.666  1.00  0.00     0.160 HD
HETATM   11  C4  UNL     1      -4.012  -0.103   0.011  1.00  0.00     0.131 C 
HETATM   12  C16 UNL     1      -4.972   1.021   0.115  1.00  0.00     0.269 C 
HETATM   13  C17 UNL     1      -6.043   0.918  -0.954  1.00  0.00     0.097 C 
HETATM   14  N9  UNL     1      -5.674   0.987   1.390  1.00  0.00    -0.185 N 
ATOM     15  H9  UNL     1      -5.489   1.682   2.113  1.00  0.00     0.180 HD
ENDROOT
BRANCH  11  16
HETATM   16  N4  UNL     1      -2.768   0.011   0.676  1.00  0.00    -0.376 N 
ATOM     17  H4  UNL     1      -2.755   0.503   1.570  1.00  0.00     0.160 HD
BRANCH  16  18
HETATM   18  C5  UNL     1      -1.510  -0.517   0.185  1.00  0.00     0.123 C 
BRANCH  18  19
HETATM   19  C6  UNL     1      -0.473  -0.226   1.212  1.00  0.00     0.050 C 
BRANCH  19  20
HETATM   20  C7  UNL     1       0.904  -0.689   0.933  1.00  0.00     0.274 C 
BRANCH  20  21
HETATM   21  N5  UNL     1       1.552  -0.182  -0.224  1.00  0.00     0.090 N 
HETATM   22  C8  UNL     1       1.876   1.216  -0.167  1.00  0.00     0.274 C 
HETATM   23  C9  UNL     1       3.352   1.357   0.107  1.00  0.00     0.057 C 
HETATM   24  C10 UNL     1       3.739  -0.060   0.483  1.00  0.00     0.109 C 
HETATM   25  C15 UNL     1       2.840  -0.880  -0.368  1.00  0.00     0.297 C 
BRANCH  24  26
HETATM   26  N6  UNL     1       5.122  -0.243   0.255  1.00  0.00    -0.403 N 
HETATM   27  C11 UNL     1       6.016   0.558   1.015  1.00  0.00     0.144 C 
HETATM   28  C12 UNL     1       7.152   0.966   0.093  1.00  0.00     0.251 C 
HETATM   29  N7  UNL     1       7.184   0.104  -1.073  1.00  0.00    -0.072 N 
HETATM   30  C13 UNL     1       6.986  -1.299  -0.748  1.00  0.00     0.251 C 
ATOM     31  H72 UNL     1       6.510   0.414  -1.774  1.00  0.00     0.277 HD
ATOM     32  H71 UNL     1       8.047   0.237  -1.601  1.00  0.00     0.277 HD
HETATM   33  C14 UNL     1       5.583  -1.516  -0.154  1.00  0.00     0.144 C 
ENDBRANCH  24  26
ENDBRANCH  20  21
ENDBRANCH  19  20
ENDBRANCH  18  19
ENDBRANCH  16  18
ENDBRANCH  11  16
BRANCH  12  34
HETATM   34  N8  UNL     1      -4.287   2.267  -0.020  1.00  0.00    -0.045 N 
ATOM     35  H83 UNL     1      -3.522   2.356   0.648  1.00  0.00     0.277 HD
ATOM     36  H82 UNL     1      -3.740   2.311  -0.880  1.00  0.00     0.277 HD
ATOM     37  H81 UNL     1      -4.948   3.041   0.052  1.00  0.00     0.277 HD
ENDBRANCH  12  34
TORSDOF 7
