REMARK  7 active torsions:
REMARK  status: ('A' for Active; 'I' for Inactive)
REMARK    1  A    between atoms: C2_2  and  N1_4 
REMARK    2  A    between atoms: N1_4  and  C4_6 
REMARK    3  A    between atoms: C5_9  and  N3_10 
REMARK    4  A    between atoms: N3_10  and  N4_12 
REMARK       I    between atoms: N4_12  and  C6_14 
REMARK    5  A    between atoms: N9_26  and  C9_28 
REMARK    6  A    between atoms: C9_28  and  C10_29 
REMARK    7  A    between atoms: C10_29  and  N10_30 
ROOT
HETATM    1  C4  UNL     1      -1.419  -1.637  -0.152  1.00  0.00     0.694 C 
HETATM    2  N2  UNL     1      -1.857  -0.596   0.600  1.00  0.00    -0.021 N 
ATOM      3  H2  UNL     1      -2.320  -0.854   1.471  1.00  0.00     0.203 HD
HETATM    4  C5  UNL     1      -1.770   0.747   0.363  1.00  0.00     0.713 C 
HETATM    5  N7  UNL     1      -1.040   1.388  -0.578  1.00  0.00    -0.171 N 
ATOM      6  H7  UNL     1      -1.031   2.407  -0.540  1.00  0.00     0.186 HD
HETATM    7  C7  UNL     1      -0.307   0.796  -1.584  1.00  0.00     0.159 C 
HETATM    8  N8  UNL     1      -0.187   1.456  -2.647  1.00  0.00    -0.382 N 
ATOM      9  H81 UNL     1       0.355   1.018  -3.391  1.00  0.00     0.157 HD
ATOM     10  H82 UNL     1      -0.616   2.380  -2.700  1.00  0.00     0.157 HD
HETATM   11  C8  UNL     1       0.268  -0.443  -1.513  1.00  0.00     0.161 C 
HETATM   12  N9  UNL     1       1.441  -0.625  -1.869  1.00  0.00    -0.371 N 
ATOM     13  H9  UNL     1       1.767  -1.587  -1.778  1.00  0.00     0.161 HD
HETATM   14  N11 UNL     1      -0.372  -1.573  -1.021  1.00  0.00    -0.173 N 
ATOM     15  H11 UNL     1      -0.013  -2.468  -1.352  1.00  0.00     0.186 HD
ENDROOT
BRANCH   4  16
HETATM   16  N3  UNL     1      -2.457   1.537   1.110  1.00  0.00    -0.129 N 
ATOM     17  H3  UNL     1      -3.031   1.118   1.841  1.00  0.00     0.205 HD
BRANCH  16  18
HETATM   18  N4  UNL     1      -2.472   2.908   0.993  1.00  0.00    -0.260 N 
HETATM   19  C6  UNL     1      -3.695   3.571   0.693  1.00  0.00     0.201 C 
HETATM   20  N5  UNL     1      -4.251   4.287   1.602  1.00  0.00    -0.372 N 
HETATM   21  N6  UNL     1      -4.290   3.443  -0.585  1.00  0.00    -0.062 NA
ATOM     22  H52 UNL     1      -3.822   4.379   2.523  1.00  0.00     0.158 HD
ATOM     23  H51 UNL     1      -5.128   4.762   1.387  1.00  0.00     0.158 HD
ATOM     24  H4  UNL     1      -1.614   3.444   1.120  1.00  0.00     0.190 HD
ENDBRANCH  16  18
ENDBRANCH   4  16
BRANCH   1  25
HETATM   25  N1  UNL     1      -1.995  -2.775  -0.082  1.00  0.00    -0.222 N 
ATOM     26  H1  UNL     1      -1.649  -3.544  -0.656  1.00  0.00     0.178 HD
BRANCH  25  27
HETATM   27  C2  UNL     1      -3.122  -2.998   0.789  1.00  0.00     0.091 C 
HETATM   28  C1  UNL     1      -4.008  -4.069   0.154  1.00  0.00     0.032 C 
HETATM   29  C3  UNL     1      -2.673  -3.421   2.170  1.00  0.00     0.032 C 
ENDBRANCH  25  27
ENDBRANCH   1  25
BRANCH  12  30
HETATM   30  C9  UNL     1       2.393   0.267  -2.375  1.00  0.00     0.151 C 
BRANCH  30  31
HETATM   31  C10 UNL     1       3.754  -0.126  -1.752  1.00  0.00     0.292 C 
BRANCH  31  32
HETATM   32  N10 UNL     1       3.676  -0.017  -0.309  1.00  0.00     0.090 N 
HETATM   33  C11 UNL     1       3.554   1.331   0.144  1.00  0.00     0.272 C 
HETATM   34  C12 UNL     1       4.147   1.281   1.535  1.00  0.00     0.032 C 
HETATM   35  C13 UNL     1       5.381   0.404   1.282  1.00  0.00     0.032 C 
HETATM   36  C14 UNL     1       4.758  -0.650   0.363  1.00  0.00     0.272 C 
ENDBRANCH  31  32
ENDBRANCH  30  31
ENDBRANCH  12  30
TORSDOF 7
