REMARK  6 active torsions:
REMARK  status: ('A' for Active; 'I' for Inactive)
REMARK    1  A    between atoms: O1_2  and  C2_3 
REMARK    2  A    between atoms: C2_3  and  C3_6 
REMARK    3  A    between atoms: C3_6  and  O2_7 
REMARK    4  A    between atoms: O2_7  and  C4_8 
REMARK    5  A    between atoms: C6_10  and  N1_11 
REMARK    6  A    between atoms: N1_11  and  C7_13 
ROOT
HETATM    1  C4  UNL     1       1.794   1.400   0.049  1.00  0.00     0.160 A 
HETATM    2  C5  UNL     1       0.953   0.331   0.305  1.00  0.00     0.106 A 
HETATM    3  C6  UNL     1      -0.285   0.533  -0.284  1.00  0.00     0.120 A 
HETATM    4  N2  UNL     1      -0.180   1.714  -0.886  1.00  0.00    -0.284 N 
ATOM      5  H2  UNL     1      -0.932   2.154  -1.417  1.00  0.00     0.188 HD
HETATM    6  N3  UNL     1       1.004   2.244  -0.715  1.00  0.00    -0.278 N 
ATOM      7  H3  UNL     1       1.301   3.145  -1.089  1.00  0.00     0.189 HD
ENDROOT
BRANCH   3   8
HETATM    8  N1  UNL     1      -1.249  -0.300  -0.204  1.00  0.00    -0.370 N 
ATOM      9  H1  UNL     1      -1.080  -1.154   0.327  1.00  0.00     0.161 HD
BRANCH   8  10
HETATM   10  C7  UNL     1      -2.537  -0.146  -0.787  1.00  0.00     0.087 C 
HETATM   11  C8  UNL     1      -3.308   1.022  -0.136  1.00  0.00     0.030 C 
HETATM   12  C9  UNL     1      -4.398   0.252   0.522  1.00  0.00    -0.012 C 
HETATM   13  C10 UNL     1      -4.801  -0.757  -0.561  1.00  0.00     0.011 C 
HETATM   14  C12 UNL     1      -3.639  -0.922   1.133  1.00  0.00     0.011 C 
HETATM   15  C11 UNL     1      -3.412  -1.284  -0.343  1.00  0.00     0.009 C 
ENDBRANCH   8  10
ENDBRANCH   3   8
BRANCH   1  16
HETATM   16  O2  UNL     1       3.072   1.672   0.392  1.00  0.00    -0.326 OA
BRANCH  16  17
HETATM   17  C3  UNL     1       4.104   1.149   1.051  1.00  0.00     0.289 C 
BRANCH  17  18
HETATM   18  C2  UNL     1       4.662  -0.107   0.446  1.00  0.00     0.376 C 
HETATM   19  F1  UNL     1       5.145   0.119  -0.840  1.00  0.00    -0.173 F 
HETATM   20  F2  UNL     1       5.753  -0.534   1.232  1.00  0.00    -0.173 F 
BRANCH  18  21
HETATM   21  O1  UNL     1       3.801  -1.164   0.358  1.00  0.00    -0.329 OA
HETATM   22  C1  UNL     1       4.380  -2.322  -0.105  1.00  0.00     0.208 C 
ENDBRANCH  18  21
ENDBRANCH  17  18
ENDBRANCH  16  17
ENDBRANCH   1  16
TORSDOF 6
