REMARK  7 active torsions:
REMARK  status: ('A' for Active; 'I' for Inactive)
REMARK    1  A    between atoms: C3_4  and  C4_5 
REMARK    2  A    between atoms: C4_5  and  O1_6 
REMARK    3  A    between atoms: C4_5  and  C5_8 
REMARK    4  A    between atoms: C5_8  and  N2_9 
REMARK    5  A    between atoms: N2_9  and  C6_11 
REMARK    6  A    between atoms: C6_11  and  C7_12 
REMARK    7  A    between atoms: C10_15  and  C12_17 
ROOT
HETATM    1  C1  UNL     1      -3.365  -2.064   1.426  1.00  0.00     0.309 C 
HETATM    2  N1  UNL     1      -2.334  -1.291   0.804  1.00  0.00     0.085 N 
HETATM    3  C2  UNL     1      -2.052  -0.052   1.498  1.00  0.00     0.280 C 
HETATM    4  C3  UNL     1      -1.102   0.623   0.490  1.00  0.00     0.060 C 
HETATM    5  C10 UNL     1      -1.483   0.057  -0.815  1.00  0.00     0.055 C 
HETATM    6  C11 UNL     1      -0.539  -0.889  -1.465  1.00  0.00     0.023 C 
HETATM    7  C14 UNL     1      -2.756  -0.743  -0.494  1.00  0.00     0.287 C 
ENDROOT
BRANCH   4   8
HETATM    8  C4  UNL     1       0.263   0.348   1.015  1.00  0.00     0.142 C 
BRANCH   8   9
HETATM    9  O1  UNL     1       0.257   0.944   2.313  1.00  0.00    -0.393 OA
ATOM     10  H1  UNL     1       1.128   0.768   2.648  1.00  0.00     0.210 HD
ENDBRANCH   8   9
BRANCH   8  11
HETATM   11  C5  UNL     1       1.396   1.045   0.293  1.00  0.00     0.150 C 
BRANCH  11  12
HETATM   12  N2  UNL     1       2.619   0.835   1.002  1.00  0.00    -0.399 N 
ATOM     13  H2  UNL     1       3.071   1.609   1.490  1.00  0.00     0.158 HD
BRANCH  12  14
HETATM   14  C6  UNL     1       3.190  -0.439   1.021  1.00  0.00     0.060 C 
BRANCH  14  15
HETATM   15  C7  UNL     1       3.843  -0.992  -0.190  1.00  0.00     0.024 A 
HETATM   16  C8  UNL     1       5.065  -0.147  -0.652  1.00  0.00     0.010 A 
HETATM   17  C9  UNL     1       3.848  -0.431  -1.533  1.00  0.00     0.010 A 
ENDBRANCH  14  15
ENDBRANCH  12  14
ENDBRANCH  11  12
ENDBRANCH   8  11
ENDBRANCH   4   8
BRANCH   5  18
HETATM   18  C12 UNL     1      -1.884   1.097  -1.837  1.00  0.00     0.249 C 
HETATM   19  C13 UNL     1      -3.051   1.937  -1.434  1.00  0.00     0.091 C 
HETATM   20  F1  UNL     1      -0.860   1.907  -2.214  1.00  0.00    -0.206 F 
HETATM   21  F2  UNL     1      -2.276   0.388  -2.984  1.00  0.00    -0.206 F 
ENDBRANCH   5  18
TORSDOF 7
