REMARK  4 active torsions:
REMARK  status: ('A' for Active; 'I' for Inactive)
REMARK    1  A    between atoms: N1_2  and  C1_4 
REMARK    2  A    between atoms: C6_9  and  S1_10 
REMARK    3  A    between atoms: S1_10  and  N2_11 
REMARK       I    between atoms: C7_13  and  N3_14 
REMARK       I    between atoms: C7_13  and  N4_20 
REMARK    4  A    between atoms: N3_14  and  C8_16 
ROOT
HETATM    1  N2  UNL     1       0.343   0.576   0.749  1.00  0.00    -0.160 N 
ATOM      2  H2  UNL     1       0.391   0.044   1.618  1.00  0.00     0.193 HD
HETATM    3  C7  UNL     1      -0.725   0.516   0.047  1.00  0.00     0.687 C 
HETATM    4  N3  UNL     1      -0.838   1.234  -1.163  1.00  0.00    -0.181 N 
ATOM      5  H3  UNL     1      -0.665   0.761  -2.050  1.00  0.00     0.185 HD
HETATM    6  N4  UNL     1      -1.809  -0.278   0.480  1.00  0.00    -0.217 N 
HETATM    7  C10 UNL     1      -1.583  -1.650   0.827  1.00  0.00     0.141 C 
HETATM    8  C11 UNL     1      -2.589  -2.585   0.202  1.00  0.00     0.020 C 
HETATM    9  C12 UNL     1      -3.955  -1.987   0.075  1.00  0.00     0.003 C 
HETATM   10  C13 UNL     1      -4.135  -0.720   0.865  1.00  0.00     0.020 C 
HETATM   11  C14 UNL     1      -3.113   0.330   0.557  1.00  0.00     0.141 C 
ENDROOT
BRANCH   1  12
HETATM   12  S1  UNL     1       1.738   1.548   0.265  1.00  0.00     0.004 SA
BRANCH  12  13
HETATM   13  C6  UNL     1       3.161   0.555  -0.084  1.00  0.00     0.055 A 
HETATM   14  C1  UNL     1       4.036   0.269   0.942  1.00  0.00     0.121 A 
HETATM   15  C2  UNL     1       5.136  -0.505   0.642  1.00  0.00     0.037 A 
HETATM   16  C3  UNL     1       5.347  -0.974  -0.641  1.00  0.00     0.003 A 
HETATM   17  C4  UNL     1       4.479  -0.690  -1.661  1.00  0.00     0.002 A 
HETATM   18  C5  UNL     1       3.377   0.085  -1.363  1.00  0.00     0.023 A 
BRANCH  14  19
HETATM   19  N1  UNL     1       3.787   0.768   2.248  1.00  0.00    -0.114 N 
HETATM   20  O1  UNL     1       4.227   0.141   3.227  1.00  0.00    -0.532 OA
HETATM   21  O2  UNL     1       3.081   1.913   2.462  1.00  0.00    -0.532 OA
ENDBRANCH  14  19
ENDBRANCH  12  13
ENDBRANCH   1  12
BRANCH   4  22
HETATM   22  C8  UNL     1      -1.195   2.629  -1.156  1.00  0.00     0.137 A 
HETATM   23  C9  UNL     1      -1.367   3.531  -2.131  1.00  0.00     0.192 A 
HETATM   24  O3  UNL     1      -1.664   4.518  -1.370  1.00  0.00    -0.282 OA
HETATM   25  S2  UNL     1      -1.550   3.746   0.037  1.00  0.00     0.055 SA
ENDBRANCH   4  22
TORSDOF 4
