REMARK  3 active torsions:
REMARK  status: ('A' for Active; 'I' for Inactive)
REMARK    1  A    between atoms: C2_2  and  C3_3 
REMARK    2  A    between atoms: C5_14  and  N6_15 
REMARK    3  A    between atoms: N6_15  and  N7_17 
ROOT
HETATM    1  C1  UNL     1      -1.635  -1.037  -1.506  1.00  0.00     0.074 C 
HETATM    2  C2  UNL     1      -1.368  -0.137  -0.314  1.00  0.00     0.189 C 
HETATM    3  N2  UNL     1      -0.153  -0.602   0.306  1.00  0.00    -0.070 NA
HETATM    4  N3  UNL     1       0.824   0.404   0.098  1.00  0.00    -0.044 N 
HETATM    5  C4  UNL     1       0.239   1.462  -0.485  1.00  0.00     0.276 A 
HETATM    6  N4  UNL     1       1.177   2.405  -0.675  1.00  0.00    -0.249 N 
ATOM      7  H4  UNL     1       1.013   3.317  -1.102  1.00  0.00     0.191 HD
HETATM    8  N5  UNL     1       2.342   1.977  -0.228  1.00  0.00    -0.126 N 
ATOM      9  H5  UNL     1       3.229   2.480  -0.241  1.00  0.00     0.206 HD
HETATM   10  C5  UNL     1       2.118   0.740   0.248  1.00  0.00     0.732 A 
HETATM   11  O1  UNL     1      -1.121   1.190  -0.677  1.00  0.00    -0.284 OA
ENDROOT
BRANCH   2  12
HETATM   12  C3  UNL     1      -2.469  -0.186   0.673  1.00  0.00     0.111 C 
HETATM   13  N1  UNL     1      -3.199   0.827   0.968  1.00  0.00    -0.407 N 
ATOM     14  H12 UNL     1      -2.997   1.704   0.488  1.00  0.00     0.155 HD
ATOM     15  H11 UNL     1      -3.958   0.793   1.648  1.00  0.00     0.155 HD
ENDBRANCH   2  12
BRANCH  10  16
HETATM   16  N6  UNL     1       3.016  -0.017   0.773  1.00  0.00    -0.136 N 
ATOM     17  H6  UNL     1       3.980   0.306   0.852  1.00  0.00     0.205 HD
BRANCH  16  18
HETATM   18  N7  UNL     1       2.657  -1.280   1.231  1.00  0.00    -0.331 N 
ATOM     19  H72 UNL     1       1.688  -1.588   1.144  1.00  0.00     0.177 HD
ATOM     20  H71 UNL     1       3.369  -1.880   1.647  1.00  0.00     0.177 HD
ENDBRANCH  16  18
ENDBRANCH  10  16
TORSDOF 3
