REMARK  7 active torsions:
REMARK  status: ('A' for Active; 'I' for Inactive)
REMARK    1  A    between atoms: C5_5  and  C6_6 
REMARK    2  A    between atoms: C6_6  and  C7_7 
REMARK    3  A    between atoms: C14_15  and  O2_16 
REMARK    4  A    between atoms: O2_16  and  C15_17 
REMARK    5  A    between atoms: C15_17  and  C16_19 
REMARK    6  A    between atoms: C20_23  and  O4_24 
REMARK    7  A    between atoms: C22_28  and  O6_29 
ROOT
HETATM    1  C1  UNL     1      -1.628   1.824  -1.331  1.00  0.00     0.017 C 
HETATM    2  C2  UNL     1      -1.335   1.106  -0.264  1.00  0.00    -0.048 C 
HETATM    3  C3  UNL     1      -2.443   0.828   0.641  1.00  0.00     0.073 C 
HETATM    4  C4  UNL     1      -3.742   1.406   0.364  1.00  0.00     0.017 C 
HETATM    5  C5  UNL     1      -4.648   0.475   0.654  1.00  0.00     0.044 C 
HETATM    6  O1  UNL     1      -3.994  -0.686   1.103  1.00  0.00    -0.347 OA
HETATM    7  C9  UNL     1      -2.770  -0.636   0.427  1.00  0.00     0.169 C 
HETATM    8  C10 UNL     1      -1.709  -1.566   0.690  1.00  0.00     0.153 C 
HETATM    9  C11 UNL     1      -0.770  -1.292   1.855  1.00  0.00     0.042 C 
HETATM   10  C12 UNL     1       0.488  -1.532   1.222  1.00  0.00     0.031 C 
HETATM   11  C13 UNL     1       1.779  -1.031   1.605  1.00  0.00     0.043 C 
HETATM   12  C14 UNL     1       2.525  -1.352   0.333  1.00  0.00     0.164 C 
HETATM   13  C20 UNL     1       1.518  -1.282  -0.798  1.00  0.00     0.185 C 
HETATM   14  C21 UNL     1       0.245  -0.826  -0.136  1.00  0.00     0.123 C 
HETATM   15  O5  UNL     1      -0.874  -1.569  -0.469  1.00  0.00    -0.366 OA
HETATM   16  C22 UNL     1       0.061   0.628  -0.043  1.00  0.00     0.184 C 
ENDROOT
BRANCH  12  17
HETATM   17  O2  UNL     1       3.706  -0.706   0.102  1.00  0.00    -0.310 OA
BRANCH  17  18
HETATM   18  C15 UNL     1       4.969  -1.223   0.018  1.00  0.00     0.283 C 
HETATM   19  O3  UNL     1       4.986  -2.467   0.186  1.00  0.00    -0.260 OA
BRANCH  18  20
HETATM   20  C16 UNL     1       6.188  -0.479  -0.231  1.00  0.00     0.084 C 
HETATM   21  C17 UNL     1       6.244   0.819  -0.414  1.00  0.00    -0.082 C 
HETATM   22  C18 UNL     1       5.022   1.659  -0.381  1.00  0.00     0.043 C 
HETATM   23  C19 UNL     1       7.551   1.522  -0.669  1.00  0.00     0.043 C 
ENDBRANCH  18  20
ENDBRANCH  17  18
ENDBRANCH  12  17
BRANCH  13  24
HETATM   24  O4  UNL     1       1.937  -0.525  -1.851  1.00  0.00    -0.390 OA
ATOM     25  H4  UNL     1       1.306  -0.481  -2.560  1.00  0.00     0.210 HD
ENDBRANCH  13  24
BRANCH  16  26
HETATM   26  O6  UNL     1       0.853   1.377  -0.944  1.00  0.00    -0.388 OA
ATOM     27  H6  UNL     1       1.742   1.073  -0.803  1.00  0.00     0.210 HD
ENDBRANCH  16  26
BRANCH   5  28
HETATM   28  C6  UNL     1      -6.132   0.658   0.515  1.00  0.00     0.064 C 
BRANCH  28  29
HETATM   29  C7  UNL     1      -6.745  -0.322  -0.443  1.00  0.00     0.002 C 
HETATM   30  C8  UNL     1      -6.134  -0.158  -1.819  1.00  0.00     0.005 C 
ENDBRANCH  28  29
ENDBRANCH   5  28
TORSDOF 7
