REMARK  7 active torsions:
REMARK  status: ('A' for Active; 'I' for Inactive)
REMARK    1  A    between atoms: C2_2  and  N1_4 
REMARK    2  A    between atoms: C2_2  and  C4_8 
REMARK    3  A    between atoms: C4_8  and  C5_9 
REMARK       I    between atoms: C5_9  and  N2_11 
REMARK    4  A    between atoms: C7_13  and  N3_14 
REMARK       I    between atoms: N3_14  and  C8_16 
REMARK       I    between atoms: C8_16  and  N4_18 
REMARK    5  A    between atoms: N4_18  and  S1_20 
REMARK    6  A    between atoms: S1_20  and  C9_23 
REMARK    7  A    between atoms: C13_27  and  C14_28 
ROOT
HETATM    1  C5  UNL     1       3.392  -1.042  -0.181  1.00  0.00     0.222 C 
HETATM    2  O1  UNL     1       3.598  -2.275  -0.138  1.00  0.00    -0.273 OA
HETATM    3  N2  UNL     1       2.076  -0.529  -0.246  1.00  0.00    -0.350 N 
HETATM    4  C6  UNL     1       0.890  -1.350  -0.269  1.00  0.00     0.151 C 
HETATM    5  C7  UNL     1      -0.251  -0.388  -0.067  1.00  0.00     0.110 C 
HETATM    6  C13 UNL     1       0.407   0.804   0.535  1.00  0.00     0.032 C 
HETATM    7  C17 UNL     1       1.693   0.879  -0.295  1.00  0.00     0.133 C 
ENDROOT
BRANCH   5   8
HETATM    8  N3  UNL     1      -1.285  -0.949   0.776  1.00  0.00    -0.336 N 
HETATM    9  C8  UNL     1      -2.589  -1.047   0.268  1.00  0.00     0.330 C 
HETATM   10  O2  UNL     1      -2.850  -0.658  -0.883  1.00  0.00    -0.246 OA
HETATM   11  N4  UNL     1      -3.614  -1.594   1.078  1.00  0.00    -0.236 N 
ATOM     12  H4  UNL     1      -3.391  -1.912   2.021  1.00  0.00     0.183 HD
ATOM     13  H3  UNL     1      -1.070  -1.267   1.721  1.00  0.00     0.164 HD
BRANCH  11  14
HETATM   14  S1  UNL     1      -5.233  -1.732   0.498  1.00  0.00     0.238 S 
HETATM   15  O3  UNL     1      -5.839  -3.058   0.762  1.00  0.00    -0.205 OA
HETATM   16  O4  UNL     1      -5.283  -1.509  -0.998  1.00  0.00    -0.205 OA
BRANCH  14  17
HETATM   17  C9  UNL     1      -6.169  -0.444   1.299  1.00  0.00     0.130 C 
HETATM   18  C10 UNL     1      -7.577  -0.428   0.728  1.00  0.00     0.022 C 
HETATM   19  C11 UNL     1      -7.248   0.857  -0.030  1.00  0.00     0.003 C 
HETATM   20  C12 UNL     1      -5.964   0.939   0.779  1.00  0.00     0.022 C 
ENDBRANCH  14  17
ENDBRANCH  11  14
ENDBRANCH   5   8
BRANCH   6  21
HETATM   21  C14 UNL     1      -0.378   2.078   0.431  1.00  0.00    -0.007 A 
HETATM   22  C15 UNL     1      -0.750   2.659  -0.891  1.00  0.00     0.005 A 
HETATM   23  C16 UNL     1       0.411   3.251  -0.117  1.00  0.00     0.005 A 
ENDBRANCH   6  21
BRANCH   1  24
HETATM   24  C4  UNL     1       4.526  -0.103  -0.163  1.00  0.00     0.140 C 
BRANCH  24  25
HETATM   25  C2  UNL     1       5.872  -0.756  -0.075  1.00  0.00     0.124 C 
HETATM   26  C1  UNL     1       6.902   0.385  -0.068  1.00  0.00     0.046 C 
HETATM   27  C3  UNL     1       6.193  -1.588  -1.295  1.00  0.00     0.046 C 
BRANCH  25  28
HETATM   28  N1  UNL     1       6.051  -1.509   1.152  1.00  0.00    -0.071 N 
ATOM     29  H13 UNL     1       7.008  -1.837   1.282  1.00  0.00     0.275 HD
ATOM     30  H12 UNL     1       5.995  -0.927   1.988  1.00  0.00     0.275 HD
ATOM     31  H11 UNL     1       5.368  -2.266   1.147  1.00  0.00     0.275 HD
ENDBRANCH  25  28
ENDBRANCH  24  25
ENDBRANCH   1  24
TORSDOF 7
