REMARK  8 active torsions:
REMARK  status: ('A' for Active; 'I' for Inactive)
REMARK    1  A    between atoms: O1_2  and  C2_3 
REMARK    2  A    between atoms: C2_3  and  C3_5 
REMARK    3  A    between atoms: N1_8  and  C6_9 
REMARK    4  A    between atoms: C6_9  and  C7_10 
REMARK       I    between atoms: C7_10  and  N2_12 
REMARK    5  A    between atoms: N2_12  and  C8_14 
REMARK    6  A    between atoms: C8_14  and  C9_15 
REMARK       I    between atoms: C9_15  and  N3_17 
REMARK    7  A    between atoms: N3_17  and  C10_19 
REMARK    8  A    between atoms: C16_25  and  N4_27 
ROOT
HETATM    1  C9  UNL     1      -0.997  -0.579  -0.492  1.00  0.00     0.235 C 
HETATM    2  O4  UNL     1      -0.661  -0.777   0.709  1.00  0.00    -0.272 OA
HETATM    3  N3  UNL     1      -2.383  -0.425  -0.790  1.00  0.00    -0.355 N 
ATOM      4  H3  UNL     1      -2.671  -0.261  -1.755  1.00  0.00     0.162 HD
ENDROOT
BRANCH   1   5
HETATM    5  C8  UNL     1      -0.044  -0.494  -1.613  1.00  0.00     0.225 C 
BRANCH   5   6
HETATM    6  N2  UNL     1       1.345  -0.657  -1.186  1.00  0.00    -0.351 N 
HETATM    7  C7  UNL     1       2.356  -0.601  -2.154  1.00  0.00     0.246 C 
HETATM    8  O3  UNL     1       2.054  -0.425  -3.359  1.00  0.00    -0.272 OA
ATOM      9  H2  UNL     1       1.573  -0.808  -0.203  1.00  0.00     0.163 HD
BRANCH   7  10
HETATM   10  C6  UNL     1       3.775  -0.745  -1.811  1.00  0.00     0.374 C 
BRANCH  10  11
HETATM   11  N1  UNL     1       4.046  -0.881  -0.411  1.00  0.00     0.097 N 
HETATM   12  C5  UNL     1       3.834   0.316   0.345  1.00  0.00     0.273 C 
HETATM   13  C4  UNL     1       5.097   1.179   0.296  1.00  0.00     0.045 C 
HETATM   14  C3  UNL     1       6.228   0.471   0.976  1.00  0.00     0.089 C 
HETATM   15  C20 UNL     1       5.960  -1.008   1.075  1.00  0.00     0.045 C 
HETATM   16  C19 UNL     1       5.375  -1.435  -0.267  1.00  0.00     0.273 C 
BRANCH  14  17
HETATM   17  C2  UNL     1       7.526   0.668   0.276  1.00  0.00     0.262 C 
HETATM   18  O2  UNL     1       8.175  -0.311  -0.159  1.00  0.00    -0.265 OA
BRANCH  17  19
HETATM   19  O1  UNL     1       8.009   1.970   0.110  1.00  0.00    -0.326 OA
HETATM   20  C1  UNL     1       9.245   2.102  -0.564  1.00  0.00     0.213 C 
ENDBRANCH  17  19
ENDBRANCH  14  17
ENDBRANCH  10  11
ENDBRANCH   7  10
ENDBRANCH   5   6
ENDBRANCH   1   5
BRANCH   3  21
HETATM   21  C10 UNL     1      -3.407  -0.498   0.267  1.00  0.00     0.087 C 
HETATM   22  C11 UNL     1      -3.977   0.893   0.371  1.00  0.00     0.034 C 
HETATM   23  C12 UNL     1      -5.242   0.963   1.167  1.00  0.00    -0.044 C 
HETATM   24  C13 UNL     1      -6.179   1.978   0.552  1.00  0.00     0.015 C 
HETATM   25  C14 UNL     1      -4.972   1.385   2.601  1.00  0.00     0.015 C 
HETATM   26  C15 UNL     1      -5.980  -0.350   1.233  1.00  0.00     0.047 C 
HETATM   27  C16 UNL     1      -5.835  -1.036  -0.102  1.00  0.00     0.122 C 
HETATM   28  C17 UNL     1      -6.763  -2.198  -0.253  1.00  0.00     0.046 C 
HETATM   29  C18 UNL     1      -4.390  -1.524  -0.165  1.00  0.00     0.063 C 
BRANCH  27  30
HETATM   30  N4  UNL     1      -6.061  -0.137  -1.208  1.00  0.00    -0.071 N 
ATOM     31  H43 UNL     1      -6.967   0.325  -1.128  1.00  0.00     0.275 HD
ATOM     32  H42 UNL     1      -5.455   0.681  -1.147  1.00  0.00     0.275 HD
ATOM     33  H41 UNL     1      -5.963  -0.601  -2.111  1.00  0.00     0.275 HD
ENDBRANCH  27  30
ENDBRANCH   3  21
TORSDOF 8
