REMARK  6 active torsions:
REMARK  status: ('A' for Active; 'I' for Inactive)
REMARK    1  A    between atoms: S1_2  and  N1_5 
REMARK       I    between atoms: N1_5  and  C2_7 
REMARK    2  A    between atoms: C2_7  and  C3_9 
REMARK    3  A    between atoms: C3_9  and  N2_10 
REMARK       I    between atoms: N2_10  and  C4_12 
REMARK    4  A    between atoms: C4_12  and  C5_14 
REMARK    5  A    between atoms: C5_14  and  C6_15 
REMARK       I    between atoms: N3_19  and  C10_20 
REMARK       I    between atoms: C10_20  and  N4_22 
REMARK    6  A    between atoms: N4_22  and  C11_24 
ROOT
HETATM    1  C5  UNL     1       1.120  -1.304  -1.784  1.00  0.00     0.109 C 
ENDROOT
BRANCH   1   2
HETATM    2  C4  UNL     1       1.837  -1.141  -0.520  1.00  0.00     0.219 C 
HETATM    3  N2  UNL     1       2.753  -2.116  -0.014  1.00  0.00    -0.343 N 
ATOM      4  H2  UNL     1       2.898  -2.961  -0.567  1.00  0.00     0.163 HD
HETATM    5  O4  UNL     1       1.681  -0.115   0.202  1.00  0.00    -0.274 OA
BRANCH   3   6
HETATM    6  C3  UNL     1       3.483  -1.993   1.215  1.00  0.00     0.115 A 
HETATM    7  C17 UNL     1       3.730  -3.229   2.041  1.00  0.00     0.044 A 
HETATM    8  C18 UNL     1       2.710  -2.290   2.507  1.00  0.00     0.044 A 
BRANCH   6   9
HETATM    9  C2  UNL     1       4.460  -0.907   1.368  1.00  0.00     0.259 C 
HETATM   10  N1  UNL     1       4.838   0.036   0.400  1.00  0.00    -0.253 N 
ATOM     11  H1  UNL     1       4.404  -0.016  -0.521  1.00  0.00     0.181 HD
HETATM   12  O3  UNL     1       5.040  -0.797   2.504  1.00  0.00    -0.270 OA
BRANCH  10  13
HETATM   13  S1  UNL     1       5.999   1.279   0.687  1.00  0.00     0.229 S 
HETATM   14  C1  UNL     1       7.593   0.614   1.062  1.00  0.00     0.186 C 
HETATM   15  O1  UNL     1       6.087   2.185  -0.506  1.00  0.00    -0.206 OA
HETATM   16  O2  UNL     1       5.562   2.162   1.848  1.00  0.00    -0.206 OA
ENDBRANCH  10  13
ENDBRANCH   6   9
ENDBRANCH   3   6
ENDBRANCH   1   2
BRANCH   1  17
HETATM   17  C6  UNL     1       0.231  -0.187  -2.187  1.00  0.00     0.012 C 
HETATM   18  C7  UNL     1       0.877   1.140  -2.384  1.00  0.00     0.008 C 
HETATM   19  C8  UNL     1      -0.108   2.021  -3.147  1.00  0.00     0.020 C 
HETATM   20  C9  UNL     1      -1.466   1.408  -3.289  1.00  0.00     0.127 C 
HETATM   21  N3  UNL     1      -1.906   0.835  -2.037  1.00  0.00    -0.334 N 
HETATM   22  C10 UNL     1      -3.212   1.109  -1.553  1.00  0.00     0.318 C 
HETATM   23  C16 UNL     1      -0.985  -0.021  -1.302  1.00  0.00     0.132 C 
HETATM   24  O5  UNL     1      -3.980   1.848  -2.210  1.00  0.00    -0.247 OA
HETATM   25  N4  UNL     1      -3.674   0.561  -0.329  1.00  0.00    -0.338 N 
ATOM     26  H4  UNL     1      -3.055  -0.042   0.214  1.00  0.00     0.164 HD
BRANCH  25  27
HETATM   27  C11 UNL     1      -5.002   0.839   0.164  1.00  0.00     0.086 C 
HETATM   28  C12 UNL     1      -5.020   1.321   1.581  1.00  0.00     0.025 C 
HETATM   29  C13 UNL     1      -6.153   0.619   2.292  1.00  0.00     0.002 C 
HETATM   30  C14 UNL     1      -6.942  -0.016   1.162  1.00  0.00     0.002 C 
HETATM   31  C15 UNL     1      -5.799  -0.462   0.246  1.00  0.00     0.025 C 
ENDBRANCH  25  27
ENDBRANCH   1  17
TORSDOF 6
