REMARK  7 active torsions:
REMARK  status: ('A' for Active; 'I' for Inactive)
REMARK    1  A    between atoms: N1_5  and  O2_6 
REMARK    2  A    between atoms: C4_8  and  C5_9 
REMARK    3  A    between atoms: C5_9  and  N2_10 
REMARK    4  A    between atoms: C6_13  and  N4_14 
REMARK    5  A    between atoms: N6_23  and  C12_25 
REMARK    6  A    between atoms: C12_25  and  C13_26 
REMARK    7  A    between atoms: C13_26  and  O4_27 
ROOT
HETATM    1  N2  UNL     1      -0.924  -0.212   0.674  1.00  0.00    -0.102 N 
HETATM    2  N3  UNL     1       0.195  -0.929   0.764  1.00  0.00    -0.115 N 
ATOM      3  H3  UNL     1       0.258  -1.851   1.196  1.00  0.00     0.206 HD
HETATM    4  C6  UNL     1       1.230  -0.275   0.209  1.00  0.00     0.710 A 
HETATM    5  N5  UNL     1       0.706   0.879  -0.230  1.00  0.00    -0.020 N 
ATOM      6  H5  UNL     1       1.228   1.614  -0.707  1.00  0.00     0.203 HD
HETATM    7  C11 UNL     1      -0.609   0.925   0.050  1.00  0.00     0.710 A 
HETATM    8  N6  UNL     1      -1.350   1.934  -0.262  1.00  0.00    -0.222 N 
ATOM      9  H6  UNL     1      -2.341   1.917  -0.020  1.00  0.00     0.177 HD
ENDROOT
BRANCH   1  10
HETATM   10  C5  UNL     1      -2.238  -0.566   1.139  1.00  0.00     0.247 C 
BRANCH  10  11
HETATM   11  C4  UNL     1      -3.070  -1.313   0.215  1.00  0.00     0.132 A 
HETATM   12  N1  UNL     1      -4.116  -0.763  -0.403  1.00  0.00    -0.222 N 
HETATM   13  C3  UNL     1      -4.817  -1.549  -1.266  1.00  0.00     0.130 A 
HETATM   14  C2  UNL     1      -4.501  -2.861  -1.525  1.00  0.00     0.094 A 
HETATM   15  C1  UNL     1      -3.412  -3.391  -0.865  1.00  0.00     0.248 A 
HETATM   16  O1  UNL     1      -3.079  -4.606  -1.071  1.00  0.00    -0.268 OA
HETATM   17  N7  UNL     1      -2.754  -2.597  -0.033  1.00  0.00    -0.310 N 
ATOM     18  H7  UNL     1      -1.948  -2.988   0.455  1.00  0.00     0.170 HD
BRANCH  12  19
HETATM   19  O2  UNL     1      -4.519   0.538  -0.192  1.00  0.00    -0.282 OA
ATOM     20  H2  UNL     1      -4.030   1.086   0.410  1.00  0.00     0.245 HD
ENDBRANCH  12  19
ENDBRANCH  10  11
ENDBRANCH   1  10
BRANCH   4  21
HETATM   21  N4  UNL     1       2.590  -0.713   0.108  1.00  0.00    -0.212 N 
HETATM   22  C7  UNL     1       3.012  -1.988   0.626  1.00  0.00     0.167 C 
HETATM   23  C8  UNL     1       4.521  -2.050   0.671  1.00  0.00     0.188 C 
HETATM   24  O3  UNL     1       5.046  -0.812   1.106  1.00  0.00    -0.388 OA
HETATM   25  C9  UNL     1       4.943   0.040   0.008  1.00  0.00     0.188 C 
HETATM   26  C10 UNL     1       3.553   0.145  -0.526  1.00  0.00     0.167 C 
ENDBRANCH   4  21
BRANCH   8  27
HETATM   27  C12 UNL     1      -0.813   3.081  -0.942  1.00  0.00     0.164 C 
BRANCH  27  28
HETATM   28  C13 UNL     1      -0.175   4.069   0.025  1.00  0.00     0.184 C 
BRANCH  28  29
HETATM   29  O4  UNL     1      -1.150   4.507   0.938  1.00  0.00    -0.399 OA
ATOM     30  H4  UNL     1      -0.752   5.123   1.541  1.00  0.00     0.209 HD
ENDBRANCH  28  29
ENDBRANCH  27  28
ENDBRANCH   8  27
TORSDOF 7
