REMARK  7 active torsions:
REMARK  status: ('A' for Active; 'I' for Inactive)
REMARK    1  A    between atoms: N1_2  and  C3_4 
REMARK    2  A    between atoms: C4_7  and  N3_8 
REMARK    3  A    between atoms: C9_17  and  N6_18 
REMARK    4  A    between atoms: C11_20  and  C12_21 
REMARK    5  A    between atoms: C11_20  and  N8_26 
REMARK    6  A    between atoms: C12_21  and  O1_22 
REMARK    7  A    between atoms: O1_22  and  N7_23 
ROOT
HETATM    1  C3  UNL     1      -1.829   2.187  -0.790  1.00  0.00     0.708 A 
HETATM    2  N2  UNL     1      -2.718   1.248  -0.422  1.00  0.00    -0.021 N 
ATOM      3  H2  UNL     1      -3.717   1.449  -0.476  1.00  0.00     0.203 HD
HETATM    4  C4  UNL     1      -2.300   0.036   0.021  1.00  0.00     0.709 A 
HETATM    5  N5  UNL     1      -0.970  -0.164   0.068  1.00  0.00    -0.021 N 
ATOM      6  H5  UNL     1      -0.641  -1.071   0.400  1.00  0.00     0.203 HD
HETATM    7  C9  UNL     1      -0.046   0.736  -0.287  1.00  0.00     0.709 A 
HETATM    8  N9  UNL     1      -0.513   1.935  -0.726  1.00  0.00    -0.021 N 
ATOM      9  H9  UNL     1       0.149   2.656  -1.012  1.00  0.00     0.203 HD
ENDROOT
BRANCH   7  10
HETATM   10  N6  UNL     1       1.354   0.539  -0.184  1.00  0.00    -0.212 N 
HETATM   11  C10 UNL     1       2.518   0.834  -0.987  1.00  0.00     0.176 C 
HETATM   12  C11 UNL     1       3.344  -0.132  -0.213  1.00  0.00     0.084 C 
HETATM   13  C15 UNL     1       2.220  -0.009   0.828  1.00  0.00     0.176 C 
BRANCH  12  14
HETATM   14  C12 UNL     1       3.343  -1.527  -0.816  1.00  0.00     0.234 C 
BRANCH  14  15
HETATM   15  O1  UNL     1       3.685  -2.482   0.139  1.00  0.00    -0.285 OA
BRANCH  15  16
HETATM   16  N7  UNL     1       3.691  -3.736  -0.333  1.00  0.00    -0.311 N 
ATOM     17  H72 UNL     1       3.464  -3.954  -1.303  1.00  0.00     0.184 HD
ATOM     18  H71 UNL     1       3.941  -4.435   0.366  1.00  0.00     0.184 HD
ENDBRANCH  15  16
ENDBRANCH  14  15
ENDBRANCH  12  14
BRANCH  12  19
HETATM   19  N8  UNL     1       4.546   0.363   0.318  1.00  0.00    -0.407 N 
HETATM   20  C13 UNL     1       5.027  -0.144   1.544  1.00  0.00     0.143 C 
HETATM   21  C14 UNL     1       5.424   1.093  -0.508  1.00  0.00     0.143 C 
ENDBRANCH  12  19
ENDBRANCH   7  10
BRANCH   4  22
HETATM   22  N3  UNL     1      -3.226  -0.951   0.433  1.00  0.00    -0.214 N 
HETATM   23  C5  UNL     1      -3.915  -0.887   1.730  1.00  0.00     0.160 C 
HETATM   24  C6  UNL     1      -3.595  -2.223   2.386  1.00  0.00     0.134 C 
HETATM   25  N4  UNL     1      -4.175  -3.312   1.655  1.00  0.00    -0.418 N 
HETATM   26  C7  UNL     1      -4.508  -3.021   0.288  1.00  0.00     0.134 C 
ATOM     27  H4  UNL     1      -4.339  -4.227   2.075  1.00  0.00     0.153 HD
HETATM   28  C8  UNL     1      -3.551  -2.068  -0.394  1.00  0.00     0.160 C 
ENDBRANCH   4  22
BRANCH   1  29
HETATM   29  N1  UNL     1      -2.225   3.478  -1.239  1.00  0.00    -0.225 N 
HETATM   30  C1  UNL     1      -3.617   3.820  -1.304  1.00  0.00     0.168 C 
HETATM   31  C2  UNL     1      -1.219   4.433  -1.614  1.00  0.00     0.168 C 
ENDBRANCH   1  29
TORSDOF 7
