REMARK  22 active torsions:
REMARK  status: ('A' for Active; 'I' for Inactive)
REMARK    1  A    between atoms: C2_2  and  C3_3 
REMARK    2  A    between atoms: C3_3  and  C4_4 
REMARK    3  A    between atoms: C4_4  and  C5_5 
REMARK    4  A    between atoms: C5_5  and  C6_6 
REMARK    5  A    between atoms: C8_8  and  N1_9 
REMARK    6  A    between atoms: N1_9  and  C9_11 
REMARK    7  A    between atoms: C9_11  and  C10_12 
REMARK    8  A    between atoms: C11_15  and  N3_16 
REMARK    9  A    between atoms: N3_16  and  C12_18 
REMARK   10  A    between atoms: C12_18  and  C13_19 
REMARK   11  A    between atoms: C13_19  and  C14_20 
REMARK   12  A    between atoms: C14_20  and  C15_21 
REMARK   13  A    between atoms: C15_21  and  C16_22 
REMARK   14  A    between atoms: C16_22  and  C17_23 
REMARK   15  A    between atoms: C17_23  and  N4_24 
REMARK   16  A    between atoms: N4_24  and  S1_26 
REMARK   17  A    between atoms: S1_26  and  N5_27 
REMARK   18  A    between atoms: C18_34  and  N7_35 
REMARK   19  A    between atoms: N7_35  and  C19_37 
REMARK   20  A    between atoms: C19_37  and  C20_38 
REMARK   21  A    between atoms: C20_38  and  C21_39 
REMARK   22  A    between atoms: C21_39  and  N8_40 
ROOT
HETATM    1  C6  UNL     1      -1.796  -2.424  -0.471  1.00  0.00     0.029 C 
HETATM    2  C7  UNL     1      -0.718  -2.750   0.341  1.00  0.00     0.058 C 
HETATM    3  C8  UNL     1       0.548  -2.203   0.392  1.00  0.00     0.075 C 
HETATM    4  C11 UNL     1       0.874  -0.891   0.081  1.00  0.00     0.143 C 
HETATM    5  N6  UNL     1       0.196  -0.090  -0.806  1.00  0.00    -0.175 N 
ATOM      6  H6  UNL     1       0.735   0.656  -1.245  1.00  0.00     0.186 HD
HETATM    7  C18 UNL     1      -1.126  -0.181  -1.168  1.00  0.00     0.679 C 
HETATM    8  N9  UNL     1      -1.903  -1.273  -1.199  1.00  0.00    -0.196 N 
ATOM      9  H9  UNL     1      -2.682  -1.240  -1.857  1.00  0.00     0.184 HD
ENDROOT
BRANCH   4  10
HETATM   10  N3  UNL     1       1.869  -0.346   0.627  1.00  0.00    -0.374 N 
ATOM     11  H3  UNL     1       2.032   0.619   0.338  1.00  0.00     0.161 HD
BRANCH  10  12
HETATM   12  C12 UNL     1       2.791  -0.832   1.561  1.00  0.00     0.121 C 
BRANCH  12  13
HETATM   13  C13 UNL     1       3.566   0.363   2.168  1.00  0.00     0.020 C 
BRANCH  13  14
HETATM   14  C14 UNL     1       4.248   1.068   1.029  1.00  0.00     0.002 C 
BRANCH  14  15
HETATM   15  C15 UNL     1       5.218   0.232   0.264  1.00  0.00     0.002 C 
BRANCH  15  16
HETATM   16  C16 UNL     1       5.839   1.010  -0.857  1.00  0.00     0.020 C 
BRANCH  16  17
HETATM   17  C17 UNL     1       6.589   2.204  -0.393  1.00  0.00     0.133 C 
BRANCH  17  18
HETATM   18  N4  UNL     1       7.183   2.912  -1.522  1.00  0.00    -0.303 N 
ATOM     19  H4  UNL     1       7.083   2.609  -2.491  1.00  0.00     0.173 HD
BRANCH  18  20
HETATM   20  S1  UNL     1       8.062   4.297  -1.057  1.00  0.00     0.312 S 
HETATM   21  O2  UNL     1       7.500   4.853   0.200  1.00  0.00    -0.183 OA
HETATM   22  O3  UNL     1       8.065   5.366  -2.101  1.00  0.00    -0.183 OA
BRANCH  20  23
HETATM   23  N5  UNL     1       9.704   3.831  -0.783  1.00  0.00    -0.312 N 
ATOM     24  H52 UNL     1      10.070   2.884  -0.886  1.00  0.00     0.170 HD
ATOM     25  H51 UNL     1      10.230   4.660  -0.505  1.00  0.00     0.170 HD
ENDBRANCH  20  23
ENDBRANCH  18  20
ENDBRANCH  17  18
ENDBRANCH  16  17
ENDBRANCH  15  16
ENDBRANCH  14  15
ENDBRANCH  13  14
ENDBRANCH  12  13
ENDBRANCH  10  12
ENDBRANCH   4  10
BRANCH   3  26
HETATM   26  N1  UNL     1       1.500  -2.980   0.741  1.00  0.00    -0.378 N 
ATOM     27  H1  UNL     1       2.443  -2.593   0.784  1.00  0.00     0.160 HD
BRANCH  26  28
HETATM   28  C9  UNL     1       1.323  -4.364   1.076  1.00  0.00     0.219 C 
BRANCH  28  29
HETATM   29  C10 UNL     1       1.017  -4.620   2.492  1.00  0.00     0.248 C 
HETATM   30  N2  UNL     1       0.813  -5.928   3.015  1.00  0.00    -0.061 NA
HETATM   31  O1  UNL     1       0.927  -3.666   3.287  1.00  0.00    -0.275 OA
ENDBRANCH  28  29
ENDBRANCH  26  28
ENDBRANCH   3  26
BRANCH   7  32
HETATM   32  N7  UNL     1      -1.676   0.908  -1.519  1.00  0.00    -0.226 N 
ATOM     33  H7  UNL     1      -1.081   1.736  -1.496  1.00  0.00     0.177 HD
BRANCH  32  34
HETATM   34  C19 UNL     1      -3.011   1.117  -1.938  1.00  0.00     0.139 C 
BRANCH  34  35
HETATM   35  C20 UNL     1      -3.995   1.077  -0.787  1.00  0.00     0.040 C 
BRANCH  35  36
HETATM   36  C21 UNL     1      -3.746   2.095   0.267  1.00  0.00     0.127 C 
BRANCH  36  37
HETATM   37  N8  UNL     1      -3.781   3.459  -0.138  1.00  0.00    -0.352 N 
HETATM   38  C22 UNL     1      -2.566   4.165  -0.589  1.00  0.00     0.126 C 
HETATM   39  C23 UNL     1      -2.839   5.529   0.067  1.00  0.00     0.029 C 
HETATM   40  C24 UNL     1      -4.287   5.737  -0.397  1.00  0.00     0.104 C 
HETATM   41  C25 UNL     1      -4.856   4.388  -0.198  1.00  0.00     0.219 C 
HETATM   42  O4  UNL     1      -6.071   4.121  -0.102  1.00  0.00    -0.273 OA
ENDBRANCH  36  37
ENDBRANCH  35  36
ENDBRANCH  34  35
ENDBRANCH  32  34
ENDBRANCH   7  32
BRANCH   1  43
HETATM   43  C5  UNL     1      -2.903  -3.405  -0.552  1.00  0.00     0.057 C 
BRANCH  43  44
HETATM   44  C4  UNL     1      -3.959  -3.200   0.484  1.00  0.00     0.006 C 
BRANCH  44  45
HETATM   45  C3  UNL     1      -5.044  -4.223   0.345  1.00  0.00     0.000 C 
BRANCH  45  46
HETATM   46  C2  UNL     1      -5.735  -4.183  -0.985  1.00  0.00    -0.005 C 
HETATM   47  C1  UNL     1      -6.391  -2.881  -1.284  1.00  0.00     0.005 C 
ENDBRANCH  45  46
ENDBRANCH  44  45
ENDBRANCH  43  44
ENDBRANCH   1  43
TORSDOF 22
