REMARK  6 active torsions:
REMARK  status: ('A' for Active; 'I' for Inactive)
REMARK    1  A    between atoms: N1_1  and  C1_4 
REMARK    2  A    between atoms: C2_10  and  N4_11 
REMARK    3  A    between atoms: N4_11  and  N5_13 
REMARK    4  A    between atoms: C3_15  and  C4_16 
REMARK    5  A    between atoms: C4_16  and  C5_17 
REMARK    6  A    between atoms: C5_17  and  N6_18 
ROOT
HETATM    1  N4  UNL     1       1.140  -1.227   0.156  1.00  0.00    -0.282 N 
ATOM      2  H4  UNL     1       1.254  -2.152  -0.258  1.00  0.00     0.188 HD
ENDROOT
BRANCH   1   3
HETATM    3  C2  UNL     1       2.083  -0.320   0.099  1.00  0.00     0.188 A 
HETATM    4  C1  UNL     1       3.306  -0.499  -0.508  1.00  0.00     0.169 A 
HETATM    5  N2  UNL     1       3.978   0.653  -0.349  1.00  0.00    -0.222 N 
HETATM    6  O1  UNL     1       3.220   1.455   0.300  1.00  0.00    -0.153 OA
ATOM      7  H2  UNL     1       4.920   0.853  -0.684  1.00  0.00     0.198 HD
HETATM    8  N3  UNL     1       2.084   0.928   0.591  1.00  0.00    -0.221 N 
ATOM      9  H3  UNL     1       1.323   1.376   1.102  1.00  0.00     0.198 HD
BRANCH   4  10
HETATM   10  N1  UNL     1       3.751  -1.553  -1.119  1.00  0.00    -0.381 N 
ATOM     11  H12 UNL     1       4.657  -1.686  -1.569  1.00  0.00     0.157 HD
ATOM     12  H11 UNL     1       3.241  -2.428  -1.240  1.00  0.00     0.157 HD
ENDBRANCH   4  10
ENDBRANCH   1   3
BRANCH   1  13
HETATM   13  N5  UNL     1      -0.032  -0.852   0.818  1.00  0.00    -0.314 N 
HETATM   14  C3  UNL     1      -0.829  -0.051   0.227  1.00  0.00     0.081 C 
ATOM     15  H5  UNL     1      -0.244  -1.210   1.749  1.00  0.00     0.185 HD
BRANCH  14  16
HETATM   16  C4  UNL     1      -2.080   0.359   0.915  1.00  0.00     0.073 C 
BRANCH  16  17
HETATM   17  C5  UNL     1      -3.287  -0.319   0.272  1.00  0.00     0.235 C 
BRANCH  17  18
HETATM   18  N6  UNL     1      -3.387   0.051  -1.123  1.00  0.00    -0.079 N 
ATOM     19  H63 UNL     1      -3.408   1.063  -1.247  1.00  0.00     0.274 HD
ATOM     20  H62 UNL     1      -2.525  -0.145  -1.631  1.00  0.00     0.274 HD
ATOM     21  H61 UNL     1      -4.194  -0.402  -1.553  1.00  0.00     0.274 HD
ENDBRANCH  17  18
ENDBRANCH  16  17
ENDBRANCH  14  16
ENDBRANCH   1  13
TORSDOF 6
