REMARK  5 active torsions:
REMARK  status: ('A' for Active; 'I' for Inactive)
REMARK    1  A    between atoms: N2_4  and  N3_6 
REMARK    2  A    between atoms: C1_8  and  C2_9 
REMARK    3  A    between atoms: C2_9  and  O1_10 
REMARK    4  A    between atoms: O1_10  and  C3_11 
REMARK    5  A    between atoms: C5_13  and  N4_14 
REMARK       I    between atoms: N4_14  and  C6_16 
ROOT
HETATM    1  C3  UNL     1       0.153  -0.774   0.049  1.00  0.00     0.146 A 
HETATM    2  C4  UNL     1      -0.820  -1.243   1.139  1.00  0.00     0.061 A 
HETATM    3  C5  UNL     1      -1.305  -0.709  -0.163  1.00  0.00     0.115 A 
ENDROOT
BRANCH   1   4
HETATM    4  O1  UNL     1       0.899   0.312   0.423  1.00  0.00    -0.379 OA
BRANCH   4   5
HETATM    5  C2  UNL     1       2.243   0.094   0.124  1.00  0.00     0.214 C 
BRANCH   5   6
HETATM    6  C1  UNL     1       3.064   1.260   0.523  1.00  0.00     0.107 C 
HETATM    7  N3  UNL     1       4.209   1.435  -0.023  1.00  0.00    -0.300 N 
ATOM      8  H3  UNL     1       4.788   2.232   0.239  1.00  0.00     0.187 HD
BRANCH   7   9
HETATM    9  N2  UNL     1       4.655   0.526  -0.978  1.00  0.00    -0.250 N 
HETATM   10  N1  UNL     1       5.549  -0.352  -0.779  1.00  0.00    -0.331 N 
ATOM     11  H12 UNL     1       5.960  -0.380   0.154  1.00  0.00     0.178 HD
ATOM     12  H11 UNL     1       5.876  -1.018  -1.479  1.00  0.00     0.178 HD
ATOM     13  H2  UNL     1       4.232   0.569  -1.905  1.00  0.00     0.207 HD
ENDBRANCH   7   9
ENDBRANCH   5   6
ENDBRANCH   4   5
ENDBRANCH   1   4
BRANCH   3  14
HETATM   14  N4  UNL     1      -2.026   0.530  -0.174  1.00  0.00    -0.358 N 
HETATM   15  C6  UNL     1      -3.418   0.519  -0.381  1.00  0.00     0.182 C 
HETATM   16  N5  UNL     1      -3.952   1.558  -0.960  1.00  0.00    -0.374 N 
HETATM   17  N6  UNL     1      -4.228  -0.575   0.018  1.00  0.00    -0.064 NA
ATOM     18  H52 UNL     1      -3.370   2.345  -1.247  1.00  0.00     0.158 HD
ATOM     19  H51 UNL     1      -4.961   1.550  -1.110  1.00  0.00     0.158 HD
ATOM     20  H4  UNL     1      -1.534   1.412  -0.033  1.00  0.00     0.162 HD
ENDBRANCH   3  14
TORSDOF 5
