REMARK  6 active torsions:
REMARK  status: ('A' for Active; 'I' for Inactive)
REMARK    1  A    between atoms: C2_2  and  C3_3 
REMARK    2  A    between atoms: C3_3  and  C4_4 
REMARK    3  A    between atoms: N1_5  and  C5_7 
REMARK    4  A    between atoms: C6_8  and  N2_9 
REMARK    5  A    between atoms: N3_14  and  C8_15 
REMARK    6  A    between atoms: C8_15  and  C9_16 
ROOT
HETATM    1  C5  UNL     1       0.555  -0.740   0.770  1.00  0.00     0.354 C 
HETATM    2  C6  UNL     1       1.348  -1.792   0.016  1.00  0.00     0.264 C 
HETATM    3  C7  UNL     1       1.576  -0.656  -0.970  1.00  0.00     0.312 C 
HETATM    4  N3  UNL     1       1.339   0.264   0.097  1.00  0.00     0.120 N 
ENDROOT
BRANCH   1   5
HETATM    5  N1  UNL     1      -0.820  -0.809   0.426  1.00  0.00    -0.371 N 
HETATM    6  C4  UNL     1      -1.519   0.174   0.026  1.00  0.00     0.061 C 
ATOM      7  H1  UNL     1      -1.282  -1.715   0.506  1.00  0.00     0.160 HD
BRANCH   6   8
HETATM    8  C3  UNL     1      -2.949   0.009  -0.311  1.00  0.00     0.070 C 
BRANCH   8   9
HETATM    9  C2  UNL     1      -3.826   0.989   0.373  1.00  0.00    -0.032 C 
HETATM   10  C1  UNL     1      -4.560   1.812  -0.343  1.00  0.00     0.007 C 
ENDBRANCH   8   9
ENDBRANCH   6   8
ENDBRANCH   1   5
BRANCH   2  11
HETATM   11  N2  UNL     1       0.508  -2.793  -0.594  1.00  0.00    -0.070 N 
ATOM     12  H23 UNL     1      -0.107  -3.224   0.096  1.00  0.00     0.274 HD
ATOM     13  H22 UNL     1      -0.194  -2.363  -1.196  1.00  0.00     0.274 HD
ATOM     14  H21 UNL     1       1.041  -3.500  -1.101  1.00  0.00     0.274 HD
ENDBRANCH   2  11
BRANCH   4  15
HETATM   15  C8  UNL     1       2.523   0.629   0.860  1.00  0.00     0.319 C 
BRANCH  15  16
HETATM   16  C9  UNL     1       3.328   1.657   0.175  1.00  0.00     0.083 C 
HETATM   17  N4  UNL     1       4.040   2.526   0.803  1.00  0.00    -0.410 N 
ATOM     18  H42 UNL     1       4.036   2.488   1.822  1.00  0.00     0.155 HD
ATOM     19  H41 UNL     1       4.597   3.237   0.329  1.00  0.00     0.155 HD
ENDBRANCH  15  16
ENDBRANCH   4  15
TORSDOF 6
