REMARK  6 active torsions:
REMARK  status: ('A' for Active; 'I' for Inactive)
REMARK    1  A    between atoms: N1_1  and  S1_4 
REMARK    2  A    between atoms: S1_4  and  C1_7 
REMARK    3  A    between atoms: C5_11  and  N2_12 
REMARK    4  A    between atoms: N3_14  and  C6_16 
REMARK    5  A    between atoms: C8_23  and  N6_24 
REMARK    6  A    between atoms: N6_24  and  O4_26 
ROOT
HETATM    1  C6  UNL     1       1.859  -0.306   0.496  1.00  0.00     0.194 C 
HETATM    2  N4  UNL     1       2.688   0.663   0.964  1.00  0.00    -0.288 N 
ATOM      3  H4  UNL     1       2.322   1.293   1.678  1.00  0.00     0.172 HD
HETATM    4  C7  UNL     1       3.967   0.856   0.552  1.00  0.00     0.340 C 
HETATM    5  O3  UNL     1       4.470   1.991   0.703  1.00  0.00    -0.246 OA
HETATM    6  N5  UNL     1       4.808  -0.031  -0.019  1.00  0.00    -0.139 N 
ATOM      7  H5  UNL     1       5.680   0.348  -0.387  1.00  0.00     0.189 HD
HETATM    8  C8  UNL     1       4.630  -1.356  -0.159  1.00  0.00     0.708 C 
HETATM    9  N7  UNL     1       3.469  -2.026  -0.198  1.00  0.00    -0.151 N 
ATOM     10  H7  UNL     1       3.532  -3.001  -0.491  1.00  0.00     0.188 HD
HETATM   11  C9  UNL     1       2.232  -1.585   0.098  1.00  0.00     0.305 C 
HETATM   12  O5  UNL     1       1.297  -2.421   0.007  1.00  0.00    -0.263 OA
ENDROOT
BRANCH   1  13
HETATM   13  N3  UNL     1       0.485  -0.038   0.385  1.00  0.00    -0.280 N 
HETATM   14  N2  UNL     1       0.009   1.121   0.173  1.00  0.00    -0.299 N 
ATOM     15  H2  UNL     1       0.648   1.910   0.076  1.00  0.00     0.187 HD
ATOM     16  H3  UNL     1      -0.167  -0.817   0.480  1.00  0.00     0.188 HD
BRANCH  14  17
HETATM   17  C5  UNL     1      -1.391   1.346   0.067  1.00  0.00     0.049 A 
HETATM   18  C4  UNL     1      -1.877   2.619  -0.140  1.00  0.00     0.031 A 
HETATM   19  C3  UNL     1      -3.230   2.873  -0.248  1.00  0.00     0.004 A 
HETATM   20  C2  UNL     1      -4.158   1.838  -0.149  1.00  0.00     0.025 A 
HETATM   21  C1  UNL     1      -3.676   0.561   0.059  1.00  0.00     0.081 A 
HETATM   22  C10 UNL     1      -2.321   0.328   0.164  1.00  0.00     0.056 A 
BRANCH  21  23
HETATM   23  S1  UNL     1      -4.837  -0.742   0.184  1.00  0.00     0.256 S 
HETATM   24  O1  UNL     1      -6.154  -0.172   0.672  1.00  0.00    -0.201 OA
HETATM   25  O2  UNL     1      -4.413  -1.796   1.145  1.00  0.00    -0.201 OA
BRANCH  23  26
HETATM   26  N1  UNL     1      -5.122  -1.391  -1.403  1.00  0.00    -0.324 N 
ATOM     27  H12 UNL     1      -6.013  -1.382  -1.899  1.00  0.00     0.169 HD
ATOM     28  H11 UNL     1      -4.236  -1.775  -1.731  1.00  0.00     0.169 HD
ENDBRANCH  23  26
ENDBRANCH  21  23
ENDBRANCH  14  17
ENDBRANCH   1  13
BRANCH   8  29
HETATM   29  N6  UNL     1       5.695  -2.097  -0.273  1.00  0.00    -0.098 N 
ATOM     30  H6  UNL     1       5.592  -3.106  -0.381  1.00  0.00     0.213 HD
BRANCH  29  31
HETATM   31  O4  UNL     1       6.947  -1.552  -0.251  1.00  0.00    -0.276 OA
ATOM     32  H4  UNL     1       7.724  -2.092  -0.334  1.00  0.00     0.245 HD
ENDBRANCH  29  31
ENDBRANCH   8  29
TORSDOF 6
