REMARK  1 active torsions:
REMARK  status: ('A' for Active; 'I' for Inactive)
REMARK    1  A    between atoms: C4_10  and  S1_11 
ROOT
HETATM    1  S1  UNL     1       1.747   0.304  -1.185  1.00  0.00    -0.035 SA
HETATM    2  C5  UNL     1       2.869   0.109   0.168  1.00  0.00     0.134 C 
HETATM    3  N3  UNL     1       3.613  -0.037   1.044  1.00  0.00    -0.184 NA
ENDROOT
BRANCH   1   4
HETATM    4  C4  UNL     1       0.070   0.374  -0.558  1.00  0.00     0.162 C 
HETATM    5  C2  UNL     1      -0.395  -0.915   0.057  1.00  0.00     0.170 C 
HETATM    6  C1  UNL     1      -1.309  -1.633  -0.916  1.00  0.00     0.044 C 
HETATM    7  O1  UNL     1      -1.049  -0.567   1.237  1.00  0.00    -0.272 OA
HETATM    8  N1  UNL     1      -0.561   0.635   1.632  1.00  0.00    -0.253 N 
HETATM    9  C3  UNL     1      -0.124   1.373   0.504  1.00  0.00     0.112 C 
ATOM     10  H1  UNL     1      -0.515   0.960   2.598  1.00  0.00     0.195 HD
HETATM   11  N2  UNL     1       0.065   2.643   0.408  1.00  0.00    -0.386 N 
ATOM     12  H22 UNL     1      -0.070   3.336   1.144  1.00  0.00     0.157 HD
ATOM     13  H21 UNL     1       0.380   3.174  -0.404  1.00  0.00     0.157 HD
ENDBRANCH   1   4
TORSDOF 1
