REMARK  1 active torsions:
REMARK  status: ('A' for Active; 'I' for Inactive)
REMARK    1  A    between atoms: C2_2  and  N1_4 
ROOT
HETATM    1  N1  UNL     1      -0.498  -0.189  -0.388  1.00  0.00    -0.321 N 
HETATM    2  C4  UNL     1       0.314  -1.392  -0.566  1.00  0.00     0.144 C 
HETATM    3  C5  UNL     1       1.412  -1.405   0.467  1.00  0.00     0.041 C 
HETATM    4  C6  UNL     1       2.625  -0.643   0.047  1.00  0.00     0.124 C 
HETATM    5  N2  UNL     1       2.417   0.761  -0.101  1.00  0.00    -0.363 N 
ATOM      6  H2  UNL     1       3.236   1.304  -0.375  1.00  0.00     0.162 HD
HETATM    7  C7  UNL     1       1.214   1.504   0.084  1.00  0.00     0.202 C 
HETATM    8  N3  UNL     1       1.377   2.866   0.450  1.00  0.00    -0.062 NA
HETATM    9  N4  UNL     1       0.016   1.063  -0.047  1.00  0.00    -0.276 N 
ATOM     10  H4  UNL     1      -0.701   1.765   0.134  1.00  0.00     0.189 HD
ENDROOT
BRANCH   1  11
HETATM   11  C2  UNL     1      -1.925  -0.305  -0.579  1.00  0.00     0.094 C 
HETATM   12  C1  UNL     1      -2.530   1.062  -0.341  1.00  0.00     0.033 C 
HETATM   13  C3  UNL     1      -2.445  -1.287   0.452  1.00  0.00     0.033 C 
ENDBRANCH   1  11
TORSDOF 1
