REMARK  10 active torsions:
REMARK  status: ('A' for Active; 'I' for Inactive)
REMARK    1  A    between atoms: C2_2  and  C3_3 
REMARK    2  A    between atoms: C3_3  and  C4_4 
REMARK    3  A    between atoms: C5_5  and  C6_6 
REMARK    4  A    between atoms: C6_6  and  C7_7 
REMARK    5  A    between atoms: C7_7  and  C8_8 
REMARK    6  A    between atoms: C10_13  and  C11_14 
REMARK    7  A    between atoms: C11_14  and  C12_15 
REMARK    8  A    between atoms: C12_15  and  C13_16 
REMARK    9  A    between atoms: C13_16  and  C14_17 
REMARK   10  A    between atoms: N3_22  and  O1_23 
ROOT
HETATM    1  C4  UNL     1      -3.015   0.244  -0.443  1.00  0.00     0.040 A 
HETATM    2  C5  UNL     1      -2.417  -0.635   0.430  1.00  0.00     0.067 A 
HETATM    3  N3  UNL     1      -2.992  -0.951   1.640  1.00  0.00    -0.224 N 
HETATM    4  C17 UNL     1      -4.142  -0.416   2.006  1.00  0.00     0.095 A 
HETATM    5  C18 UNL     1      -4.676  -0.770   3.244  1.00  0.00    -0.030 A 
HETATM    6  C19 UNL     1      -4.021  -1.720   4.170  1.00  0.00     0.050 C 
HETATM    7  C20 UNL     1      -5.886  -0.166   3.563  1.00  0.00     0.009 A 
HETATM    8  C21 UNL     1      -6.529   0.720   2.733  1.00  0.00     0.003 A 
HETATM    9  C22 UNL     1      -5.957   1.036   1.519  1.00  0.00     0.032 A 
HETATM   10  C23 UNL     1      -4.749   0.466   1.143  1.00  0.00     0.064 A 
HETATM   11  N4  UNL     1      -4.184   0.787  -0.069  1.00  0.00    -0.351 N 
HETATM   12  C24 UNL     1      -4.926   1.708  -0.861  1.00  0.00     0.156 C 
ENDROOT
BRANCH   2  13
HETATM   13  C6  UNL     1      -1.096  -1.218   0.087  1.00  0.00     0.092 C 
BRANCH  13  14
HETATM   14  C7  UNL     1      -0.008  -0.240   0.402  1.00  0.00     0.028 C 
BRANCH  14  15
HETATM   15  C8  UNL     1       1.184  -0.307  -0.163  1.00  0.00     0.103 A 
HETATM   16  N1  UNL     1       1.549  -1.235  -1.061  1.00  0.00    -0.332 N 
HETATM   17  C9  UNL     1       2.838  -1.012  -1.452  1.00  0.00     0.128 A 
ATOM     18  H1  UNL     1       0.954  -1.991  -1.400  1.00  0.00     0.168 HD
HETATM   19  S1  UNL     1       3.662  -1.909  -2.525  1.00  0.00    -0.058 SA
HETATM   20  C10 UNL     1       3.288   0.089  -0.776  1.00  0.00     0.068 A 
HETATM   21  N2  UNL     1       2.242   0.487   0.002  1.00  0.00    -0.340 N 
ATOM     22  H2  UNL     1       2.266   1.290   0.630  1.00  0.00     0.167 HD
BRANCH  20  23
HETATM   23  C11 UNL     1       4.450   0.709  -0.817  1.00  0.00     0.006 C 
BRANCH  23  24
HETATM   24  C12 UNL     1       5.522   0.233  -1.699  1.00  0.00     0.030 C 
BRANCH  24  25
HETATM   25  C13 UNL     1       6.750   1.132  -1.619  1.00  0.00     0.008 C 
BRANCH  25  26
HETATM   26  C14 UNL     1       7.322   1.174  -0.217  1.00  0.00    -0.014 A 
HETATM   27  C15 UNL     1       7.796  -0.087   0.420  1.00  0.00     0.005 A 
HETATM   28  C16 UNL     1       8.825   0.868  -0.135  1.00  0.00     0.005 A 
ENDBRANCH  25  26
ENDBRANCH  24  25
ENDBRANCH  23  24
ENDBRANCH  20  23
ENDBRANCH  14  15
ENDBRANCH  13  14
ENDBRANCH   2  13
BRANCH   1  29
HETATM   29  C3  UNL     1      -2.451   0.563  -1.780  1.00  0.00     0.085 C 
BRANCH  29  30
HETATM   30  C2  UNL     1      -2.776  -0.442  -2.817  1.00  0.00    -0.031 C 
HETATM   31  C1  UNL     1      -3.422  -0.072  -3.904  1.00  0.00     0.007 C 
ENDBRANCH  29  30
ENDBRANCH   1  29
BRANCH   3  32
HETATM   32  O1  UNL     1      -2.309  -1.826   2.409  1.00  0.00    -0.282 OA
ATOM     33  H1  UNL     1      -2.706  -2.044   3.244  1.00  0.00     0.245 HD
ENDBRANCH   3  32
TORSDOF 10
