REMARK  6 active torsions:
REMARK  status: ('A' for Active; 'I' for Inactive)
REMARK    1  A    between atoms: C6_7  and  N1_8 
REMARK    2  A    between atoms: N2_11  and  C9_12 
REMARK    3  A    between atoms: C9_12  and  C10_13 
REMARK    4  A    between atoms: C10_13  and  C11_14 
REMARK    5  A    between atoms: C14_17  and  N3_18 
REMARK       I    between atoms: N3_18  and  C15_20 
REMARK    6  A    between atoms: C15_20  and  C16_22 
ROOT
HETATM    1  C11 UNL     1      -0.665   0.706   1.066  1.00  0.00    -0.010 C 
HETATM    2  C12 UNL     1       0.403   0.410   2.137  1.00  0.00     0.007 C 
HETATM    3  C13 UNL     1       1.684  -0.054   1.540  1.00  0.00     0.025 C 
HETATM    4  C14 UNL     1       2.289   0.986   0.592  1.00  0.00     0.084 C 
HETATM    5  C23 UNL     1       1.240   1.334  -0.426  1.00  0.00     0.025 C 
HETATM    6  C24 UNL     1      -0.071   1.769   0.201  1.00  0.00     0.007 C 
ENDROOT
BRANCH   1   7
HETATM    7  C10 UNL     1      -1.066  -0.523   0.364  1.00  0.00     0.049 C 
BRANCH   7   8
HETATM    8  C9  UNL     1      -2.075  -0.491  -0.706  1.00  0.00     0.058 C 
BRANCH   8   9
HETATM    9  N2  UNL     1      -3.383  -0.084  -0.501  1.00  0.00    -0.390 N 
HETATM   10  C8  UNL     1      -3.656   1.272  -0.295  1.00  0.00     0.141 C 
HETATM   11  C7  UNL     1      -5.166   1.571  -0.496  1.00  0.00     0.143 C 
HETATM   12  N1  UNL     1      -5.911   0.664   0.338  1.00  0.00    -0.376 N 
HETATM   13  C26 UNL     1      -5.103  -0.178   1.241  1.00  0.00     0.143 C 
HETATM   14  C25 UNL     1      -4.200  -0.982   0.298  1.00  0.00     0.141 C 
BRANCH  12  15
HETATM   15  C6  UNL     1      -7.309   0.570   0.299  1.00  0.00     0.052 A 
HETATM   16  C5  UNL     1      -8.106   1.621   0.679  1.00  0.00     0.060 A 
HETATM   17  C4  UNL     1      -9.487   1.506   0.637  1.00  0.00     0.026 A 
HETATM   18 CL1  UNL     1      -7.449   3.162   1.255  1.00  0.00    -0.082 Cl
HETATM   19  C3  UNL     1     -10.083   0.360   0.223  1.00  0.00     0.008 A 
HETATM   20  C2  UNL     1      -9.310  -0.722  -0.167  1.00  0.00    -0.060 A 
HETATM   21  C1  UNL     1      -9.975  -1.971  -0.615  1.00  0.00     0.048 C 
HETATM   22  C27 UNL     1      -7.946  -0.603  -0.125  1.00  0.00     0.037 A 
ENDBRANCH  12  15
ENDBRANCH   8   9
ENDBRANCH   7   8
ENDBRANCH   1   7
BRANCH   4  23
HETATM   23  N3  UNL     1       3.387   0.294  -0.060  1.00  0.00    -0.355 N 
HETATM   24  C15 UNL     1       4.735   0.715   0.049  1.00  0.00     0.248 C 
HETATM   25  O1  UNL     1       5.072   1.722   0.720  1.00  0.00    -0.271 OA
ATOM     26  H3  UNL     1       3.178  -0.532  -0.621  1.00  0.00     0.162 HD
BRANCH  24  27
HETATM   27  C16 UNL     1       5.797  -0.053  -0.649  1.00  0.00     0.280 C 
HETATM   28  C17 UNL     1       6.256  -1.288   0.142  1.00  0.00     0.082 C 
HETATM   29  C18 UNL     1       7.614  -0.850  -0.288  1.00  0.00     0.133 C 
HETATM   30  C19 UNL     1       8.640  -1.063   0.791  1.00  0.00     0.065 C 
HETATM   31  C22 UNL     1       8.108  -1.435  -1.591  1.00  0.00     0.065 C 
HETATM   32  N4  UNL     1       7.127   0.488  -0.446  1.00  0.00    -0.053 N 
HETATM   33  C20 UNL     1      10.035  -0.715   0.323  1.00  0.00     0.170 C 
HETATM   34  O2  UNL     1      10.335  -1.265  -0.905  1.00  0.00    -0.391 OA
HETATM   35  C21 UNL     1       9.459  -0.817  -1.875  1.00  0.00     0.170 C 
ATOM     36  H42 UNL     1       7.543   1.113  -1.137  1.00  0.00     0.279 HD
ATOM     37  H41 UNL     1       7.297   1.190   0.275  1.00  0.00     0.279 HD
ENDBRANCH  24  27
ENDBRANCH   4  23
TORSDOF 6
