REMARK  13 active torsions:
REMARK  status: ('A' for Active; 'I' for Inactive)
REMARK    1  A    between atoms: C2_2  and  N1_3 
REMARK       I    between atoms: N1_3  and  C3_5 
REMARK    2  A    between atoms: C3_5  and  C4_7 
REMARK    3  A    between atoms: C4_7  and  N2_8 
REMARK    4  A    between atoms: N2_8  and  C5_9 
REMARK    5  A    between atoms: N2_8  and  C22_38 
REMARK    6  A    between atoms: C5_9  and  O2_10 
REMARK    7  A    between atoms: C5_9  and  C6_12 
REMARK    8  A    between atoms: C6_12  and  C7_13 
REMARK    9  A    between atoms: C6_12  and  N3_16 
REMARK   10  A    between atoms: C7_13  and  O3_14 
REMARK   11  A    between atoms: N3_16  and  C8_17 
REMARK       I    between atoms: N3_16  and  C14_26 
REMARK   12  A    between atoms: C8_17  and  C9_18 
REMARK   13  A    between atoms: C14_26  and  C15_28 
ROOT
HETATM    1  N3  UNL     1      -1.767   0.771  -0.865  1.00  0.00    -0.308 N 
HETATM    2  C14 UNL     1      -2.969   0.092  -0.572  1.00  0.00     0.264 C 
HETATM    3  O5  UNL     1      -4.089   0.667  -0.774  1.00  0.00    -0.267 OA
ENDROOT
BRANCH   1   4
HETATM    4  C6  UNL     1      -0.527  -0.135  -0.724  1.00  0.00     0.190 C 
BRANCH   4   5
HETATM    5  C5  UNL     1       0.282   0.303   0.406  1.00  0.00     0.145 C 
BRANCH   5   6
HETATM    6  N2  UNL     1       1.537  -0.090   0.885  1.00  0.00    -0.315 N 
BRANCH   6   7
HETATM    7  C4  UNL     1       2.459  -1.047   0.378  1.00  0.00     0.234 C 
BRANCH   7   8
HETATM    8  C3  UNL     1       3.487  -0.496  -0.559  1.00  0.00     0.235 C 
HETATM    9  N1  UNL     1       4.458  -1.339  -1.109  1.00  0.00    -0.360 N 
ATOM     10  H1  UNL     1       4.438  -2.327  -0.855  1.00  0.00     0.162 HD
HETATM   11  O1  UNL     1       3.489   0.723  -0.858  1.00  0.00    -0.272 OA
BRANCH   9  12
HETATM   12  C2  UNL     1       5.485  -0.889  -2.015  1.00  0.00     0.118 C 
HETATM   13  C1  UNL     1       6.382  -2.034  -2.445  1.00  0.00     0.026 C 
ENDBRANCH   9  12
ENDBRANCH   7   8
ENDBRANCH   6   7
BRANCH   6  14
HETATM   14  C22 UNL     1       1.992   0.619   2.085  1.00  0.00     0.078 A 
HETATM   15  C23 UNL     1       2.747   0.174   3.127  1.00  0.00     0.044 A 
HETATM   16  C24 UNL     1       3.031   1.064   4.101  1.00  0.00    -0.053 A 
HETATM   17  C25 UNL     1       3.877   0.667   5.300  1.00  0.00     0.049 C 
HETATM   18  C26 UNL     1       2.541   2.330   3.962  1.00  0.00     0.058 A 
HETATM   19  S1  UNL     1       1.697   2.250   2.480  1.00  0.00    -0.084 SA
ENDBRANCH   6  14
ENDBRANCH   5   6
BRANCH   5  20
HETATM   20  O2  UNL     1      -0.251   1.248   1.129  1.00  0.00    -0.348 OA
ATOM     21  H2  UNL     1      -1.103   1.515   0.804  1.00  0.00     0.219 HD
ENDBRANCH   5  20
ENDBRANCH   4   5
BRANCH   4  22
HETATM   22  C7  UNL     1       0.157  -0.189  -2.009  1.00  0.00     0.198 C 
BRANCH  22  23
HETATM   23  O3  UNL     1      -0.690  -0.559  -3.034  1.00  0.00    -0.398 OA
ATOM     24  H3  UNL     1      -0.244  -0.594  -3.872  1.00  0.00     0.209 HD
ENDBRANCH  22  23
ENDBRANCH   4  22
ENDBRANCH   1   4
BRANCH   1  25
HETATM   25  C8  UNL     1      -1.470   2.149  -0.943  1.00  0.00     0.111 C 
BRANCH  25  26
HETATM   26  C9  UNL     1      -1.858   3.064  -2.020  1.00  0.00     0.035 A 
HETATM   27  C10 UNL     1      -1.152   3.551  -3.088  1.00  0.00     0.043 A 
HETATM   28  C11 UNL     1       0.166   3.139  -3.671  1.00  0.00     0.071 C 
HETATM   29  N4  UNL     1      -1.875   4.592  -3.598  1.00  0.00    -0.265 N 
HETATM   30  O4  UNL     1      -2.921   4.756  -2.935  1.00  0.00    -0.242 OA
ATOM     31  H4  UNL     1      -1.600   5.154  -4.404  1.00  0.00     0.194 HD
HETATM   32  C12 UNL     1      -3.012   3.875  -1.939  1.00  0.00     0.086 A 
HETATM   33  C13 UNL     1      -4.165   3.902  -0.996  1.00  0.00     0.080 C 
ENDBRANCH  25  26
ENDBRANCH   1  25
BRANCH   2  34
HETATM   34  C15 UNL     1      -3.192  -1.239  -0.038  1.00  0.00     0.106 A 
HETATM   35  C16 UNL     1      -3.344  -1.428   1.338  1.00  0.00    -0.039 A 
HETATM   36  C17 UNL     1      -3.305  -0.326   2.325  1.00  0.00     0.049 C 
HETATM   37  C18 UNL     1      -3.612  -2.684   1.849  1.00  0.00     0.032 A 
HETATM   38  C19 UNL     1      -3.739  -3.772   1.041  1.00  0.00     0.009 A 
HETATM   39  C20 UNL     1      -4.062  -5.101   1.644  1.00  0.00     0.068 C 
HETATM   40  N5  UNL     1      -3.593  -3.607  -0.303  1.00  0.00    -0.327 N 
HETATM   41  C21 UNL     1      -3.325  -2.368  -0.805  1.00  0.00     0.262 A 
ATOM     42  H5  UNL     1      -3.684  -4.406  -0.931  1.00  0.00     0.169 HD
HETATM   43  O6  UNL     1      -3.212  -2.353  -2.068  1.00  0.00    -0.267 OA
ENDBRANCH   2  34
TORSDOF 13
