REMARK  13 active torsions:
REMARK  status: ('A' for Active; 'I' for Inactive)
REMARK       I    between atoms: C2_2  and  N1_4 
REMARK    1  A    between atoms: N1_4  and  C3_6 
REMARK    2  A    between atoms: C6_10  and  C7_11 
REMARK    3  A    between atoms: C7_11  and  C8_12 
REMARK    4  A    between atoms: C8_12  and  C9_13 
REMARK    5  A    between atoms: C9_13  and  C10_14 
REMARK    6  A    between atoms: C10_14  and  C11_15 
REMARK    7  A    between atoms: C12_20  and  N4_21 
REMARK    8  A    between atoms: N4_21  and  C13_23 
REMARK    9  A    between atoms: C13_23  and  C15_25 
REMARK   10  A    between atoms: C18_30  and  N6_31 
REMARK       I    between atoms: N6_31  and  C20_33 
REMARK       I    between atoms: C20_33  and  N7_35 
REMARK   11  A    between atoms: N7_35  and  C21_37 
REMARK   12  A    between atoms: C21_37  and  C22_38 
REMARK   13  A    between atoms: C22_38  and  N8_39 
ROOT
HETATM    1  C11 UNL     1      -3.143  -1.842  -0.736  1.00  0.00     0.112 A 
HETATM    2  N2  UNL     1      -2.691  -1.108  -1.789  1.00  0.00    -0.274 N 
ATOM      3  H2  UNL     1      -3.278  -0.739  -2.537  1.00  0.00     0.189 HD
HETATM    4  N3  UNL     1      -1.380  -0.942  -1.704  1.00  0.00    -0.131 N 
ATOM      5  H3  UNL     1      -0.781  -0.436  -2.356  1.00  0.00     0.205 HD
HETATM    6  C12 UNL     1      -1.002  -1.573  -0.590  1.00  0.00     0.694 A 
HETATM    7  N9  UNL     1      -2.071  -2.126   0.006  1.00  0.00    -0.178 N 
ATOM      8  H9  UNL     1      -2.065  -2.666   0.871  1.00  0.00     0.185 HD
ENDROOT
BRANCH   6   9
HETATM    9  N4  UNL     1       0.206  -1.625  -0.147  1.00  0.00    -0.216 N 
ATOM     10  H4  UNL     1       0.350  -2.146   0.718  1.00  0.00     0.178 HD
BRANCH   9  11
HETATM   11  C13 UNL     1       1.365  -1.035  -0.732  1.00  0.00     0.128 C 
HETATM   12  C14 UNL     1       1.199   0.468  -0.936  1.00  0.00     0.038 C 
BRANCH  11  13
HETATM   13  C15 UNL     1       2.502  -1.272   0.237  1.00  0.00    -0.030 A 
HETATM   14  C16 UNL     1       2.383  -0.967   1.573  1.00  0.00     0.026 A 
HETATM   15  C17 UNL     1       3.465  -1.208   2.402  1.00  0.00     0.090 A 
HETATM   16  N5  UNL     1       4.622  -1.729   1.951  1.00  0.00    -0.352 N 
HETATM   17  C18 UNL     1       4.772  -2.044   0.628  1.00  0.00     0.111 A 
ATOM     18  H5  UNL     1       5.392  -1.890   2.600  1.00  0.00     0.166 HD
HETATM   19  C25 UNL     1       3.699  -1.802  -0.186  1.00  0.00     0.058 A 
BRANCH  17  20
HETATM   20  N6  UNL     1       6.003  -2.616   0.197  1.00  0.00    -0.290 N 
HETATM   21  C19 UNL     1       5.950  -4.060  -0.064  1.00  0.00     0.163 C 
HETATM   22  C20 UNL     1       7.196  -1.878   0.022  1.00  0.00     0.323 C 
HETATM   23  O3  UNL     1       8.244  -2.458  -0.326  1.00  0.00    -0.247 OA
HETATM   24  N7  UNL     1       7.191  -0.484   0.244  1.00  0.00    -0.341 N 
ATOM     25  H7  UNL     1       6.331  -0.015   0.530  1.00  0.00     0.164 HD
BRANCH  24  26
HETATM   26  C21 UNL     1       8.415   0.284   0.064  1.00  0.00     0.143 C 
BRANCH  26  27
HETATM   27  C22 UNL     1       8.184   1.748   0.320  1.00  0.00     0.135 C 
BRANCH  27  28
HETATM   28  N8  UNL     1       9.390   2.478   0.155  1.00  0.00    -0.419 N 
HETATM   29  C23 UNL     1       9.308   3.893   0.284  1.00  0.00     0.142 C 
HETATM   30  C24 UNL     1      10.215   1.983  -0.889  1.00  0.00     0.142 C 
ENDBRANCH  27  28
ENDBRANCH  26  27
ENDBRANCH  24  26
ENDBRANCH  17  20
ENDBRANCH  11  13
ENDBRANCH   9  11
ENDBRANCH   6   9
BRANCH   1  31
HETATM   31  C10 UNL     1      -4.563  -2.205  -0.499  1.00  0.00     0.078 C 
BRANCH  31  32
HETATM   32  C9  UNL     1      -5.264  -1.185   0.391  1.00  0.00     0.008 C 
BRANCH  32  33
HETATM   33  C8  UNL     1      -5.174   0.165  -0.220  1.00  0.00     0.006 C 
BRANCH  33  34
HETATM   34  C7  UNL     1      -5.828   1.276   0.520  1.00  0.00     0.049 C 
BRANCH  34  35
HETATM   35  C6  UNL     1      -7.315   1.123   0.667  1.00  0.00     0.016 A 
HETATM   36  C4  UNL     1      -8.265   1.349  -0.321  1.00  0.00     0.065 A 
HETATM   37  O2  UNL     1      -9.470   1.185  -0.008  1.00  0.00    -0.291 OA
HETATM   38  C5  UNL     1      -7.814   1.779  -1.714  1.00  0.00     0.078 C 
HETATM   39  C3  UNL     1      -9.818   0.823   1.176  1.00  0.00     0.194 A 
HETATM   40  S1  UNL     1      -8.316   0.684   1.976  1.00  0.00    -0.048 SA
BRANCH  39  41
HETATM   41  N1  UNL     1     -11.035   0.615   1.643  1.00  0.00    -0.302 N 
HETATM   42  C2  UNL     1     -12.103   0.809   0.750  1.00  0.00     0.220 C 
HETATM   43  C1  UNL     1     -12.193   1.974  -0.165  1.00  0.00     0.117 C 
HETATM   44  O1  UNL     1     -13.031  -0.052   0.727  1.00  0.00    -0.274 OA
ATOM     45  H1  UNL     1     -11.193   0.326   2.608  1.00  0.00     0.171 HD
ENDBRANCH  39  41
ENDBRANCH  34  35
ENDBRANCH  33  34
ENDBRANCH  32  33
ENDBRANCH  31  32
ENDBRANCH   1  31
TORSDOF 13
