REMARK  14 active torsions:
REMARK  status: ('A' for Active; 'I' for Inactive)
REMARK    1  A    between atoms: C3_3  and  C4_4 
REMARK    2  A    between atoms: C4_4  and  N1_5 
REMARK    3  A    between atoms: C4_4  and  C16_23 
REMARK       I    between atoms: N1_5  and  C5_7 
REMARK    4  A    between atoms: C5_7  and  C6_9 
REMARK    5  A    between atoms: C6_9  and  N2_10 
REMARK    6  A    between atoms: C6_9  and  C12_19 
REMARK       I    between atoms: N2_10  and  C7_12 
REMARK    7  A    between atoms: C7_12  and  O3_14 
REMARK    8  A    between atoms: O3_14  and  C8_15 
REMARK       I    between atoms: C16_23  and  N3_25 
REMARK    9  A    between atoms: N3_25  and  C18_27 
REMARK   10  A    between atoms: C18_27  and  C19_28 
REMARK       I    between atoms: C19_28  and  N4_30 
REMARK   11  A    between atoms: N4_30  and  C20_32 
REMARK   12  A    between atoms: C20_32  and  C21_33 
REMARK   13  A    between atoms: C20_32  and  C23_35 
REMARK   14  A    between atoms: C23_35  and  C24_37 
ROOT
HETATM    1  C1  UNL     1      -2.216  -0.339   4.013  1.00  0.00     0.012 C 
HETATM    2  C2  UNL     1      -1.436  -1.182   3.649  1.00  0.00    -0.115 C 
HETATM    3  C3  UNL     1      -0.509  -2.215   3.216  1.00  0.00     0.128 C 
ENDROOT
BRANCH   3   4
HETATM    4  C4  UNL     1      -0.093  -2.045   1.748  1.00  0.00     0.188 C 
BRANCH   4   5
HETATM    5  N1  UNL     1      -1.305  -2.127   0.934  1.00  0.00    -0.345 N 
HETATM    6  C5  UNL     1      -1.776  -1.003   0.239  1.00  0.00     0.242 C 
HETATM    7  O1  UNL     1      -1.080   0.068   0.384  1.00  0.00    -0.271 OA
ATOM      8  H1  UNL     1      -1.813  -3.009   0.871  1.00  0.00     0.163 HD
BRANCH   6   9
HETATM    9  C6  UNL     1      -2.970  -0.951  -0.618  1.00  0.00     0.186 C 
BRANCH   9  10
HETATM   10  N2  UNL     1      -3.135   0.433  -1.059  1.00  0.00    -0.323 N 
HETATM   11  C7  UNL     1      -4.271   1.201  -0.850  1.00  0.00     0.362 C 
HETATM   12  O2  UNL     1      -5.260   0.732  -0.248  1.00  0.00    -0.238 OA
ATOM     13  H2  UNL     1      -2.357   0.866  -1.557  1.00  0.00     0.165 HD
BRANCH  11  14
HETATM   14  O3  UNL     1      -4.341   2.502  -1.300  1.00  0.00    -0.294 OA
BRANCH  14  15
HETATM   15  C8  UNL     1      -5.498   3.283  -1.090  1.00  0.00     0.061 C 
HETATM   16  C9  UNL     1      -6.722   2.675  -1.734  1.00  0.00     0.046 C 
HETATM   17  C10 UNL     1      -5.776   3.533   0.377  1.00  0.00     0.046 C 
HETATM   18  C11 UNL     1      -5.268   4.633  -1.734  1.00  0.00     0.046 C 
ENDBRANCH  14  15
ENDBRANCH  11  14
ENDBRANCH   9  10
BRANCH   9  19
HETATM   19  C12 UNL     1      -2.849  -1.810  -1.852  1.00  0.00    -0.022 C 
HETATM   20  C13 UNL     1      -1.648  -1.312  -2.651  1.00  0.00     0.017 C 
HETATM   21  C14 UNL     1      -2.682  -3.266  -1.612  1.00  0.00     0.017 C 
HETATM   22  C15 UNL     1      -4.116  -1.658  -2.698  1.00  0.00     0.017 C 
ENDBRANCH   9  19
ENDBRANCH   6   9
ENDBRANCH   4   5
BRANCH   4  23
HETATM   23  C16 UNL     1       0.825  -3.159   1.464  1.00  0.00     0.243 C 
HETATM   24  O4  UNL     1       0.306  -4.152   0.844  1.00  0.00    -0.271 OA
HETATM   25  N3  UNL     1       2.163  -3.211   1.806  1.00  0.00    -0.346 N 
HETATM   26  C17 UNL     1       2.914  -4.455   1.528  1.00  0.00     0.153 C 
BRANCH  25  27
HETATM   27  C18 UNL     1       2.937  -2.131   2.357  1.00  0.00     0.228 C 
BRANCH  27  28
HETATM   28  C19 UNL     1       3.600  -1.339   1.268  1.00  0.00     0.236 C 
HETATM   29  O5  UNL     1       3.458  -1.642   0.062  1.00  0.00    -0.272 OA
HETATM   30  N4  UNL     1       4.401  -0.228   1.611  1.00  0.00    -0.348 N 
ATOM     31  H4  UNL     1       4.526   0.036   2.588  1.00  0.00     0.163 HD
BRANCH  30  32
HETATM   32  C20 UNL     1       5.049   0.540   0.549  1.00  0.00     0.161 C 
BRANCH  32  33
HETATM   33  C21 UNL     1       4.458   1.943   0.503  1.00  0.00     0.029 C 
HETATM   34  C22 UNL     1       4.638   2.704   1.775  1.00  0.00     0.007 C 
ENDBRANCH  32  33
BRANCH  32  35
HETATM   35  C23 UNL     1       6.515   0.538   0.719  1.00  0.00     0.205 C 
HETATM   36  O6  UNL     1       7.072   0.001   1.714  1.00  0.00    -0.288 OA
BRANCH  35  37
HETATM   37  C24 UNL     1       7.340   1.182  -0.313  1.00  0.00     0.122 A 
HETATM   38  N5  UNL     1       7.018   1.786  -1.432  1.00  0.00    -0.357 N 
HETATM   39  C25 UNL     1       7.923   2.288  -2.201  1.00  0.00     0.096 A 
ATOM     40  H5  UNL     1       6.036   1.860  -1.698  1.00  0.00     0.166 HD
HETATM   41  C26 UNL     1       9.234   2.167  -1.809  1.00  0.00     0.069 A 
HETATM   42  S1  UNL     1       9.072   1.325  -0.332  1.00  0.00    -0.079 SA
ENDBRANCH  35  37
ENDBRANCH  32  35
ENDBRANCH  30  32
ENDBRANCH  27  28
ENDBRANCH  25  27
ENDBRANCH   4  23
ENDBRANCH   3   4
TORSDOF 14
