REMARK  15 active torsions:
REMARK  status: ('A' for Active; 'I' for Inactive)
REMARK    1  A    between atoms: C2_2  and  C3_3 
REMARK    2  A    between atoms: C3_3  and  C5_5 
REMARK    3  A    between atoms: C5_5  and  N1_6 
REMARK    4  A    between atoms: C5_5  and  C16_24 
REMARK       I    between atoms: N1_6  and  C6_8 
REMARK    5  A    between atoms: C6_8  and  C7_10 
REMARK       I    between atoms: C7_10  and  N2_12 
REMARK    6  A    between atoms: N2_12  and  C8_14 
REMARK    7  A    between atoms: C8_14  and  C10_16 
REMARK    8  A    between atoms: C14_20  and  C15_21 
REMARK    9  A    between atoms: C16_24  and  C17_25 
REMARK   10  A    between atoms: C16_24  and  N3_32 
REMARK   11  A    between atoms: C17_25  and  C18_26 
REMARK       I    between atoms: N3_32  and  C24_34 
REMARK   12  A    between atoms: C24_34  and  C25_36 
REMARK   13  A    between atoms: C25_36  and  N4_39 
REMARK   14  A    between atoms: N4_39  and  C28_41 
REMARK   15  A    between atoms: C28_41  and  C29_42 
ROOT
HETATM    1  C5  UNL     1      -0.532  -0.263  -0.779  1.00  0.00     0.138 C 
ENDROOT
BRANCH   1   2
HETATM    2  C3  UNL     1      -0.481   0.419  -2.132  1.00  0.00     0.010 C 
HETATM    3  C4  UNL     1      -1.541   0.115  -3.108  1.00  0.00     0.012 C 
BRANCH   2   4
HETATM    4  C2  UNL     1       0.832   0.043  -2.835  1.00  0.00     0.002 C 
HETATM    5  C1  UNL     1       0.854  -1.401  -3.259  1.00  0.00     0.005 C 
ENDBRANCH   2   4
ENDBRANCH   1   2
BRANCH   1   6
HETATM    6  N1  UNL     1       0.712   0.304  -0.142  1.00  0.00    -0.343 N 
HETATM    7  C6  UNL     1       1.857  -0.380   0.192  1.00  0.00     0.309 C 
HETATM    8  O1  UNL     1       2.028  -1.590   0.013  1.00  0.00    -0.262 OA
ATOM      9  H1  UNL     1       0.703   1.303   0.063  1.00  0.00     0.163 HD
BRANCH   7  10
HETATM   10  C7  UNL     1       2.973   0.342   0.804  1.00  0.00     0.309 C 
HETATM   11  O2  UNL     1       2.845   1.582   0.979  1.00  0.00    -0.262 OA
HETATM   12  N2  UNL     1       4.176  -0.317   1.197  1.00  0.00    -0.348 N 
ATOM     13  H2  UNL     1       4.272  -1.323   1.057  1.00  0.00     0.163 HD
BRANCH  12  14
HETATM   14  C8  UNL     1       5.230   0.413   1.776  1.00  0.00     0.085 C 
HETATM   15  C9  UNL     1       5.513  -0.209   3.153  1.00  0.00     0.032 C 
BRANCH  14  16
HETATM   16  C10 UNL     1       6.520   0.515   1.072  1.00  0.00     0.022 C 
HETATM   17  C11 UNL     1       6.528   1.142  -0.280  1.00  0.00     0.007 C 
HETATM   18  C12 UNL     1       7.916   0.820  -0.800  1.00  0.00     0.001 C 
HETATM   19  C13 UNL     1       8.608  -0.013   0.270  1.00  0.00     0.016 C 
HETATM   20  C14 UNL     1       7.346  -0.706   0.903  1.00  0.00     0.093 C 
BRANCH  20  21
HETATM   21  C15 UNL     1       6.963  -1.686  -0.091  1.00  0.00     0.177 C 
HETATM   22  O3  UNL     1       6.116  -1.481  -0.971  1.00  0.00    -0.648 OA
HETATM   23  O4  UNL     1       7.583  -2.928  -0.057  1.00  0.00    -0.648 OA
ENDBRANCH  20  21
ENDBRANCH  14  16
ENDBRANCH  12  14
ENDBRANCH   7  10
ENDBRANCH   1   6
BRANCH   1  24
HETATM   24  C16 UNL     1      -1.657   0.178   0.087  1.00  0.00     0.032 C 
BRANCH  24  25
HETATM   25  C17 UNL     1      -1.824  -0.404   1.439  1.00  0.00     0.005 C 
BRANCH  25  26
HETATM   26  C18 UNL     1      -2.107  -1.796   1.716  1.00  0.00     0.010 C 
HETATM   27  C19 UNL     1      -1.231  -2.918   1.386  1.00  0.00     0.008 C 
HETATM   28  C20 UNL     1      -0.070  -3.155   2.345  1.00  0.00     0.001 C 
HETATM   29  C21 UNL     1      -0.683  -3.462   3.711  1.00  0.00     0.000 C 
HETATM   30  C22 UNL     1      -1.370  -2.156   4.112  1.00  0.00     0.001 C 
HETATM   31  C23 UNL     1      -2.525  -1.902   3.198  1.00  0.00     0.008 C 
ENDBRANCH  25  26
ENDBRANCH  24  25
BRANCH  24  32
HETATM   32  N3  UNL     1      -2.986   0.257  -0.552  1.00  0.00    -0.327 N 
HETATM   33  C24 UNL     1      -3.705   1.473  -0.615  1.00  0.00     0.249 C 
HETATM   34  O5  UNL     1      -3.148   2.489  -0.133  1.00  0.00    -0.270 OA
ATOM     35  H3  UNL     1      -3.395  -0.585  -0.957  1.00  0.00     0.168 HD
BRANCH  33  36
HETATM   36  C25 UNL     1      -5.078   1.650  -1.200  1.00  0.00     0.104 C 
HETATM   37  C26 UNL     1      -5.163   1.061  -2.551  1.00  0.00     0.048 C 
HETATM   38  C27 UNL     1      -6.077   0.906  -0.267  1.00  0.00     0.048 C 
BRANCH  36  39
HETATM   39  N4  UNL     1      -5.418   3.006  -1.108  1.00  0.00    -0.379 N 
ATOM     40  H4  UNL     1      -4.673   3.695  -1.004  1.00  0.00     0.160 HD
BRANCH  39  41
HETATM   41  C28 UNL     1      -6.730   3.441  -1.154  1.00  0.00     0.134 C 
BRANCH  41  42
HETATM   42  C29 UNL     1      -7.459   3.496  -2.430  1.00  0.00     0.160 C 
HETATM   43  C30 UNL     1      -8.943   3.784  -2.457  1.00  0.00     0.097 C 
HETATM   44  O6  UNL     1      -6.953   3.322  -3.509  1.00  0.00    -0.292 OA
ENDBRANCH  41  42
ENDBRANCH  39  41
ENDBRANCH  36  39
ENDBRANCH  33  36
ENDBRANCH  24  32
ENDBRANCH   1  24
TORSDOF 15
