REMARK  17 active torsions:
REMARK  status: ('A' for Active; 'I' for Inactive)
REMARK    1  A    between atoms: C2_2  and  C4_4 
REMARK    2  A    between atoms: C4_4  and  C5_5 
REMARK    3  A    between atoms: C5_5  and  N1_6 
REMARK    4  A    between atoms: C5_5  and  C14_18 
REMARK       I    between atoms: N1_6  and  C6_8 
REMARK    5  A    between atoms: C6_8  and  C7_10 
REMARK    6  A    between atoms: C7_10  and  N2_11 
REMARK    7  A    between atoms: N2_11  and  C8_12 
REMARK    8  A    between atoms: N2_11  and  C11_15 
REMARK       I    between atoms: C14_18  and  N3_20 
REMARK    9  A    between atoms: N3_20  and  C15_22 
REMARK   10  A    between atoms: C15_22  and  C16_23 
REMARK   11  A    between atoms: C15_22  and  C26_42 
REMARK       I    between atoms: C16_23  and  N4_25 
REMARK   12  A    between atoms: N4_25  and  C17_27 
REMARK   13  A    between atoms: C17_27  and  C18_28 
REMARK   14  A    between atoms: C17_27  and  C25_35 
REMARK   15  A    between atoms: C18_28  and  C19_29 
REMARK   16  A    between atoms: C25_35  and  N5_36 
REMARK   17  A    between atoms: C25_35  and  O4_40 
ROOT
HETATM    1  C15 UNL     1      -0.764   1.794  -1.261  1.00  0.00     0.180 C 
ENDROOT
BRANCH   1   2
HETATM    2  N3  UNL     1       0.071   1.943  -0.038  1.00  0.00    -0.346 N 
HETATM    3  C14 UNL     1       1.184   1.118   0.172  1.00  0.00     0.241 C 
HETATM    4  O2  UNL     1       1.404   0.270  -0.764  1.00  0.00    -0.271 OA
ATOM      5  H3  UNL     1      -0.169   2.653   0.654  1.00  0.00     0.163 HD
BRANCH   3   6
HETATM    6  C5  UNL     1       2.105   1.108   1.328  1.00  0.00     0.177 C 
BRANCH   6   7
HETATM    7  C4  UNL     1       2.990   2.289   1.468  1.00  0.00     0.038 C 
BRANCH   7   8
HETATM    8  C2  UNL     1       2.346   3.598   1.718  1.00  0.00    -0.020 C 
HETATM    9  C1  UNL     1       1.527   3.613   2.995  1.00  0.00     0.009 C 
HETATM   10  C3  UNL     1       3.398   4.700   1.902  1.00  0.00     0.009 C 
ENDBRANCH   7   8
ENDBRANCH   6   7
BRANCH   6  11
HETATM   11  N1  UNL     1       2.940  -0.100   1.113  1.00  0.00    -0.346 N 
HETATM   12  C6  UNL     1       2.644  -1.312   1.759  1.00  0.00     0.246 C 
HETATM   13  O1  UNL     1       1.629  -1.301   2.519  1.00  0.00    -0.272 OA
ATOM     14  H1  UNL     1       3.743  -0.049   0.485  1.00  0.00     0.163 HD
BRANCH  12  15
HETATM   15  C7  UNL     1       3.378  -2.572   1.632  1.00  0.00     0.375 C 
BRANCH  15  16
HETATM   16  N2  UNL     1       4.601  -2.345   0.830  1.00  0.00     0.105 N 
BRANCH  16  17
HETATM   17  C8  UNL     1       4.951  -3.621   0.293  1.00  0.00     0.216 C 
HETATM   18  C9  UNL     1       5.277  -4.751   1.151  1.00  0.00     0.042 C 
HETATM   19  C10 UNL     1       6.028  -3.414  -0.748  1.00  0.00     0.042 C 
ENDBRANCH  16  17
BRANCH  16  20
HETATM   20  C11 UNL     1       5.587  -1.728   1.661  1.00  0.00     0.216 C 
HETATM   21  C12 UNL     1       6.135  -2.517   2.807  1.00  0.00     0.042 C 
HETATM   22  C13 UNL     1       6.646  -0.930   0.940  1.00  0.00     0.042 C 
ENDBRANCH  16  20
ENDBRANCH  15  16
ENDBRANCH  12  15
ENDBRANCH   6  11
ENDBRANCH   3   6
ENDBRANCH   1   2
BRANCH   1  23
HETATM   23  C16 UNL     1      -2.026   1.175  -0.780  1.00  0.00     0.241 C 
HETATM   24  O3  UNL     1      -2.502   1.541   0.328  1.00  0.00    -0.271 OA
HETATM   25  N4  UNL     1      -2.735   0.187  -1.484  1.00  0.00    -0.350 N 
ATOM     26  H4  UNL     1      -2.380  -0.122  -2.389  1.00  0.00     0.163 HD
BRANCH  25  27
HETATM   27  C17 UNL     1      -3.985  -0.424  -0.957  1.00  0.00     0.140 C 
BRANCH  27  28
HETATM   28  C18 UNL     1      -3.617  -1.758  -0.432  1.00  0.00     0.034 C 
BRANCH  28  29
HETATM   29  C19 UNL     1      -4.609  -2.620   0.211  1.00  0.00    -0.013 C 
HETATM   30  C20 UNL     1      -5.796  -3.080  -0.545  1.00  0.00     0.005 C 
HETATM   31  C21 UNL     1      -6.175  -4.462   0.015  1.00  0.00     0.000 C 
HETATM   32  C22 UNL     1      -5.963  -4.458   1.521  1.00  0.00     0.000 C 
HETATM   33  C23 UNL     1      -6.128  -3.056   2.078  1.00  0.00     0.000 C 
HETATM   34  C24 UNL     1      -5.081  -2.095   1.566  1.00  0.00     0.005 C 
ENDBRANCH  28  29
ENDBRANCH  27  28
BRANCH  27  35
HETATM   35  C25 UNL     1      -5.009  -0.364  -2.052  1.00  0.00     0.339 C 
BRANCH  35  36
HETATM   36  N5  UNL     1      -4.527  -0.980  -3.282  1.00  0.00    -0.051 N 
ATOM     37  H53 UNL     1      -3.642  -0.570  -3.580  1.00  0.00     0.277 HD
ATOM     38  H52 UNL     1      -4.214  -1.937  -3.119  1.00  0.00     0.277 HD
ATOM     39  H51 UNL     1      -5.223  -0.939  -4.026  1.00  0.00     0.277 HD
ENDBRANCH  35  36
BRANCH  35  40
HETATM   40  O4  UNL     1      -5.185   1.031  -2.312  1.00  0.00    -0.368 OA
ATOM     41  H4  UNL     1      -5.833   1.069  -3.005  1.00  0.00     0.212 HD
ENDBRANCH  35  40
ENDBRANCH  27  35
ENDBRANCH  25  27
ENDBRANCH   1  23
BRANCH   1  42
HETATM   42  C26 UNL     1      -0.895   3.129  -1.876  1.00  0.00     0.018 C 
HETATM   43  C27 UNL     1      -1.540   4.186  -1.034  1.00  0.00     0.007 C 
HETATM   44  C28 UNL     1      -1.840   5.371  -1.961  1.00  0.00     0.000 C 
HETATM   45  C29 UNL     1      -0.823   5.448  -3.087  1.00  0.00     0.000 C 
HETATM   46  C30 UNL     1      -0.946   4.273  -4.028  1.00  0.00     0.000 C 
HETATM   47  C31 UNL     1      -1.573   3.138  -3.217  1.00  0.00     0.007 C 
ENDBRANCH   1  42
TORSDOF 17
