REMARK  12 active torsions:
REMARK  status: ('A' for Active; 'I' for Inactive)
REMARK    1  A    between atoms: C2_2  and  C3_3 
REMARK    2  A    between atoms: C3_3  and  C4_4 
REMARK    3  A    between atoms: C4_4  and  C5_5 
REMARK    4  A    between atoms: C5_5  and  C6_6 
REMARK    5  A    between atoms: C6_6  and  N1_7 
REMARK    6  A    between atoms: N1_7  and  C7_8 
REMARK       I    between atoms: N1_7  and  C10_11 
REMARK    7  A    between atoms: C7_8  and  C8_9 
REMARK    8  A    between atoms: C10_11  and  C11_13 
REMARK    9  A    between atoms: C13_15  and  O2_17 
REMARK   10  A    between atoms: C15_19  and  C16_20 
REMARK   11  A    between atoms: C16_20  and  O3_21 
REMARK   12  A    between atoms: C21_27  and  O4_28 
ROOT
HETATM    1  C11 UNL     1      -1.022   0.024  -0.153  1.00  0.00     0.079 C 
HETATM    2  C12 UNL     1      -2.220  -0.705  -0.670  1.00  0.00     0.061 C 
HETATM    3  C13 UNL     1      -3.381   0.207  -0.424  1.00  0.00     0.068 C 
HETATM    4  C14 UNL     1      -4.697  -0.472  -0.332  1.00  0.00     0.047 C 
HETATM    5  C15 UNL     1      -2.956   0.914   0.835  1.00  0.00     0.044 C 
HETATM    6  C17 UNL     1      -2.942   0.016   2.036  1.00  0.00     0.018 C 
HETATM    7  C18 UNL     1      -1.740  -0.894   2.081  1.00  0.00     0.007 C 
HETATM    8  C19 UNL     1      -0.623  -0.334   1.275  1.00  0.00     0.009 C 
HETATM    9  C20 UNL     1      -0.573   1.175   1.557  1.00  0.00     0.046 C 
HETATM   10  C21 UNL     1      -1.557   1.332   0.449  1.00  0.00     0.087 C 
ENDROOT
BRANCH   1  11
HETATM   11  C10 UNL     1       0.133   0.194  -1.030  1.00  0.00     0.232 C 
HETATM   12  N1  UNL     1       0.970  -0.821  -1.510  1.00  0.00    -0.351 N 
HETATM   13  O1  UNL     1       0.397   1.398  -1.385  1.00  0.00    -0.272 OA
BRANCH  12  14
HETATM   14  C6  UNL     1       2.123  -0.438  -2.323  1.00  0.00     0.125 C 
BRANCH  14  15
HETATM   15  C5  UNL     1       3.373  -0.250  -1.507  1.00  0.00     0.020 C 
BRANCH  15  16
HETATM   16  C4  UNL     1       3.303   0.796  -0.451  1.00  0.00     0.002 C 
BRANCH  16  17
HETATM   17  C3  UNL     1       4.630   0.899   0.318  1.00  0.00    -0.000 C 
BRANCH  17  18
HETATM   18  C2  UNL     1       4.456   1.988   1.367  1.00  0.00    -0.005 C 
HETATM   19  C1  UNL     1       5.753   2.104   2.136  1.00  0.00     0.005 C 
ENDBRANCH  17  18
ENDBRANCH  16  17
ENDBRANCH  15  16
ENDBRANCH  14  15
ENDBRANCH  12  14
BRANCH  12  20
HETATM   20  C7  UNL     1       0.798  -2.235  -1.305  1.00  0.00     0.125 C 
BRANCH  20  21
HETATM   21  C8  UNL     1       0.070  -2.968  -2.372  1.00  0.00     0.015 C 
HETATM   22  C9  UNL     1       0.015  -4.438  -1.921  1.00  0.00     0.006 C 
ENDBRANCH  20  21
ENDBRANCH  12  20
ENDBRANCH   1  11
BRANCH  10  23
HETATM   23  O4  UNL     1      -1.452   2.443  -0.339  1.00  0.00    -0.388 OA
ATOM     24  H4  UNL     1      -1.783   3.252   0.033  1.00  0.00     0.210 HD
ENDBRANCH  10  23
BRANCH   3  25
HETATM   25  O2  UNL     1      -3.395   1.191  -1.440  1.00  0.00    -0.389 OA
ATOM     26  H2  UNL     1      -4.132   1.770  -1.284  1.00  0.00     0.210 HD
ENDBRANCH   3  25
BRANCH   5  27
HETATM   27  C16 UNL     1      -3.849   2.114   1.068  1.00  0.00     0.179 C 
BRANCH  27  28
HETATM   28  O3  UNL     1      -3.469   2.778   2.227  1.00  0.00    -0.400 OA
ATOM     29  H3  UNL     1      -4.029   3.531   2.373  1.00  0.00     0.209 HD
ENDBRANCH  27  28
ENDBRANCH   5  27
TORSDOF 12
