REMARK  6 active torsions:
REMARK  status: ('A' for Active; 'I' for Inactive)
REMARK    1  A    between atoms: C2_2  and  N1_3 
REMARK    2  A    between atoms: N1_3  and  N2_5 
REMARK    3  A    between atoms: N2_5  and  C3_6 
REMARK    4  A    between atoms: C3_6  and  C4_7 
REMARK    5  A    between atoms: C4_7  and  N3_8 
REMARK    6  A    between atoms: N3_8  and  C5_11 
ROOT
HETATM    1  C3  UNL     1      -0.253   0.193  -0.198  1.00  0.00     0.162 C 
ENDROOT
BRANCH   1   2
HETATM    2  N2  UNL     1      -1.590  -0.268   0.143  1.00  0.00    -0.140 NA
BRANCH   2   3
HETATM    3  N1  UNL     1      -2.485  -0.221  -0.932  1.00  0.00    -0.316 N 
ATOM      4  H1  UNL     1      -2.123  -0.066  -1.873  1.00  0.00     0.181 HD
BRANCH   3   5
HETATM    5  C2  UNL     1      -3.882  -0.383  -0.748  1.00  0.00     0.092 C 
HETATM    6  C1  UNL     1      -4.524   0.393   0.084  1.00  0.00     0.031 C 
ENDBRANCH   3   5
ENDBRANCH   2   3
ENDBRANCH   1   2
BRANCH   1   7
HETATM    7  C4  UNL     1       0.635   0.109   1.011  1.00  0.00     0.250 C 
BRANCH   7   8
HETATM    8  N3  UNL     1       1.964   0.530   0.768  1.00  0.00    -0.074 N 
ATOM      9  H32 UNL     1       1.993   1.476   0.387  1.00  0.00     0.277 HD
ATOM     10  H31 UNL     1       2.469   0.696   1.639  1.00  0.00     0.277 HD
BRANCH   8  11
HETATM   11  C5  UNL     1       2.666  -0.404  -0.081  1.00  0.00     0.228 C 
HETATM   12  C6  UNL     1       4.111   0.032  -0.296  1.00  0.00     0.034 C 
ENDBRANCH   8  11
ENDBRANCH   7   8
ENDBRANCH   1   7
TORSDOF 6
