REMARK  7 active torsions:
REMARK  status: ('A' for Active; 'I' for Inactive)
REMARK    1  A    between atoms: C2_2  and  C3_3 
REMARK    2  A    between atoms: C3_3  and  C4_4 
REMARK    3  A    between atoms: C4_4  and  N1_5 
REMARK    4  A    between atoms: N1_5  and  N2_6 
REMARK    5  A    between atoms: N2_6  and  C5_7 
REMARK    6  A    between atoms: C5_7  and  N3_8 
REMARK    7  A    between atoms: N3_8  and  C6_10 
ROOT
HETATM    1  N2  UNL     1       1.600  -0.382   0.642  1.00  0.00    -0.129 NA
ENDROOT
BRANCH   1   2
HETATM    2  N1  UNL     1       0.240  -0.217   0.767  1.00  0.00    -0.147 NA
BRANCH   2   3
HETATM    3  C4  UNL     1      -0.501  -1.100  -0.083  1.00  0.00     0.130 C 
BRANCH   3   4
HETATM    4  C3  UNL     1      -1.986  -0.911   0.063  1.00  0.00     0.017 C 
BRANCH   4   5
HETATM    5  C2  UNL     1      -2.391   0.496  -0.293  1.00  0.00    -0.003 C 
HETATM    6  C1  UNL     1      -3.864   0.692  -0.151  1.00  0.00     0.005 C 
ENDBRANCH   4   5
ENDBRANCH   3   4
ENDBRANCH   2   3
ENDBRANCH   1   2
BRANCH   1   7
HETATM    7  C5  UNL     1       2.251   0.840   0.334  1.00  0.00     0.253 C 
BRANCH   7   8
HETATM    8  N3  UNL     1       3.670   0.696   0.192  1.00  0.00    -0.354 N 
ATOM      9  H3  UNL     1       4.285   1.201   0.830  1.00  0.00     0.163 HD
BRANCH   8  10
HETATM   10  C6  UNL     1       4.239  -0.120  -0.801  1.00  0.00     0.349 C 
HETATM   11  O1  UNL     1       3.469  -0.733  -1.582  1.00  0.00    -0.284 OA
ENDBRANCH   8  10
ENDBRANCH   7   8
ENDBRANCH   1   7
TORSDOF 7
