REMARK  12 active torsions:
REMARK  status: ('A' for Active; 'I' for Inactive)
REMARK    1  A    between atoms: C2_2  and  N1_3 
REMARK    2  A    between atoms: N1_3  and  C3_4 
REMARK    3  A    between atoms: N1_3  and  C5_6 
REMARK    4  A    between atoms: C5_6  and  C6_7 
REMARK    5  A    between atoms: C6_7  and  C7_8 
REMARK    6  A    between atoms: C7_8  and  O1_9 
REMARK    7  A    between atoms: O1_9  and  N2_10 
REMARK    8  A    between atoms: C8_12  and  C9_13 
REMARK    9  A    between atoms: C9_13  and  C11_16 
REMARK   10  A    between atoms: C20_25  and  O2_26 
REMARK   11  A    between atoms: C22_29  and  O3_30 
REMARK   12  A    between atoms: C26_35  and  O4_36 
ROOT
HETATM    1  C9  UNL     1       1.225   0.975  -1.649  1.00  0.00     0.138 C 
HETATM    2  C10 UNL     1       0.969   0.419  -2.977  1.00  0.00     0.069 C 
HETATM    3  N3  UNL     1       0.789  -0.017  -4.036  1.00  0.00    -0.197 NA
ENDROOT
BRANCH   1   4
HETATM    4  C8  UNL     1       2.597   0.534  -1.191  1.00  0.00     0.106 C 
HETATM    5  N2  UNL     1       2.784  -0.439  -0.407  1.00  0.00    -0.281 N 
ATOM      6  H2  UNL     1       1.992  -0.972  -0.048  1.00  0.00     0.193 HD
BRANCH   5   7
HETATM    7  O1  UNL     1       4.064  -0.770  -0.044  1.00  0.00    -0.281 OA
BRANCH   7   8
HETATM    8  C7  UNL     1       4.623  -0.135   1.077  1.00  0.00     0.203 C 
BRANCH   8   9
HETATM    9  C6  UNL     1       6.043  -0.605   1.342  1.00  0.00     0.059 C 
BRANCH   9  10
HETATM   10  C5  UNL     1       6.954  -0.329   0.188  1.00  0.00     0.274 C 
BRANCH  10  11
HETATM   11  N1  UNL     1       8.277  -0.767   0.483  1.00  0.00     0.087 N 
BRANCH  11  12
HETATM   12  C2  UNL     1       9.200  -0.545  -0.618  1.00  0.00     0.268 C 
HETATM   13  C1  UNL     1       8.958   0.849  -1.151  1.00  0.00     0.037 C 
ENDBRANCH  11  12
BRANCH  11  14
HETATM   14  C3  UNL     1       8.412  -2.054   1.070  1.00  0.00     0.268 C 
HETATM   15  C4  UNL     1       7.963  -3.185   0.184  1.00  0.00     0.037 C 
ENDBRANCH  11  14
ENDBRANCH  10  11
ENDBRANCH   9  10
ENDBRANCH   8   9
ENDBRANCH   7   8
ENDBRANCH   5   7
ENDBRANCH   1   4
BRANCH   1  16
HETATM   16  C11 UNL     1       0.252   0.468  -0.666  1.00  0.00     0.017 C 
HETATM   17  C12 UNL     1       0.631   1.086   0.692  1.00  0.00     0.007 C 
HETATM   18  C13 UNL     1      -0.700   1.542   1.316  1.00  0.00     0.006 C 
HETATM   19  C14 UNL     1      -1.621   0.619   0.636  1.00  0.00    -0.001 C 
HETATM   20  C15 UNL     1      -3.058   0.717   0.867  1.00  0.00    -0.002 C 
HETATM   21  C28 UNL     1      -1.176   0.823  -0.822  1.00  0.00    -0.033 C 
HETATM   22  C16 UNL     1      -3.372   0.497   2.301  1.00  0.00     0.006 C 
HETATM   23  C25 UNL     1      -3.711  -0.422   0.060  1.00  0.00     0.030 C 
HETATM   24  C17 UNL     1      -4.826   0.737   2.519  1.00  0.00     0.006 C 
HETATM   25  C18 UNL     1      -5.725   0.185   1.454  1.00  0.00    -0.001 C 
HETATM   26  C19 UNL     1      -6.524   1.248   0.793  1.00  0.00     0.037 C 
HETATM   27  C23 UNL     1      -5.039  -0.805   0.545  1.00  0.00    -0.008 C 
HETATM   28  C20 UNL     1      -7.165   0.998  -0.496  1.00  0.00     0.121 C 
HETATM   29  C21 UNL     1      -6.759  -0.225  -1.237  1.00  0.00     0.064 C 
HETATM   30  C22 UNL     1      -6.051  -1.257  -0.452  1.00  0.00     0.129 C 
HETATM   31  C24 UNL     1      -4.841  -2.059   1.443  1.00  0.00     0.019 C 
HETATM   32  C26 UNL     1      -3.497  -0.023  -1.349  1.00  0.00     0.124 C 
HETATM   33  C27 UNL     1      -1.982  -0.117  -1.646  1.00  0.00     0.042 C 
HETATM   34  C29 UNL     1      -1.371   2.269  -1.139  1.00  0.00     0.016 C 
BRANCH  28  35
HETATM   35  O2  UNL     1      -8.580   1.079  -0.384  1.00  0.00    -0.395 OA
ATOM     36  H2  UNL     1      -8.997   0.916  -1.222  1.00  0.00     0.210 HD
ENDBRANCH  28  35
BRANCH  30  37
HETATM   37  O3  UNL     1      -5.608  -2.287  -1.284  1.00  0.00    -0.395 OA
ATOM     38  H3  UNL     1      -5.153  -2.951  -0.779  1.00  0.00     0.210 HD
ENDBRANCH  30  37
BRANCH  32  39
HETATM   39  O4  UNL     1      -3.731   1.336  -1.624  1.00  0.00    -0.395 OA
ATOM     40  H4  UNL     1      -3.594   1.592  -2.528  1.00  0.00     0.210 HD
ENDBRANCH  32  39
ENDBRANCH   1  16
TORSDOF 12
