REMARK  2 active torsions:
REMARK  status: ('A' for Active; 'I' for Inactive)
REMARK    1  A    between atoms: O1_2  and  C2_3 
REMARK    2  A    between atoms: C7_8  and  N1_9 
ROOT
HETATM    1  C2  UNL     1       0.654  -0.161   0.320  1.00  0.00     0.151 C 
HETATM    2  C3  UNL     1      -0.173  -1.058   1.202  1.00  0.00     0.034 C 
HETATM    3  C4  UNL     1      -1.355  -1.546   0.375  1.00  0.00     0.003 C 
HETATM    4  C5  UNL     1      -2.164  -0.408  -0.179  1.00  0.00     0.002 C 
HETATM    5  C6  UNL     1      -1.260   0.542  -0.974  1.00  0.00     0.035 C 
HETATM    6  C7  UNL     1      -0.238   1.053   0.029  1.00  0.00     0.212 C 
ENDROOT
BRANCH   6   7
HETATM    7  N1  UNL     1       0.519   2.162  -0.476  1.00  0.00    -0.073 N 
ATOM      8  H13 UNL     1       1.284   2.406   0.152  1.00  0.00     0.274 HD
ATOM      9  H12 UNL     1       1.064   1.897  -1.296  1.00  0.00     0.274 HD
ATOM     10  H11 UNL     1      -0.074   2.969  -0.669  1.00  0.00     0.274 HD
ENDBRANCH   6   7
BRANCH   1  11
HETATM   11  O1  UNL     1       1.844   0.227   0.808  1.00  0.00    -0.389 OA
HETATM   12  C1  UNL     1       2.972  -0.101   0.121  1.00  0.00     0.202 C 
ENDBRANCH   1  11
TORSDOF 2
