REMARK  8 active torsions:
REMARK  status: ('A' for Active; 'I' for Inactive)
REMARK    1  A    between atoms: N2_5  and  C4_6 
REMARK    2  A    between atoms: C4_6  and  C5_7 
REMARK    3  A    between atoms: C5_7  and  N3_8 
REMARK    4  A    between atoms: N3_8  and  C6_11 
REMARK    5  A    between atoms: C6_11  and  C7_12 
REMARK    6  A    between atoms: C7_12  and  C8_13 
REMARK    7  A    between atoms: C8_13  and  N4_14 
REMARK       I    between atoms: N4_14  and  C9_16 
REMARK       I    between atoms: C9_16  and  N5_18 
REMARK    8  A    between atoms: N5_18  and  C10_20 
ROOT
HETATM    1  N3  UNL     1      -1.265   0.697   1.575  1.00  0.00    -0.073 N 
ATOM      2  H31 UNL     1      -1.092   0.837   2.570  1.00  0.00     0.277 HD
ATOM      3  H32 UNL     1      -1.551   1.643   1.323  1.00  0.00     0.277 HD
ENDROOT
BRANCH   1   4
HETATM    4  C5  UNL     1      -2.322  -0.227   1.367  1.00  0.00     0.262 C 
BRANCH   4   5
HETATM    5  C4  UNL     1      -2.809  -0.194  -0.050  1.00  0.00     0.303 C 
BRANCH   5   6
HETATM    6  N2  UNL     1      -3.903  -1.146  -0.181  1.00  0.00     0.127 N 
HETATM    7  C3  UNL     1      -4.342  -1.223  -1.550  1.00  0.00     0.306 C 
HETATM    8  C2  UNL     1      -5.237  -0.076  -1.859  1.00  0.00     0.302 C 
HETATM    9  N1  UNL     1      -6.454  -0.076  -1.071  1.00  0.00     0.090 N 
HETATM   10  C1  UNL     1      -6.813   1.267  -0.657  1.00  0.00     0.310 C 
HETATM   11  C15 UNL     1      -6.351  -0.977   0.059  1.00  0.00     0.341 C 
HETATM   12  C14 UNL     1      -4.996  -0.867   0.729  1.00  0.00     0.432 C 
HETATM   13  F1  UNL     1      -4.886  -1.745   1.785  1.00  0.00    -0.214 F 
ENDBRANCH   5   6
ENDBRANCH   4   5
ENDBRANCH   1   4
BRANCH   1  14
HETATM   14  C6  UNL     1      -0.070   0.325   0.895  1.00  0.00     0.234 C 
BRANCH  14  15
HETATM   15  C7  UNL     1       0.553  -0.913   1.486  1.00  0.00     0.047 C 
BRANCH  15  16
HETATM   16  C8  UNL     1       1.814  -1.292   0.756  1.00  0.00     0.126 C 
BRANCH  16  17
HETATM   17  N4  UNL     1       2.774  -0.236   0.855  1.00  0.00    -0.343 N 
HETATM   18  C9  UNL     1       4.058  -0.299   0.254  1.00  0.00     0.316 C 
HETATM   19  O1  UNL     1       4.435  -1.305  -0.412  1.00  0.00    -0.247 OA
HETATM   20  N5  UNL     1       4.982   0.761   0.369  1.00  0.00    -0.335 N 
ATOM     21  H5  UNL     1       4.701   1.584   0.903  1.00  0.00     0.165 HD
ATOM     22  H4  UNL     1       2.524   0.601   1.382  1.00  0.00     0.164 HD
BRANCH  20  23
HETATM   23  C10 UNL     1       6.289   0.755  -0.216  1.00  0.00     0.023 C 
HETATM   24  C11 UNL     1       7.152  -0.378   0.293  1.00  0.00     0.037 C 
HETATM   25  C12 UNL     1       6.965   2.085   0.036  1.00  0.00     0.037 C 
HETATM   26  C13 UNL     1       6.105   0.536  -1.713  1.00  0.00     0.037 C 
ENDBRANCH  20  23
ENDBRANCH  16  17
ENDBRANCH  15  16
ENDBRANCH  14  15
ENDBRANCH   1  14
TORSDOF 8
