REMARK  4 active torsions:
REMARK  status: ('A' for Active; 'I' for Inactive)
REMARK    1  A    between atoms: N1_5  and  C5_6 
REMARK    2  A    between atoms: C5_6  and  S1_11 
REMARK    3  A    between atoms: S1_11  and  C7_12 
REMARK    4  A    between atoms: C7_12  and  C8_13 
ROOT
HETATM    1  C5  UNL     1      -0.132  -0.625   1.982  1.00  0.00     0.151 C 
HETATM    2  N2  UNL     1      -0.247  -0.105   3.196  1.00  0.00    -0.274 N 
ATOM      3  H2  UNL     1      -0.814   0.734   3.317  1.00  0.00     0.180 HD
HETATM    4  C6  UNL     1       0.368  -0.651   4.301  1.00  0.00     0.183 C 
HETATM    5  N3  UNL     1       0.902  -1.108   5.223  1.00  0.00    -0.172 NA
ENDROOT
BRANCH   1   6
HETATM    6  N1  UNL     1      -0.852   0.107   1.004  1.00  0.00    -0.357 N 
HETATM    7  C4  UNL     1      -0.615   1.536   0.986  1.00  0.00     0.126 C 
HETATM    8  C3  UNL     1      -1.553   2.303   0.118  1.00  0.00     0.024 C 
HETATM    9  C2  UNL     1      -2.899   1.568   0.203  1.00  0.00    -0.015 C 
HETATM   10  C1  UNL     1      -4.030   2.442  -0.285  1.00  0.00     0.010 C 
HETATM   11  C15 UNL     1      -2.739   0.310  -0.587  1.00  0.00     0.029 C 
HETATM   12  C13 UNL     1      -1.754  -0.581   0.133  1.00  0.00     0.082 C 
HETATM   13  C14 UNL     1      -2.559  -1.649   0.846  1.00  0.00     0.032 C 
ENDBRANCH   1   6
BRANCH   1  14
HETATM   14  S1  UNL     1       0.836  -2.051   1.803  1.00  0.00    -0.091 SA
BRANCH  14  15
HETATM   15  C7  UNL     1       1.131  -2.710   0.197  1.00  0.00     0.116 C 
BRANCH  15  16
HETATM   16  C8  UNL     1       2.032  -1.927  -0.675  1.00  0.00     0.158 C 
HETATM   17  C9  UNL     1       3.440  -1.775  -0.069  1.00  0.00     0.204 C 
HETATM   18  O1  UNL     1       3.946  -0.788  -0.923  1.00  0.00    -0.353 OA
HETATM   19  C10 UNL     1       2.885   0.017  -1.292  1.00  0.00     0.157 C 
HETATM   20  C11 UNL     1       3.123   1.397  -0.741  1.00  0.00     0.078 C 
HETATM   21  C12 UNL     1       2.730   0.127  -2.791  1.00  0.00     0.078 C 
HETATM   22  O2  UNL     1       1.718  -0.583  -0.808  1.00  0.00    -0.348 OA
ENDBRANCH  15  16
ENDBRANCH  14  15
ENDBRANCH   1  14
TORSDOF 4
