REMARK  8 active torsions:
REMARK  status: ('A' for Active; 'I' for Inactive)
REMARK    1  A    between atoms: C2_2  and  C3_3 
REMARK    2  A    between atoms: C3_3  and  N1_4 
REMARK    3  A    between atoms: C5_6  and  N2_7 
REMARK    4  A    between atoms: N2_7  and  C6_9 
REMARK    5  A    between atoms: C13_18  and  C14_19 
REMARK    6  A    between atoms: N5_25  and  C17_26 
REMARK    7  A    between atoms: C17_26  and  C18_27 
REMARK    8  A    between atoms: C24_34  and  N6_35 
ROOT
HETATM    1  C14 UNL     1       0.802  -0.009  -1.159  1.00  0.00     0.153 A 
HETATM    2  N4  UNL     1       0.305  -0.560  -0.013  1.00  0.00    -0.332 N 
ATOM      3  H4  UNL     1       0.878  -0.933   0.744  1.00  0.00     0.168 HD
HETATM    4  C15 UNL     1      -1.034  -0.547  -0.013  1.00  0.00     0.148 A 
HETATM    5  C16 UNL     1      -1.983  -0.981   0.897  1.00  0.00     0.292 A 
HETATM    6  O1  UNL     1      -1.599  -1.507   1.962  1.00  0.00    -0.265 OA
HETATM    7  N5  UNL     1      -3.310  -0.815   0.585  1.00  0.00    -0.141 N 
HETATM    8  C24 UNL     1      -3.637  -0.250  -0.576  1.00  0.00     0.687 A 
HETATM    9  N7  UNL     1      -2.674   0.179  -1.478  1.00  0.00    -0.174 N 
ATOM     10  H7  UNL     1      -2.960   0.609  -2.358  1.00  0.00     0.186 HD
HETATM   11  C29 UNL     1      -1.386   0.034  -1.204  1.00  0.00     0.155 A 
HETATM   12  N8  UNL     1      -0.239   0.344  -1.865  1.00  0.00    -0.323 N 
ATOM     13  H8  UNL     1      -0.197   0.789  -2.782  1.00  0.00     0.169 HD
ENDROOT
BRANCH   1  14
HETATM   14  C13 UNL     1       2.248   0.095  -1.378  1.00  0.00     0.154 A 
HETATM   15  N1  UNL     1       2.916   0.637  -2.399  1.00  0.00    -0.337 N 
HETATM   16  C4  UNL     1       4.258   0.523  -2.130  1.00  0.00     0.140 A 
HETATM   17  C5  UNL     1       4.425  -0.102  -0.921  1.00  0.00     0.118 A 
HETATM   18  N3  UNL     1       3.188  -0.351  -0.486  1.00  0.00    -0.324 N 
ATOM     19  H3  UNL     1       2.970  -0.814   0.397  1.00  0.00     0.169 HD
BRANCH  15  20
HETATM   20  C3  UNL     1       2.470   1.233  -3.636  1.00  0.00     0.130 C 
BRANCH  20  21
HETATM   21  C2  UNL     1       2.458   0.316  -4.814  1.00  0.00     0.016 C 
HETATM   22  C1  UNL     1       1.630  -0.904  -4.735  1.00  0.00     0.006 C 
ENDBRANCH  20  21
ENDBRANCH  15  20
BRANCH  17  23
HETATM   23  N2  UNL     1       5.661  -0.421  -0.265  1.00  0.00    -0.370 N 
ATOM     24  H2  UNL     1       6.540  -0.171  -0.718  1.00  0.00     0.161 HD
BRANCH  23  25
HETATM   25  C6  UNL     1       5.699  -1.082   1.010  1.00  0.00     0.087 C 
HETATM   26  C7  UNL     1       7.123  -1.310   1.460  1.00  0.00     0.030 C 
HETATM   27  C8  UNL     1       7.208  -0.728   2.851  1.00  0.00    -0.012 C 
HETATM   28  C9  UNL     1       7.213   0.761   2.709  1.00  0.00     0.005 C 
HETATM   29  C12 UNL     1       5.768  -0.968   3.334  1.00  0.00     0.011 C 
HETATM   30  C10 UNL     1       5.794   1.069   2.215  1.00  0.00     0.007 C 
HETATM   31  C11 UNL     1       5.103  -0.272   2.131  1.00  0.00     0.009 C 
ENDBRANCH  23  25
ENDBRANCH  17  23
ENDBRANCH   1  14
BRANCH   7  32
HETATM   32  C17 UNL     1      -4.291  -1.264   1.527  1.00  0.00     0.189 C 
BRANCH  32  33
HETATM   33  C18 UNL     1      -4.809  -0.331   2.509  1.00  0.00    -0.039 A 
HETATM   34  C19 UNL     1      -6.147   0.077   2.421  1.00  0.00     0.010 A 
HETATM   35  C20 UNL     1      -6.738   0.951   3.288  1.00  0.00     0.024 A 
HETATM   36  C21 UNL     1      -6.010   1.484   4.324  1.00  0.00     0.034 A 
HETATM   37 CL1  UNL     1      -6.759   2.606   5.443  1.00  0.00    -0.084 Cl
HETATM   38  C22 UNL     1      -4.704   1.111   4.444  1.00  0.00     0.024 A 
HETATM   39  C23 UNL     1      -4.105   0.212   3.547  1.00  0.00     0.010 A 
ENDBRANCH  32  33
ENDBRANCH   7  32
BRANCH   8  40
HETATM   40  N6  UNL     1      -4.982  -0.061  -0.980  1.00  0.00    -0.217 N 
HETATM   41  C25 UNL     1      -5.620   1.250  -1.113  1.00  0.00     0.141 C 
HETATM   42  C26 UNL     1      -6.166   1.115  -2.538  1.00  0.00     0.022 C 
HETATM   43  C27 UNL     1      -6.768  -0.273  -2.503  1.00  0.00     0.022 C 
HETATM   44  C28 UNL     1      -6.011  -0.992  -1.380  1.00  0.00     0.141 C 
ENDBRANCH   8  40
TORSDOF 8
