REMARK  2 active torsions:
REMARK  status: ('A' for Active; 'I' for Inactive)
REMARK    1  A    between atoms: N1_1  and  N2_4 
REMARK    2  A    between atoms: C1_6  and  C2_7 
ROOT
HETATM    1  C2  UNL     1      -0.140  -0.321   0.119  1.00  0.00    -0.004 A 
HETATM    2  C3  UNL     1      -0.781   0.863  -0.170  1.00  0.00     0.015 A 
HETATM    3  C4  UNL     1      -2.159   0.967  -0.034  1.00  0.00     0.018 A 
HETATM    4  C5  UNL     1      -2.917  -0.105   0.392  1.00  0.00     0.087 A 
HETATM    5  N3  UNL     1      -2.248  -1.242   0.663  1.00  0.00    -0.374 N 
ATOM      6  H3  UNL     1      -2.783  -2.051   0.979  1.00  0.00     0.164 HD
HETATM    7  C6  UNL     1      -0.917  -1.373   0.541  1.00  0.00     0.100 A 
ENDROOT
BRANCH   1   8
HETATM    8  C1  UNL     1       1.307  -0.426  -0.025  1.00  0.00     0.119 C 
HETATM    9  N2  UNL     1       2.034   0.559  -0.420  1.00  0.00    -0.318 N 
ATOM     10  H2  UNL     1       1.589   1.450  -0.642  1.00  0.00     0.185 HD
BRANCH   9  11
HETATM   11  N1  UNL     1       3.409   0.437  -0.551  1.00  0.00    -0.345 N 
ATOM     12  H12 UNL     1       3.838  -0.461  -0.325  1.00  0.00     0.176 HD
ATOM     13  H11 UNL     1       3.985   1.218  -0.864  1.00  0.00     0.176 HD
ENDBRANCH   9  11
ENDBRANCH   1   8
TORSDOF 2
