REMARK  5 active torsions:
REMARK  status: ('A' for Active; 'I' for Inactive)
REMARK    1  A    between atoms: C2_2  and  C3_3 
REMARK    2  A    between atoms: C5_8  and  C6_9 
REMARK    3  A    between atoms: C6_9  and  C7_10 
REMARK    4  A    between atoms: C8_11  and  C9_12 
REMARK    5  A    between atoms: N2_18  and  O2_19 
ROOT
HETATM    1  C3  UNL     1       3.084   0.239  -0.589  1.00  0.00     0.107 A 
HETATM    2  C4  UNL     1       2.686   1.450  -0.067  1.00  0.00     0.271 A 
HETATM    3  O1  UNL     1       3.335   2.471  -0.414  1.00  0.00    -0.266 OA
HETATM    4  N1  UNL     1       1.638   1.486   0.776  1.00  0.00    -0.323 N 
ATOM      5  H1  UNL     1       1.348   2.386   1.158  1.00  0.00     0.169 HD
HETATM    6  C5  UNL     1       0.959   0.387   1.134  1.00  0.00     0.048 A 
HETATM    7  C13 UNL     1       1.352  -0.823   0.617  1.00  0.00     0.060 A 
HETATM    8  C14 UNL     1       0.643  -2.084   0.971  1.00  0.00     0.073 C 
HETATM    9  N2  UNL     1       2.398  -0.882  -0.228  1.00  0.00    -0.226 N 
ENDROOT
BRANCH   6  10
HETATM   10  C6  UNL     1      -0.181   0.522   2.067  1.00  0.00     0.153 C 
BRANCH  10  11
HETATM   11  C7  UNL     1      -1.401   0.404   1.272  1.00  0.00    -0.100 C 
HETATM   12  C8  UNL     1      -2.404   0.285   0.612  1.00  0.00    -0.097 C 
BRANCH  12  13
HETATM   13  C9  UNL     1      -3.643   0.116  -0.188  1.00  0.00     0.013 C 
HETATM   14  C10 UNL     1      -4.852   0.022   0.742  1.00  0.00     0.028 C 
HETATM   15  C11 UNL     1      -3.561  -1.164  -0.955  1.00  0.00     0.028 C 
HETATM   16  C12 UNL     1      -3.763   1.295  -1.111  1.00  0.00     0.028 C 
ENDBRANCH  12  13
ENDBRANCH  10  11
ENDBRANCH   6  10
BRANCH   9  17
HETATM   17  O2  UNL     1       2.830  -2.081  -0.775  1.00  0.00    -0.282 OA
ATOM     18  H2  UNL     1       2.352  -2.862  -0.523  1.00  0.00     0.245 HD
ENDBRANCH   9  17
BRANCH   1  19
HETATM   19  C2  UNL     1       4.233   0.180  -1.522  1.00  0.00     0.061 C 
HETATM   20  C1  UNL     1       5.565   0.316  -0.859  1.00  0.00     0.011 C 
ENDBRANCH   1  19
TORSDOF 5
