REMARK  5 active torsions:
REMARK  status: ('A' for Active; 'I' for Inactive)
REMARK    1  A    between atoms: C4_4  and  C5_5 
REMARK    2  A    between atoms: C5_5  and  C6_6 
REMARK    3  A    between atoms: C6_6  and  N1_7 
REMARK    4  A    between atoms: C8_11  and  N3_12 
REMARK    5  A    between atoms: N5_19  and  O1_20 
ROOT
HETATM    1  C6  UNL     1       1.155   0.408  -0.289  1.00  0.00     0.155 C 
ENDROOT
BRANCH   1   2
HETATM    2  C5  UNL     1       0.192  -0.765  -0.176  1.00  0.00     0.060 C 
BRANCH   2   3
HETATM    3  C4  UNL     1      -1.198  -0.345  -0.491  1.00  0.00    -0.053 A 
HETATM    4  C3  UNL     1      -2.049   0.118   0.509  1.00  0.00     0.034 A 
HETATM    5  C2  UNL     1      -3.335   0.507   0.216  1.00  0.00     0.036 A 
HETATM    6  C1  UNL     1      -4.180   0.989   1.338  1.00  0.00     0.071 C 
HETATM    7  N5  UNL     1      -3.807   0.451  -1.043  1.00  0.00    -0.241 N 
HETATM    8  C10 UNL     1      -3.019   0.010  -2.040  1.00  0.00     0.123 A 
HETATM    9  C9  UNL     1      -1.720  -0.386  -1.767  1.00  0.00     0.027 A 
BRANCH   7  10
HETATM   10  O1  UNL     1      -5.101   0.856  -1.257  1.00  0.00    -0.283 OA
ATOM     11  H1  UNL     1      -5.434   0.816  -2.146  1.00  0.00     0.245 HD
ENDBRANCH   7  10
ENDBRANCH   2   3
ENDBRANCH   1   2
BRANCH   1  12
HETATM   12  N1  UNL     1       2.508   0.009   0.015  1.00  0.00    -0.273 N 
HETATM   13  C7  UNL     1       3.393  -0.447  -0.909  1.00  0.00     0.218 A 
HETATM   14  N2  UNL     1       4.555  -0.722  -0.260  1.00  0.00    -0.185 N 
HETATM   15  C8  UNL     1       4.386  -0.440   1.041  1.00  0.00     0.691 A 
ATOM     16  H2  UNL     1       5.408  -1.081  -0.688  1.00  0.00     0.185 HD
HETATM   17  N4  UNL     1       3.141   0.000   1.184  1.00  0.00    -0.129 N 
ATOM     18  H4  UNL     1       2.727   0.291   2.070  1.00  0.00     0.206 HD
BRANCH  15  19
HETATM   19  N3  UNL     1       5.271  -0.574   1.968  1.00  0.00    -0.233 N 
ATOM     20  H32 UNL     1       6.227  -0.912   1.858  1.00  0.00     0.174 HD
ATOM     21  H31 UNL     1       5.143  -0.360   2.957  1.00  0.00     0.174 HD
ENDBRANCH  15  19
ENDBRANCH   1  12
TORSDOF 5
