REMARK  6 active torsions:
REMARK  status: ('A' for Active; 'I' for Inactive)
REMARK    1  A    between atoms: C2_3  and  N2_4 
REMARK       I    between atoms: N2_4  and  C3_6 
REMARK    2  A    between atoms: C3_6  and  C4_8 
REMARK    3  A    between atoms: C4_8  and  S1_9 
REMARK    4  A    between atoms: S1_9  and  C5_10 
REMARK    5  A    between atoms: C7_15  and  C8_16 
REMARK       I    between atoms: C8_16  and  N5_18 
REMARK    6  A    between atoms: N5_18  and  C9_20 
ROOT
HETATM    1  N1  UNL     1      -5.350  -1.252   2.652  1.00  0.00    -0.193 NA
HETATM    2  C1  UNL     1      -4.954  -1.572   1.607  1.00  0.00     0.115 C 
HETATM    3  C2  UNL     1      -4.456  -1.953   0.271  1.00  0.00     0.207 C 
HETATM    4  C13 UNL     1      -5.560  -2.648  -0.502  1.00  0.00     0.149 C 
HETATM    5  S4  UNL     1      -6.834  -1.487  -1.013  1.00  0.00    -0.122 SA
HETATM    6  C14 UNL     1      -6.154   0.167  -0.974  1.00  0.00     0.027 A 
HETATM    7  C15 UNL     1      -6.950   1.265  -1.247  1.00  0.00     0.021 A 
HETATM    8  C16 UNL     1      -6.464   2.546  -1.237  1.00  0.00     0.002 A 
HETATM    9  C17 UNL     1      -5.121   2.692  -0.937  1.00  0.00     0.002 A 
HETATM   10  C18 UNL     1      -4.308   1.631  -0.663  1.00  0.00     0.030 A 
HETATM   11  C19 UNL     1      -4.835   0.338  -0.681  1.00  0.00     0.047 A 
HETATM   12  N9  UNL     1      -3.994  -0.776  -0.392  1.00  0.00    -0.350 N 
ATOM     13  H9  UNL     1      -3.014  -0.730  -0.673  1.00  0.00     0.163 HD
ENDROOT
BRANCH   3  14
HETATM   14  N2  UNL     1      -3.384  -2.886   0.473  1.00  0.00    -0.321 N 
HETATM   15  C3  UNL     1      -2.214  -2.541   1.231  1.00  0.00     0.230 C 
HETATM   16  O1  UNL     1      -2.194  -1.367   1.705  1.00  0.00    -0.273 OA
ATOM     17  H2  UNL     1      -3.455  -3.819   0.067  1.00  0.00     0.166 HD
BRANCH  15  18
HETATM   18  C4  UNL     1      -1.107  -3.483   1.452  1.00  0.00     0.184 C 
BRANCH  18  19
HETATM   19  S1  UNL     1       0.238  -3.309   0.265  1.00  0.00    -0.096 SA
BRANCH  19  20
HETATM   20  C5  UNL     1       1.034  -1.711   0.572  1.00  0.00     0.114 A 
HETATM   21  N3  UNL     1       0.708  -0.798   1.471  1.00  0.00    -0.332 N 
HETATM   22  C6  UNL     1       1.393   0.295   1.566  1.00  0.00     0.140 A 
ATOM     23  H3  UNL     1      -0.086  -0.956   2.091  1.00  0.00     0.168 HD
HETATM   24  N4  UNL     1       1.065   1.328   2.537  1.00  0.00    -0.081 NA
HETATM   25  C7  UNL     1       2.451   0.451   0.704  1.00  0.00     0.117 A 
HETATM   26  S3  UNL     1       2.389  -0.995  -0.193  1.00  0.00    -0.056 SA
BRANCH  25  27
HETATM   27  C8  UNL     1       3.372   1.606   0.622  1.00  0.00     0.280 C 
HETATM   28  O2  UNL     1       3.208   2.586   1.388  1.00  0.00    -0.266 OA
HETATM   29  N5  UNL     1       4.446   1.628  -0.311  1.00  0.00    -0.153 N 
ATOM     30  H5  UNL     1       4.300   1.997  -1.251  1.00  0.00     0.187 HD
BRANCH  29  31
HETATM   31  C9  UNL     1       5.630   1.170   0.044  1.00  0.00     0.704 A 
HETATM   32  N6  UNL     1       5.888   0.674   1.258  1.00  0.00    -0.130 N 
HETATM   33  N7  UNL     1       7.184   0.318   1.235  1.00  0.00    -0.265 N 
ATOM     34  H6  UNL     1       5.238   0.584   2.039  1.00  0.00     0.205 HD
HETATM   35  C10 UNL     1       7.686   0.597   0.033  1.00  0.00     0.177 A 
ATOM     36  H7  UNL     1       7.699  -0.098   2.011  1.00  0.00     0.189 HD
HETATM   37  N8  UNL     1       6.743   1.132  -0.744  1.00  0.00    -0.158 N 
HETATM   38  S2  UNL     1       9.176   0.542  -0.946  1.00  0.00    -0.090 SA
HETATM   39  C11 UNL     1       7.116   1.472  -2.069  1.00  0.00     0.160 C 
HETATM   40  C12 UNL     1       8.585   1.824  -2.150  1.00  0.00     0.103 C 
ENDBRANCH  29  31
ENDBRANCH  25  27
ENDBRANCH  19  20
ENDBRANCH  18  19
ENDBRANCH  15  18
ENDBRANCH   3  14
TORSDOF 6
