REMARK  0 active torsions:
REMARK  status: ('A' for Active; 'I' for Inactive)
ROOT
HETATM    1  C1  UNL     1      -2.337   0.708   0.089  1.00  0.00     0.044 C 
HETATM    2  C2  UNL     1      -1.057   0.220  -0.509  1.00  0.00     0.141 C 
HETATM    3  C3  UNL     1      -0.767  -1.188  -0.078  1.00  0.00     0.003 C 
HETATM    4  C4  UNL     1       0.566  -1.293  -0.023  1.00  0.00     0.003 C 
HETATM    5  C5  UNL     1       1.083   0.030  -0.415  1.00  0.00     0.141 C 
HETATM    6  C6  UNL     1       2.425   0.361   0.119  1.00  0.00     0.044 C 
HETATM    7  O1  UNL     1       0.071   0.885   0.005  1.00  0.00    -0.374 OA
ENDROOT
TORSDOF 0
