REMARK  7 active torsions:
REMARK  status: ('A' for Active; 'I' for Inactive)
REMARK    1  A    between atoms: N1_2  and  C1_4 
REMARK    2  A    between atoms: C4_7  and  N2_8 
REMARK    3  A    between atoms: N2_8  and  C5_9 
REMARK    4  A    between atoms: N2_8  and  C12_23 
REMARK    5  A    between atoms: C5_9  and  C6_10 
REMARK    6  A    between atoms: N6_17  and  C7_18 
REMARK    7  A    between atoms: C12_23  and  C13_24 
ROOT
HETATM    1  N2  UNL     1      -0.715  -0.085  -0.136  1.00  0.00    -0.351 N 
ENDROOT
BRANCH   1   2
HETATM    2  C4  UNL     1      -1.241   1.267  -0.148  1.00  0.00     0.065 A 
HETATM    3  C3  UNL     1      -1.935   1.747  -1.221  1.00  0.00     0.034 A 
HETATM    4  C2  UNL     1      -2.404   3.032  -1.213  1.00  0.00     0.041 A 
HETATM    5  C1  UNL     1      -2.180   3.848  -0.128  1.00  0.00     0.134 A 
HETATM    6  C19 UNL     1      -1.485   3.399   0.971  1.00  0.00     0.120 A 
HETATM    7  C18 UNL     1      -1.024   2.088   0.928  1.00  0.00     0.114 A 
HETATM    8  N8  UNL     1      -1.127   3.960   2.155  1.00  0.00    -0.237 N 
HETATM    9  N7  UNL     1      -0.401   1.956   2.135  1.00  0.00    -0.237 N 
HETATM   10  O3  UNL     1      -0.478   3.054   2.820  1.00  0.00    -0.156 OA
ATOM     11  H7  UNL     1       0.063   1.106   2.456  1.00  0.00     0.197 HD
ATOM     12  H8  UNL     1      -1.329   4.911   2.463  1.00  0.00     0.197 HD
BRANCH   5  13
HETATM   13  N1  UNL     1      -2.678   5.200  -0.133  1.00  0.00    -0.113 N 
HETATM   14  O1  UNL     1      -3.016   5.715   0.952  1.00  0.00    -0.532 OA
HETATM   15  O2  UNL     1      -2.797   5.938  -1.269  1.00  0.00    -0.532 OA
ENDBRANCH   5  13
ENDBRANCH   1   2
BRANCH   1  16
HETATM   16  C5  UNL     1       0.729  -0.112  -0.039  1.00  0.00     0.207 C 
BRANCH  16  17
HETATM   17  C6  UNL     1       1.380  -1.426  -0.109  1.00  0.00     0.134 A 
HETATM   18  N3  UNL     1       0.969  -2.670   0.113  1.00  0.00    -0.271 N 
HETATM   19  N4  UNL     1       1.946  -3.505  -0.092  1.00  0.00    -0.227 N 
ATOM     20  H3  UNL     1       0.026  -2.932   0.402  1.00  0.00     0.190 HD
HETATM   21  N5  UNL     1       2.995  -2.803  -0.448  1.00  0.00    -0.224 N 
ATOM     22  H4  UNL     1       1.904  -4.519   0.006  1.00  0.00     0.210 HD
HETATM   23  N6  UNL     1       2.701  -1.548  -0.472  1.00  0.00    -0.257 N 
ATOM     24  H5  UNL     1       3.910  -3.193  -0.673  1.00  0.00     0.210 HD
BRANCH  23  25
HETATM   25  C7  UNL     1       3.611  -0.459  -0.824  1.00  0.00     0.111 C 
HETATM   26  C8  UNL     1       4.147   0.110   0.464  1.00  0.00     0.027 C 
HETATM   27  C9  UNL     1       5.430   0.778   0.013  1.00  0.00     0.002 C 
HETATM   28  C10 UNL     1       6.007  -0.208  -1.000  1.00  0.00     0.002 C 
HETATM   29  C11 UNL     1       4.835  -1.032  -1.465  1.00  0.00     0.027 C 
ENDBRANCH  23  25
ENDBRANCH  16  17
ENDBRANCH   1  16
BRANCH   1  30
HETATM   30  C12 UNL     1      -1.474  -1.268  -0.230  1.00  0.00     0.069 C 
BRANCH  30  31
HETATM   31  C13 UNL     1      -2.940  -1.223  -0.361  1.00  0.00     0.024 C 
HETATM   32  C14 UNL     1      -3.431  -2.688  -0.479  1.00  0.00     0.010 C 
HETATM   33  C15 UNL     1      -4.090  -3.041   0.804  1.00  0.00     0.001 C 
HETATM   34  C16 UNL     1      -3.684  -1.973   1.756  1.00  0.00     0.001 C 
HETATM   35  C17 UNL     1      -3.684  -0.739   0.859  1.00  0.00     0.010 C 
ENDBRANCH  30  31
ENDBRANCH   1  30
TORSDOF 7
