REMARK  2 active torsions:
REMARK  status: ('A' for Active; 'I' for Inactive)
REMARK    1  A    between atoms: N3_8  and  C4_10 
REMARK    2  A    between atoms: C4_10  and  N4_12 
ROOT
HETATM    1  C1  UNL     1       4.056   1.114  -0.161  1.00  0.00     0.099 C 
HETATM    2  C2  UNL     1       2.886   0.181  -0.255  1.00  0.00     0.138 A 
HETATM    3  N1  UNL     1       2.994  -1.171  -0.276  1.00  0.00    -0.280 N 
ATOM      4  H1  UNL     1       3.852  -1.720  -0.233  1.00  0.00     0.189 HD
HETATM    5  N2  UNL     1       1.747  -1.634  -0.365  1.00  0.00    -0.263 N 
ATOM      6  H2  UNL     1       1.487  -2.620  -0.403  1.00  0.00     0.190 HD
HETATM    7  C3  UNL     1       0.884  -0.603  -0.397  1.00  0.00     0.247 A 
HETATM    8  N3  UNL     1      -0.396  -0.737  -0.481  1.00  0.00    -0.297 N 
ATOM      9  H3  UNL     1      -0.779  -1.681  -0.525  1.00  0.00     0.172 HD
HETATM   10  O1  UNL     1       1.628   0.474  -0.328  1.00  0.00    -0.264 OA
ENDROOT
BRANCH   8  11
HETATM   11  C4  UNL     1      -1.297   0.351  -0.515  1.00  0.00     0.176 C 
HETATM   12  S1  UNL     1      -0.865   1.831  -1.062  1.00  0.00    -0.041 SA
BRANCH  11  13
HETATM   13  N4  UNL     1      -2.624   0.165  -0.061  1.00  0.00    -0.367 N 
HETATM   14  C5  UNL     1      -3.578   1.264  -0.082  1.00  0.00     0.151 C 
HETATM   15  C6  UNL     1      -3.009  -1.147   0.424  1.00  0.00     0.151 C 
ENDBRANCH  11  13
ENDBRANCH   8  11
TORSDOF 2
