REMARK  3 active torsions:
REMARK  status: ('A' for Active; 'I' for Inactive)
REMARK    1  A    between atoms: S1_2  and  N1_5 
REMARK    2  A    between atoms: N1_5  and  C2_7 
REMARK       I    between atoms: N2_10  and  C5_11 
REMARK       I    between atoms: C5_11  and  N3_13 
REMARK    3  A    between atoms: N3_13  and  C6_15 
ROOT
HETATM    1  C2  UNL     1       3.105   0.528  -0.079  1.00  0.00     0.131 C 
HETATM    2  C3  UNL     1       3.468   0.710   1.395  1.00  0.00     0.049 C 
HETATM    3  C4  UNL     1       2.435  -0.166   2.048  1.00  0.00     0.131 C 
HETATM    4  N2  UNL     1       1.253  -0.045   1.217  1.00  0.00    -0.315 N 
HETATM    5  C5  UNL     1      -0.057  -0.415   1.589  1.00  0.00     0.319 C 
HETATM    6  O3  UNL     1      -0.248  -0.893   2.733  1.00  0.00    -0.247 OA
HETATM    7  N3  UNL     1      -1.135  -0.249   0.687  1.00  0.00    -0.338 N 
ATOM      8  H3  UNL     1      -0.946   0.143  -0.236  1.00  0.00     0.164 HD
HETATM    9  C13 UNL     1       1.608   0.517  -0.071  1.00  0.00     0.219 C 
HETATM   10  C14 UNL     1       1.085   1.885  -0.203  1.00  0.00     0.087 C 
HETATM   11  N4  UNL     1       0.682   2.961  -0.320  1.00  0.00    -0.195 NA
ENDROOT
BRANCH   1  12
HETATM   12  N1  UNL     1       3.579  -0.756  -0.507  1.00  0.00    -0.312 N 
ATOM     13  H1  UNL     1       3.277  -1.639  -0.095  1.00  0.00     0.172 HD
BRANCH  12  14
HETATM   14  S1  UNL     1       4.719  -0.639  -1.799  1.00  0.00     0.223 S 
HETATM   15  C1  UNL     1       6.142   0.267  -1.278  1.00  0.00     0.185 C 
HETATM   16  O1  UNL     1       4.054   0.145  -2.916  1.00  0.00    -0.206 OA
HETATM   17  O2  UNL     1       5.097  -1.999  -2.259  1.00  0.00    -0.206 OA
ENDBRANCH  12  14
ENDBRANCH   1  12
BRANCH   7  18
HETATM   18  C6  UNL     1      -2.492  -0.612   1.021  1.00  0.00     0.086 C 
HETATM   19  C7  UNL     1      -2.958  -1.710   0.121  1.00  0.00     0.025 C 
HETATM   20  C8  UNL     1      -3.448  -1.252  -1.216  1.00  0.00     0.002 C 
HETATM   21  C9  UNL     1      -4.820  -0.619  -1.152  1.00  0.00     0.000 C 
HETATM   22  C10 UNL     1      -4.720   0.882  -1.061  1.00  0.00     0.000 C 
HETATM   23  C11 UNL     1      -3.506   1.303  -0.251  1.00  0.00     0.002 C 
HETATM   24  C12 UNL     1      -3.399   0.587   1.047  1.00  0.00     0.025 C 
ENDBRANCH   7  18
TORSDOF 3
