REMARK  10 active torsions:
REMARK  status: ('A' for Active; 'I' for Inactive)
REMARK    1  A    between atoms: C2_2  and  C3_3 
REMARK    2  A    between atoms: C3_3  and  C4_4 
REMARK    3  A    between atoms: C4_4  and  C5_5 
REMARK    4  A    between atoms: C4_4  and  C9_13 
REMARK    5  A    between atoms: C5_5  and  C6_6 
REMARK    6  A    between atoms: C6_6  and  C7_7 
REMARK    7  A    between atoms: C7_7  and  C8_8 
REMARK    8  A    between atoms: C8_8  and  N1_9 
REMARK    9  A    between atoms: C9_13  and  C10_14 
REMARK   10  A    between atoms: C10_14  and  C11_15 
ROOT
HETATM    1  C4  UNL     1       0.062   0.159  -0.739  1.00  0.00    -0.014 C 
ENDROOT
BRANCH   1   2
HETATM    2  C3  UNL     1       0.421   1.458  -0.183  1.00  0.00     0.004 C 
BRANCH   2   3
HETATM    3  C2  UNL     1      -0.598   2.502   0.060  1.00  0.00    -0.004 C 
HETATM    4  C1  UNL     1       0.205   3.733   0.590  1.00  0.00     0.005 C 
ENDBRANCH   2   3
ENDBRANCH   1   2
BRANCH   1   5
HETATM    5  C5  UNL     1      -0.846  -0.786  -0.102  1.00  0.00     0.005 C 
BRANCH   5   6
HETATM    6  C6  UNL     1      -2.271  -0.392   0.154  1.00  0.00     0.002 C 
BRANCH   6   7
HETATM    7  C7  UNL     1      -3.018  -1.591   0.777  1.00  0.00     0.027 C 
BRANCH   7   8
HETATM    8  C8  UNL     1      -4.450  -1.237   1.048  1.00  0.00     0.229 C 
BRANCH   8   9
HETATM    9  N1  UNL     1      -5.090  -0.874  -0.202  1.00  0.00    -0.079 N 
ATOM     10  H13 UNL     1      -4.592  -0.131  -0.692  1.00  0.00     0.274 HD
ATOM     11  H12 UNL     1      -4.997  -1.601  -0.912  1.00  0.00     0.274 HD
ATOM     12  H11 UNL     1      -6.064  -0.633  -0.018  1.00  0.00     0.274 HD
ENDBRANCH   8   9
ENDBRANCH   7   8
ENDBRANCH   6   7
ENDBRANCH   5   6
ENDBRANCH   1   5
BRANCH   1  13
HETATM   13  C9  UNL     1       1.371  -0.571  -1.050  1.00  0.00     0.005 C 
BRANCH  13  14
HETATM   14  C10 UNL     1       2.236  -0.787   0.145  1.00  0.00     0.005 C 
BRANCH  14  15
HETATM   15  C11 UNL     1       3.475  -1.532  -0.377  1.00  0.00    -0.014 A 
HETATM   16  C12 UNL     1       4.219  -0.729  -1.426  1.00  0.00     0.005 A 
HETATM   17  C13 UNL     1       4.821  -1.044  -0.091  1.00  0.00     0.005 A 
ENDBRANCH  14  15
ENDBRANCH  13  14
ENDBRANCH   1  13
TORSDOF 10
