REMARK  9 active torsions:
REMARK  status: ('A' for Active; 'I' for Inactive)
REMARK    1  A    between atoms: C2_2  and  O1_3 
REMARK    2  A    between atoms: O1_3  and  C3_4 
REMARK       I    between atoms: C3_4  and  N1_6 
REMARK    3  A    between atoms: N1_6  and  C4_8 
REMARK    4  A    between atoms: C5_9  and  O3_10 
REMARK    5  A    between atoms: C6_13  and  C7_14 
REMARK    6  A    between atoms: C8_15  and  C9_16 
REMARK    7  A    between atoms: C10_17  and  N2_19 
REMARK    8  A    between atoms: C12_21  and  C14_23 
REMARK    9  A    between atoms: C15_26  and  O5_27 
ROOT
HETATM    1  C4  UNL     1       2.562  -1.522   0.233  1.00  0.00     0.132 A 
HETATM    2  C5  UNL     1       2.285  -2.114   1.418  1.00  0.00     0.214 A 
HETATM    3  O4  UNL     1       1.089  -1.803   1.777  1.00  0.00    -0.283 OA
HETATM    4  C6  UNL     1       0.477  -1.001   0.897  1.00  0.00     0.114 A 
HETATM    5  C15 UNL     1       1.380  -0.793  -0.108  1.00  0.00     0.131 A 
ENDROOT
BRANCH   4   6
HETATM    6  C7  UNL     1      -0.872  -0.499   1.055  1.00  0.00     0.040 C 
HETATM    7  C8  UNL     1      -1.565   0.271   0.286  1.00  0.00     0.005 C 
BRANCH   7   8
HETATM    8  C9  UNL     1      -2.938   0.643   0.676  1.00  0.00     0.024 C 
HETATM    9  C10 UNL     1      -3.625   1.426  -0.119  1.00  0.00     0.005 C 
HETATM   10  C11 UNL     1      -3.023   1.921  -1.378  1.00  0.00     0.068 C 
BRANCH   9  11
HETATM   11  N2  UNL     1      -4.954   1.806   0.226  1.00  0.00    -0.365 N 
HETATM   12  C12 UNL     1      -5.903   0.958   0.301  1.00  0.00     0.016 C 
HETATM   13  C13 UNL     1      -5.628  -0.475   0.023  1.00  0.00     0.066 C 
ATOM     14  H2  UNL     1      -5.153   2.788   0.419  1.00  0.00     0.165 HD
BRANCH  12  15
HETATM   15  C14 UNL     1      -7.266   1.385   0.661  1.00  0.00     0.223 C 
HETATM   16 CL1  UNL     1      -8.435   1.001  -0.635  1.00  0.00    -0.102 Cl
HETATM   17 CL2  UNL     1      -7.844   0.526   2.129  1.00  0.00    -0.102 Cl
ENDBRANCH  12  15
ENDBRANCH   9  11
ENDBRANCH   7   8
ENDBRANCH   4   6
BRANCH   5  18
HETATM   18  O5  UNL     1       1.303  -0.070  -1.250  1.00  0.00    -0.356 OA
ATOM     19  H5  UNL     1       0.518   0.414  -1.477  1.00  0.00     0.218 HD
ENDBRANCH   5  18
BRANCH   2  20
HETATM   20  O3  UNL     1       3.215  -2.927   2.082  1.00  0.00    -0.339 OA
ATOM     21  H3  UNL     1       3.021  -3.343   2.914  1.00  0.00     0.220 HD
ENDBRANCH   2  20
BRANCH   1  22
HETATM   22  N1  UNL     1       3.725  -1.552  -0.569  1.00  0.00    -0.296 N 
HETATM   23  C3  UNL     1       4.733  -0.589  -0.375  1.00  0.00     0.365 C 
HETATM   24  O2  UNL     1       4.641   0.319   0.501  1.00  0.00    -0.238 OA
ATOM     25  H1  UNL     1       3.834  -2.269  -1.286  1.00  0.00     0.171 HD
BRANCH  23  26
HETATM   26  O1  UNL     1       5.888  -0.601  -1.156  1.00  0.00    -0.304 OA
BRANCH  26  27
HETATM   27  C2  UNL     1       6.888   0.376  -0.945  1.00  0.00     0.176 C 
HETATM   28  C1  UNL     1       7.421   0.292   0.482  1.00  0.00     0.034 C 
ENDBRANCH  26  27
ENDBRANCH  23  26
ENDBRANCH   1  22
TORSDOF 9
