REMARK  2 active torsions:
REMARK  status: ('A' for Active; 'I' for Inactive)
REMARK    1  A    between atoms: O1_1  and  C1_3 
REMARK    2  A    between atoms: C6_8  and  C7_9 
ROOT
HETATM    1  C1  UNL     1      -1.123   0.824  -0.225  1.00  0.00     0.128 C 
HETATM    2  C2  UNL     1      -1.823  -0.418   0.347  1.00  0.00     0.037 C 
HETATM    3  C3  UNL     1      -0.709  -1.335   0.736  1.00  0.00    -0.011 C 
HETATM    4  C4  UNL     1      -0.032  -1.792  -0.558  1.00  0.00     0.005 C 
HETATM    5  C5  UNL     1       0.700  -0.543  -1.078  1.00  0.00     0.013 C 
HETATM    6  C6  UNL     1       0.325   0.518  -0.074  1.00  0.00    -0.005 C 
HETATM    7  C8  UNL     1       0.342  -0.332   1.208  1.00  0.00     0.017 C 
ENDROOT
BRANCH   1   8
HETATM    8  O1  UNL     1      -1.400   0.940  -1.605  1.00  0.00    -0.395 OA
ATOM      9  H1  UNL     1      -0.967   1.708  -1.959  1.00  0.00     0.210 HD
ENDBRANCH   1   8
BRANCH   6  10
HETATM   10  C7  UNL     1       1.244   1.660   0.015  1.00  0.00     0.098 C 
HETATM   11  S1  UNL     1       2.945   1.022   0.193  1.00  0.00    -0.097 SA
ENDBRANCH   6  10
TORSDOF 2
