REMARK  3 active torsions:
REMARK  status: ('A' for Active; 'I' for Inactive)
REMARK    1  A    between atoms: C9_9  and  O1_10 
REMARK    2  A    between atoms: N1_15  and  N2_17 
REMARK    3  A    between atoms: N2_17  and  S1_19 
ROOT
HETATM    1  C1  UNL     1      -4.150  -0.335  -1.353  1.00  0.00     0.016 C 
HETATM    2  C2  UNL     1      -3.000   0.141  -0.433  1.00  0.00    -0.033 A 
HETATM    3  C3  UNL     1      -3.139   1.468   0.112  1.00  0.00     0.015 A 
HETATM    4  C4  UNL     1      -2.207   1.382  -0.983  1.00  0.00     0.000 A 
HETATM    5  C5  UNL     1      -0.809   1.027  -1.018  1.00  0.00     0.009 C 
HETATM    6  C6  UNL     1       0.138   1.369   0.067  1.00  0.00     0.060 C 
HETATM    7  C7  UNL     1      -0.364   1.114   1.443  1.00  0.00    -0.017 C 
HETATM    8  C8  UNL     1      -1.025   0.054   1.911  1.00  0.00     0.008 C 
HETATM    9  C9  UNL     1      -1.406  -1.134   1.114  1.00  0.00     0.081 C 
HETATM   10  C10 UNL     1      -0.045  -1.746   0.717  1.00  0.00     0.053 C 
HETATM   11  C11 UNL     1       0.465  -0.950  -0.439  1.00  0.00     0.041 C 
HETATM   12  C12 UNL     1       1.150   0.289  -0.115  1.00  0.00     0.017 C 
HETATM   13  N1  UNL     1       2.402   0.461   0.003  1.00  0.00    -0.298 N 
ATOM     14  H1  UNL     1       2.764   1.386   0.236  1.00  0.00     0.187 HD
HETATM   15  C14 UNL     1      -0.787  -0.476  -1.132  1.00  0.00     0.009 C 
HETATM   16  C15 UNL     1      -1.961  -0.851  -0.229  1.00  0.00     0.037 C 
ENDROOT
BRANCH  13  17
HETATM   17  N2  UNL     1       3.281  -0.590  -0.181  1.00  0.00    -0.227 N 
ATOM     18  H2  UNL     1       3.053  -1.358  -0.812  1.00  0.00     0.200 HD
BRANCH  17  19
HETATM   19  S1  UNL     1       4.770  -0.568   0.682  1.00  0.00     0.240 S 
HETATM   20  C13 UNL     1       5.971   0.271  -0.323  1.00  0.00     0.187 C 
HETATM   21  O2  UNL     1       5.206  -1.996   0.916  1.00  0.00    -0.205 OA
HETATM   22  O3  UNL     1       4.616   0.115   2.023  1.00  0.00    -0.205 OA
ENDBRANCH  17  19
ENDBRANCH  13  17
BRANCH   9  23
HETATM   23  O1  UNL     1      -2.063  -2.086   1.846  1.00  0.00    -0.385 OA
ATOM     24  H1  UNL     1      -2.307  -2.848   1.335  1.00  0.00     0.211 HD
ENDBRANCH   9  23
TORSDOF 3
