REMARK  13 active torsions:
REMARK  status: ('A' for Active; 'I' for Inactive)
REMARK    1  A    between atoms: N1_2  and  S1_4 
REMARK    2  A    between atoms: S1_4  and  N2_7 
REMARK    3  A    between atoms: N2_7  and  C2_9 
REMARK    4  A    between atoms: C2_9  and  C3_10 
REMARK    5  A    between atoms: C2_9  and  C4_13 
REMARK    6  A    between atoms: C3_10  and  O3_11 
REMARK    7  A    between atoms: C4_13  and  C5_14 
REMARK    8  A    between atoms: C8_17  and  O4_18 
REMARK    9  A    between atoms: O4_18  and  C9_19 
REMARK   10  A    between atoms: C9_19  and  C10_20 
REMARK   11  A    between atoms: C10_20  and  N3_21 
REMARK   12  A    between atoms: N3_21  and  C11_23 
REMARK   13  A    between atoms: C11_23  and  C12_24 
ROOT
HETATM    1  C5  UNL     1       1.429  -0.193  -0.079  1.00  0.00    -0.056 A 
HETATM    2  C6  UNL     1       0.780  -0.925   0.904  1.00  0.00     0.010 A 
HETATM    3  C7  UNL     1      -0.289  -0.421   1.595  1.00  0.00     0.037 A 
HETATM    4  C8  UNL     1      -0.803   0.869   1.358  1.00  0.00     0.068 A 
HETATM    5  C18 UNL     1      -0.153   1.584   0.385  1.00  0.00     0.037 A 
HETATM    6  C19 UNL     1       0.942   1.068  -0.324  1.00  0.00     0.010 A 
ENDROOT
BRANCH   1   7
HETATM    7  C4  UNL     1       2.577  -0.797  -0.801  1.00  0.00     0.066 C 
BRANCH   7   8
HETATM    8  C2  UNL     1       3.899  -0.600  -0.161  1.00  0.00     0.122 C 
BRANCH   8   9
HETATM    9  N2  UNL     1       4.912  -1.263  -0.991  1.00  0.00    -0.296 N 
ATOM     10  H2  UNL     1       5.109  -1.009  -1.959  1.00  0.00     0.174 HD
BRANCH   9  11
HETATM   11  S1  UNL     1       5.725  -2.510  -0.148  1.00  0.00     0.315 S 
HETATM   12  O1  UNL     1       4.811  -3.194   0.826  1.00  0.00    -0.183 OA
HETATM   13  O2  UNL     1       6.230  -3.556  -1.121  1.00  0.00    -0.183 OA
BRANCH  11  14
HETATM   14  N1  UNL     1       7.107  -1.823   0.633  1.00  0.00    -0.307 N 
HETATM   15  C1  UNL     1       8.247  -1.879  -0.237  1.00  0.00     0.161 C 
ATOM     16  H1  UNL     1       7.111  -1.434   1.576  1.00  0.00     0.173 HD
ENDBRANCH  11  14
ENDBRANCH   9  11
ENDBRANCH   8   9
BRANCH   8  17
HETATM   17  C3  UNL     1       4.224   0.863  -0.058  1.00  0.00     0.190 C 
BRANCH  17  18
HETATM   18  O3  UNL     1       4.249   1.444  -1.320  1.00  0.00    -0.399 OA
ATOM     19  H3  UNL     1       4.455   2.369  -1.255  1.00  0.00     0.209 HD
ENDBRANCH  17  18
ENDBRANCH   8  17
ENDBRANCH   7   8
ENDBRANCH   1   7
BRANCH   4  20
HETATM   20  O4  UNL     1      -1.880   1.307   2.098  1.00  0.00    -0.350 OA
BRANCH  20  21
HETATM   21  C9  UNL     1      -2.532   2.520   1.989  1.00  0.00     0.195 C 
BRANCH  21  22
HETATM   22  C10 UNL     1      -3.276   2.841   0.754  1.00  0.00     0.145 C 
BRANCH  22  23
HETATM   23  N3  UNL     1      -4.340   1.937   0.506  1.00  0.00    -0.396 N 
ATOM     24  H3  UNL     1      -5.306   2.258   0.563  1.00  0.00     0.158 HD
BRANCH  23  25
HETATM   25  C11 UNL     1      -4.062   0.594   0.180  1.00  0.00     0.094 C 
BRANCH  25  26
HETATM   26  C12 UNL     1      -5.402  -0.061  -0.113  1.00  0.00    -0.021 A 
HETATM   27  C13 UNL     1      -6.142  -0.634   0.886  1.00  0.00     0.013 A 
HETATM   28  C14 UNL     1      -7.365  -1.220   0.557  1.00  0.00     0.001 A 
HETATM   29  C15 UNL     1      -7.830  -1.232  -0.729  1.00  0.00     0.000 A 
HETATM   30  C16 UNL     1      -7.086  -0.656  -1.740  1.00  0.00     0.001 A 
HETATM   31  C17 UNL     1      -5.886  -0.083  -1.401  1.00  0.00     0.013 A 
ENDBRANCH  25  26
ENDBRANCH  23  25
ENDBRANCH  22  23
ENDBRANCH  21  22
ENDBRANCH  20  21
ENDBRANCH   4  20
TORSDOF 13
