REMARK  1 active torsions:
REMARK  status: ('A' for Active; 'I' for Inactive)
REMARK    1  A    between atoms: C2_2  and  N1_5 
ROOT
HETATM    1  N1  UNL     1      -0.300   0.302   0.001  1.00  0.00    -0.226 NA
HETATM    2  C5  UNL     1       0.587   0.309   1.123  1.00  0.00     0.116 C 
HETATM    3  C6  UNL     1       1.746  -0.615   0.847  1.00  0.00     0.095 C 
HETATM    4  C7  UNL     1       2.899   0.043   0.165  1.00  0.00     0.246 C 
HETATM    5  F1  UNL     1       3.370   1.061   0.984  1.00  0.00    -0.206 F 
HETATM    6  F2  UNL     1       3.914  -0.909   0.091  1.00  0.00    -0.206 F 
HETATM    7  C8  UNL     1       2.656   0.527  -1.214  1.00  0.00     0.096 C 
HETATM    8  C9  UNL     1       1.231   0.692  -1.618  1.00  0.00     0.135 C 
HETATM    9  N2  UNL     1       0.334  -0.283  -1.068  1.00  0.00    -0.164 NA
ENDROOT
BRANCH   1  10
HETATM   10  C2  UNL     1      -1.633  -0.109   0.254  1.00  0.00     0.018 C 
HETATM   11  C1  UNL     1      -1.796  -1.553   0.628  1.00  0.00     0.033 C 
HETATM   12  C3  UNL     1      -2.221   0.786   1.325  1.00  0.00     0.033 C 
HETATM   13  C4  UNL     1      -2.448   0.169  -1.005  1.00  0.00     0.033 C 
ENDBRANCH   1  10
TORSDOF 1
