REMARK  3 active torsions:
REMARK  status: ('A' for Active; 'I' for Inactive)
REMARK    1  A    between atoms: C2_2  and  C3_3 
REMARK    2  A    between atoms: C6_6  and  N1_7 
REMARK    3  A    between atoms: C7_11  and  N2_12 
ROOT
HETATM    1  C3  UNL     1      -0.925  -0.023   0.629  1.00  0.00    -0.013 C 
HETATM    2  C4  UNL     1      -0.320  -1.372   0.543  1.00  0.00     0.007 C 
HETATM    3  C5  UNL     1       1.083  -1.313   0.004  1.00  0.00     0.035 C 
HETATM    4  C6  UNL     1       1.823  -0.072   0.366  1.00  0.00     0.213 C 
HETATM    5  C7  UNL     1       1.098   1.198   0.093  1.00  0.00     0.214 C 
HETATM    6  C8  UNL     1      -0.291   0.858  -0.431  1.00  0.00     0.039 C 
ENDROOT
BRANCH   4   7
HETATM    7  N1  UNL     1       3.061  -0.052  -0.409  1.00  0.00    -0.073 N 
ATOM      8  H13 UNL     1       3.619  -0.897  -0.286  1.00  0.00     0.274 HD
ATOM      9  H12 UNL     1       2.902  -0.140  -1.413  1.00  0.00     0.274 HD
ATOM     10  H11 UNL     1       3.568   0.798  -0.161  1.00  0.00     0.274 HD
ENDBRANCH   4   7
BRANCH   5  11
HETATM   11  N2  UNL     1       1.795   2.129  -0.730  1.00  0.00    -0.073 N 
ATOM     12  H23 UNL     1       2.714   2.327  -0.335  1.00  0.00     0.274 HD
ATOM     13  H22 UNL     1       2.069   1.686  -1.607  1.00  0.00     0.274 HD
ATOM     14  H21 UNL     1       1.298   3.000  -0.917  1.00  0.00     0.274 HD
ENDBRANCH   5  11
BRANCH   1  15
HETATM   15  C2  UNL     1      -2.422   0.005   0.587  1.00  0.00     0.000 C 
HETATM   16  C1  UNL     1      -3.025  -0.563  -0.641  1.00  0.00     0.005 C 
ENDBRANCH   1  15
TORSDOF 3
