REMARK  1 active torsions:
REMARK  status: ('A' for Active; 'I' for Inactive)
REMARK    1  A    between atoms: N1_9  and  O1_10 
ROOT
HETATM    1  C1  UNL     1       2.340   0.195   0.528  1.00  0.00     0.029 C 
HETATM    2  C2  UNL     1       0.850   0.032   0.413  1.00  0.00     0.085 C 
HETATM    3  C3  UNL     1       0.439  -1.184  -0.354  1.00  0.00     0.022 C 
HETATM    4  C4  UNL     1      -1.072  -1.285  -0.287  1.00  0.00     0.006 C 
HETATM    5  C5  UNL     1      -1.703  -0.152   0.443  1.00  0.00     0.061 C 
HETATM    6  C6  UNL     1      -1.146   1.196   0.105  1.00  0.00     0.190 C 
HETATM    7 CL1  UNL     1      -1.330   2.182   1.602  1.00  0.00    -0.082 Cl
HETATM    8 CL2  UNL     1      -2.123   1.981  -1.144  1.00  0.00    -0.082 Cl
HETATM    9  N1  UNL     1       0.257   1.192  -0.190  1.00  0.00    -0.156 NA
ENDROOT
BRANCH   9  10
HETATM   10  O1  UNL     1       0.575   1.402  -1.453  1.00  0.00    -0.310 OA
ATOM     11  H1  UNL     1       0.183   2.170  -1.852  1.00  0.00     0.237 HD
ENDBRANCH   9  10
TORSDOF 1
