REMARK  1 active torsions:
REMARK  status: ('A' for Active; 'I' for Inactive)
REMARK    1  A    between atoms: C2_2  and  C5_5 
ROOT
HETATM    1  C5  UNL     1       0.577  -0.447  -0.004  1.00  0.00     0.236 C 
HETATM    2  O1  UNL     1       1.210  -0.110  -1.216  1.00  0.00    -0.290 OA
HETATM    3  C6  UNL     1       2.586  -0.141  -0.916  1.00  0.00     0.365 C 
HETATM    4  O2  UNL     1       3.546  -0.263  -1.731  1.00  0.00    -0.238 OA
HETATM    5  N1  UNL     1       2.764  -0.011   0.490  1.00  0.00    -0.272 N 
ATOM      6  H1  UNL     1       3.636  -0.071   1.015  1.00  0.00     0.170 HD
HETATM    7  C7  UNL     1       1.417   0.229   1.018  1.00  0.00     0.353 C 
HETATM    8  F1  UNL     1       1.365  -0.359   2.261  1.00  0.00    -0.179 F 
HETATM    9  F2  UNL     1       1.262   1.579   1.099  1.00  0.00    -0.179 F 
ENDROOT
BRANCH   1  10
HETATM   10  C2  UNL     1      -0.846  -0.040  -0.057  1.00  0.00    -0.017 C 
HETATM   11  C1  UNL     1      -1.083   1.418  -0.267  1.00  0.00     0.017 C 
HETATM   12  C3  UNL     1      -1.448  -0.739  -1.290  1.00  0.00     0.017 C 
HETATM   13  C4  UNL     1      -1.658  -0.497   1.122  1.00  0.00     0.017 C 
ENDBRANCH   1  10
TORSDOF 1
