REMARK  1 active torsions:
REMARK  status: ('A' for Active; 'I' for Inactive)
REMARK    1  A    between atoms: C5_6  and  O2_8 
ROOT
HETATM    1  C1  UNL     1      -0.522   1.688  -0.113  1.00  0.00     0.015 C 
HETATM    2  C2  UNL     1      -0.579   0.309   0.466  1.00  0.00     0.045 C 
HETATM    3  C3  UNL     1      -1.456  -0.588  -0.346  1.00  0.00     0.036 C 
HETATM    4  C4  UNL     1      -0.640  -1.813  -0.567  1.00  0.00     0.172 C 
HETATM    5  O1  UNL     1       0.546  -1.700   0.092  1.00  0.00    -0.355 OA
HETATM    6  C5  UNL     1       0.721  -0.404   0.514  1.00  0.00     0.161 C 
HETATM    7  C6  UNL     1       1.816   0.238  -0.291  1.00  0.00     0.079 C 
ENDROOT
BRANCH   6   8
HETATM    8  O2  UNL     1       1.176  -0.442   1.854  1.00  0.00    -0.365 OA
ATOM      9  H2  UNL     1       2.009  -0.899   1.885  1.00  0.00     0.213 HD
ENDBRANCH   6   8
TORSDOF 1
