REMARK  13 active torsions:
REMARK  status: ('A' for Active; 'I' for Inactive)
REMARK    1  A    between atoms: C1_1  and  C2_2 
REMARK    2  A    between atoms: C1_1  and  C10_10 
REMARK    3  A    between atoms: C2_2  and  C3_3 
REMARK    4  A    between atoms: C3_3  and  C4_4 
REMARK    5  A    between atoms: C4_4  and  C5_5 
REMARK    6  A    between atoms: C10_10  and  C11_11 
REMARK    7  A    between atoms: C11_11  and  C12_12 
REMARK    8  A    between atoms: C12_12  and  N1_13 
REMARK    9  A    between atoms: C13_20  and  O1_21 
REMARK   10  A    between atoms: O1_21  and  C14_22 
REMARK   11  A    between atoms: C14_22  and  C15_23 
REMARK   12  A    between atoms: C15_23  and  C16_24 
REMARK   13  A    between atoms: C16_24  and  N5_25 
ROOT
HETATM    1  N1  UNL     1      -0.715   1.869   1.553  1.00  0.00    -0.239 N 
HETATM    2  N2  UNL     1      -0.702   1.863   2.864  1.00  0.00    -0.223 N 
ATOM      3  H2  UNL     1      -0.101   2.440   3.453  1.00  0.00     0.210 HD
HETATM    4  N3  UNL     1      -1.587   0.994   3.297  1.00  0.00    -0.225 N 
ATOM      5  H3  UNL     1      -1.785   0.788   4.276  1.00  0.00     0.210 HD
HETATM    6  N4  UNL     1      -2.177   0.432   2.262  1.00  0.00    -0.248 N 
ATOM      7  H4  UNL     1      -2.906  -0.280   2.295  1.00  0.00     0.192 HD
HETATM    8  C13 UNL     1      -1.641   0.970   1.156  1.00  0.00     0.258 A 
ENDROOT
BRANCH   1   9
HETATM    9  C12 UNL     1       0.128   2.703   0.687  1.00  0.00     0.154 C 
BRANCH   9  10
HETATM   10  C11 UNL     1       1.373   1.867   0.433  1.00  0.00     0.022 C 
BRANCH  10  11
HETATM   11  C10 UNL     1       2.305   2.649  -0.453  1.00  0.00     0.002 C 
BRANCH  11  12
HETATM   12  C1  UNL     1       3.533   1.828  -0.729  1.00  0.00     0.000 C 
BRANCH  12  13
HETATM   13  C2  UNL     1       4.239   1.497   0.542  1.00  0.00     0.000 C 
BRANCH  13  14
HETATM   14  C3  UNL     1       5.493   0.699   0.303  1.00  0.00     0.000 C 
BRANCH  14  15
HETATM   15  C4  UNL     1       5.172  -0.596  -0.372  1.00  0.00     0.004 C 
BRANCH  15  16
HETATM   16  C5  UNL     1       6.411  -1.434  -0.621  1.00  0.00    -0.014 C 
HETATM   17  C6  UNL     1       7.428  -0.775  -1.489  1.00  0.00     0.004 C 
HETATM   18  C7  UNL     1       8.744  -1.279  -0.927  1.00  0.00     0.000 C 
HETATM   19  C8  UNL     1       8.489  -1.298   0.558  1.00  0.00     0.000 C 
HETATM   20  C9  UNL     1       7.084  -1.809   0.672  1.00  0.00     0.004 C 
ENDBRANCH  15  16
ENDBRANCH  14  15
ENDBRANCH  13  14
ENDBRANCH  12  13
ENDBRANCH  11  12
ENDBRANCH  10  11
ENDBRANCH   9  10
ENDBRANCH   1   9
BRANCH   8  21
HETATM   21  O1  UNL     1      -1.960   0.677  -0.155  1.00  0.00    -0.319 OA
BRANCH  21  22
HETATM   22  C14 UNL     1      -2.919  -0.252  -0.590  1.00  0.00     0.184 C 
BRANCH  22  23
HETATM   23  C15 UNL     1      -4.328   0.045  -0.136  1.00  0.00     0.071 C 
BRANCH  23  24
HETATM   24  C16 UNL     1      -5.209  -1.039  -0.677  1.00  0.00     0.065 C 
BRANCH  24  25
HETATM   25  N5  UNL     1      -6.564  -0.968  -0.382  1.00  0.00    -0.374 N 
HETATM   26  C17 UNL     1      -7.387   0.024  -0.918  1.00  0.00     0.063 C 
HETATM   27  C18 UNL     1      -8.660   0.233  -0.160  1.00  0.00     0.044 C 
HETATM   28  C19 UNL     1      -8.988  -0.865   0.811  1.00  0.00     0.007 C 
HETATM   29  C20 UNL     1      -8.612  -2.190   0.187  1.00  0.00     0.021 C 
HETATM   30  C21 UNL     1      -7.108  -2.198   0.042  1.00  0.00     0.127 C 
ENDBRANCH  24  25
ENDBRANCH  23  24
ENDBRANCH  22  23
ENDBRANCH  21  22
ENDBRANCH   8  21
TORSDOF 13
