REMARK  18 active torsions:
REMARK  status: ('A' for Active; 'I' for Inactive)
REMARK    1  A    between atoms: S1_2  and  C2_3 
REMARK    2  A    between atoms: C4_10  and  N4_11 
REMARK       I    between atoms: N4_11  and  C5_13 
REMARK    3  A    between atoms: C5_13  and  C6_15 
REMARK    4  A    between atoms: C6_15  and  O2_16 
REMARK    5  A    between atoms: C6_15  and  C7_18 
REMARK    6  A    between atoms: C7_18  and  O3_19 
REMARK    7  A    between atoms: C8_21  and  C9_22 
REMARK    8  A    between atoms: C10_27  and  O5_28 
REMARK    9  A    between atoms: N7_31  and  C12_32 
REMARK   10  A    between atoms: C13_34  and  C14_35 
REMARK   11  A    between atoms: C15_38  and  O8_39 
REMARK   12  A    between atoms: C16_41  and  O9_42 
REMARK   13  A    between atoms: O9_42  and  C17_43 
REMARK   14  A    between atoms: C17_43  and  C18_44 
REMARK   15  A    between atoms: C18_44  and  O10_45 
REMARK   16  A    between atoms: C18_44  and  C19_47 
REMARK   17  A    between atoms: C19_47  and  O11_48 
REMARK   18  A    between atoms: C20_50  and  O12_51 
ROOT
HETATM    1  C2  UNL     1      -1.268  -3.103   0.845  1.00  0.00     0.132 A 
HETATM    2  N1  UNL     1      -2.570  -3.370   0.643  1.00  0.00    -0.276 N 
ATOM      3  H1  UNL     1      -2.968  -4.309   0.646  1.00  0.00     0.189 HD
HETATM    4  N2  UNL     1      -3.270  -2.271   0.440  1.00  0.00    -0.233 N 
ATOM      5  H2  UNL     1      -4.273  -2.208   0.263  1.00  0.00     0.209 HD
HETATM    6  N3  UNL     1      -2.411  -1.265   0.512  1.00  0.00    -0.218 N 
HETATM    7  C3  UNL     1      -2.329   0.073   0.427  1.00  0.00     0.120 A 
HETATM    8  C4  UNL     1      -3.303   1.031   0.189  1.00  0.00     0.098 A 
HETATM    9  C8  UNL     1      -2.928   2.342   0.157  1.00  0.00     0.129 A 
HETATM   10  N6  UNL     1      -1.615   2.677   0.357  1.00  0.00    -0.329 N 
ATOM     11  H6  UNL     1      -1.337   3.658   0.332  1.00  0.00     0.168 HD
HETATM   12  C10 UNL     1      -0.701   1.746   0.582  1.00  0.00     0.171 A 
HETATM   13  C11 UNL     1      -1.006   0.403   0.629  1.00  0.00     0.121 A 
HETATM   14  N7  UNL     1      -0.276  -0.711   0.836  1.00  0.00    -0.293 N 
HETATM   15  C21 UNL     1      -1.173  -1.729   0.759  1.00  0.00     0.169 A 
ENDROOT
BRANCH  14  16
HETATM   16  C12 UNL     1       1.145  -0.813   1.085  1.00  0.00     0.262 C 
HETATM   17  O6  UNL     1       1.560  -0.120   2.222  1.00  0.00    -0.347 OA
HETATM   18  C13 UNL     1       2.720  -0.624   2.749  1.00  0.00     0.244 C 
HETATM   19  C15 UNL     1       3.653  -1.125   1.655  1.00  0.00     0.187 C 
HETATM   20  C16 UNL     1       3.438  -0.338   0.369  1.00  0.00     0.186 C 
HETATM   21  C20 UNL     1       2.010  -0.652  -0.108  1.00  0.00     0.199 C 
BRANCH  18  22
HETATM   22  C14 UNL     1       3.346   0.394   3.614  1.00  0.00     0.262 C 
HETATM   23  N8  UNL     1       4.551   0.152   4.297  1.00  0.00    -0.060 NA
HETATM   24  O7  UNL     1       2.789   1.505   3.743  1.00  0.00    -0.274 OA
ENDBRANCH  18  22
BRANCH  19  25
HETATM   25  O8  UNL     1       4.934  -0.988   2.133  1.00  0.00    -0.390 OA
ATOM     26  H8  UNL     1       5.516  -1.301   1.450  1.00  0.00     0.210 HD
ENDBRANCH  19  25
BRANCH  20  27
HETATM   27  O9  UNL     1       4.277  -0.783  -0.589  1.00  0.00    -0.378 OA
BRANCH  27  28
HETATM   28  C17 UNL     1       5.097   0.052  -1.252  1.00  0.00     0.202 C 
BRANCH  28  29
HETATM   29  C18 UNL     1       4.508   1.147  -2.065  1.00  0.00     0.165 C 
BRANCH  29  30
HETATM   30  O10 UNL     1       3.732   2.062  -1.367  1.00  0.00    -0.391 OA
ATOM     31  H10 UNL     1       3.355   2.762  -1.887  1.00  0.00     0.210 HD
ENDBRANCH  29  30
BRANCH  29  32
HETATM   32  C19 UNL     1       5.688   1.961  -2.623  1.00  0.00     0.198 C 
BRANCH  32  33
HETATM   33  O11 UNL     1       6.551   1.155  -3.351  1.00  0.00    -0.398 OA
ATOM     34  H11 UNL     1       7.280   1.658  -3.696  1.00  0.00     0.209 HD
ENDBRANCH  32  33
ENDBRANCH  29  32
ENDBRANCH  28  29
ENDBRANCH  27  28
ENDBRANCH  20  27
BRANCH  21  35
HETATM   35  O12 UNL     1       2.039  -1.893  -0.789  1.00  0.00    -0.388 OA
ATOM     36  H12 UNL     1       2.593  -1.790  -1.554  1.00  0.00     0.210 HD
ENDBRANCH  21  35
ENDBRANCH  14  16
BRANCH  12  37
HETATM   37  O5  UNL     1       0.608   2.150   0.776  1.00  0.00    -0.344 OA
ATOM     38  H5  UNL     1       1.264   1.482   0.937  1.00  0.00     0.219 HD
ENDBRANCH  12  37
BRANCH   1  39
HETATM   39  S1  UNL     1       0.036  -4.303   1.160  1.00  0.00    -0.112 SA
HETATM   40  C1  UNL     1      -0.669  -5.951   1.165  1.00  0.00     0.097 C 
ENDBRANCH   1  39
BRANCH   8  41
HETATM   41  N4  UNL     1      -4.619   0.598  -0.003  1.00  0.00    -0.321 N 
HETATM   42  C5  UNL     1      -5.174   0.193  -1.226  1.00  0.00     0.253 C 
HETATM   43  O1  UNL     1      -4.477   0.207  -2.262  1.00  0.00    -0.270 OA
ATOM     44  H4  UNL     1      -5.227   0.575   0.816  1.00  0.00     0.169 HD
BRANCH  42  45
HETATM   45  C6  UNL     1      -6.575  -0.253  -1.305  1.00  0.00     0.233 C 
BRANCH  45  46
HETATM   46  O2  UNL     1      -7.208  -0.125  -0.046  1.00  0.00    -0.384 OA
ATOM     47  H2  UNL     1      -8.112  -0.413  -0.097  1.00  0.00     0.210 HD
ENDBRANCH  45  46
BRANCH  45  48
HETATM   48  C7  UNL     1      -7.382   0.441  -2.351  1.00  0.00     0.205 C 
BRANCH  48  49
HETATM   49  O3  UNL     1      -7.562   1.781  -2.119  1.00  0.00    -0.398 OA
ATOM     50  H3  UNL     1      -8.076   2.223  -2.785  1.00  0.00     0.209 HD
ENDBRANCH  48  49
ENDBRANCH  45  48
ENDBRANCH  42  45
ENDBRANCH   8  41
BRANCH   9  51
HETATM   51  C9  UNL     1      -3.914   3.377  -0.066  1.00  0.00     0.283 C 
HETATM   52  N5  UNL     1      -3.509   4.722  -0.108  1.00  0.00    -0.056 NA
HETATM   53  O4  UNL     1      -5.108   3.085  -0.221  1.00  0.00    -0.269 OA
ENDBRANCH   9  51
TORSDOF 18
