REMARK  16 active torsions:
REMARK  status: ('A' for Active; 'I' for Inactive)
REMARK    1  A    between atoms: N1_1  and  C1_4 
REMARK    2  A    between atoms: C3_8  and  C4_9 
REMARK    3  A    between atoms: N5_14  and  C5_15 
REMARK    4  A    between atoms: C7_18  and  C8_19 
REMARK    5  A    between atoms: C8_19  and  O3_20 
REMARK    6  A    between atoms: C8_19  and  C9_22 
REMARK    7  A    between atoms: C11_25  and  C12_26 
REMARK    8  A    between atoms: C11_25  and  N7_29 
REMARK    9  A    between atoms: C14_31  and  C15_32 
REMARK   10  A    between atoms: C15_32  and  C16_33 
REMARK   11  A    between atoms: C15_32  and  O6_38 
REMARK   12  A    between atoms: C16_33  and  N8_34 
REMARK   13  A    between atoms: O6_38  and  C17_39 
REMARK   14  A    between atoms: N10_41  and  O7_43 
REMARK   15  A    between atoms: C18_50  and  O9_51 
REMARK   16  A    between atoms: C19_53  and  O10_54 
ROOT
HETATM    1  C8  UNL     1      -0.392   1.878   1.628  1.00  0.00     0.205 C 
ENDROOT
BRANCH   1   2
HETATM    2  C7  UNL     1      -1.583   0.980   1.388  1.00  0.00     0.186 C 
HETATM    3  O2  UNL     1      -1.911   1.034   0.035  1.00  0.00    -0.378 OA
HETATM    4  C6  UNL     1      -2.666  -0.122  -0.228  1.00  0.00     0.198 C 
HETATM    5  C5  UNL     1      -3.783  -0.233   0.769  1.00  0.00     0.165 C 
HETATM    6  C19 UNL     1      -4.013   1.128   1.416  1.00  0.00     0.176 C 
HETATM    7  C18 UNL     1      -2.760   1.491   2.178  1.00  0.00     0.180 C 
BRANCH   5   8
HETATM    8  N5  UNL     1      -5.009  -0.689   0.136  1.00  0.00    -0.264 N 
HETATM    9  N4  UNL     1      -5.665  -1.790   0.441  1.00  0.00    -0.289 N 
HETATM   10  C3  UNL     1      -6.743  -1.882  -0.347  1.00  0.00     0.144 A 
ATOM     11  H4  UNL     1      -5.396  -2.462   1.160  1.00  0.00     0.187 HD
HETATM   12  C2  UNL     1      -6.736  -0.768  -1.176  1.00  0.00     0.128 A 
HETATM   13  N2  UNL     1      -7.362  -0.111  -2.168  1.00  0.00    -0.186 N 
HETATM   14  C20 UNL     1      -5.625  -0.029  -0.848  1.00  0.00     0.168 A 
HETATM   15  C1  UNL     1      -6.693   1.012  -2.478  1.00  0.00     0.678 A 
ATOM     16  H2  UNL     1      -8.222  -0.421  -2.621  1.00  0.00     0.184 HD
HETATM   17  N13 UNL     1      -5.622   1.048  -1.654  1.00  0.00    -0.173 N 
ATOM     18  H13 UNL     1      -4.915   1.784  -1.645  1.00  0.00     0.186 HD
BRANCH  10  19
HETATM   19  C4  UNL     1      -7.759  -2.918  -0.376  1.00  0.00     0.285 C 
HETATM   20  N3  UNL     1      -7.679  -4.020   0.512  1.00  0.00    -0.056 NA
HETATM   21  O1  UNL     1      -8.724  -2.875  -1.176  1.00  0.00    -0.269 OA
ENDBRANCH  10  19
BRANCH  15  22
HETATM   22  N1  UNL     1      -7.010   1.882  -3.383  1.00  0.00    -0.234 N 
ATOM     23  H12 UNL     1      -7.818   1.855  -4.005  1.00  0.00     0.174 HD
ATOM     24  H11 UNL     1      -6.502   2.735  -3.618  1.00  0.00     0.174 HD
ENDBRANCH  15  22
ENDBRANCH   5   8
BRANCH   6  25
HETATM   25  O10 UNL     1      -5.134   1.085   2.251  1.00  0.00    -0.391 OA
ATOM     26  H10 UNL     1      -5.277   1.933   2.654  1.00  0.00     0.210 HD
ENDBRANCH   6  25
BRANCH   7  27
HETATM   27  O9  UNL     1      -2.798   0.947   3.456  1.00  0.00    -0.390 OA
ATOM     28  H9  UNL     1      -3.540   1.269   3.954  1.00  0.00     0.210 HD
ENDBRANCH   7  27
ENDBRANCH   1   2
BRANCH   1  29
HETATM   29  O3  UNL     1      -0.042   1.844   2.974  1.00  0.00    -0.388 OA
ATOM     30  H3  UNL     1       0.707   2.409   3.125  1.00  0.00     0.210 HD
ENDBRANCH   1  29
BRANCH   1  31
HETATM   31  C9  UNL     1       0.817   1.444   0.840  1.00  0.00     0.294 C 
HETATM   32  O4  UNL     1       0.601   1.434  -0.528  1.00  0.00    -0.353 OA
HETATM   33  C10 UNL     1       1.764   0.785  -0.982  1.00  0.00     0.244 C 
HETATM   34  C11 UNL     1       2.128  -0.170   0.148  1.00  0.00     0.259 C 
HETATM   35  O8  UNL     1       1.143   0.113   1.091  1.00  0.00    -0.316 OA
BRANCH  34  36
HETATM   36  C12 UNL     1       1.978  -1.560  -0.306  1.00  0.00     0.291 C 
HETATM   37  N6  UNL     1       2.832  -2.160  -1.273  1.00  0.00    -0.057 NA
HETATM   38  O5  UNL     1       1.061  -2.295   0.155  1.00  0.00    -0.271 OA
ENDBRANCH  34  36
BRANCH  34  39
HETATM   39  N7  UNL     1       3.446   0.123   0.676  1.00  0.00    -0.241 N 
HETATM   40  C13 UNL     1       4.610  -0.080   0.046  1.00  0.00     0.145 A 
HETATM   41  C14 UNL     1       5.607   0.322   0.875  1.00  0.00     0.075 A 
HETATM   42  N11 UNL     1       4.978   0.759   1.993  1.00  0.00    -0.286 N 
HETATM   43  N12 UNL     1       3.679   0.633   1.859  1.00  0.00    -0.237 N 
ATOM     44  H11 UNL     1       5.447   1.132   2.819  1.00  0.00     0.188 HD
ATOM     45  H12 UNL     1       2.976   0.887   2.553  1.00  0.00     0.208 HD
BRANCH  41  46
HETATM   46  C15 UNL     1       7.085   0.348   0.731  1.00  0.00     0.209 C 
BRANCH  46  47
HETATM   47  C16 UNL     1       7.485   1.694   0.200  1.00  0.00     0.268 C 
BRANCH  47  48
HETATM   48  N8  UNL     1       6.756   2.717   0.965  1.00  0.00    -0.076 N 
ATOM     49  H83 UNL     1       5.746   2.573   0.955  1.00  0.00     0.274 HD
ATOM     50  H82 UNL     1       6.896   2.632   1.972  1.00  0.00     0.274 HD
ATOM     51  H81 UNL     1       7.028   3.632   0.604  1.00  0.00     0.274 HD
ENDBRANCH  47  48
ENDBRANCH  46  47
BRANCH  46  52
HETATM   52  O6  UNL     1       7.663  -0.759   0.162  1.00  0.00    -0.310 OA
BRANCH  52  53
HETATM   53  C17 UNL     1       7.409  -1.228  -1.099  1.00  0.00     0.252 C 
HETATM   54  N9  UNL     1       6.987  -2.580  -1.380  1.00  0.00    -0.054 NA
HETATM   55  N10 UNL     1       7.574  -0.368  -2.046  1.00  0.00    -0.235 N 
ATOM     56  H10 UNL     1       7.874   0.585  -1.842  1.00  0.00     0.197 HD
BRANCH  55  57
HETATM   57  O7  UNL     1       7.336  -0.770  -3.332  1.00  0.00    -0.287 OA
ATOM     58  H7  UNL     1       7.458  -0.137  -4.030  1.00  0.00     0.244 HD
ENDBRANCH  55  57
ENDBRANCH  52  53
ENDBRANCH  46  52
ENDBRANCH  41  46
ENDBRANCH  34  39
ENDBRANCH   1  31
TORSDOF 16
