REMARK  20 active torsions:
REMARK  status: ('A' for Active; 'I' for Inactive)
REMARK    1  A    between atoms: C2_2  and  C3_3 
REMARK    2  A    between atoms: C3_3  and  O1_5 
REMARK    3  A    between atoms: O1_5  and  C5_6 
REMARK    4  A    between atoms: C5_6  and  O2_7 
REMARK    5  A    between atoms: O2_7  and  C6_8 
REMARK    6  A    between atoms: C8_10  and  N1_11 
REMARK    7  A    between atoms: C9_15  and  O3_16 
REMARK    8  A    between atoms: C12_21  and  O5_22 
REMARK    9  A    between atoms: C13_24  and  O6_25 
REMARK   10  A    between atoms: C14_27  and  O7_28 
REMARK   11  A    between atoms: O7_28  and  C15_29 
REMARK   12  A    between atoms: C16_30  and  N2_31 
REMARK   13  A    between atoms: C18_36  and  N3_37 
REMARK   14  A    between atoms: C19_41  and  O8_42 
REMARK   15  A    between atoms: O8_42  and  C20_43 
REMARK   16  A    between atoms: C21_45  and  N4_46 
REMARK   17  A    between atoms: C22_51  and  C23_52 
REMARK   18  A    between atoms: C23_52  and  N5_53 
REMARK   19  A    between atoms: C24_58  and  O12_59 
REMARK   20  A    between atoms: C25_61  and  O13_62 
ROOT
HETATM    1  C15 UNL     1       1.543  -1.944   0.691  1.00  0.00     0.183 C 
HETATM    2  C16 UNL     1       2.352  -3.187   0.971  1.00  0.00     0.217 C 
HETATM    3  C17 UNL     1       3.432  -3.478  -0.003  1.00  0.00     0.071 C 
HETATM    4  C18 UNL     1       4.379  -2.341  -0.175  1.00  0.00     0.217 C 
HETATM    5  C19 UNL     1       3.857  -0.998   0.177  1.00  0.00     0.188 C 
HETATM    6  C24 UNL     1       2.378  -0.830   0.126  1.00  0.00     0.180 C 
ENDROOT
BRANCH   1   7
HETATM    7  O7  UNL     1       0.528  -2.142  -0.209  1.00  0.00    -0.370 OA
BRANCH   7   8
HETATM    8  C14 UNL     1      -0.760  -2.036   0.172  1.00  0.00     0.187 C 
HETATM    9  C13 UNL     1      -1.724  -3.048  -0.232  1.00  0.00     0.184 C 
HETATM   10  C12 UNL     1      -3.069  -2.359  -0.255  1.00  0.00     0.214 C 
HETATM   11  C5  UNL     1      -2.814  -0.962   0.340  1.00  0.00     0.225 C 
HETATM   12  C25 UNL     1      -1.421  -0.730  -0.312  1.00  0.00     0.215 C 
BRANCH   9  13
HETATM   13  O6  UNL     1      -1.555  -3.575  -1.511  1.00  0.00    -0.390 OA
ATOM     14  H6  UNL     1      -0.710  -4.008  -1.497  1.00  0.00     0.210 HD
ENDBRANCH   9  13
BRANCH  10  15
HETATM   15  O5  UNL     1      -3.476  -2.106  -1.593  1.00  0.00    -0.387 OA
ATOM     16  H5  UNL     1      -3.633  -2.968  -1.960  1.00  0.00     0.210 HD
ENDBRANCH  10  15
BRANCH  11  17
HETATM   17  O1  UNL     1      -2.589  -1.083   1.655  1.00  0.00    -0.342 OA
BRANCH  17  18
HETATM   18  C3  UNL     1      -3.567  -1.445   2.525  1.00  0.00     0.143 C 
HETATM   19  C4  UNL     1      -3.189  -2.899   2.988  1.00  0.00     0.044 C 
BRANCH  18  20
HETATM   20  C2  UNL     1      -3.429  -0.682   3.800  1.00  0.00    -0.006 C 
HETATM   21  C1  UNL     1      -4.251   0.157   4.329  1.00  0.00     0.009 C 
ENDBRANCH  18  20
ENDBRANCH  17  18
ENDBRANCH  11  17
BRANCH  11  22
HETATM   22  O2  UNL     1      -3.725  -0.130  -0.175  1.00  0.00    -0.320 OA
BRANCH  22  23
HETATM   23  C6  UNL     1      -3.647   1.227   0.043  1.00  0.00     0.266 C 
HETATM   24  C7  UNL     1      -4.956   1.685   0.593  1.00  0.00     0.096 C 
HETATM   25  C8  UNL     1      -5.366   3.078   0.285  1.00  0.00     0.219 C 
HETATM   26  C9  UNL     1      -4.606   3.742  -0.810  1.00  0.00     0.177 C 
HETATM   27  C10 UNL     1      -4.088   2.662  -1.771  1.00  0.00     0.151 C 
HETATM   28  C11 UNL     1      -5.184   2.056  -2.599  1.00  0.00     0.042 C 
HETATM   29  O4  UNL     1      -3.266   1.777  -1.171  1.00  0.00    -0.354 OA
BRANCH  25  30
HETATM   30  N1  UNL     1      -5.250   3.936   1.472  1.00  0.00    -0.072 N 
ATOM     31  H13 UNL     1      -5.771   3.557   2.263  1.00  0.00     0.274 HD
ATOM     32  H12 UNL     1      -4.313   3.900   1.872  1.00  0.00     0.274 HD
ATOM     33  H11 UNL     1      -5.532   4.893   1.260  1.00  0.00     0.274 HD
ENDBRANCH  25  30
BRANCH  26  34
HETATM   34  O3  UNL     1      -5.351   4.656  -1.535  1.00  0.00    -0.391 OA
ATOM     35  H3  UNL     1      -4.866   5.080  -2.234  1.00  0.00     0.210 HD
ENDBRANCH  26  34
ENDBRANCH  22  23
ENDBRANCH  11  22
BRANCH  12  36
HETATM   36  O13 UNL     1      -0.752   0.283   0.358  1.00  0.00    -0.387 OA
ATOM     37  H13 UNL     1       0.099   0.425  -0.040  1.00  0.00     0.210 HD
ENDBRANCH  12  36
ENDBRANCH   7   8
ENDBRANCH   1   7
BRANCH   2  38
HETATM   38  N2  UNL     1       2.837  -3.186   2.359  1.00  0.00    -0.072 N 
ATOM     39  H23 UNL     1       3.359  -2.337   2.577  1.00  0.00     0.274 HD
ATOM     40  H22 UNL     1       2.074  -3.072   3.027  1.00  0.00     0.274 HD
ATOM     41  H21 UNL     1       3.384  -4.026   2.548  1.00  0.00     0.274 HD
ENDBRANCH   2  38
BRANCH   6  42
HETATM   42  O12 UNL     1       2.076  -0.646  -1.252  1.00  0.00    -0.390 OA
ATOM     43  H12 UNL     1       2.604   0.058  -1.609  1.00  0.00     0.210 HD
ENDBRANCH   6  42
BRANCH   5  44
HETATM   44  O8  UNL     1       4.400  -0.116  -0.799  1.00  0.00    -0.329 OA
BRANCH  44  45
HETATM   45  C20 UNL     1       5.200   0.860  -0.273  1.00  0.00     0.419 C 
HETATM   46  O9  UNL     1       6.516   0.598  -0.658  1.00  0.00    -0.284 OA
HETATM   47  C21 UNL     1       6.738   0.847  -1.997  1.00  0.00     0.472 C 
HETATM   48  O10 UNL     1       6.388   2.136  -2.322  1.00  0.00    -0.306 OA
HETATM   49  C22 UNL     1       5.079   2.443  -1.963  1.00  0.00     0.295 C 
HETATM   50  O11 UNL     1       4.763   2.099  -0.673  1.00  0.00    -0.306 OA
BRANCH  47  51
HETATM   51  N4  UNL     1       8.160   0.684  -2.264  1.00  0.00    -0.029 N 
ATOM     52  H43 UNL     1       8.742   1.260  -1.656  1.00  0.00     0.280 HD
ATOM     53  H42 UNL     1       8.512  -0.227  -1.971  1.00  0.00     0.280 HD
ATOM     54  H41 UNL     1       8.324   0.868  -3.254  1.00  0.00     0.280 HD
ENDBRANCH  47  51
BRANCH  49  55
HETATM   55  C23 UNL     1       4.845   3.916  -2.245  1.00  0.00     0.290 C 
BRANCH  55  56
HETATM   56  N5  UNL     1       5.741   4.756  -1.497  1.00  0.00    -0.075 N 
ATOM     57  H53 UNL     1       5.688   4.557  -0.498  1.00  0.00     0.274 HD
ATOM     58  H52 UNL     1       6.714   4.498  -1.661  1.00  0.00     0.274 HD
ATOM     59  H51 UNL     1       5.584   5.746  -1.686  1.00  0.00     0.274 HD
ENDBRANCH  55  56
ENDBRANCH  49  55
ENDBRANCH  44  45
ENDBRANCH   5  44
BRANCH   4  60
HETATM   60  N3  UNL     1       4.892  -2.419  -1.537  1.00  0.00    -0.072 N 
ATOM     61  H33 UNL     1       5.307  -3.324  -1.758  1.00  0.00     0.274 HD
ATOM     62  H32 UNL     1       4.156  -2.438  -2.243  1.00  0.00     0.274 HD
ATOM     63  H31 UNL     1       5.540  -1.640  -1.655  1.00  0.00     0.274 HD
ENDBRANCH   4  60
TORSDOF 20
