REMARK  11 active torsions:
REMARK  status: ('A' for Active; 'I' for Inactive)
REMARK    1  A    between atoms: N1_3  and  C3_5 
REMARK    2  A    between atoms: C3_5  and  C4_6 
REMARK    3  A    between atoms: C3_5  and  N3_18 
REMARK    4  A    between atoms: C4_6  and  C5_7 
REMARK    5  A    between atoms: C5_7  and  C6_8 
REMARK    6  A    between atoms: C9_11  and  N2_12 
REMARK    7  A    between atoms: N2_12  and  O1_14 
REMARK    8  A    between atoms: N3_18  and  C13_20 
REMARK    9  A    between atoms: C16_23  and  S1_24 
REMARK   10  A    between atoms: S1_24  and  N4_27 
REMARK   11  A    between atoms: N4_27  and  C17_29 
ROOT
HETATM    1  N3  UNL     1       0.120  -1.801   2.295  1.00  0.00    -0.343 N 
ATOM      2  H3  UNL     1      -0.083  -2.459   3.048  1.00  0.00     0.167 HD
ENDROOT
BRANCH   1   3
HETATM    3  C3  UNL     1      -0.879  -1.130   1.729  1.00  0.00     0.105 C 
BRANCH   3   4
HETATM    4  N1  UNL     1      -2.119  -1.464   2.299  1.00  0.00    -0.356 N 
HETATM    5  C2  UNL     1      -2.522  -2.618   2.648  1.00  0.00     0.058 C 
HETATM    6  C1  UNL     1      -1.775  -3.881   2.533  1.00  0.00     0.054 C 
ATOM      7  H1  UNL     1      -2.770  -0.693   2.450  1.00  0.00     0.166 HD
ENDBRANCH   3   4
BRANCH   3   8
HETATM    8  C4  UNL     1      -0.555  -0.229   0.679  1.00  0.00     0.049 C 
BRANCH   8   9
HETATM    9  C5  UNL     1      -1.150   0.585  -0.103  1.00  0.00     0.015 C 
BRANCH   9  10
HETATM   10  C6  UNL     1      -2.487   1.045  -0.343  1.00  0.00    -0.036 A 
HETATM   11  C7  UNL     1      -2.721   1.637  -1.599  1.00  0.00     0.013 A 
HETATM   12  C8  UNL     1      -3.936   2.171  -1.937  1.00  0.00     0.032 A 
HETATM   13  C9  UNL     1      -4.993   2.151  -1.053  1.00  0.00     0.056 A 
HETATM   14  C11 UNL     1      -4.767   1.574   0.174  1.00  0.00     0.032 A 
HETATM   15  C12 UNL     1      -3.533   1.024   0.540  1.00  0.00     0.013 A 
BRANCH  13  16
HETATM   16  N2  UNL     1      -6.250   2.684  -1.378  1.00  0.00    -0.266 N 
HETATM   17  C10 UNL     1      -6.489   4.086  -1.159  1.00  0.00     0.185 C 
BRANCH  16  18
HETATM   18  O1  UNL     1      -7.168   1.986  -1.843  1.00  0.00    -0.288 OA
ATOM     19  H1  UNL     1      -8.019   2.347  -2.063  1.00  0.00     0.244 HD
ENDBRANCH  16  18
ENDBRANCH  13  16
ENDBRANCH   9  10
ENDBRANCH   8   9
ENDBRANCH   3   8
ENDBRANCH   1   3
BRANCH   1  20
HETATM   20  C13 UNL     1       1.446  -1.623   1.878  1.00  0.00     0.033 A 
HETATM   21  C14 UNL     1       2.011  -2.330   0.814  1.00  0.00     0.031 A 
HETATM   22  C15 UNL     1       3.320  -2.087   0.481  1.00  0.00     0.027 A 
HETATM   23  C16 UNL     1       4.105  -1.181   1.143  1.00  0.00     0.080 A 
HETATM   24  C20 UNL     1       3.552  -0.483   2.191  1.00  0.00     0.027 A 
HETATM   25  C21 UNL     1       2.241  -0.699   2.554  1.00  0.00     0.031 A 
BRANCH  23  26
HETATM   26  S1  UNL     1       5.750  -0.929   0.640  1.00  0.00     0.264 S 
HETATM   27  O2  UNL     1       6.611  -0.825   1.894  1.00  0.00    -0.200 OA
HETATM   28  O3  UNL     1       6.263  -2.127  -0.153  1.00  0.00    -0.200 OA
BRANCH  26  29
HETATM   29  N4  UNL     1       5.975   0.492  -0.243  1.00  0.00    -0.260 N 
ATOM     30  H4  UNL     1       6.355   1.306   0.239  1.00  0.00     0.181 HD
BRANCH  29  31
HETATM   31  C17 UNL     1       5.690   0.601  -1.501  1.00  0.00     0.159 A 
HETATM   32  N5  UNL     1       5.193  -0.272  -2.368  1.00  0.00    -0.344 N 
HETATM   33  C18 UNL     1       4.989   0.086  -3.600  1.00  0.00     0.116 A 
ATOM     34  H5  UNL     1       4.972  -1.221  -2.068  1.00  0.00     0.167 HD
HETATM   35  C19 UNL     1       5.303   1.371  -3.955  1.00  0.00     0.070 A 
HETATM   36 BR1  UNL     1       5.123   2.212  -5.681  1.00  0.00    -0.042 Br
HETATM   37  S2  UNL     1       5.882   2.016  -2.488  1.00  0.00    -0.044 SA
ENDBRANCH  29  31
ENDBRANCH  26  29
ENDBRANCH  23  26
ENDBRANCH   1  20
TORSDOF 11
