REMARK  8 active torsions:
REMARK  status: ('A' for Active; 'I' for Inactive)
REMARK    1  A    between atoms: C3_5  and  N2_6 
REMARK    2  A    between atoms: N2_6  and  C4_8 
REMARK    3  A    between atoms: C9_14  and  C10_15 
REMARK    4  A    between atoms: C10_15  and  N3_16 
REMARK    5  A    between atoms: N3_16  and  C12_18 
REMARK    6  A    between atoms: C17_23  and  N4_24 
REMARK    7  A    between atoms: C19_26  and  C20_27 
REMARK    8  A    between atoms: C20_27  and  N5_28 
ROOT
HETATM    1  C1  UNL     1      -2.750  -4.864  -0.629  1.00  0.00     0.089 C 
HETATM    2  C2  UNL     1      -1.746  -3.765  -0.503  1.00  0.00     0.079 A 
HETATM    3  N1  UNL     1      -1.971  -2.589  -1.107  1.00  0.00    -0.332 N 
ATOM      4  H1  UNL     1      -2.832  -2.476  -1.643  1.00  0.00     0.168 HD
HETATM    5  C3  UNL     1      -1.121  -1.554  -1.042  1.00  0.00     0.119 A 
HETATM    6  C15 UNL     1       0.047  -1.710  -0.313  1.00  0.00     0.037 A 
HETATM    7  C16 UNL     1       0.941  -0.671  -0.225  1.00  0.00     0.049 A 
HETATM    8  C17 UNL     1       2.106  -0.819   0.500  1.00  0.00     0.057 A 
HETATM    9  C25 UNL     1       2.315  -2.033   1.111  1.00  0.00     0.034 A 
HETATM   10  C26 UNL     1       1.445  -3.095   1.045  1.00  0.00     0.033 A 
HETATM   11  C27 UNL     1       0.276  -2.916   0.306  1.00  0.00     0.047 A 
HETATM   12  N7  UNL     1      -0.614  -3.912   0.202  1.00  0.00    -0.345 N 
ATOM     13  H7  UNL     1      -0.427  -4.800   0.668  1.00  0.00     0.167 HD
ENDROOT
BRANCH   5  14
HETATM   14  N2  UNL     1      -1.392  -0.446  -1.646  1.00  0.00    -0.341 N 
ATOM     15  H2  UNL     1      -0.740   0.336  -1.593  1.00  0.00     0.167 HD
BRANCH  14  16
HETATM   16  C4  UNL     1      -2.597  -0.316  -2.384  1.00  0.00     0.041 A 
HETATM   17  C5  UNL     1      -2.695  -0.796  -3.664  1.00  0.00     0.031 A 
HETATM   18  C6  UNL     1      -3.885  -0.654  -4.361  1.00  0.00     0.021 A 
HETATM   19  C7  UNL     1      -4.962  -0.033  -3.766  1.00  0.00     0.011 A 
HETATM   20 BR1  UNL     1      -6.578   0.139  -4.767  1.00  0.00    -0.051 Br
HETATM   21  C8  UNL     1      -4.883   0.465  -2.458  1.00  0.00     0.030 A 
HETATM   22  C9  UNL     1      -3.701   0.313  -1.793  1.00  0.00    -0.002 A 
BRANCH  22  23
HETATM   23  C10 UNL     1      -3.522   0.774  -0.417  1.00  0.00     0.313 C 
BRANCH  23  24
HETATM   24  N3  UNL     1      -4.633   1.446   0.140  1.00  0.00     0.092 N 
HETATM   25  C11 UNL     1      -4.926   2.723  -0.478  1.00  0.00     0.310 C 
BRANCH  24  26
HETATM   26  C12 UNL     1      -4.602   1.626   1.554  1.00  0.00     0.215 C 
HETATM   27  C13 UNL     1      -5.888   2.367   1.941  1.00  0.00     0.042 C 
HETATM   28  C14 UNL     1      -4.616   0.331   2.328  1.00  0.00     0.042 C 
ENDBRANCH  24  26
ENDBRANCH  23  24
ENDBRANCH  22  23
ENDBRANCH  14  16
ENDBRANCH   5  14
BRANCH   8  29
HETATM   29  N4  UNL     1       3.046   0.239   0.608  1.00  0.00    -0.267 N 
HETATM   30  C18 UNL     1       4.395   0.108   0.458  1.00  0.00     0.127 A 
HETATM   31  C19 UNL     1       4.999   1.322   0.627  1.00  0.00     0.000 A 
HETATM   32  C23 UNL     1       3.967   2.206   0.886  1.00  0.00     0.032 A 
HETATM   33  C24 UNL     1       4.142   3.676   1.140  1.00  0.00     0.070 C 
HETATM   34  N6  UNL     1       2.829   1.517   0.864  1.00  0.00    -0.298 N 
ATOM     35  H6  UNL     1       1.907   1.923   1.024  1.00  0.00     0.187 HD
BRANCH  31  36
HETATM   36  C20 UNL     1       6.447   1.594   0.535  1.00  0.00     0.158 C 
BRANCH  36  37
HETATM   37  N5  UNL     1       7.266   0.464   0.264  1.00  0.00    -0.417 N 
HETATM   38  C21 UNL     1       7.255  -0.581   1.236  1.00  0.00     0.142 C 
HETATM   39  C22 UNL     1       8.567   0.778  -0.233  1.00  0.00     0.142 C 
ENDBRANCH  36  37
ENDBRANCH  31  36
ENDBRANCH   8  29
TORSDOF 8
