REMARK  3 active torsions:
REMARK  status: ('A' for Active; 'I' for Inactive)
REMARK    1  A    between atoms: C1_2  and  C2_4 
REMARK       I    between atoms: N1_7  and  C5_8 
REMARK    2  A    between atoms: C5_8  and  C6_10 
REMARK       I    between atoms: N2_13  and  C9_14 
REMARK       I    between atoms: C9_14  and  N3_16 
REMARK    3  A    between atoms: N3_16  and  C10_18 
ROOT
HETATM    1  C6  UNL     1      -0.201  -1.221   0.120  1.00  0.00     0.081 C 
HETATM    2  C7  UNL     1       0.540  -2.527   0.270  1.00  0.00     0.034 C 
HETATM    3  C8  UNL     1       2.005  -2.443   0.206  1.00  0.00     0.128 C 
HETATM    4  N2  UNL     1       2.574  -1.122   0.147  1.00  0.00    -0.334 N 
HETATM    5  C9  UNL     1       3.931  -0.985   0.543  1.00  0.00     0.318 C 
HETATM    6  O4  UNL     1       4.629  -1.972   0.935  1.00  0.00    -0.247 OA
HETATM    7  N3  UNL     1       4.569   0.270   0.518  1.00  0.00    -0.338 N 
ATOM      8  H3  UNL     1       4.028   1.077   0.207  1.00  0.00     0.164 HD
HETATM    9  C13 UNL     1       1.878   0.053  -0.278  1.00  0.00     0.128 C 
HETATM   10  C14 UNL     1       0.553  -0.359  -0.865  1.00  0.00     0.034 C 
ENDROOT
BRANCH   1  11
HETATM   11  C5  UNL     1      -1.545  -1.499  -0.446  1.00  0.00     0.224 C 
HETATM   12  N1  UNL     1      -2.586  -0.558  -0.588  1.00  0.00    -0.352 N 
HETATM   13  C4  UNL     1      -2.367   0.793  -0.148  1.00  0.00     0.126 C 
HETATM   14  C15 UNL     1      -3.837  -1.002  -1.174  1.00  0.00     0.126 C 
HETATM   15  C3  UNL     1      -3.607   1.391   0.492  1.00  0.00     0.035 C 
HETATM   16  C2  UNL     1      -4.731   1.178  -0.529  1.00  0.00     0.090 C 
HETATM   17  C16 UNL     1      -5.019  -0.295  -0.549  1.00  0.00     0.035 C 
HETATM   18  O3  UNL     1      -1.775  -2.697  -0.838  1.00  0.00    -0.273 OA
BRANCH  16  19
HETATM   19  C1  UNL     1      -5.880   2.001  -0.157  1.00  0.00     0.177 C 
HETATM   20  O1  UNL     1      -5.864   2.737   0.857  1.00  0.00    -0.648 OA
HETATM   21  O2  UNL     1      -7.025   1.981  -0.930  1.00  0.00    -0.648 OA
ENDBRANCH  16  19
ENDBRANCH   1  11
BRANCH   7  22
HETATM   22  C10 UNL     1       5.945   0.484   0.906  1.00  0.00     0.086 A 
HETATM   23  C11 UNL     1       6.699   1.596   0.278  1.00  0.00     0.027 A 
HETATM   24  C12 UNL     1       6.153   1.793   1.689  1.00  0.00     0.027 A 
ENDBRANCH   7  22
TORSDOF 3
