REMARK  4 active torsions:
REMARK  status: ('A' for Active; 'I' for Inactive)
REMARK    1  A    between atoms: C1_4  and  C2_6 
REMARK    2  A    between atoms: C3_9  and  C4_10 
REMARK    3  A    between atoms: N4_11  and  N5_13 
REMARK    4  A    between atoms: N5_13  and  C5_15 
ROOT
HETATM    1  C4  UNL     1       0.081  -1.090   0.197  1.00  0.00     0.137 C 
HETATM    2  N4  UNL     1       1.225  -0.814  -0.271  1.00  0.00    -0.295 N 
ATOM      3  H4  UNL     1       1.304   0.029  -0.839  1.00  0.00     0.186 HD
ENDROOT
BRANCH   1   4
HETATM    4  C3  UNL     1      -1.084  -0.210  -0.080  1.00  0.00     0.056 A 
HETATM    5  N3  UNL     1      -2.260  -0.473   0.387  1.00  0.00    -0.346 N 
HETATM    6  C2  UNL     1      -3.277   0.327   0.124  1.00  0.00     0.115 A 
ATOM      7  H3  UNL     1      -2.403  -1.303   0.962  1.00  0.00     0.167 HD
HETATM    8  S1  UNL     1      -2.539   1.533  -0.846  1.00  0.00    -0.079 SA
HETATM    9  C7  UNL     1      -0.946   0.921  -0.850  1.00  0.00     0.082 A 
BRANCH   6  10
HETATM   10  C1  UNL     1      -4.678   0.225   0.544  1.00  0.00     0.144 C 
HETATM   11  N1  UNL     1      -5.036  -0.754   1.271  1.00  0.00    -0.385 N 
ATOM     12  H12 UNL     1      -6.011  -0.825   1.563  1.00  0.00     0.157 HD
ATOM     13  H11 UNL     1      -4.372  -1.470   1.568  1.00  0.00     0.157 HD
HETATM   14  N2  UNL     1      -5.586   1.204   0.138  1.00  0.00    -0.080 NA
ENDBRANCH   6  10
ENDBRANCH   1   4
BRANCH   2  15
HETATM   15  N5  UNL     1       2.368  -1.550  -0.081  1.00  0.00    -0.131 N 
ATOM     16  H5  UNL     1       2.308  -2.556   0.073  1.00  0.00     0.205 HD
BRANCH  15  17
HETATM   17  C5  UNL     1       3.510  -0.971  -0.098  1.00  0.00     0.712 A 
HETATM   18  N6  UNL     1       4.738  -1.529   0.070  1.00  0.00    -0.184 N 
HETATM   19  C6  UNL     1       5.688  -0.588  -0.016  1.00  0.00     0.215 A 
ATOM     20  H6  UNL     1       4.911  -2.520   0.237  1.00  0.00     0.185 HD
HETATM   21  N7  UNL     1       5.043   0.566  -0.240  1.00  0.00    -0.281 N 
HETATM   22  N8  UNL     1       3.754   0.338  -0.288  1.00  0.00    -0.130 N 
ATOM     23  H7  UNL     1       5.486   1.478  -0.355  1.00  0.00     0.188 HD
ATOM     24  H8  UNL     1       3.040   1.049  -0.446  1.00  0.00     0.205 HD
ENDBRANCH  15  17
ENDBRANCH   2  15
TORSDOF 4
