REMARK  17 active torsions:
REMARK  status: ('A' for Active; 'I' for Inactive)
REMARK    1  A    between atoms: C2_2  and  C4_4 
REMARK    2  A    between atoms: C4_4  and  C5_5 
REMARK    3  A    between atoms: C5_5  and  N1_6 
REMARK    4  A    between atoms: C5_5  and  C14_22 
REMARK    5  A    between atoms: N1_6  and  C6_8 
REMARK    6  A    between atoms: C6_8  and  C7_10 
REMARK    7  A    between atoms: C7_10  and  C8_11 
REMARK    8  A    between atoms: C7_10  and  N4_19 
REMARK    9  A    between atoms: C8_11  and  C9_12 
REMARK   10  A    between atoms: C14_22  and  O1_23 
REMARK   11  A    between atoms: C14_22  and  N5_25 
REMARK   12  A    between atoms: N5_25  and  C15_27 
REMARK   13  A    between atoms: C15_27  and  C16_28 
REMARK   14  A    between atoms: C15_27  and  C20_32 
REMARK   15  A    between atoms: C16_28  and  C17_29 
REMARK       I    between atoms: C20_32  and  N6_34 
REMARK       I    between atoms: N7_37  and  C23_38 
REMARK   16  A    between atoms: C23_38  and  O4_40 
REMARK   17  A    between atoms: O4_40  and  C24_41 
ROOT
HETATM    1  C14 UNL     1       1.456   0.500   1.039  1.00  0.00     0.135 C 
ENDROOT
BRANCH   1   2
HETATM    2  C5  UNL     1       2.866   0.511   1.501  1.00  0.00     0.157 C 
BRANCH   2   3
HETATM    3  C4  UNL     1       3.405   1.866   1.836  1.00  0.00     0.037 C 
BRANCH   3   4
HETATM    4  C2  UNL     1       2.752   2.589   2.972  1.00  0.00    -0.020 C 
HETATM    5  C1  UNL     1       2.847   1.853   4.295  1.00  0.00     0.009 C 
HETATM    6  C3  UNL     1       3.527   3.920   3.103  1.00  0.00     0.009 C 
ENDBRANCH   3   4
ENDBRANCH   2   3
BRANCH   2   7
HETATM    7  N1  UNL     1       3.714   0.014   0.405  1.00  0.00    -0.370 N 
ATOM      8  H1  UNL     1       3.315  -0.031  -0.532  1.00  0.00     0.161 HD
BRANCH   7   9
HETATM    9  C6  UNL     1       5.047  -0.403   0.582  1.00  0.00     0.108 C 
HETATM   10  S1  UNL     1       5.711  -0.386   2.064  1.00  0.00    -0.063 SA
BRANCH   9  11
HETATM   11  C7  UNL     1       5.838  -0.885  -0.590  1.00  0.00     0.288 C 
BRANCH  11  12
HETATM   12  C8  UNL     1       5.167  -2.102  -1.157  1.00  0.00     0.101 C 
BRANCH  12  13
HETATM   13  C9  UNL     1       5.868  -2.668  -2.348  1.00  0.00     0.028 A 
HETATM   14  C10 UNL     1       5.657  -2.356  -3.673  1.00  0.00     0.114 A 
HETATM   15  N2  UNL     1       6.487  -3.094  -4.411  1.00  0.00    -0.360 N 
HETATM   16  C11 UNL     1       7.216  -3.863  -3.596  1.00  0.00     0.180 A 
ATOM     17  H2  UNL     1       6.554  -3.075  -5.429  1.00  0.00     0.166 HD
HETATM   18  N3  UNL     1       6.834  -3.599  -2.333  1.00  0.00    -0.355 N 
ATOM     19  H3  UNL     1       7.218  -4.038  -1.496  1.00  0.00     0.166 HD
ENDBRANCH  12  13
ENDBRANCH  11  12
BRANCH  11  20
HETATM   20  N4  UNL     1       7.212  -1.125  -0.312  1.00  0.00     0.091 N 
HETATM   21  C12 UNL     1       7.912   0.108   0.063  1.00  0.00     0.310 C 
HETATM   22  C13 UNL     1       7.503  -2.115   0.678  1.00  0.00     0.310 C 
ENDBRANCH  11  20
ENDBRANCH   9  11
ENDBRANCH   7   9
ENDBRANCH   2   7
ENDBRANCH   1   2
BRANCH   1  23
HETATM   23  O1  UNL     1       1.248   0.180  -0.207  1.00  0.00    -0.348 OA
ATOM     24  H1  UNL     1       0.345   0.173  -0.503  1.00  0.00     0.219 HD
ENDBRANCH   1  23
BRANCH   1  25
HETATM   25  N5  UNL     1       0.303   0.786   1.763  1.00  0.00    -0.359 N 
ATOM     26  H5  UNL     1       0.380   1.045   2.747  1.00  0.00     0.162 HD
BRANCH  25  27
HETATM   27  C15 UNL     1      -1.045   0.720   1.124  1.00  0.00     0.176 C 
BRANCH  27  28
HETATM   28  C16 UNL     1      -1.738   2.029   1.334  1.00  0.00     0.038 C 
BRANCH  28  29
HETATM   29  C17 UNL     1      -1.014   3.213   0.726  1.00  0.00    -0.020 C 
HETATM   30  C18 UNL     1      -0.843   3.102  -0.753  1.00  0.00     0.009 C 
HETATM   31  C19 UNL     1      -1.775   4.463   1.124  1.00  0.00     0.009 C 
ENDBRANCH  28  29
ENDBRANCH  27  28
BRANCH  27  32
HETATM   32  C20 UNL     1      -1.812  -0.374   1.740  1.00  0.00     0.242 C 
HETATM   33  O2  UNL     1      -1.373  -0.946   2.789  1.00  0.00    -0.271 OA
HETATM   34  N6  UNL     1      -3.034  -0.828   1.203  1.00  0.00    -0.347 N 
HETATM   35  C21 UNL     1      -3.545  -0.230  -0.006  1.00  0.00     0.146 C 
HETATM   36  C29 UNL     1      -3.793  -1.897   1.842  1.00  0.00     0.146 C 
HETATM   37  C22 UNL     1      -4.262  -1.341  -0.795  1.00  0.00     0.148 C 
HETATM   38  N7  UNL     1      -5.421  -1.665   0.025  1.00  0.00    -0.325 N 
HETATM   39  C23 UNL     1      -6.711  -1.644  -0.531  1.00  0.00     0.363 C 
HETATM   40  C28 UNL     1      -5.213  -1.999   1.419  1.00  0.00     0.148 C 
HETATM   41  O3  UNL     1      -7.728  -1.924   0.152  1.00  0.00    -0.238 OA
BRANCH  39  42
HETATM   42  O4  UNL     1      -6.895  -1.312  -1.843  1.00  0.00    -0.294 OA
BRANCH  42  43
HETATM   43  C24 UNL     1      -8.111  -1.248  -2.519  1.00  0.00     0.061 C 
HETATM   44  C25 UNL     1      -8.891  -2.505  -2.580  1.00  0.00     0.046 C 
HETATM   45  C26 UNL     1      -7.835  -0.774  -3.931  1.00  0.00     0.046 C 
HETATM   46  C27 UNL     1      -8.995  -0.188  -1.868  1.00  0.00     0.046 C 
ENDBRANCH  42  43
ENDBRANCH  39  42
ENDBRANCH  27  32
ENDBRANCH  25  27
ENDBRANCH   1  25
TORSDOF 17
