REMARK  15 active torsions:
REMARK  status: ('A' for Active; 'I' for Inactive)
REMARK    1  A    between atoms: C2_2  and  C3_3 
REMARK    2  A    between atoms: C3_3  and  C4_4 
REMARK    3  A    between atoms: C4_4  and  N1_5 
REMARK    4  A    between atoms: C4_4  and  C22_34 
REMARK       I    between atoms: N1_5  and  C5_7 
REMARK    5  A    between atoms: C5_7  and  C6_9 
REMARK       I    between atoms: C6_9  and  N2_11 
REMARK    6  A    between atoms: N2_11  and  C7_13 
REMARK    7  A    between atoms: C8_14  and  C9_15 
REMARK    8  A    between atoms: C11_19  and  C12_20 
REMARK    9  A    between atoms: C12_20  and  O6_22 
REMARK   10  A    between atoms: O6_22  and  C13_23 
REMARK   11  A    between atoms: C22_34  and  C23_36 
REMARK       I    between atoms: C23_36  and  N4_38 
REMARK   12  A    between atoms: N4_38  and  C24_39 
REMARK   13  A    between atoms: N4_38  and  C27_42 
REMARK   14  A    between atoms: C24_39  and  C25_40 
REMARK   15  A    between atoms: C27_42  and  C28_43 
ROOT
HETATM    1  C6  UNL     1      -0.349   0.045   0.002  1.00  0.00     0.311 C 
HETATM    2  O2  UNL     1      -0.266   1.126   0.619  1.00  0.00    -0.262 OA
HETATM    3  N2  UNL     1      -1.579  -0.657   0.001  1.00  0.00    -0.322 N 
ATOM      4  H2  UNL     1      -1.608  -1.531  -0.523  1.00  0.00     0.165 HD
ENDROOT
BRANCH   3   5
HETATM    5  C7  UNL     1      -2.785  -0.262   0.662  1.00  0.00     0.341 C 
HETATM    6  C8  UNL     1      -3.271  -1.331   1.618  1.00  0.00     0.143 C 
HETATM    7  C10 UNL     1      -4.614  -1.752   1.131  1.00  0.00     0.073 C 
HETATM    8  C11 UNL     1      -5.007  -0.736   0.094  1.00  0.00     0.263 C 
HETATM    9  N3  UNL     1      -3.876   0.095  -0.171  1.00  0.00     0.140 N 
HETATM   10  C19 UNL     1      -5.437  -1.324  -1.215  1.00  0.00     0.061 C 
HETATM   11  C17 UNL     1      -3.637   0.132  -1.575  1.00  0.00     0.355 C 
HETATM   12  C18 UNL     1      -4.965  -0.270  -2.184  1.00  0.00     0.166 C 
HETATM   13  O7  UNL     1      -5.486   0.158  -3.188  1.00  0.00    -0.295 OA
HETATM   14  C20 UNL     1      -4.708  -2.588  -1.599  1.00  0.00     0.026 C 
HETATM   15  C21 UNL     1      -6.898  -1.585  -1.354  1.00  0.00     0.026 C 
BRANCH   6  16
HETATM   16  C9  UNL     1      -3.352  -0.825   3.009  1.00  0.00     0.181 C 
HETATM   17  O3  UNL     1      -2.687  -1.337   3.955  1.00  0.00    -0.648 OA
HETATM   18  O4  UNL     1      -4.182   0.243   3.282  1.00  0.00    -0.648 OA
ENDBRANCH   6  16
BRANCH   8  19
HETATM   19  C12 UNL     1      -6.118   0.127   0.594  1.00  0.00     0.300 C 
HETATM   20  O5  UNL     1      -7.228  -0.350   0.948  1.00  0.00    -0.262 OA
BRANCH  19  21
HETATM   21  O6  UNL     1      -5.958   1.481   0.684  1.00  0.00    -0.309 OA
BRANCH  21  22
HETATM   22  C13 UNL     1      -6.901   2.414   1.133  1.00  0.00     0.060 C 
HETATM   23  C14 UNL     1      -8.169   2.450   0.346  1.00  0.00     0.045 C 
HETATM   24  C15 UNL     1      -6.240   3.778   1.038  1.00  0.00     0.045 C 
HETATM   25  C16 UNL     1      -7.251   2.207   2.596  1.00  0.00     0.045 C 
ENDBRANCH  21  22
ENDBRANCH  19  21
ENDBRANCH   8  19
ENDBRANCH   3   5
BRANCH   1  26
HETATM   26  C5  UNL     1       0.808  -0.456  -0.689  1.00  0.00     0.310 C 
HETATM   27  N1  UNL     1       2.005   0.280  -0.711  1.00  0.00    -0.341 N 
ATOM     28  H1  UNL     1       2.028   1.180  -0.231  1.00  0.00     0.163 HD
HETATM   29  O1  UNL     1       0.735  -1.559  -1.271  1.00  0.00    -0.262 OA
BRANCH  27  30
HETATM   30  C4  UNL     1       3.210  -0.173  -1.381  1.00  0.00     0.165 C 
BRANCH  30  31
HETATM   31  C3  UNL     1       3.553   0.905  -2.398  1.00  0.00     0.033 C 
BRANCH  31  32
HETATM   32  C2  UNL     1       2.473   1.124  -3.413  1.00  0.00    -0.002 C 
HETATM   33  C1  UNL     1       2.138  -0.069  -4.243  1.00  0.00     0.005 C 
ENDBRANCH  31  32
ENDBRANCH  30  31
BRANCH  30  34
HETATM   34  C22 UNL     1       4.320  -0.095  -0.356  1.00  0.00     0.239 C 
HETATM   35  O8  UNL     1       4.011   0.407   0.744  1.00  0.00    -0.285 OA
BRANCH  34  36
HETATM   36  C23 UNL     1       5.625  -0.578  -0.665  1.00  0.00     0.291 C 
HETATM   37  O9  UNL     1       5.782  -1.093  -1.834  1.00  0.00    -0.264 OA
HETATM   38  N4  UNL     1       6.730  -0.530   0.201  1.00  0.00    -0.345 N 
BRANCH  38  39
HETATM   39  C24 UNL     1       7.974  -1.078  -0.352  1.00  0.00     0.126 C 
BRANCH  39  40
HETATM   40  C25 UNL     1       8.782  -0.073  -1.104  1.00  0.00     0.015 C 
HETATM   41  C26 UNL     1       9.211   1.084  -0.262  1.00  0.00     0.006 C 
ENDBRANCH  39  40
ENDBRANCH  38  39
BRANCH  38  42
HETATM   42  C27 UNL     1       6.649   0.020   1.510  1.00  0.00     0.130 C 
BRANCH  42  43
HETATM   43  C28 UNL     1       6.226  -0.940   2.594  1.00  0.00    -0.005 C 
HETATM   44  C29 UNL     1       6.186  -0.157   3.912  1.00  0.00     0.011 C 
HETATM   45  C30 UNL     1       7.245  -2.065   2.724  1.00  0.00     0.011 C 
ENDBRANCH  42  43
ENDBRANCH  38  42
ENDBRANCH  34  36
ENDBRANCH  30  34
ENDBRANCH  27  30
ENDBRANCH   1  26
TORSDOF 15
