REMARK  8 active torsions:
REMARK  status: ('A' for Active; 'I' for Inactive)
REMARK    1  A    between atoms: N1_2  and  C2_4 
REMARK    2  A    between atoms: C3_7  and  N3_8 
REMARK    3  A    between atoms: N3_8  and  C4_10 
REMARK    4  A    between atoms: C4_10  and  C5_11 
REMARK    5  A    between atoms: C5_11  and  C6_12 
REMARK    6  A    between atoms: N5_18  and  C8_19 
REMARK    7  A    between atoms: C9_26  and  N9_27 
REMARK    8  A    between atoms: N9_27  and  N10_29 
ROOT
HETATM    1  C2  UNL     1       0.891   3.190  -0.623  1.00  0.00     0.681 A 
HETATM    2  N2  UNL     1       1.788   2.395  -0.016  1.00  0.00    -0.175 N 
ATOM      3  H2  UNL     1       2.701   2.763   0.253  1.00  0.00     0.186 HD
HETATM    4  C3  UNL     1       1.470   1.091   0.239  1.00  0.00     0.149 A 
HETATM    5  C7  UNL     1       0.245   0.589  -0.120  1.00  0.00     0.140 A 
HETATM    6  N4  UNL     1      -0.382  -0.580  -0.033  1.00  0.00    -0.271 N 
ATOM      7  H4  UNL     1       0.030  -1.414   0.385  1.00  0.00     0.189 HD
HETATM    8  N5  UNL     1      -1.608  -0.540  -0.552  1.00  0.00    -0.172 N 
HETATM    9  N11 UNL     1      -1.747   0.724  -0.984  1.00  0.00    -0.260 N 
ATOM     10  H11 UNL     1      -2.585   1.088  -1.438  1.00  0.00     0.191 HD
HETATM   11  C10 UNL     1      -0.651   1.442  -0.743  1.00  0.00     0.169 A 
HETATM   12  N12 UNL     1      -0.328   2.733  -0.993  1.00  0.00    -0.173 N 
ATOM     13  H12 UNL     1      -0.994   3.353  -1.454  1.00  0.00     0.186 HD
ENDROOT
BRANCH   8  14
HETATM   14  C8  UNL     1      -2.560  -1.580  -0.638  1.00  0.00     0.208 A 
HETATM   15  N6  UNL     1      -2.402  -2.753  -1.249  1.00  0.00    -0.265 N 
HETATM   16  N7  UNL     1      -3.536  -3.443  -1.096  1.00  0.00    -0.239 N 
ATOM     17  H6  UNL     1      -1.567  -3.067  -1.744  1.00  0.00     0.190 HD
HETATM   18  N8  UNL     1      -4.425  -2.758  -0.406  1.00  0.00    -0.267 N 
ATOM     19  H7  UNL     1      -3.693  -4.380  -1.466  1.00  0.00     0.208 HD
HETATM   20  C9  UNL     1      -3.820  -1.569  -0.106  1.00  0.00     0.185 A 
ATOM     21  H8  UNL     1      -5.367  -3.053  -0.149  1.00  0.00     0.190 HD
BRANCH  20  22
HETATM   22  N9  UNL     1      -4.394  -0.501   0.630  1.00  0.00    -0.288 N 
ATOM     23  H9  UNL     1      -3.858   0.350   0.801  1.00  0.00     0.188 HD
BRANCH  22  24
HETATM   24  N10 UNL     1      -5.680  -0.617   1.114  1.00  0.00    -0.343 N 
ATOM     25 2H10 UNL     1      -6.203  -1.474   0.935  1.00  0.00     0.176 HD
ATOM     26 1H10 UNL     1      -6.093   0.151   1.643  1.00  0.00     0.176 HD
ENDBRANCH  22  24
ENDBRANCH  20  22
ENDBRANCH   8  14
BRANCH   4  27
HETATM   27  N3  UNL     1       2.333   0.389   0.804  1.00  0.00    -0.373 N 
ATOM     28  H3  UNL     1       3.197   0.889   1.013  1.00  0.00     0.161 HD
BRANCH  27  29
HETATM   29  C4  UNL     1       2.345  -0.967   1.211  1.00  0.00     0.132 C 
BRANCH  29  30
HETATM   30  C5  UNL     1       2.880  -1.912   0.159  1.00  0.00     0.132 C 
BRANCH  30  31
HETATM   31  C6  UNL     1       2.867  -3.315   0.641  1.00  0.00     0.174 C 
HETATM   32  O1  UNL     1       2.439  -3.539   1.797  1.00  0.00    -0.648 OA
HETATM   33  O2  UNL     1       3.308  -4.376  -0.134  1.00  0.00    -0.648 OA
ENDBRANCH  30  31
ENDBRANCH  29  30
ENDBRANCH  27  29
ENDBRANCH   4  27
BRANCH   1  34
HETATM   34  N1  UNL     1       1.169   4.421  -0.873  1.00  0.00    -0.230 N 
HETATM   35  C1  UNL     1       2.423   5.040  -0.537  1.00  0.00     0.165 C 
ATOM     36  H1  UNL     1       0.460   4.990  -1.336  1.00  0.00     0.177 HD
ENDBRANCH   1  34
TORSDOF 8
