REMARK  0 active torsions:
REMARK  status: ('A' for Active; 'I' for Inactive)
ROOT
HETATM    1  N1  UNL     1       2.091   1.480  -0.206  1.00  0.00    -0.373 N 
ATOM      2  H11 UNL     1       3.021   1.062  -0.183  1.00  0.00     0.158 HD
ATOM      3  H12 UNL     1       2.086   2.498  -0.263  1.00  0.00     0.158 HD
HETATM    4  C1  UNL     1       1.033   0.772  -0.166  1.00  0.00     0.232 C 
HETATM    5  N2  UNL     1      -0.261   1.354  -0.198  1.00  0.00    -0.274 N 
ATOM      6  H2  UNL     1      -0.310   2.339  -0.458  1.00  0.00     0.189 HD
HETATM    7  N3  UNL     1      -1.444   0.741   0.081  1.00  0.00    -0.293 N 
ATOM      8  H3  UNL     1      -2.298   1.286   0.203  1.00  0.00     0.187 HD
HETATM    9  C2  UNL     1      -1.462  -0.654   0.196  1.00  0.00     0.208 C 
HETATM   10  N4  UNL     1      -0.565  -1.383  -0.650  1.00  0.00    -0.273 N 
ATOM     11  H4  UNL     1      -0.808  -2.000  -1.425  1.00  0.00     0.179 HD
HETATM   12  S1  UNL     1       1.041  -0.987  -0.067  1.00  0.00     0.296 S 
HETATM   13  O1  UNL     1       2.089  -1.593  -0.922  1.00  0.00    -0.197 OA
HETATM   14  O2  UNL     1       1.130  -1.370   1.365  1.00  0.00    -0.197 OA
ENDROOT
TORSDOF 0
