REMARK  0 active torsions:
REMARK  status: ('A' for Active; 'I' for Inactive)
ROOT
HETATM    1  C1  UNL     1      -1.617  -1.223  -0.383  1.00  0.00     0.138 C 
HETATM    2  C2  UNL     1      -2.186   0.056   0.222  1.00  0.00     0.133 C 
HETATM    3  N1  UNL     1      -2.090   1.207  -0.588  1.00  0.00    -0.418 N 
ATOM      4  H1  UNL     1      -2.683   1.330  -1.409  1.00  0.00     0.153 HD
HETATM    5  C3  UNL     1      -1.109   2.212  -0.204  1.00  0.00     0.141 C 
HETATM    6  C4  UNL     1       0.124   1.445  -0.039  1.00  0.00     0.253 C 
HETATM    7  N2  UNL     1       1.400   2.086   0.014  1.00  0.00    -0.058 N 
ATOM      8  H21 UNL     1       1.527   2.755   0.774  1.00  0.00     0.279 HD
ATOM      9  H22 UNL     1       1.585   2.762  -0.727  1.00  0.00     0.279 HD
HETATM   10  C5  UNL     1       2.294   0.908   0.043  1.00  0.00     0.350 C 
HETATM   11  N3  UNL     1       1.710  -0.257   0.601  1.00  0.00    -0.396 N 
ATOM     12  H3  UNL     1       1.379  -0.286   1.565  1.00  0.00     0.155 HD
HETATM   13  C6  UNL     1       1.611  -1.401  -0.276  1.00  0.00     0.159 C 
HETATM   14  C7  UNL     1       0.518  -2.344   0.015  1.00  0.00     0.074 C 
HETATM   15  N4  UNL     1      -0.714  -1.904   0.476  1.00  0.00    -0.399 N 
ATOM     16  H4  UNL     1      -0.976  -2.072   1.447  1.00  0.00     0.158 HD
ENDROOT
TORSDOF 0
