REMARK  1 active torsions:
REMARK  status: ('A' for Active; 'I' for Inactive)
REMARK    1  A    between atoms: N1_1  and  N2_4 
REMARK       I    between atoms: N2_4  and  C1_6 
REMARK       I    between atoms: C1_6  and  N3_8 
ROOT
HETATM    1  N2  UNL     1      -1.910   0.455   0.142  1.00  0.00    -0.256 N 
ATOM      2  H2  UNL     1      -1.586   1.239   0.708  1.00  0.00     0.191 HD
HETATM    3  C1  UNL     1      -0.960  -0.473  -0.367  1.00  0.00     0.364 C 
HETATM    4  O1  UNL     1      -1.300  -1.453  -1.067  1.00  0.00    -0.243 OA
HETATM    5  N3  UNL     1       0.427  -0.289  -0.076  1.00  0.00    -0.148 N 
HETATM    6  N4  UNL     1       0.988   0.683   0.646  1.00  0.00    -0.236 N 
ATOM      7  H4  UNL     1       0.482   1.445   1.098  1.00  0.00     0.192 HD
HETATM    8  C2  UNL     1       2.320   0.508   0.689  1.00  0.00     0.343 A 
HETATM    9  O2  UNL     1       3.146   1.245   1.284  1.00  0.00    -0.245 OA
HETATM   10  N5  UNL     1       2.624  -0.592  -0.014  1.00  0.00    -0.258 N 
ATOM     11  H5  UNL     1       3.551  -0.988  -0.168  1.00  0.00     0.175 HD
HETATM   12  C3  UNL     1       1.448  -1.066  -0.475  1.00  0.00     0.353 A 
HETATM   13  O3  UNL     1       1.309  -2.104  -1.190  1.00  0.00    -0.244 OA
ENDROOT
BRANCH   1  14
HETATM   14  N1  UNL     1      -3.267   0.318  -0.114  1.00  0.00    -0.341 N 
ATOM     15  H12 UNL     1      -3.573  -0.472  -0.682  1.00  0.00     0.177 HD
ATOM     16  H11 UNL     1      -3.948   0.984   0.251  1.00  0.00     0.177 HD
ENDBRANCH   1  14
TORSDOF 1
