REMARK  6 active torsions:
REMARK  status: ('A' for Active; 'I' for Inactive)
REMARK    1  A    between atoms: C3_3  and  C4_5 
REMARK    2  A    between atoms: C4_5  and  C5_9 
REMARK    3  A    between atoms: C7_11  and  O1_12 
REMARK    4  A    between atoms: C9_14  and  O2_15 
REMARK    5  A    between atoms: C11_17  and  O3_18 
REMARK    6  A    between atoms: C13_20  and  C14_21 
ROOT
HETATM    1  C1  UNL     1      -1.310   4.308  -1.349  1.00  0.00     0.014 C 
HETATM    2  C2  UNL     1      -0.322   4.018  -0.713  1.00  0.00    -0.091 C 
HETATM    3  C3  UNL     1       0.887   3.667   0.034  1.00  0.00     0.210 C 
HETATM    4 CL1  UNL     1       2.221   4.702  -0.468  1.00  0.00    -0.105 Cl
ENDROOT
BRANCH   3   5
HETATM    5  C4  UNL     1       1.188   2.225  -0.297  1.00  0.00     0.044 C 
HETATM    6  N1  UNL     1       2.181   1.971  -0.937  1.00  0.00    -0.400 N 
ATOM      7  H12 UNL     1       2.840   2.690  -1.234  1.00  0.00     0.156 HD
ATOM      8  H11 UNL     1       2.384   0.997  -1.161  1.00  0.00     0.156 HD
BRANCH   5   9
HETATM    9  C5  UNL     1       0.235   1.185   0.132  1.00  0.00     0.004 A 
HETATM   10  C6  UNL     1      -0.808   1.518   0.965  1.00  0.00     0.054 A 
HETATM   11  C7  UNL     1      -1.669   0.537   1.414  1.00  0.00     0.105 A 
HETATM   12  C9  UNL     1      -1.455  -0.761   1.010  1.00  0.00     0.136 A 
HETATM   13  C11 UNL     1      -0.429  -1.133   0.181  1.00  0.00     0.115 A 
HETATM   14  C13 UNL     1       0.437  -0.140  -0.270  1.00  0.00     0.014 A 
BRANCH  11  15
HETATM   15  O1  UNL     1      -2.696   0.910   2.243  1.00  0.00    -0.353 OA
HETATM   16  C8  UNL     1      -3.027   2.155   2.725  1.00  0.00     0.210 C 
ENDBRANCH  11  15
BRANCH  12  17
HETATM   17  O2  UNL     1      -2.320  -1.746   1.462  1.00  0.00    -0.351 OA
HETATM   18  C10 UNL     1      -3.497  -2.145   0.825  1.00  0.00     0.210 C 
ENDBRANCH  12  17
BRANCH  13  19
HETATM   19  O3  UNL     1      -0.274  -2.477  -0.194  1.00  0.00    -0.352 OA
HETATM   20  C12 UNL     1      -0.871  -3.034  -1.330  1.00  0.00     0.210 C 
ENDBRANCH  13  19
BRANCH  14  21
HETATM   21  C14 UNL     1       1.475  -0.531  -1.187  1.00  0.00     0.040 C 
HETATM   22  C15 UNL     1       2.410  -1.432  -0.957  1.00  0.00     0.076 C 
HETATM   23  S1  UNL     1       2.673  -2.425   0.541  1.00  0.00    -0.055 SA
HETATM   24  C17 UNL     1       3.485  -1.881  -1.824  1.00  0.00     0.264 C 
HETATM   25  C16 UNL     1       4.392  -2.785   0.188  1.00  0.00     0.146 C 
HETATM   26  S2  UNL     1       5.483  -3.232   1.306  1.00  0.00    -0.052 SA
HETATM   27  N2  UNL     1       4.515  -2.588  -1.207  1.00  0.00    -0.307 N 
ATOM     28  H2  UNL     1       5.314  -2.944  -1.732  1.00  0.00     0.170 HD
HETATM   29  O4  UNL     1       3.486  -1.639  -3.089  1.00  0.00    -0.267 OA
ENDBRANCH  14  21
ENDBRANCH   5   9
ENDBRANCH   3   5
TORSDOF 6
