REMARK  6 active torsions:
REMARK  status: ('A' for Active; 'I' for Inactive)
REMARK    1  A    between atoms: O1_2  and  C2_3 
REMARK    2  A    between atoms: N2_9  and  C6_10 
REMARK    3  A    between atoms: C6_10  and  C7_11 
REMARK    4  A    between atoms: N5_16  and  C8_17 
REMARK    5  A    between atoms: C10_21  and  N7_22 
REMARK    6  A    between atoms: C11_27  and  N9_28 
ROOT
HETATM    1  C8  UNL     1      -2.515  -0.097   0.047  1.00  0.00     0.722 A 
HETATM    2  N6  UNL     1      -3.334   0.466  -0.860  1.00  0.00    -0.181 N 
ATOM      3  H6  UNL     1      -3.033   0.900  -1.732  1.00  0.00     0.184 HD
HETATM    4  C9  UNL     1      -4.609   0.370  -0.444  1.00  0.00     0.138 A 
HETATM    5  C10 UNL     1      -5.816   0.764  -0.963  1.00  0.00     0.146 A 
HETATM    6  N8  UNL     1      -6.969   0.514  -0.281  1.00  0.00    -0.175 N 
ATOM      7  H8  UNL     1      -7.858   0.814  -0.681  1.00  0.00     0.186 HD
HETATM    8  C11 UNL     1      -6.964  -0.116   0.903  1.00  0.00     0.679 A 
HETATM    9  N10 UNL     1      -5.771  -0.497   1.400  1.00  0.00    -0.174 N 
ATOM     10  H10 UNL     1      -5.754  -0.977   2.300  1.00  0.00     0.186 HD
HETATM   11  C12 UNL     1      -4.601  -0.278   0.772  1.00  0.00     0.167 A 
HETATM   12  N11 UNL     1      -3.306  -0.544   1.035  1.00  0.00    -0.170 N 
ATOM     13  H11 UNL     1      -2.972  -1.021   1.872  1.00  0.00     0.186 HD
ENDROOT
BRANCH   1  14
HETATM   14  N5  UNL     1      -1.078  -0.191  -0.040  1.00  0.00    -0.004 N 
HETATM   15  N4  UNL     1      -0.303  -1.095   0.534  1.00  0.00    -0.204 N 
HETATM   16  N3  UNL     1       0.956  -0.886   0.245  1.00  0.00    -0.267 N 
ATOM     17  H4  UNL     1      -0.642  -1.855   1.124  1.00  0.00     0.211 HD
HETATM   18  C7  UNL     1       1.006   0.182  -0.537  1.00  0.00     0.153 A 
ATOM     19  H3  UNL     1       1.750  -1.442   0.563  1.00  0.00     0.190 HD
HETATM   20  N12 UNL     1      -0.264   0.607  -0.709  1.00  0.00    -0.246 N 
ATOM     21  H12 UNL     1      -0.549   1.413  -1.265  1.00  0.00     0.191 HD
BRANCH  18  22
HETATM   22  C6  UNL     1       2.165   0.849  -1.148  1.00  0.00     0.144 C 
BRANCH  22  23
HETATM   23  N2  UNL     1       3.415   0.284  -0.873  1.00  0.00    -0.337 N 
HETATM   24  C2  UNL     1       3.850   0.200   0.470  1.00  0.00     0.243 C 
HETATM   25  C3  UNL     1       4.285  -1.143   0.943  1.00  0.00     0.168 C 
HETATM   26  N1  UNL     1       4.420  -2.140  -0.083  1.00  0.00    -0.413 N 
HETATM   27  C4  UNL     1       4.874  -1.641  -1.354  1.00  0.00     0.159 C 
ATOM     28  H1  UNL     1       4.210  -3.125   0.077  1.00  0.00     0.153 HD
HETATM   29  C5  UNL     1       4.089  -0.461  -1.847  1.00  0.00     0.085 C 
BRANCH  24  30
HETATM   30  O1  UNL     1       4.845   1.124   0.796  1.00  0.00    -0.369 OA
HETATM   31  C1  UNL     1       4.466   2.052   1.724  1.00  0.00     0.204 C 
ENDBRANCH  24  30
ENDBRANCH  22  23
ENDBRANCH  18  22
ENDBRANCH   1  14
BRANCH   5  32
HETATM   32  N7  UNL     1      -5.850   1.369  -2.095  1.00  0.00    -0.383 N 
ATOM     33  H72 UNL     1      -4.987   1.556  -2.605  1.00  0.00     0.157 HD
ATOM     34  H71 UNL     1      -6.748   1.662  -2.481  1.00  0.00     0.157 HD
ENDBRANCH   5  32
BRANCH   8  35
HETATM   35  N9  UNL     1      -8.074  -0.355   1.558  1.00  0.00    -0.234 N 
ATOM     36  H92 UNL     1      -8.977  -0.067   1.182  1.00  0.00     0.174 HD
ATOM     37  H91 UNL     1      -8.070  -0.834   2.458  1.00  0.00     0.174 HD
ENDBRANCH   8  35
TORSDOF 6
