REMARK  9 active torsions:
REMARK  status: ('A' for Active; 'I' for Inactive)
REMARK       I    between atoms: N1_2  and  C2_4 
REMARK    1  A    between atoms: C2_4  and  C3_6 
REMARK    2  A    between atoms: C3_6  and  C4_7 
REMARK    3  A    between atoms: C4_7  and  C5_8 
REMARK    4  A    between atoms: C5_8  and  N2_9 
REMARK    5  A    between atoms: C5_8  and  C17_29 
REMARK    6  A    between atoms: N2_9  and  C6_11 
REMARK    7  A    between atoms: C6_11  and  O2_12 
REMARK    8  A    between atoms: C6_11  and  N3_14 
REMARK    9  A    between atoms: C15_25  and  C16_26 
ROOT
HETATM    1  C6  UNL     1       0.066  -1.326   0.217  1.00  0.00     0.218 C 
ENDROOT
BRANCH   1   2
HETATM    2  N2  UNL     1       1.448  -1.417   0.015  1.00  0.00    -0.342 N 
ATOM      3  H2  UNL     1       1.846  -1.088  -0.865  1.00  0.00     0.164 HD
BRANCH   2   4
HETATM    4  C5  UNL     1       2.327  -1.968   1.027  1.00  0.00     0.186 C 
BRANCH   4   5
HETATM    5  C4  UNL     1       3.316  -0.935   1.524  1.00  0.00     0.045 C 
BRANCH   5   6
HETATM    6  C3  UNL     1       4.158  -0.445   0.392  1.00  0.00     0.105 C 
BRANCH   6   7
HETATM    7  C2  UNL     1       5.135   0.567   0.850  1.00  0.00     0.217 C 
HETATM    8  N1  UNL     1       6.015   1.144  -0.074  1.00  0.00    -0.365 N 
HETATM    9  C1  UNL     1       6.969   2.129   0.360  1.00  0.00     0.149 C 
ATOM     10  H1  UNL     1       5.979   0.866  -1.055  1.00  0.00     0.161 HD
HETATM   11  O1  UNL     1       5.154   0.887   2.053  1.00  0.00    -0.274 OA
ENDBRANCH   6   7
ENDBRANCH   5   6
ENDBRANCH   4   5
BRANCH   4  12
HETATM   12  C17 UNL     1       3.006  -3.200   0.546  1.00  0.00     0.196 C 
HETATM   13  O6  UNL     1       2.818  -3.679  -0.603  1.00  0.00    -0.646 OA
HETATM   14  O7  UNL     1       3.892  -3.877   1.374  1.00  0.00    -0.646 OA
ENDBRANCH   4  12
ENDBRANCH   2   4
ENDBRANCH   1   2
BRANCH   1  15
HETATM   15  O2  UNL     1      -0.342  -1.765   1.384  1.00  0.00    -0.333 OA
ATOM     16  H2  UNL     1      -1.280  -1.703   1.521  1.00  0.00     0.220 HD
ENDBRANCH   1  15
BRANCH   1  17
HETATM   17  N3  UNL     1      -0.938  -0.840  -0.622  1.00  0.00    -0.308 N 
HETATM   18  C7  UNL     1      -2.352  -0.768  -0.107  1.00  0.00     0.171 C 
HETATM   19  C8  UNL     1      -2.675   0.710  -0.302  1.00  0.00     0.112 C 
HETATM   20  C9  UNL     1      -3.168   1.202   1.046  1.00  0.00     0.043 C 
HETATM   21  C14 UNL     1      -3.746   0.977  -1.296  1.00  0.00     0.043 C 
HETATM   22  O3  UNL     1      -1.515   1.370  -0.678  1.00  0.00    -0.225 OA
HETATM   23  C10 UNL     1      -4.452   0.498   1.388  1.00  0.00     0.003 C 
HETATM   24  C11 UNL     1      -5.642   1.095   0.674  1.00  0.00     0.000 C 
HETATM   25  C12 UNL     1      -5.326   2.417   0.045  1.00  0.00     0.000 C 
HETATM   26  C13 UNL     1      -4.295   2.384  -1.026  1.00  0.00     0.003 C 
HETATM   27  O4  UNL     1      -1.083   1.033  -1.847  1.00  0.00    -0.204 OA
HETATM   28  C15 UNL     1      -0.876  -0.351  -1.968  1.00  0.00     0.354 C 
BRANCH  28  29
HETATM   29  C16 UNL     1       0.219  -0.754  -2.814  1.00  0.00     0.283 C 
HETATM   30  N4  UNL     1       0.377  -2.162  -3.082  1.00  0.00    -0.058 NA
HETATM   31  O5  UNL     1       1.066   0.010  -3.356  1.00  0.00    -0.272 OA
ENDBRANCH  28  29
ENDBRANCH   1  17
TORSDOF 9
