REMARK  4 active torsions:
REMARK  status: ('A' for Active; 'I' for Inactive)
REMARK    1  A    between atoms: C2_2  and  O1_3 
REMARK    2  A    between atoms: O1_3  and  C3_4 
REMARK    3  A    between atoms: C7_9  and  O2_10 
REMARK    4  A    between atoms: C11_15  and  O4_16 
ROOT
HETATM    1  C3  UNL     1       1.131  -0.105  -0.644  1.00  0.00     0.129 C 
HETATM    2  C4  UNL     1       1.116  -1.505  -1.225  1.00  0.00     0.035 C 
HETATM    3  C5  UNL     1       0.210  -2.406  -0.410  1.00  0.00     0.043 C 
HETATM    4  C6  UNL     1      -1.177  -1.815  -0.305  1.00  0.00     0.212 C 
HETATM    5  F1  UNL     1      -2.060  -2.670   0.254  1.00  0.00    -0.246 F 
HETATM    6  C7  UNL     1      -1.137  -0.440   0.320  1.00  0.00     0.157 C 
HETATM    7  C9  UNL     1      -2.488   0.136   0.251  1.00  0.00     0.167 C 
HETATM    8  O3  UNL     1      -3.356  -0.138   1.042  1.00  0.00    -0.294 OA
HETATM    9  C10 UNL     1      -2.793   1.092  -0.834  1.00  0.00     0.113 C 
HETATM   10  C11 UNL     1      -1.852   2.265  -0.688  1.00  0.00     0.125 C 
HETATM   11  C12 UNL     1      -0.430   1.851  -0.396  1.00  0.00     0.043 C 
HETATM   12  C13 UNL     1      -0.284   0.388  -0.660  1.00  0.00     0.062 C 
ENDROOT
BRANCH   1  13
HETATM   13  O1  UNL     1       1.682  -0.185   0.610  1.00  0.00    -0.386 OA
BRANCH  13  14
HETATM   14  C2  UNL     1       2.841   0.531   0.775  1.00  0.00     0.163 C 
HETATM   15  C1  UNL     1       3.961   0.130  -0.129  1.00  0.00     0.033 C 
ENDBRANCH  13  14
ENDBRANCH   1  13
BRANCH   6  16
HETATM   16  O2  UNL     1      -0.509  -0.382   1.519  1.00  0.00    -0.374 OA
HETATM   17  C8  UNL     1      -0.978  -1.128   2.549  1.00  0.00     0.203 C 
ENDBRANCH   6  16
BRANCH  10  18
HETATM   18  O4  UNL     1      -2.319   3.026   0.385  1.00  0.00    -0.395 OA
ATOM     19  H4  UNL     1      -1.727   3.764   0.477  1.00  0.00     0.210 HD
ENDBRANCH  10  18
TORSDOF 4
