REMARK  2 active torsions:
REMARK  status: ('A' for Active; 'I' for Inactive)
REMARK    1  A    between atoms: C2_2  and  N1_3 
REMARK    2  A    between atoms: C2_2  and  C4_7 
ROOT
HETATM    1  N1  UNL     1      -2.387   1.521   0.159  1.00  0.00    -0.319 N 
ATOM      2  H1  UNL     1      -1.907   2.277   0.647  1.00  0.00     0.172 HD
HETATM    3  C3  UNL     1      -3.724   1.645  -0.234  1.00  0.00     0.178 C 
HETATM    4  N2  UNL     1      -4.829   1.731  -0.564  1.00  0.00    -0.172 NA
ENDROOT
BRANCH   1   5
HETATM    5  C2  UNL     1      -1.713   0.288  -0.150  1.00  0.00     0.137 C 
HETATM    6  C1  UNL     1      -2.411  -0.882   0.507  1.00  0.00     0.039 C 
BRANCH   5   7
HETATM    7  C4  UNL     1      -0.302   0.291   0.312  1.00  0.00     0.054 C 
HETATM    8  N3  UNL     1       0.360   1.176   0.948  1.00  0.00    -0.270 N 
HETATM    9  O1  UNL     1       1.657   0.766   1.177  1.00  0.00    -0.268 OA
ATOM     10  H3  UNL     1      -0.021   2.073   1.249  1.00  0.00     0.194 HD
HETATM   11  C5  UNL     1       1.943  -0.122   0.097  1.00  0.00     0.103 C 
HETATM   12  C6  UNL     1       3.093  -1.017   0.351  1.00  0.00     0.050 C 
HETATM   13  C7  UNL     1       2.032   0.695  -1.150  1.00  0.00     0.050 C 
HETATM   14  C8  UNL     1       0.605  -0.872   0.056  1.00  0.00     0.168 C 
HETATM   15 CL1  UNL     1       0.315  -1.590  -1.527  1.00  0.00    -0.115 Cl
ENDBRANCH   5   7
ENDBRANCH   1   5
TORSDOF 2
