REMARK  2 active torsions:
REMARK  status: ('A' for Active; 'I' for Inactive)
REMARK    1  A    between atoms: S1_2  and  C2_3 
REMARK    2  A    between atoms: C2_3  and  C3_4 
ROOT
HETATM    1  C3  UNL     1      -0.291   0.340  -0.395  1.00  0.00     0.222 C 
HETATM    2  O1  UNL     1      -1.442   0.428  -1.136  1.00  0.00    -0.266 OA
HETATM    3  N1  UNL     1      -2.337  -0.460  -0.747  1.00  0.00    -0.044 NA
HETATM    4  C4  UNL     1      -2.685  -0.234   0.642  1.00  0.00     0.260 C 
HETATM    5 CL1  UNL     1      -3.717   1.184   0.866  1.00  0.00    -0.068 Cl
HETATM    6 CL2  UNL     1      -3.323  -1.689   1.414  1.00  0.00    -0.068 Cl
HETATM    7  S2  UNL     1      -0.991   0.071   1.271  1.00  0.00    -0.073 SA
ENDROOT
BRANCH   1   8
HETATM    8  C2  UNL     1       0.643  -0.752  -0.781  1.00  0.00     0.118 C 
BRANCH   8   9
HETATM    9  S1  UNL     1       2.065  -0.672   0.359  1.00  0.00    -0.170 SA
HETATM   10  C1  UNL     1       3.050   0.816   0.085  1.00  0.00     0.089 C 
ENDBRANCH   8   9
ENDBRANCH   1   8
TORSDOF 2
