REMARK  7 active torsions:
REMARK  status: ('A' for Active; 'I' for Inactive)
REMARK       I    between atoms: C1_2  and  N2_4 
REMARK    1  A    between atoms: N2_4  and  N3_6 
REMARK       I    between atoms: N3_6  and  C2_8 
REMARK    2  A    between atoms: C2_8  and  C3_10 
REMARK    3  A    between atoms: C3_10  and  N4_11 
REMARK    4  A    between atoms: C4_16  and  C5_17 
REMARK       I    between atoms: C5_17  and  N7_19 
REMARK    5  A    between atoms: N7_19  and  C6_21 
REMARK    6  A    between atoms: C8_26  and  O4_27 
REMARK    7  A    between atoms: C9_29  and  O5_30 
ROOT
HETATM    1  N4  UNL     1       2.248  -1.457   0.821  1.00  0.00    -0.209 N 
HETATM    2  N5  UNL     1       2.257  -2.628   0.208  1.00  0.00    -0.224 N 
ATOM      3  H5  UNL     1       3.045  -3.275   0.179  1.00  0.00     0.210 HD
HETATM    4  N6  UNL     1       1.084  -2.824  -0.360  1.00  0.00    -0.264 N 
ATOM      5  H6  UNL     1       0.820  -3.648  -0.900  1.00  0.00     0.190 HD
HETATM    6  C4  UNL     1       0.292  -1.768  -0.116  1.00  0.00     0.206 A 
HETATM    7  N10 UNL     1       1.050  -0.943   0.618  1.00  0.00    -0.262 N 
ATOM      8  H10 UNL     1       0.742  -0.038   0.973  1.00  0.00     0.190 HD
ENDROOT
BRANCH   6   9
HETATM    9  C5  UNL     1      -1.093  -1.597  -0.570  1.00  0.00     0.289 C 
HETATM   10  O3  UNL     1      -1.649  -2.482  -1.272  1.00  0.00    -0.264 OA
HETATM   11  N7  UNL     1      -1.761  -0.407  -0.183  1.00  0.00    -0.332 N 
ATOM     12  H7  UNL     1      -1.293   0.298   0.387  1.00  0.00     0.164 HD
BRANCH  11  13
HETATM   13  C6  UNL     1      -3.130  -0.224  -0.623  1.00  0.00     0.230 C 
HETATM   14  N8  UNL     1      -3.215   0.965  -1.431  1.00  0.00    -0.117 NA
HETATM   15  N9  UNL     1      -4.269   1.785  -1.087  1.00  0.00    -0.335 N 
HETATM   16  C7  UNL     1      -5.531   1.151  -0.916  1.00  0.00     0.169 C 
ATOM     17  H9  UNL     1      -4.150   2.790  -0.962  1.00  0.00     0.175 HD
HETATM   18  C8  UNL     1      -5.483  -0.076  -0.048  1.00  0.00     0.169 C 
HETATM   19  C9  UNL     1      -4.091  -0.164   0.551  1.00  0.00     0.188 C 
BRANCH  18  20
HETATM   20  O4  UNL     1      -6.460  -0.048   0.962  1.00  0.00    -0.391 OA
ATOM     21  H4  UNL     1      -6.430  -0.823   1.510  1.00  0.00     0.210 HD
ENDBRANCH  18  20
BRANCH  19  22
HETATM   22  O5  UNL     1      -3.907   0.936   1.351  1.00  0.00    -0.389 OA
ATOM     23  H5  UNL     1      -4.508   0.974   2.086  1.00  0.00     0.210 HD
ENDBRANCH  19  22
ENDBRANCH  11  13
ENDBRANCH   6   9
BRANCH   1  24
HETATM   24  C3  UNL     1       3.357  -0.861   1.586  1.00  0.00     0.275 C 
BRANCH  24  25
HETATM   25  C2  UNL     1       4.163  -0.078   0.623  1.00  0.00     0.257 C 
HETATM   26  N3  UNL     1       5.254  -0.628  -0.087  1.00  0.00    -0.265 N 
ATOM     27  H3  UNL     1       5.519  -1.603   0.048  1.00  0.00     0.190 HD
HETATM   28  O2  UNL     1       3.859   1.116   0.436  1.00  0.00    -0.270 OA
BRANCH  26  29
HETATM   29  N2  UNL     1       5.962   0.179  -0.974  1.00  0.00    -0.251 N 
HETATM   30  C1  UNL     1       6.736   1.270  -0.493  1.00  0.00     0.347 C 
HETATM   31  N1  UNL     1       7.465   2.104  -1.380  1.00  0.00    -0.038 NA
HETATM   32  O1  UNL     1       6.790   1.520   0.736  1.00  0.00    -0.249 OA
ATOM     33  H2  UNL     1       5.925  -0.014  -1.975  1.00  0.00     0.191 HD
ENDBRANCH  26  29
ENDBRANCH  24  25
ENDBRANCH   1  24
TORSDOF 7
