REMARK  11 active torsions:
REMARK  status: ('A' for Active; 'I' for Inactive)
REMARK    1  A    between atoms: C2_2  and  C3_3 
REMARK    2  A    between atoms: C2_2  and  C10_12 
REMARK    3  A    between atoms: C3_3  and  C4_4 
REMARK    4  A    between atoms: C4_4  and  C5_5 
REMARK    5  A    between atoms: C5_5  and  C6_6 
REMARK    6  A    between atoms: C6_6  and  C7_7 
REMARK    7  A    between atoms: C7_7  and  S1_8 
REMARK    8  A    between atoms: S1_8  and  C8_9 
REMARK    9  A    between atoms: C8_9  and  C9_10 
REMARK   10  A    between atoms: C18_20  and  O1_21 
REMARK   11  A    between atoms: C22_26  and  O2_27 
ROOT
HETATM    1  C10 UNL     1       0.148   0.926   0.093  1.00  0.00    -0.006 C 
HETATM    2  C11 UNL     1       0.079   1.949   1.202  1.00  0.00     0.006 C 
HETATM    3  C12 UNL     1      -0.430   1.259   2.424  1.00  0.00     0.006 C 
HETATM    4  C13 UNL     1      -1.229   0.115   1.893  1.00  0.00    -0.003 C 
HETATM    5  C14 UNL     1      -0.561  -0.280   0.604  1.00  0.00    -0.005 C 
HETATM    6  C15 UNL     1      -1.765  -0.653  -0.260  1.00  0.00     0.011 C 
HETATM    7  C16 UNL     1      -2.762   0.452   0.084  1.00  0.00     0.001 C 
HETATM    8  C17 UNL     1      -2.627   0.597   1.539  1.00  0.00     0.024 C 
HETATM    9  C18 UNL     1      -3.597  -0.157   2.381  1.00  0.00     0.123 C 
HETATM   10  C19 UNL     1      -4.994   0.153   1.884  1.00  0.00     0.037 C 
HETATM   11  C20 UNL     1      -5.061  -0.469   0.506  1.00  0.00    -0.001 C 
HETATM   12  C21 UNL     1      -6.446  -0.482  -0.061  1.00  0.00     0.037 C 
HETATM   13  C22 UNL     1      -6.494  -1.235  -1.341  1.00  0.00     0.118 C 
HETATM   14  C23 UNL     1      -5.381  -0.977  -2.285  1.00  0.00     0.032 C 
HETATM   15  C24 UNL     1      -4.051  -0.736  -1.660  1.00  0.00     0.012 C 
HETATM   16  C25 UNL     1      -4.118   0.188  -0.459  1.00  0.00    -0.036 C 
HETATM   17  C26 UNL     1      -4.697   1.505  -0.985  1.00  0.00     0.016 C 
ENDROOT
BRANCH   1  18
HETATM   18  C2  UNL     1       1.622   0.693  -0.209  1.00  0.00    -0.014 C 
HETATM   19  C1  UNL     1       2.230   1.989  -0.629  1.00  0.00     0.010 C 
BRANCH  18  20
HETATM   20  C3  UNL     1       1.802  -0.400  -1.235  1.00  0.00     0.005 C 
BRANCH  20  21
HETATM   21  C4  UNL     1       3.227  -0.707  -1.533  1.00  0.00     0.000 C 
BRANCH  21  22
HETATM   22  C5  UNL     1       4.032  -1.173  -0.350  1.00  0.00     0.001 C 
BRANCH  22  23
HETATM   23  C6  UNL     1       5.427  -1.440  -0.828  1.00  0.00     0.010 C 
BRANCH  23  24
HETATM   24  C7  UNL     1       6.335  -1.922   0.285  1.00  0.00     0.074 C 
BRANCH  24  25
HETATM   25  S1  UNL     1       8.013  -2.232  -0.357  1.00  0.00    -0.168 SA
BRANCH  25  26
HETATM   26  C8  UNL     1       8.790  -0.694  -0.885  1.00  0.00     0.084 C 
BRANCH  26  27
HETATM   27  C9  UNL     1       9.049   0.231   0.297  1.00  0.00     0.096 C 
HETATM   28  S2  UNL     1      10.149  -0.596   1.474  1.00  0.00    -0.097 SA
ENDBRANCH  26  27
ENDBRANCH  25  26
ENDBRANCH  24  25
ENDBRANCH  23  24
ENDBRANCH  22  23
ENDBRANCH  21  22
ENDBRANCH  20  21
ENDBRANCH  18  20
ENDBRANCH   1  18
BRANCH   9  29
HETATM   29  O1  UNL     1      -3.436  -1.543   2.267  1.00  0.00    -0.395 OA
ATOM     30  H1  UNL     1      -4.055  -2.024   2.804  1.00  0.00     0.210 HD
ENDBRANCH   9  29
BRANCH  13  31
HETATM   31  O2  UNL     1      -6.650  -2.615  -1.096  1.00  0.00    -0.396 OA
ATOM     32  H2  UNL     1      -6.681  -3.096  -1.914  1.00  0.00     0.210 HD
ENDBRANCH  13  31
TORSDOF 11
