REMARK  7 active torsions:
REMARK  status: ('A' for Active; 'I' for Inactive)
REMARK    1  A    between atoms: C1_4  and  N2_5 
REMARK    2  A    between atoms: C1_4  and  C2_10 
REMARK    3  A    between atoms: N2_5  and  N3_7 
REMARK    4  A    between atoms: C5_13  and  O1_14 
REMARK    5  A    between atoms: O1_14  and  C6_15 
REMARK    6  A    between atoms: C6_15  and  C7_16 
REMARK    7  A    between atoms: C7_16  and  N4_17 
ROOT
HETATM    1  C2  UNL     1       3.386  -0.204  -0.188  1.00  0.00     0.009 A 
HETATM    2  C3  UNL     1       3.203  -1.558   0.004  1.00  0.00     0.018 A 
HETATM    3  C4  UNL     1       2.006  -2.119   0.301  1.00  0.00     0.037 A 
HETATM    4  C5  UNL     1       0.873  -1.281   0.423  1.00  0.00     0.068 A 
HETATM    5  C13 UNL     1       1.044   0.071   0.234  1.00  0.00     0.037 A 
HETATM    6  C14 UNL     1       2.290   0.618  -0.071  1.00  0.00     0.018 A 
ENDROOT
BRANCH   1   7
HETATM    7  C1  UNL     1       4.705   0.349  -0.508  1.00  0.00     0.123 C 
HETATM    8  N1  UNL     1       5.709  -0.460  -0.609  1.00  0.00    -0.384 N 
ATOM      9  H12 UNL     1       6.627  -0.075  -0.832  1.00  0.00     0.157 HD
ATOM     10  H11 UNL     1       5.590  -1.463  -0.469  1.00  0.00     0.157 HD
BRANCH   7  11
HETATM   11  N2  UNL     1       4.870   1.735  -0.701  1.00  0.00    -0.292 N 
ATOM     12  H2  UNL     1       4.386   2.204  -1.467  1.00  0.00     0.188 HD
BRANCH  11  13
HETATM   13  N3  UNL     1       5.688   2.461   0.147  1.00  0.00    -0.344 N 
ATOM     14  H32 UNL     1       6.165   1.977   0.908  1.00  0.00     0.176 HD
ATOM     15  H31 UNL     1       5.807   3.464   0.007  1.00  0.00     0.176 HD
ENDBRANCH  11  13
ENDBRANCH   7  11
ENDBRANCH   1   7
BRANCH   4  16
HETATM   16  O1  UNL     1      -0.337  -1.843   0.726  1.00  0.00    -0.350 OA
BRANCH  16  17
HETATM   17  C6  UNL     1      -1.585  -1.324   0.874  1.00  0.00     0.196 C 
BRANCH  17  18
HETATM   18  C7  UNL     1      -2.139  -0.748  -0.403  1.00  0.00     0.154 C 
BRANCH  18  19
HETATM   19  N4  UNL     1      -3.477  -0.206  -0.123  1.00  0.00    -0.364 N 
HETATM   20  C8  UNL     1      -4.516  -1.031  -0.271  1.00  0.00     0.090 A 
HETATM   21  C9  UNL     1      -5.774  -0.563  -0.020  1.00  0.00     0.017 A 
HETATM   22  C10 UNL     1      -5.958   0.740   0.380  1.00  0.00     0.003 A 
HETATM   23  C11 UNL     1      -4.858   1.557   0.521  1.00  0.00     0.017 A 
HETATM   24  C12 UNL     1      -3.603   1.051   0.258  1.00  0.00     0.090 A 
ENDBRANCH  18  19
ENDBRANCH  17  18
ENDBRANCH  16  17
ENDBRANCH   4  16
TORSDOF 7
