REMARK  3 active torsions:
REMARK  status: ('A' for Active; 'I' for Inactive)
REMARK    1  A    between atoms: C5_6  and  C6_7 
REMARK    2  A    between atoms: N5_17  and  C9_18 
REMARK    3  A    between atoms: C9_18  and  C10_19 
ROOT
HETATM    1  C1  UNL     1      -2.052   2.853  -0.950  1.00  0.00     0.149 C 
HETATM    2  N1  UNL     1      -0.754   2.387  -0.887  1.00  0.00    -0.391 N 
HETATM    3  C2  UNL     1       0.332   3.259  -0.821  1.00  0.00     0.058 C 
HETATM    4  C3  UNL     1       1.242   3.037   0.377  1.00  0.00     0.046 C 
HETATM    5  C4  UNL     1       0.503   2.043   1.249  1.00  0.00     0.026 C 
HETATM    6  C5  UNL     1       0.294   0.719   0.488  1.00  0.00     0.058 C 
HETATM    7  C11 UNL     1      -0.513   0.986  -0.670  1.00  0.00     0.106 C 
HETATM    8  C12 UNL     1      -1.806   0.389  -0.070  1.00  0.00     0.030 C 
HETATM    9  C13 UNL     1      -2.292  -0.748  -0.926  1.00  0.00     0.008 C 
HETATM   10  C14 UNL     1      -2.876  -1.969  -0.457  1.00  0.00     0.001 C 
HETATM   11  C15 UNL     1      -2.024  -3.194  -0.114  1.00  0.00     0.011 C 
HETATM   12  C16 UNL     1      -0.986  -2.879   1.020  1.00  0.00     0.081 C 
HETATM   13  C17 UNL     1      -0.879  -1.481   1.071  1.00  0.00    -0.172 C 
HETATM   14  C18 UNL     1      -0.884  -0.078   1.096  1.00  0.00     0.030 C 
HETATM   15  C19 UNL     1      -1.246   0.560   2.428  1.00  0.00     0.030 C 
ENDROOT
BRANCH   6  16
HETATM   16  C6  UNL     1       1.478  -0.107   0.575  1.00  0.00     0.099 A 
HETATM   17  N2  UNL     1       1.742  -0.744   1.783  1.00  0.00    -0.327 N 
HETATM   18  C7  UNL     1       2.902  -1.365   1.693  1.00  0.00     0.175 A 
ATOM     19  H2  UNL     1       1.137  -0.733   2.604  1.00  0.00     0.169 HD
HETATM   20  N3  UNL     1       3.828  -2.139   2.297  1.00  0.00    -0.222 N 
HETATM   21  C8  UNL     1       3.416  -1.149   0.433  1.00  0.00     0.177 A 
HETATM   22  O1  UNL     1       4.801  -2.360   1.473  1.00  0.00    -0.153 OA
ATOM     23  H3  UNL     1       3.770  -2.494   3.252  1.00  0.00     0.198 HD
HETATM   24  N4  UNL     1       4.591  -1.769   0.314  1.00  0.00    -0.222 N 
ATOM     25  H4  UNL     1       5.200  -1.783  -0.504  1.00  0.00     0.198 HD
HETATM   26  N5  UNL     1       2.499  -0.364  -0.226  1.00  0.00    -0.315 N 
BRANCH  26  27
HETATM   27  C9  UNL     1       2.677  -0.004  -1.589  1.00  0.00     0.163 C 
BRANCH  27  28
HETATM   28  C10 UNL     1       2.439  -1.144  -2.541  1.00  0.00     0.242 C 
HETATM   29  F1  UNL     1       1.183  -1.650  -2.414  1.00  0.00    -0.254 F 
ENDBRANCH  27  28
ENDBRANCH  26  27
ENDBRANCH   6  16
TORSDOF 3
