REMARK  8 active torsions:
REMARK  status: ('A' for Active; 'I' for Inactive)
REMARK    1  A    between atoms: O1_1  and  C1_3 
REMARK    2  A    between atoms: C3_7  and  N2_8 
REMARK    3  A    between atoms: N2_8  and  C4_10 
REMARK    4  A    between atoms: C4_10  and  C5_11 
REMARK    5  A    between atoms: C5_11  and  N3_12 
REMARK    6  A    between atoms: N3_12  and  C6_14 
REMARK    7  A    between atoms: C7_17  and  C8_18 
REMARK    8  A    between atoms: C12_24  and  N6_25 
ROOT
HETATM    1  C6  UNL     1       0.650  -0.544  -0.606  1.00  0.00     0.678 A 
HETATM    2  N4  UNL     1      -0.675  -0.629  -0.450  1.00  0.00    -0.191 N 
ATOM      3  H4  UNL     1      -1.068  -0.216   0.395  1.00  0.00     0.184 HD
HETATM    4  C7  UNL     1      -1.535  -1.207  -1.301  1.00  0.00     0.064 A 
HETATM    5  C17 UNL     1      -0.917  -1.747  -2.432  1.00  0.00     0.048 A 
HETATM    6  C18 UNL     1       0.466  -1.674  -2.622  1.00  0.00     0.108 A 
HETATM    7  N8  UNL     1       1.209  -1.076  -1.707  1.00  0.00    -0.202 N 
ATOM      8  H8  UNL     1       2.219  -1.017  -1.838  1.00  0.00     0.183 HD
ENDROOT
BRANCH   1   9
HETATM    9  N3  UNL     1       1.392   0.034   0.273  1.00  0.00    -0.221 N 
ATOM     10  H3  UNL     1       0.974   0.440   1.110  1.00  0.00     0.178 HD
BRANCH   9  11
HETATM   11  C5  UNL     1       2.835   0.105   0.064  1.00  0.00     0.183 C 
BRANCH  11  12
HETATM   12  C4  UNL     1       3.522   0.798   1.191  1.00  0.00     0.099 C 
BRANCH  12  13
HETATM   13  N2  UNL     1       4.903   0.885   1.029  1.00  0.00    -0.204 N 
ATOM     14  H2  UNL     1       5.325   1.364   1.824  1.00  0.00     0.183 HD
BRANCH  13  15
HETATM   15  C3  UNL     1       5.778   0.554   0.206  1.00  0.00     0.683 A 
HETATM   16  N1  UNL     1       5.770  -0.078  -0.971  1.00  0.00    -0.198 N 
HETATM   17  C2  UNL     1       7.027  -0.185  -1.465  1.00  0.00     0.162 A 
ATOM     18  H1  UNL     1       4.933  -0.431  -1.434  1.00  0.00     0.183 HD
HETATM   19  C1  UNL     1       7.851   0.410  -0.548  1.00  0.00     0.171 A 
HETATM   20  N9  UNL     1       7.101   0.849   0.447  1.00  0.00    -0.169 N 
ATOM     21  H9  UNL     1       7.451   1.335   1.273  1.00  0.00     0.186 HD
BRANCH  19  22
HETATM   22  O1  UNL     1       9.236   0.509  -0.686  1.00  0.00    -0.345 OA
ATOM     23  H1  UNL     1       9.808   0.922  -0.050  1.00  0.00     0.219 HD
ENDBRANCH  19  22
ENDBRANCH  13  15
ENDBRANCH  12  13
ENDBRANCH  11  12
ENDBRANCH   9  11
ENDBRANCH   1   9
BRANCH   4  24
HETATM   24  C8  UNL     1      -2.973  -1.275  -1.119  1.00  0.00     0.035 A 
HETATM   25  C9  UNL     1      -3.711  -2.108  -1.943  1.00  0.00     0.019 A 
HETATM   26  C10 UNL     1      -5.091  -2.201  -1.771  1.00  0.00     0.018 A 
HETATM   27  C11 UNL     1      -5.715  -1.477  -0.797  1.00  0.00     0.089 A 
HETATM   28  N5  UNL     1      -5.004  -0.686  -0.017  1.00  0.00    -0.352 N 
HETATM   29  C12 UNL     1      -3.624  -0.563  -0.156  1.00  0.00     0.115 A 
ATOM     30  H5  UNL     1      -5.479  -0.149   0.709  1.00  0.00     0.166 HD
BRANCH  29  31
HETATM   31  N6  UNL     1      -2.971   0.359   0.679  1.00  0.00    -0.363 N 
HETATM   32  C13 UNL     1      -2.633   1.699   0.264  1.00  0.00     0.143 C 
HETATM   33  C14 UNL     1      -3.492   2.638   1.123  1.00  0.00     0.133 C 
HETATM   34  N7  UNL     1      -3.332   2.338   2.524  1.00  0.00    -0.418 N 
HETATM   35  C15 UNL     1      -3.461   0.974   2.899  1.00  0.00     0.133 C 
ATOM     36  H7  UNL     1      -3.136   3.067   3.210  1.00  0.00     0.153 HD
HETATM   37  C16 UNL     1      -2.642   0.009   2.036  1.00  0.00     0.143 C 
ENDBRANCH  29  31
ENDBRANCH   4  24
TORSDOF 8
