REMARK  9 active torsions:
REMARK  status: ('A' for Active; 'I' for Inactive)
REMARK    1  A    between atoms: C3_5  and  N2_6 
REMARK    2  A    between atoms: C4_9  and  S1_10 
REMARK    3  A    between atoms: S1_10  and  C5_11 
REMARK    4  A    between atoms: C7_13  and  C8_14 
REMARK    5  A    between atoms: C12_22  and  C13_23 
REMARK    6  A    between atoms: C13_23  and  O3_24 
REMARK    7  A    between atoms: C13_23  and  N3_26 
REMARK    8  A    between atoms: N3_26  and  C14_28 
REMARK    9  A    between atoms: C14_28  and  C16_30 
ROOT
HETATM    1  C1  UNL     1       0.299  -5.777  -0.950  1.00  0.00     0.089 C 
HETATM    2  C2  UNL     1       0.061  -4.466  -0.284  1.00  0.00     0.079 A 
HETATM    3  N1  UNL     1      -0.733  -4.327   0.794  1.00  0.00    -0.332 N 
ATOM      4  H1  UNL     1      -1.197  -5.149   1.180  1.00  0.00     0.168 HD
HETATM    5  C3  UNL     1      -0.928  -3.140   1.370  1.00  0.00     0.119 A 
HETATM    6  C4  UNL     1      -0.282  -2.015   0.828  1.00  0.00     0.080 A 
HETATM    7  C12 UNL     1       0.522  -2.146  -0.258  1.00  0.00     0.105 A 
HETATM    8  N4  UNL     1       0.671  -3.398  -0.792  1.00  0.00    -0.342 N 
ATOM      9  H4  UNL     1       1.271  -3.516  -1.608  1.00  0.00     0.167 HD
ENDROOT
BRANCH   6  10
HETATM   10  S1  UNL     1      -0.610  -0.439   1.604  1.00  0.00    -0.081 SA
BRANCH  10  11
HETATM   11  C5  UNL     1      -2.002   0.402   0.903  1.00  0.00     0.045 A 
HETATM   12  C6  UNL     1      -2.360   1.623   1.407  1.00  0.00     0.043 A 
HETATM   13  C7  UNL     1      -3.431   2.332   0.910  1.00  0.00     0.080 A 
HETATM   14  C9  UNL     1      -4.171   1.802  -0.127  1.00  0.00     0.136 A 
HETATM   15  F1  UNL     1      -5.228   2.483  -0.630  1.00  0.00    -0.205 F 
HETATM   16  C10 UNL     1      -3.839   0.574  -0.658  1.00  0.00     0.087 A 
HETATM   17  C11 UNL     1      -2.745  -0.114  -0.127  1.00  0.00     0.136 A 
HETATM   18  F2  UNL     1      -2.428  -1.303  -0.646  1.00  0.00    -0.205 F 
BRANCH  13  19
HETATM   19  C8  UNL     1      -3.801   3.624   1.451  1.00  0.00     0.212 C 
HETATM   20  O1  UNL     1      -4.761   4.287   1.024  1.00  0.00    -0.644 OA
HETATM   21  O2  UNL     1      -3.042   4.159   2.509  1.00  0.00    -0.644 OA
ENDBRANCH  13  19
ENDBRANCH  10  11
ENDBRANCH   6  10
BRANCH   5  22
HETATM   22  N2  UNL     1      -1.694  -2.984   2.418  1.00  0.00    -0.384 N 
ATOM     23  H22 UNL     1      -2.163  -3.800   2.811  1.00  0.00     0.157 HD
ATOM     24  H21 UNL     1      -1.843  -2.076   2.859  1.00  0.00     0.157 HD
ENDBRANCH   5  22
BRANCH   7  25
HETATM   25  C13 UNL     1       1.266  -1.058  -0.853  1.00  0.00     0.165 C 
BRANCH  25  26
HETATM   26  O3  UNL     1       1.676  -1.250  -2.080  1.00  0.00    -0.345 OA
ATOM     27  H3  UNL     1       2.165  -0.535  -2.471  1.00  0.00     0.219 HD
ENDBRANCH  25  26
BRANCH  25  28
HETATM   28  N3  UNL     1       1.630   0.182  -0.329  1.00  0.00    -0.364 N 
ATOM     29  H3  UNL     1       1.369   0.431   0.625  1.00  0.00     0.162 HD
BRANCH  28  30
HETATM   30  C14 UNL     1       2.393   1.130  -1.158  1.00  0.00     0.083 C 
HETATM   31  C15 UNL     1       1.622   2.403  -1.353  1.00  0.00     0.032 C 
BRANCH  30  32
HETATM   32  C16 UNL     1       3.713   1.331  -0.476  1.00  0.00     0.008 A 
HETATM   33  C17 UNL     1       3.761   1.880   0.920  1.00  0.00     0.007 A 
HETATM   34  C18 UNL     1       4.309   2.649  -0.253  1.00  0.00     0.007 A 
ENDBRANCH  30  32
ENDBRANCH  28  30
ENDBRANCH  25  28
ENDBRANCH   7  25
TORSDOF 9
