REMARK  12 active torsions:
REMARK  status: ('A' for Active; 'I' for Inactive)
REMARK    1  A    between atoms: C2_2  and  N1_4 
REMARK       I    between atoms: N1_4  and  C4_6 
REMARK    2  A    between atoms: C4_6  and  C5_8 
REMARK    3  A    between atoms: C5_8  and  C6_9 
REMARK    4  A    between atoms: C6_9  and  N2_10 
REMARK    5  A    between atoms: C7_11  and  O2_12 
REMARK    6  A    between atoms: C10_16  and  O3_17 
REMARK    7  A    between atoms: C11_19  and  C13_21 
REMARK    8  A    between atoms: C13_21  and  O5_23 
REMARK    9  A    between atoms: O5_23  and  C14_24 
REMARK   10  A    between atoms: C14_24  and  C15_25 
REMARK   11  A    between atoms: C15_25  and  C16_26 
REMARK   12  A    between atoms: N3_36  and  O6_37 
ROOT
HETATM    1  N2  UNL     1       1.507   0.922  -0.851  1.00  0.00    -0.306 N 
HETATM    2  C7  UNL     1       1.057   1.920  -0.085  1.00  0.00     0.174 A 
HETATM    3  C8  UNL     1      -0.337   1.878   0.019  1.00  0.00     0.120 A 
HETATM    4  C9  UNL     1      -0.717   0.788  -0.733  1.00  0.00     0.047 A 
HETATM    5  C10 UNL     1       0.421   0.228  -1.249  1.00  0.00     0.154 A 
HETATM    6  C11 UNL     1      -2.222   0.716  -0.629  1.00  0.00     0.105 C 
HETATM    7  C12 UNL     1      -2.827   0.136  -1.870  1.00  0.00     0.034 C 
HETATM    8  C18 UNL     1      -2.559   2.157  -0.400  1.00  0.00     0.081 C 
HETATM    9  C19 UNL     1      -3.917   2.444   0.099  1.00  0.00     0.035 C 
HETATM   10  C20 UNL     1      -4.426   3.805  -0.182  1.00  0.00     0.002 C 
HETATM   11  C21 UNL     1      -4.070   4.361  -1.517  1.00  0.00     0.000 C 
HETATM   12  C22 UNL     1      -2.530   4.358  -1.563  1.00  0.00     0.002 C 
HETATM   13  C23 UNL     1      -2.173   2.895  -1.673  1.00  0.00     0.035 C 
HETATM   14  N3  UNL     1      -1.506   2.498   0.573  1.00  0.00    -0.244 N 
ENDROOT
BRANCH   6  15
HETATM   15  C13 UNL     1      -2.490  -0.204   0.474  1.00  0.00     0.274 C 
HETATM   16  O4  UNL     1      -3.105   0.142   1.487  1.00  0.00    -0.264 OA
BRANCH  15  17
HETATM   17  O5  UNL     1      -2.030  -1.506   0.360  1.00  0.00    -0.320 OA
BRANCH  17  18
HETATM   18  C14 UNL     1      -2.201  -2.500   1.316  1.00  0.00     0.184 C 
BRANCH  18  19
HETATM   19  C15 UNL     1      -3.619  -2.837   1.642  1.00  0.00     0.105 C 
BRANCH  19  20
HETATM   20  C16 UNL     1      -3.702  -3.928   2.685  1.00  0.00     0.242 C 
HETATM   21  C17 UNL     1      -3.037  -5.202   2.224  1.00  0.00     0.090 C 
HETATM   22  F1  UNL     1      -3.078  -3.518   3.848  1.00  0.00    -0.207 F 
HETATM   23  F2  UNL     1      -5.024  -4.200   2.959  1.00  0.00    -0.207 F 
ENDBRANCH  19  20
ENDBRANCH  18  19
ENDBRANCH  17  18
ENDBRANCH  15  17
ENDBRANCH   6  15
BRANCH   5  24
HETATM   24  O3  UNL     1       0.452  -0.893  -2.064  1.00  0.00    -0.345 OA
ATOM     25  H3  UNL     1      -0.313  -1.382  -2.344  1.00  0.00     0.219 HD
ENDBRANCH   5  24
BRANCH  14  26
HETATM   26  O6  UNL     1      -1.545   3.194   1.698  1.00  0.00    -0.286 OA
ATOM     27  H6  UNL     1      -2.319   3.605   2.065  1.00  0.00     0.244 HD
ENDBRANCH  14  26
BRANCH   2  28
HETATM   28  O2  UNL     1       1.847   2.885   0.539  1.00  0.00    -0.344 OA
ATOM     29  H2  UNL     1       1.527   3.595   1.084  1.00  0.00     0.219 HD
ENDBRANCH   2  28
BRANCH   1  30
HETATM   30  C6  UNL     1       2.881   0.634  -1.192  1.00  0.00     0.142 C 
BRANCH  30  31
HETATM   31  C5  UNL     1       3.480  -0.288  -0.186  1.00  0.00     0.123 C 
BRANCH  31  32
HETATM   32  C4  UNL     1       4.888  -0.554  -0.580  1.00  0.00     0.219 C 
HETATM   33  N1  UNL     1       5.704  -1.411   0.192  1.00  0.00    -0.357 N 
ATOM     34  H1  UNL     1       5.315  -1.848   1.027  1.00  0.00     0.162 HD
HETATM   35  O1  UNL     1       5.388  -0.027  -1.604  1.00  0.00    -0.274 OA
BRANCH  33  36
HETATM   36  C2  UNL     1       7.055  -1.680  -0.166  1.00  0.00     0.076 C 
HETATM   37  C1  UNL     1       7.274  -3.145  -0.508  1.00  0.00     0.032 C 
HETATM   38  C3  UNL     1       7.967  -1.290   0.967  1.00  0.00     0.032 C 
ENDBRANCH  33  36
ENDBRANCH  31  32
ENDBRANCH  30  31
ENDBRANCH   1  30
TORSDOF 12
