REMARK  11 active torsions:
REMARK  status: ('A' for Active; 'I' for Inactive)
REMARK    1  A    between atoms: C2_2  and  C3_3 
REMARK    2  A    between atoms: C3_3  and  N1_4 
REMARK    3  A    between atoms: C3_3  and  C14_32 
REMARK    4  A    between atoms: N1_4  and  C4_6 
REMARK    5  A    between atoms: C5_9  and  S1_10 
REMARK    6  A    between atoms: S1_10  and  C6_11 
REMARK    7  A    between atoms: C7_15  and  N4_16 
REMARK    8  A    between atoms: C8_19  and  C9_20 
REMARK    9  A    between atoms: C9_20  and  N5_23 
REMARK   10  A    between atoms: N5_23  and  S2_25 
REMARK   11  A    between atoms: S2_25  and  C10_28 
ROOT
HETATM    1  C4  UNL     1       0.744  -1.485  -0.148  1.00  0.00     0.121 A 
HETATM    2  N2  UNL     1       1.375  -2.701  -0.159  1.00  0.00    -0.322 N 
ATOM      3  H2  UNL     1       2.384  -2.720  -0.309  1.00  0.00     0.169 HD
HETATM    4  C5  UNL     1       0.742  -3.857   0.015  1.00  0.00     0.148 A 
HETATM    5  N3  UNL     1      -0.579  -3.807   0.211  1.00  0.00    -0.323 N 
ATOM      6  H3  UNL     1      -1.087  -4.681   0.348  1.00  0.00     0.169 HD
HETATM    7  C7  UNL     1      -1.280  -2.628   0.236  1.00  0.00     0.118 A 
HETATM    8  C8  UNL     1      -0.630  -1.434   0.055  1.00  0.00     0.123 A 
ENDROOT
BRANCH   1   9
HETATM    9  N1  UNL     1       1.476  -0.305  -0.361  1.00  0.00    -0.365 N 
ATOM     10  H1  UNL     1       0.989   0.591  -0.384  1.00  0.00     0.162 HD
BRANCH   9  11
HETATM   11  C3  UNL     1       2.905  -0.342  -0.548  1.00  0.00     0.140 C 
BRANCH  11  12
HETATM   12  C2  UNL     1       3.595  -0.704   0.739  1.00  0.00     0.027 C 
HETATM   13  C1  UNL     1       3.299   0.290   1.840  1.00  0.00     0.007 C 
ENDBRANCH  11  12
BRANCH  11  14
HETATM   14  C14 UNL     1       3.417   0.988  -1.059  1.00  0.00     0.074 A 
HETATM   15  N6  UNL     1       4.472   1.673  -0.665  1.00  0.00    -0.355 N 
HETATM   16  C15 UNL     1       4.759   2.804  -1.221  1.00  0.00     0.012 A 
ATOM     17  H6  UNL     1       5.064   1.309   0.082  1.00  0.00     0.166 HD
HETATM   18  C16 UNL     1       5.959   3.644  -0.815  1.00  0.00     0.068 C 
HETATM   19  C17 UNL     1       3.930   3.249  -2.222  1.00  0.00     0.076 A 
HETATM   20  S3  UNL     1       2.777   1.985  -2.291  1.00  0.00    -0.085 SA
ENDBRANCH  11  14
ENDBRANCH   9  11
ENDBRANCH   1   9
BRANCH   8  21
HETATM   21  C9  UNL     1      -1.343  -0.148   0.108  1.00  0.00     0.367 C 
HETATM   22  F1  UNL     1      -1.225   0.491  -1.112  1.00  0.00    -0.177 F 
HETATM   23  F2  UNL     1      -0.842   0.706   1.070  1.00  0.00    -0.177 F 
BRANCH  21  24
HETATM   24  N5  UNL     1      -2.778  -0.342   0.290  1.00  0.00    -0.250 N 
ATOM     25  H5  UNL     1      -3.258  -1.234   0.170  1.00  0.00     0.178 HD
BRANCH  24  26
HETATM   26  S2  UNL     1      -3.561   1.135   0.736  1.00  0.00     0.238 S 
HETATM   27  O1  UNL     1      -2.640   2.252   1.022  1.00  0.00    -0.205 OA
HETATM   28  O2  UNL     1      -4.376   0.841   1.963  1.00  0.00    -0.205 OA
BRANCH  26  29
HETATM   29  C10 UNL     1      -4.655   1.648  -0.560  1.00  0.00     0.072 C 
HETATM   30  C11 UNL     1      -5.715   0.566  -0.804  1.00  0.00     0.033 C 
HETATM   31  C12 UNL     1      -5.382   2.942  -0.169  1.00  0.00     0.033 C 
HETATM   32  C13 UNL     1      -3.978   1.920  -1.861  1.00  0.00     0.033 C 
ENDBRANCH  26  29
ENDBRANCH  24  26
ENDBRANCH  21  24
ENDBRANCH   8  21
BRANCH   4  33
HETATM   33  S1  UNL     1       1.618  -5.435  -0.009  1.00  0.00    -0.079 SA
BRANCH  33  34
HETATM   34  C6  UNL     1       2.139  -5.794   1.687  1.00  0.00     0.197 C 
HETATM   35 CL1  UNL     1       3.002  -7.342   1.678  1.00  0.00    -0.119 Cl
ENDBRANCH  33  34
ENDBRANCH   4  33
BRANCH   7  36
HETATM   36  N4  UNL     1      -2.546  -2.659   0.457  1.00  0.00    -0.385 N 
ATOM     37  H42 UNL     1      -3.029  -3.547   0.592  1.00  0.00     0.157 HD
ATOM     38  H41 UNL     1      -3.067  -1.782   0.476  1.00  0.00     0.157 HD
ENDBRANCH   7  36
TORSDOF 11
