REMARK  0 active torsions:
REMARK  status: ('A' for Active; 'I' for Inactive)
REMARK       I    between atoms: N1_1  and  C1_4 
ROOT
HETATM    1  N1  UNL     1       0.855   2.778   0.116  1.00  0.00    -0.234 N 
ATOM      2  H11 UNL     1      -0.008   3.320   0.074  1.00  0.00     0.174 HD
ATOM      3  H12 UNL     1       1.777   3.175   0.296  1.00  0.00     0.174 HD
HETATM    4  C1  UNL     1       0.750   1.505  -0.073  1.00  0.00     0.680 C 
HETATM    5  N2  UNL     1       1.893   0.787  -0.018  1.00  0.00    -0.153 N 
ATOM      6  H2  UNL     1       2.740   1.315  -0.227  1.00  0.00     0.187 HD
HETATM    7  C2  UNL     1       2.094  -0.507   0.267  1.00  0.00     0.309 C 
HETATM    8  O1  UNL     1       3.296  -0.892   0.381  1.00  0.00    -0.263 OA
HETATM    9  C3  UNL     1       1.154  -1.477   0.454  1.00  0.00     0.243 C 
HETATM   10  O2  UNL     1       1.499  -2.554   0.989  1.00  0.00    -0.282 OA
HETATM   11  C4  UNL     1      -0.188  -1.405   0.106  1.00  0.00     0.106 C 
HETATM   12  C5  UNL     1      -0.930  -0.286  -0.183  1.00  0.00     0.136 C 
HETATM   13  N3  UNL     1      -2.328  -0.488  -0.366  1.00  0.00    -0.082 NA
HETATM   14  N4  UNL     1      -0.467   0.981  -0.310  1.00  0.00    -0.179 N 
ATOM     15  H4  UNL     1      -1.159   1.653  -0.642  1.00  0.00     0.185 HD
ENDROOT
TORSDOF 0
