REMARK  2 active torsions:
REMARK  status: ('A' for Active; 'I' for Inactive)
REMARK    1  A    between atoms: N1_1  and  N2_4 
REMARK    2  A    between atoms: N2_4  and  C1_6 
ROOT
HETATM    1  C1  UNL     1      -0.492   0.148   0.026  1.00  0.00     0.182 A 
HETATM    2  N3  UNL     1      -0.308  -1.116   0.399  1.00  0.00    -0.275 N 
ATOM      3  H3  UNL     1      -1.101  -1.686   0.693  1.00  0.00     0.189 HD
HETATM    4  N4  UNL     1       0.868  -1.609   0.386  1.00  0.00    -0.258 N 
ATOM      5  H4  UNL     1       1.030  -2.576   0.668  1.00  0.00     0.191 HD
HETATM    6  C2  UNL     1       1.886  -0.833  -0.005  1.00  0.00     0.305 A 
HETATM    7  O1  UNL     1       3.131  -1.130  -0.090  1.00  0.00    -0.258 OA
HETATM    8  S1  UNL     1       1.097   0.642  -0.358  1.00  0.00     0.011 SA
ENDROOT
BRANCH   1   9
HETATM    9  N2  UNL     1      -1.626   0.820  -0.024  1.00  0.00    -0.285 N 
ATOM     10  H2  UNL     1      -2.518   0.400   0.237  1.00  0.00     0.188 HD
BRANCH   9  11
HETATM   11  N1  UNL     1      -1.527   2.138  -0.455  1.00  0.00    -0.343 N 
ATOM     12  H12 UNL     1      -0.628   2.544  -0.712  1.00  0.00     0.176 HD
ATOM     13  H11 UNL     1      -2.404   2.658  -0.494  1.00  0.00     0.176 HD
ENDBRANCH   9  11
ENDBRANCH   1   9
TORSDOF 2
