REMARK  9 active torsions:
REMARK  status: ('A' for Active; 'I' for Inactive)
REMARK    1  A    between atoms: C2_2  and  C3_3 
REMARK    2  A    between atoms: C3_3  and  C4_4 
REMARK    3  A    between atoms: C4_4  and  O2_6 
REMARK    4  A    between atoms: O2_6  and  C5_7 
REMARK    5  A    between atoms: C6_8  and  C7_9 
REMARK    6  A    between atoms: C15_19  and  O5_20 
REMARK    7  A    between atoms: C17_23  and  O6_24 
REMARK    8  A    between atoms: O6_24  and  C18_25 
REMARK    9  A    between atoms: C18_25  and  C19_29 
ROOT
HETATM    1  C5  UNL     1      -1.165  -0.932   0.050  1.00  0.00     0.108 A 
HETATM    2  C6  UNL     1      -2.445  -1.485  -0.240  1.00  0.00     0.060 A 
HETATM    3  C11 UNL     1      -2.494  -2.841  -0.471  1.00  0.00     0.298 A 
HETATM    4  O3  UNL     1      -3.569  -3.491  -0.752  1.00  0.00    -0.259 OA
HETATM    5  O4  UNL     1      -1.429  -3.600  -0.426  1.00  0.00    -0.273 OA
HETATM    6  C12 UNL     1      -0.235  -3.140  -0.157  1.00  0.00     0.104 A 
HETATM    7  C13 UNL     1       0.819  -4.038  -0.124  1.00  0.00     0.006 A 
HETATM    8  C14 UNL     1       0.598  -5.481  -0.403  1.00  0.00     0.054 C 
HETATM    9  C15 UNL     1       2.046  -3.526   0.173  1.00  0.00     0.077 A 
HETATM   10  C16 UNL     1       2.230  -2.194   0.428  1.00  0.00     0.075 A 
HETATM   11  C17 UNL     1       1.202  -1.277   0.402  1.00  0.00     0.096 A 
HETATM   12  C23 UNL     1      -0.077  -1.769   0.092  1.00  0.00     0.067 A 
ENDROOT
BRANCH  11  13
HETATM   13  O6  UNL     1       1.411   0.071   0.674  1.00  0.00    -0.296 OA
BRANCH  13  14
HETATM   14  C18 UNL     1       2.628   0.594   1.013  1.00  0.00     0.125 C 
HETATM   15  N1  UNL     1       3.134   0.063   2.110  1.00  0.00    -0.383 N 
ATOM     16  H12 UNL     1       2.583  -0.661   2.571  1.00  0.00     0.158 HD
ATOM     17  H11 UNL     1       4.042   0.453   2.363  1.00  0.00     0.158 HD
BRANCH  14  18
HETATM   18  C19 UNL     1       3.425   1.641   0.347  1.00  0.00     0.014 C 
HETATM   19  C20 UNL     1       2.970   2.990   0.780  1.00  0.00     0.023 C 
HETATM   20  C21 UNL     1       4.884   1.447   0.724  1.00  0.00     0.023 C 
HETATM   21  C22 UNL     1       3.397   1.551  -1.177  1.00  0.00     0.023 C 
ENDBRANCH  14  18
ENDBRANCH  13  14
ENDBRANCH  11  13
BRANCH   9  22
HETATM   22  O5  UNL     1       3.133  -4.374   0.219  1.00  0.00    -0.360 OA
ATOM     23  H5  UNL     1       3.989  -4.017   0.426  1.00  0.00     0.217 HD
ENDBRANCH   9  22
BRANCH   1  24
HETATM   24  O2  UNL     1      -1.076   0.417   0.266  1.00  0.00    -0.277 OA
BRANCH  24  25
HETATM   25  C4  UNL     1      -0.746   1.363  -0.738  1.00  0.00     0.264 C 
HETATM   26  O1  UNL     1      -0.493   0.952  -1.897  1.00  0.00    -0.265 OA
BRANCH  25  27
HETATM   27  C3  UNL     1      -0.718   2.795  -0.383  1.00  0.00     0.111 C 
BRANCH  27  28
HETATM   28  C2  UNL     1      -0.922   3.026   1.079  1.00  0.00     0.005 C 
HETATM   29  C1  UNL     1      -0.870   4.512   1.380  1.00  0.00     0.005 C 
ENDBRANCH  27  28
ENDBRANCH  25  27
ENDBRANCH  24  25
ENDBRANCH   1  24
BRANCH   2  30
HETATM   30  C7  UNL     1      -3.661  -0.694  -0.239  1.00  0.00    -0.015 C 
HETATM   31  C8  UNL     1      -3.853   0.423  -1.182  1.00  0.00     0.020 C 
HETATM   32  C9  UNL     1      -4.891  -1.571  -0.338  1.00  0.00     0.020 C 
HETATM   33  C10 UNL     1      -3.827  -0.041   1.179  1.00  0.00     0.020 C 
ENDBRANCH   2  30
TORSDOF 9
