REMARK  11 active torsions:
REMARK  status: ('A' for Active; 'I' for Inactive)
REMARK    1  A    between atoms: O1_2  and  C2_3 
REMARK    2  A    between atoms: C2_3  and  O2_4 
REMARK    3  A    between atoms: C2_3  and  C4_6 
REMARK    4  A    between atoms: C4_6  and  C5_7 
REMARK    5  A    between atoms: C5_7  and  C6_8 
REMARK    6  A    between atoms: C6_8  and  O4_10 
REMARK    7  A    between atoms: O4_10  and  C7_11 
REMARK    8  A    between atoms: C7_11  and  C8_12 
REMARK    9  A    between atoms: C11_15  and  N1_16 
REMARK   10  A    between atoms: C13_18  and  C14_19 
REMARK   11  A    between atoms: C15_20  and  C16_21 
ROOT
HETATM    1  C8  UNL     1       0.667  -0.684   0.506  1.00  0.00     0.026 C 
HETATM    2  C9  UNL     1       2.036  -1.376   0.600  1.00  0.00     0.022 C 
HETATM    3  C10 UNL     1       3.162  -0.471   0.840  1.00  0.00     0.006 C 
HETATM    4  C11 UNL     1       4.281  -0.708   0.195  1.00  0.00     0.030 C 
HETATM    5  C18 UNL     1       4.316  -1.861  -0.723  1.00  0.00     0.059 C 
HETATM    6  C19 UNL     1       3.126  -1.650  -1.672  1.00  0.00     0.012 C 
HETATM    7  C20 UNL     1       1.900  -1.640  -0.874  1.00  0.00     0.002 C 
HETATM    8  C21 UNL     1       0.956  -0.492  -0.964  1.00  0.00    -0.037 C 
HETATM    9  C22 UNL     1       1.508   0.878  -1.191  1.00  0.00     0.015 C 
HETATM   10  C23 UNL     1      -0.176  -0.805  -1.913  1.00  0.00     0.015 C 
ENDROOT
BRANCH   1  11
HETATM   11  C7  UNL     1      -0.404  -1.685   0.746  1.00  0.00     0.184 C 
BRANCH  11  12
HETATM   12  O4  UNL     1      -1.711  -1.160   0.686  1.00  0.00    -0.321 OA
BRANCH  12  13
HETATM   13  C6  UNL     1      -2.761  -2.032   0.900  1.00  0.00     0.259 C 
HETATM   14  O3  UNL     1      -2.477  -3.276   1.141  1.00  0.00    -0.265 OA
BRANCH  13  15
HETATM   15  C5  UNL     1      -4.190  -1.734   0.895  1.00  0.00     0.125 C 
BRANCH  15  16
HETATM   16  C4  UNL     1      -4.604  -0.343   0.505  1.00  0.00     0.018 C 
HETATM   17  C24 UNL     1      -4.195  -0.085  -0.916  1.00  0.00     0.015 C 
HETATM   18  C25 UNL     1      -4.419   1.329  -1.351  1.00  0.00     0.001 C 
HETATM   19  C26 UNL     1      -4.061   2.382  -0.371  1.00  0.00     0.000 C 
HETATM   20  C27 UNL     1      -3.309   1.811   0.787  1.00  0.00     0.001 C 
HETATM   21  C28 UNL     1      -3.986   0.643   1.432  1.00  0.00     0.015 C 
BRANCH  16  22
HETATM   22  C2  UNL     1      -6.137  -0.348   0.615  1.00  0.00     0.267 C 
BRANCH  22  23
HETATM   23  O1  UNL     1      -6.708   0.862   0.287  1.00  0.00    -0.365 OA
HETATM   24  C1  UNL     1      -7.557   1.382   1.245  1.00  0.00     0.204 C 
ENDBRANCH  22  23
BRANCH  22  25
HETATM   25  O2  UNL     1      -6.678  -1.293  -0.258  1.00  0.00    -0.365 OA
HETATM   26  C3  UNL     1      -7.444  -2.246   0.383  1.00  0.00     0.204 C 
ENDBRANCH  22  25
ENDBRANCH  16  22
ENDBRANCH  15  16
ENDBRANCH  13  15
ENDBRANCH  12  13
ENDBRANCH  11  12
ENDBRANCH   1  11
BRANCH   4  27
HETATM   27  N1  UNL     1       5.454   0.092   0.334  1.00  0.00    -0.272 N 
HETATM   28  C12 UNL     1       6.628  -0.042  -0.264  1.00  0.00     0.129 A 
HETATM   29  C13 UNL     1       7.540   0.965   0.155  1.00  0.00    -0.002 A 
HETATM   30  C17 UNL     1       6.814   1.690   1.033  1.00  0.00     0.120 A 
HETATM   31  N2  UNL     1       5.551   1.139   1.124  1.00  0.00    -0.305 N 
ATOM     32  H2  UNL     1       4.801   1.493   1.718  1.00  0.00     0.186 HD
BRANCH  29  33
HETATM   33  C14 UNL     1       8.865   1.071  -0.328  1.00  0.00     0.021 C 
HETATM   34  C15 UNL     1       9.852   1.839  -0.102  1.00  0.00     0.085 C 
BRANCH  34  35
HETATM   35  C16 UNL     1      10.175   2.962   0.715  1.00  0.00     0.198 C 
HETATM   36  O5  UNL     1      11.385   3.433   0.587  1.00  0.00    -0.645 OA
HETATM   37  O6  UNL     1       9.345   3.572   1.598  1.00  0.00    -0.645 OA
ENDBRANCH  34  35
ENDBRANCH  29  33
ENDBRANCH   4  27
TORSDOF 11
