REMARK  14 active torsions:
REMARK  status: ('A' for Active; 'I' for Inactive)
REMARK    1  A    between atoms: C2_2  and  C3_3 
REMARK    2  A    between atoms: C3_3  and  C4_4 
REMARK    3  A    between atoms: C4_4  and  C5_5 
REMARK    4  A    between atoms: C5_5  and  O2_7 
REMARK    5  A    between atoms: O2_7  and  C6_8 
REMARK    6  A    between atoms: C9_11  and  C10_12 
REMARK    7  A    between atoms: C10_12  and  C11_13 
REMARK    8  A    between atoms: C11_13  and  C12_14 
REMARK    9  A    between atoms: C12_14  and  O3_15 
REMARK   10  A    between atoms: O3_15  and  C13_16 
REMARK   11  A    between atoms: C13_16  and  C14_18 
REMARK   12  A    between atoms: C22_26  and  O5_27 
REMARK   13  A    between atoms: C24_30  and  O6_31 
REMARK   14  A    between atoms: O6_31  and  C25_32 
ROOT
HETATM    1  C6  UNL     1      -1.373  -0.119   0.269  1.00  0.00     0.143 C 
HETATM    2  C7  UNL     1      -0.408   0.497   1.255  1.00  0.00     0.039 C 
HETATM    3  C8  UNL     1       1.022   0.177   0.926  1.00  0.00    -0.003 C 
HETATM    4  C9  UNL     1       1.850   1.426   0.790  1.00  0.00    -0.010 C 
HETATM    5  C16 UNL     1       2.142   1.610  -0.646  1.00  0.00     0.005 C 
HETATM    6  C17 UNL     1       1.611   0.387  -1.348  1.00  0.00     0.006 C 
HETATM    7  C18 UNL     1       1.253  -0.601  -0.291  1.00  0.00    -0.001 C 
HETATM    8  C19 UNL     1       0.254  -1.631  -0.678  1.00  0.00    -0.026 C 
HETATM    9  C20 UNL     1       0.004  -1.455  -2.167  1.00  0.00     0.016 C 
HETATM   10  C21 UNL     1       0.824  -3.036  -0.568  1.00  0.00     0.042 C 
HETATM   11  C22 UNL     1      -0.153  -4.072  -1.026  1.00  0.00     0.121 C 
HETATM   12  C23 UNL     1      -1.544  -3.845  -0.608  1.00  0.00     0.065 C 
HETATM   13  C24 UNL     1      -2.031  -2.389  -0.681  1.00  0.00     0.145 C 
HETATM   14  C27 UNL     1      -1.054  -1.571   0.100  1.00  0.00     0.017 C 
HETATM   15  C28 UNL     1      -0.951  -2.239   1.444  1.00  0.00     0.021 C 
ENDROOT
BRANCH   4  16
HETATM   16  C10 UNL     1       3.171   1.195   1.525  1.00  0.00     0.007 C 
BRANCH  16  17
HETATM   17  C11 UNL     1       4.091   2.373   1.478  1.00  0.00     0.027 C 
BRANCH  17  18
HETATM   18  C12 UNL     1       5.343   2.026   2.245  1.00  0.00     0.178 C 
BRANCH  18  19
HETATM   19  O3  UNL     1       5.995   0.929   1.746  1.00  0.00    -0.321 OA
BRANCH  19  20
HETATM   20  C13 UNL     1       6.522   0.824   0.490  1.00  0.00     0.258 C 
HETATM   21  O4  UNL     1       6.436   1.772  -0.320  1.00  0.00    -0.265 OA
BRANCH  20  22
HETATM   22  C14 UNL     1       7.225  -0.419   0.024  1.00  0.00     0.106 C 
HETATM   23  C15 UNL     1       7.642  -0.211  -1.406  1.00  0.00     0.015 C 
ENDBRANCH  20  22
ENDBRANCH  19  20
ENDBRANCH  18  19
ENDBRANCH  17  18
ENDBRANCH  16  17
ENDBRANCH   4  16
BRANCH   1  24
HETATM   24  O2  UNL     1      -2.671   0.263   0.433  1.00  0.00    -0.315 OA
BRANCH  24  25
HETATM   25  C5  UNL     1      -3.300   1.190  -0.335  1.00  0.00     0.259 C 
HETATM   26  O1  UNL     1      -2.604   1.695  -1.226  1.00  0.00    -0.265 OA
BRANCH  25  27
HETATM   27  C4  UNL     1      -4.701   1.663  -0.234  1.00  0.00     0.111 C 
BRANCH  27  28
HETATM   28  C3  UNL     1      -4.622   3.183  -0.157  1.00  0.00     0.009 C 
BRANCH  28  29
HETATM   29  C2  UNL     1      -6.004   3.792  -0.064  1.00  0.00    -0.004 C 
HETATM   30  C1  UNL     1      -5.945   5.298   0.050  1.00  0.00     0.005 C 
ENDBRANCH  28  29
ENDBRANCH  27  28
ENDBRANCH  25  27
ENDBRANCH  24  25
ENDBRANCH   1  24
BRANCH  13  31
HETATM   31  O6  UNL     1      -3.330  -2.482  -0.063  1.00  0.00    -0.315 OA
BRANCH  31  32
HETATM   32  C25 UNL     1      -4.499  -2.331  -0.782  1.00  0.00     0.255 C 
HETATM   33  C26 UNL     1      -5.844  -2.426  -0.155  1.00  0.00     0.126 C 
HETATM   34  O7  UNL     1      -4.427  -2.106  -2.010  1.00  0.00    -0.266 OA
ENDBRANCH  31  32
ENDBRANCH  13  31
BRANCH  11  35
HETATM   35  O5  UNL     1       0.261  -5.293  -0.431  1.00  0.00    -0.395 OA
ATOM     36  H5  UNL     1      -0.359  -5.951  -0.722  1.00  0.00     0.210 HD
ENDBRANCH  11  35
TORSDOF 14
