REMARK  5 active torsions:
REMARK  status: ('A' for Active; 'I' for Inactive)
REMARK    1  A    between atoms: C7_8  and  N2_9 
REMARK    2  A    between atoms: N2_9  and  C8_11 
REMARK    3  A    between atoms: C8_11  and  C9_15 
REMARK    4  A    between atoms: C15_23  and  C16_24 
REMARK    5  A    between atoms: C16_24  and  C17_25 
ROOT
HETATM    1  N1  UNL     1       1.403   4.276   2.381  1.00  0.00    -0.191 NA
HETATM    2  C1  UNL     1       0.590   3.703   1.764  1.00  0.00     0.102 C 
HETATM    3  C2  UNL     1      -0.413   3.012   1.028  1.00  0.00     0.072 A 
HETATM    4  C3  UNL     1      -1.531   3.684   0.620  1.00  0.00     0.025 A 
HETATM    5  C4  UNL     1      -2.466   2.963  -0.087  1.00  0.00     0.003 A 
HETATM    6  C5  UNL     1      -2.291   1.631  -0.373  1.00  0.00     0.017 A 
HETATM    7  C6  UNL     1      -1.153   0.960   0.045  1.00  0.00     0.036 A 
HETATM    8  C7  UNL     1      -0.979  -0.384  -0.245  1.00  0.00     0.120 A 
HETATM    9  N4  UNL     1       0.216  -0.920   0.243  1.00  0.00    -0.331 N 
ATOM     10  H4  UNL     1       0.398  -1.907   0.060  1.00  0.00     0.168 HD
HETATM   11  C15 UNL     1       1.123  -0.253   0.919  1.00  0.00     0.087 A 
HETATM   12  N6  UNL     1       0.906   1.042   1.173  1.00  0.00    -0.344 N 
ATOM     13  H6  UNL     1       1.603   1.570   1.698  1.00  0.00     0.167 HD
HETATM   14  C25 UNL     1      -0.218   1.671   0.750  1.00  0.00     0.068 A 
ENDROOT
BRANCH   8  15
HETATM   15  N2  UNL     1      -1.731  -1.097  -0.851  1.00  0.00    -0.328 N 
ATOM     16  H2  UNL     1      -1.267  -2.005  -0.864  1.00  0.00     0.169 HD
BRANCH  15  17
HETATM   17  C8  UNL     1      -2.878  -1.296  -1.520  1.00  0.00     0.110 C 
HETATM   18  N3  UNL     1      -2.957  -1.130  -2.823  1.00  0.00    -0.385 N 
ATOM     19  H32 UNL     1      -2.098  -0.831  -3.285  1.00  0.00     0.157 HD
ATOM     20  H31 UNL     1      -3.828  -1.281  -3.331  1.00  0.00     0.157 HD
BRANCH  17  21
HETATM   21  C9  UNL     1      -4.129  -1.732  -0.847  1.00  0.00     0.007 A 
HETATM   22  C10 UNL     1      -4.085  -1.933   0.534  1.00  0.00     0.015 A 
HETATM   23  C11 UNL     1      -5.205  -2.335   1.232  1.00  0.00     0.001 A 
HETATM   24  C12 UNL     1      -6.408  -2.549   0.562  1.00  0.00     0.000 A 
HETATM   25  C13 UNL     1      -6.459  -2.352  -0.801  1.00  0.00     0.001 A 
HETATM   26  C14 UNL     1      -5.305  -1.944  -1.484  1.00  0.00     0.015 A 
ENDBRANCH  17  21
ENDBRANCH  15  17
ENDBRANCH   8  15
BRANCH  11  27
HETATM   27  C16 UNL     1       2.348  -0.939   1.391  1.00  0.00     0.117 C 
BRANCH  27  28
HETATM   28  C17 UNL     1       3.420  -1.028   0.376  1.00  0.00    -0.023 A 
HETATM   29  C18 UNL     1       3.736  -2.160  -0.389  1.00  0.00     0.096 A 
HETATM   30  N5  UNL     1       4.755  -1.882  -1.218  1.00  0.00    -0.365 N 
HETATM   31  C19 UNL     1       5.135  -0.589  -1.033  1.00  0.00     0.042 A 
ATOM     32  H5  UNL     1       5.176  -2.535  -1.879  1.00  0.00     0.165 HD
HETATM   33  C20 UNL     1       6.119   0.171  -1.627  1.00  0.00     0.030 A 
HETATM   34  C24 UNL     1       4.306  -0.068  -0.048  1.00  0.00    -0.001 A 
HETATM   35  C21 UNL     1       6.320   1.482  -1.263  1.00  0.00     0.002 A 
HETATM   36  C22 UNL     1       5.495   1.991  -0.285  1.00  0.00     0.001 A 
HETATM   37  C23 UNL     1       4.511   1.234   0.310  1.00  0.00     0.014 A 
ENDBRANCH  27  28
ENDBRANCH  11  27
TORSDOF 5
