REMARK  15 active torsions:
REMARK  status: ('A' for Active; 'I' for Inactive)
REMARK    1  A    between atoms: C2_2  and  C4_4 
REMARK    2  A    between atoms: C5_5  and  C6_6 
REMARK    3  A    between atoms: C6_6  and  N1_7 
REMARK    4  A    between atoms: C6_6  and  C12_16 
REMARK       I    between atoms: N1_7  and  C7_9 
REMARK    5  A    between atoms: C7_9  and  O2_11 
REMARK    6  A    between atoms: O2_11  and  C8_12 
REMARK       I    between atoms: C12_16  and  N2_18 
REMARK    7  A    between atoms: N2_18  and  C13_20 
REMARK    8  A    between atoms: C13_20  and  C14_21 
REMARK    9  A    between atoms: C13_20  and  C18_25 
REMARK   10  A    between atoms: C14_21  and  C15_22 
REMARK       I    between atoms: C18_25  and  N3_27 
REMARK   11  A    between atoms: N3_27  and  C19_29 
REMARK   12  A    between atoms: C19_29  and  C20_30 
REMARK   13  A    between atoms: C19_29  and  C23_36 
REMARK   14  A    between atoms: C21_31  and  S1_32 
REMARK   15  A    between atoms: C23_36  and  C24_37 
ROOT
HETATM    1  C13 UNL     1       0.281  -1.468   1.364  1.00  0.00     0.177 C 
ENDROOT
BRANCH   1   2
HETATM    2  N2  UNL     1      -1.069  -1.002   1.131  1.00  0.00    -0.346 N 
HETATM    3  C12 UNL     1      -1.762  -0.860  -0.070  1.00  0.00     0.245 C 
HETATM    4  O3  UNL     1      -1.256  -1.143  -1.169  1.00  0.00    -0.271 OA
ATOM      5  H2  UNL     1      -1.589  -0.739   1.968  1.00  0.00     0.163 HD
BRANCH   3   6
HETATM    6  C6  UNL     1      -3.176  -0.341  -0.118  1.00  0.00     0.202 C 
BRANCH   6   7
HETATM    7  C5  UNL     1      -4.149  -1.436   0.119  1.00  0.00     0.004 C 
HETATM    8  C4  UNL     1      -3.772  -2.686   0.318  1.00  0.00    -0.024 C 
BRANCH   8   9
HETATM    9  C2  UNL     1      -4.741  -3.780   0.556  1.00  0.00    -0.001 C 
HETATM   10  C1  UNL     1      -4.558  -4.381   1.943  1.00  0.00     0.013 C 
HETATM   11  C3  UNL     1      -4.631  -4.863  -0.504  1.00  0.00     0.013 C 
ENDBRANCH   8   9
ENDBRANCH   6   7
BRANCH   6  12
HETATM   12  N1  UNL     1      -3.469   0.158  -1.478  1.00  0.00    -0.320 N 
HETATM   13  C7  UNL     1      -3.862   1.521  -1.620  1.00  0.00     0.362 C 
HETATM   14  O1  UNL     1      -3.968   2.275  -0.602  1.00  0.00    -0.238 OA
ATOM     15  H1  UNL     1      -3.392  -0.454  -2.290  1.00  0.00     0.166 HD
BRANCH  13  16
HETATM   16  O2  UNL     1      -4.133   2.049  -2.854  1.00  0.00    -0.294 OA
BRANCH  16  17
HETATM   17  C8  UNL     1      -4.515   3.384  -3.059  1.00  0.00     0.061 C 
HETATM   18  C9  UNL     1      -5.782   3.786  -2.370  1.00  0.00     0.046 C 
HETATM   19  C10 UNL     1      -3.430   4.378  -2.669  1.00  0.00     0.046 C 
HETATM   20  C11 UNL     1      -4.724   3.587  -4.560  1.00  0.00     0.046 C 
ENDBRANCH  16  17
ENDBRANCH  13  16
ENDBRANCH   6  12
ENDBRANCH   3   6
ENDBRANCH   1   2
BRANCH   1  21
HETATM   21  C14 UNL     1       0.662  -2.652   0.492  1.00  0.00     0.038 C 
BRANCH  21  22
HETATM   22  C15 UNL     1       2.080  -3.138   0.814  1.00  0.00    -0.020 C 
HETATM   23  C16 UNL     1       2.160  -3.595   2.254  1.00  0.00     0.009 C 
HETATM   24  C17 UNL     1       2.358  -4.298  -0.102  1.00  0.00     0.009 C 
ENDBRANCH  21  22
ENDBRANCH   1  21
BRANCH   1  25
HETATM   25  C18 UNL     1       1.165  -0.345   1.022  1.00  0.00     0.241 C 
HETATM   26  O4  UNL     1       0.780   0.420   0.068  1.00  0.00    -0.271 OA
HETATM   27  N3  UNL     1       2.390   0.011   1.606  1.00  0.00    -0.351 N 
ATOM     28  H3  UNL     1       2.753  -0.555   2.373  1.00  0.00     0.163 HD
BRANCH  27  29
HETATM   29  C19 UNL     1       3.160   1.160   1.154  1.00  0.00     0.108 C 
BRANCH  29  30
HETATM   30  C20 UNL     1       4.519   0.728   0.767  1.00  0.00     0.010 C 
HETATM   31  C21 UNL     1       4.741  -0.016  -0.300  1.00  0.00     0.106 C 
BRANCH  31  32
HETATM   32  S1  UNL     1       6.327  -0.537  -0.775  1.00  0.00     0.161 S 
HETATM   33  C22 UNL     1       7.568  -0.090   0.416  1.00  0.00     0.166 C 
HETATM   34  O5  UNL     1       6.335  -2.036  -0.927  1.00  0.00    -0.224 OA
HETATM   35  O6  UNL     1       6.671   0.015  -2.143  1.00  0.00    -0.224 OA
ENDBRANCH  31  32
ENDBRANCH  29  30
BRANCH  29  36
HETATM   36  C23 UNL     1       3.152   2.312   2.121  1.00  0.00     0.033 C 
BRANCH  36  37
HETATM   37  C24 UNL     1       3.980   3.427   1.507  1.00  0.00    -0.021 C 
HETATM   38  C25 UNL     1       4.030   4.649   2.395  1.00  0.00     0.009 C 
HETATM   39  C26 UNL     1       3.452   3.831   0.161  1.00  0.00     0.009 C 
ENDBRANCH  36  37
ENDBRANCH  29  36
ENDBRANCH  27  29
ENDBRANCH   1  25
TORSDOF 15
