REMARK  10 active torsions:
REMARK  status: ('A' for Active; 'I' for Inactive)
REMARK    1  A    between atoms: C2_2  and  C3_3 
REMARK    2  A    between atoms: C3_3  and  C4_4 
REMARK    3  A    between atoms: N1_7  and  C6_8 
REMARK    4  A    between atoms: C6_8  and  C7_9 
REMARK    5  A    between atoms: C6_8  and  C9_11 
REMARK    6  A    between atoms: C9_11  and  O2_12 
REMARK       I    between atoms: N2_19  and  C15_20 
REMARK    7  A    between atoms: C15_20  and  C16_22 
REMARK    8  A    between atoms: C16_22  and  N3_23 
REMARK    9  A    between atoms: C16_22  and  C21_32 
REMARK       I    between atoms: N3_23  and  C17_25 
REMARK       I    between atoms: C17_25  and  N4_27 
REMARK   10  A    between atoms: N4_27  and  C18_29 
ROOT
HETATM    1  C4  UNL     1       0.899  -1.516  -1.233  1.00  0.00     0.180 C 
HETATM    2  C5  UNL     1       1.538  -1.833   0.054  1.00  0.00     0.243 C 
HETATM    3  O1  UNL     1       1.104  -2.942   0.536  1.00  0.00    -0.271 OA
HETATM    4  N1  UNL     1       2.509  -1.264   0.935  1.00  0.00    -0.344 N 
HETATM    5  C10 UNL     1       3.026   0.067   1.130  1.00  0.00     0.126 C 
HETATM    6  C11 UNL     1       2.202   1.153   0.469  1.00  0.00     0.022 C 
HETATM    7  C12 UNL     1       2.642   1.216  -0.955  1.00  0.00     0.026 C 
HETATM    8  C13 UNL     1       1.427   1.017  -1.851  1.00  0.00     0.084 C 
HETATM    9  C14 UNL     1       1.984   0.872  -3.260  1.00  0.00     0.032 C 
HETATM   10  N2  UNL     1       0.632  -0.103  -1.432  1.00  0.00    -0.333 N 
HETATM   11  C15 UNL     1      -0.690   0.244  -1.107  1.00  0.00     0.244 C 
HETATM   12  O3  UNL     1      -1.428  -0.710  -0.654  1.00  0.00    -0.271 OA
ENDROOT
BRANCH   1  13
HETATM   13  C3  UNL     1       1.641  -2.114  -2.408  1.00  0.00     0.035 C 
BRANCH  13  14
HETATM   14  C2  UNL     1       1.721  -3.622  -2.354  1.00  0.00    -0.002 C 
HETATM   15  C1  UNL     1       0.398  -4.311  -2.357  1.00  0.00     0.005 C 
ENDBRANCH  13  14
ENDBRANCH   1  13
BRANCH  11  16
HETATM   16  C16 UNL     1      -1.344   1.558  -1.212  1.00  0.00     0.181 C 
BRANCH  16  17
HETATM   17  N3  UNL     1      -2.660   1.471  -0.531  1.00  0.00    -0.330 N 
HETATM   18  C17 UNL     1      -2.895   2.070   0.715  1.00  0.00     0.317 C 
HETATM   19  O4  UNL     1      -1.963   2.684   1.287  1.00  0.00    -0.247 OA
HETATM   20  N4  UNL     1      -4.152   2.010   1.359  1.00  0.00    -0.339 N 
ATOM     21  H4  UNL     1      -4.914   1.522   0.888  1.00  0.00     0.164 HD
ATOM     22  H3  UNL     1      -3.417   0.959  -0.984  1.00  0.00     0.165 HD
BRANCH  20  23
HETATM   23  C18 UNL     1      -4.414   2.603   2.648  1.00  0.00     0.078 C 
HETATM   24  C19 UNL     1      -5.157   3.930   2.487  1.00  0.00     0.032 C 
HETATM   25  C20 UNL     1      -5.131   1.670   3.560  1.00  0.00     0.032 C 
ENDBRANCH  20  23
ENDBRANCH  16  17
BRANCH  16  26
HETATM   26  C21 UNL     1      -1.703   1.868  -2.650  1.00  0.00     0.009 C 
HETATM   27  C22 UNL     1      -2.644   0.816  -3.203  1.00  0.00     0.012 C 
HETATM   28  C23 UNL     1      -2.447   3.215  -2.711  1.00  0.00     0.012 C 
ENDBRANCH  16  26
ENDBRANCH  11  16
BRANCH   4  29
HETATM   29  C6  UNL     1       3.071  -2.251   1.792  1.00  0.00     0.110 C 
BRANCH  29  30
HETATM   30  C7  UNL     1       2.893  -1.977   3.259  1.00  0.00     0.023 C 
HETATM   31  C8  UNL     1       1.421  -1.888   3.639  1.00  0.00     0.007 C 
ENDBRANCH  29  30
BRANCH  29  32
HETATM   32  C9  UNL     1       4.577  -2.421   1.549  1.00  0.00     0.189 C 
BRANCH  32  33
HETATM   33  O2  UNL     1       5.108  -3.391   2.396  1.00  0.00    -0.399 OA
ATOM     34  H2  UNL     1       6.040  -3.496   2.246  1.00  0.00     0.209 HD
ENDBRANCH  32  33
ENDBRANCH  29  32
ENDBRANCH   4  29
TORSDOF 10
