REMARK  3 active torsions:
REMARK  status: ('A' for Active; 'I' for Inactive)
REMARK    1  A    between atoms: N1_1  and  C1_5 
REMARK    2  A    between atoms: C3_7  and  N2_8 
REMARK    3  A    between atoms: C10_18  and  N3_19 
ROOT
HETATM    1  C1  UNL     1       0.842  -1.294  -0.555  1.00  0.00     0.221 C 
HETATM    2  C2  UNL     1      -0.467  -1.616   0.027  1.00  0.00     0.073 C 
HETATM    3  C3  UNL     1      -1.450  -0.515   0.146  1.00  0.00     0.126 C 
HETATM    4  C4  UNL     1      -1.521   0.406  -1.023  1.00  0.00     0.043 C 
HETATM    5  C5  UNL     1      -0.584   1.554  -0.991  1.00  0.00    -0.009 C 
HETATM    6  C6  UNL     1      -0.489   2.253   0.333  1.00  0.00     0.009 C 
HETATM    7  C7  UNL     1      -0.119   1.210   1.372  1.00  0.00    -0.009 C 
HETATM    8  C8  UNL     1      -1.267   0.240   1.456  1.00  0.00     0.043 C 
HETATM    9  C9  UNL     1       1.191   0.578   1.064  1.00  0.00     0.045 C 
HETATM   10  C10 UNL     1       1.344   0.093  -0.340  1.00  0.00     0.152 C 
HETATM   11  C11 UNL     1       0.792   1.075  -1.366  1.00  0.00     0.045 C 
ENDROOT
BRANCH   1  12
HETATM   12  N1  UNL     1       1.823  -2.258  -0.029  1.00  0.00    -0.072 N 
ATOM     13  H13 UNL     1       1.841  -2.287   0.990  1.00  0.00     0.274 HD
ATOM     14  H12 UNL     1       1.548  -3.227  -0.188  1.00  0.00     0.274 HD
ATOM     15  H11 UNL     1       2.732  -2.034  -0.433  1.00  0.00     0.274 HD
ENDBRANCH   1  12
BRANCH  10  16
HETATM   16  N3  UNL     1       2.796   0.068  -0.600  1.00  0.00    -0.068 N 
ATOM     17  H33 UNL     1       3.291  -0.629  -0.044  1.00  0.00     0.275 HD
ATOM     18  H32 UNL     1       3.033  -0.307  -1.519  1.00  0.00     0.275 HD
ATOM     19  H31 UNL     1       3.140   1.017  -0.453  1.00  0.00     0.275 HD
ENDBRANCH  10  16
BRANCH   3  20
HETATM   20  N2  UNL     1      -2.780  -1.144   0.256  1.00  0.00    -0.070 N 
ATOM     21  H23 UNL     1      -2.986  -1.787  -0.509  1.00  0.00     0.275 HD
ATOM     22  H22 UNL     1      -2.843  -1.823   1.014  1.00  0.00     0.275 HD
ATOM     23  H21 UNL     1      -3.457  -0.386   0.338  1.00  0.00     0.275 HD
ENDBRANCH   3  20
TORSDOF 3
