REMARK  10 active torsions:
REMARK  status: ('A' for Active; 'I' for Inactive)
REMARK    1  A    between atoms: C2_2  and  O1_3 
REMARK    2  A    between atoms: O1_3  and  C3_4 
REMARK    3  A    between atoms: C3_4  and  O3_6 
REMARK    4  A    between atoms: O3_6  and  C4_7 
REMARK    5  A    between atoms: C4_7  and  C5_8 
REMARK    6  A    between atoms: C6_13  and  S1_14 
REMARK    7  A    between atoms: S1_14  and  C7_15 
REMARK    8  A    between atoms: C7_15  and  C8_16 
REMARK       I    between atoms: C8_16  and  N3_18 
REMARK       I    between atoms: N3_18  and  C9_20 
REMARK    9  A    between atoms: C9_20  and  O6_22 
REMARK   10  A    between atoms: O6_22  and  C10_23 
ROOT
HETATM    1  C5  UNL     1       3.312   0.710  -0.499  1.00  0.00     0.124 A 
HETATM    2  N1  UNL     1       3.086   2.005  -0.185  1.00  0.00    -0.285 N 
ATOM      3  H1  UNL     1       3.798   2.728  -0.084  1.00  0.00     0.188 HD
HETATM    4  N2  UNL     1       1.783   2.174  -0.031  1.00  0.00    -0.278 N 
ATOM      5  H2  UNL     1       1.323   3.053   0.208  1.00  0.00     0.189 HD
HETATM    6  C6  UNL     1       1.154   0.981  -0.244  1.00  0.00     0.162 A 
HETATM    7  N4  UNL     1       2.126   0.114  -0.528  1.00  0.00    -0.318 N 
HETATM    8  C14 UNL     1       1.890  -1.285  -0.824  1.00  0.00     0.160 C 
ENDROOT
BRANCH   6   9
HETATM    9  S1  UNL     1      -0.617   0.699  -0.150  1.00  0.00    -0.083 SA
BRANCH   9  10
HETATM   10  C7  UNL     1      -0.982   0.245   1.569  1.00  0.00     0.185 C 
BRANCH  10  11
HETATM   11  C8  UNL     1      -2.414  -0.015   1.780  1.00  0.00     0.235 C 
HETATM   12  O4  UNL     1      -2.818  -0.341   2.925  1.00  0.00    -0.272 OA
HETATM   13  N3  UNL     1      -3.324   0.098   0.720  1.00  0.00    -0.272 N 
HETATM   14  C9  UNL     1      -4.711  -0.147   0.897  1.00  0.00     0.368 C 
ATOM     15  H3  UNL     1      -2.981   0.363  -0.203  1.00  0.00     0.174 HD
HETATM   16  O5  UNL     1      -5.126  -0.473   2.032  1.00  0.00    -0.238 OA
BRANCH  14  17
HETATM   17  O6  UNL     1      -5.634  -0.046  -0.118  1.00  0.00    -0.294 OA
BRANCH  17  18
HETATM   18  C10 UNL     1      -7.008  -0.284   0.034  1.00  0.00     0.061 C 
HETATM   19  C11 UNL     1      -7.669   0.624   1.036  1.00  0.00     0.046 C 
HETATM   20  C12 UNL     1      -7.303  -1.716   0.464  1.00  0.00     0.046 C 
HETATM   21  C13 UNL     1      -7.648  -0.088  -1.338  1.00  0.00     0.046 C 
ENDBRANCH  17  18
ENDBRANCH  14  17
ENDBRANCH  10  11
ENDBRANCH   9  10
ENDBRANCH   6   9
BRANCH   1  22
HETATM   22  C4  UNL     1       4.628   0.060  -0.764  1.00  0.00     0.259 C 
BRANCH  22  23
HETATM   23  O3  UNL     1       5.679   1.030  -0.642  1.00  0.00    -0.291 OA
BRANCH  23  24
HETATM   24  C3  UNL     1       6.983   0.608  -0.854  1.00  0.00     0.406 C 
HETATM   25  O2  UNL     1       7.191  -0.614  -1.147  1.00  0.00    -0.229 OA
BRANCH  24  26
HETATM   26  O1  UNL     1       8.078   1.438  -0.768  1.00  0.00    -0.298 OA
BRANCH  26  27
HETATM   27  C2  UNL     1       9.411   0.959  -0.996  1.00  0.00     0.176 C 
HETATM   28  C1  UNL     1       9.674  -0.121   0.023  1.00  0.00     0.034 C 
ENDBRANCH  26  27
ENDBRANCH  24  26
ENDBRANCH  23  24
ENDBRANCH  22  23
ENDBRANCH   1  22
TORSDOF 10
