REMARK  12 active torsions:
REMARK  status: ('A' for Active; 'I' for Inactive)
REMARK    1  A    between atoms: N1_1  and  C1_5 
REMARK    2  A    between atoms: N2_8  and  C4_9 
REMARK    3  A    between atoms: N4_13  and  C6_15 
REMARK    4  A    between atoms: C7_20  and  C8_21 
REMARK    5  A    between atoms: C8_21  and  O1_22 
REMARK    6  A    between atoms: O1_22  and  S1_23 
REMARK    7  A    between atoms: S1_23  and  N7_24 
REMARK    8  A    between atoms: S1_23  and  N8_28 
REMARK       I    between atoms: N8_28  and  C9_30 
REMARK       I    between atoms: C9_30  and  N9_32 
REMARK    9  A    between atoms: N9_32  and  N10_34 
REMARK   10  A    between atoms: N10_34  and  C10_36 
REMARK   11  A    between atoms: C13_47  and  N14_48 
REMARK   12  A    between atoms: C16_51  and  N15_52 
ROOT
HETATM    1  C6  UNL     1       0.629   0.300   0.943  1.00  0.00     0.259 A 
HETATM    2  N5  UNL     1       1.320   0.784   1.957  1.00  0.00    -0.263 N 
ATOM      3  H5  UNL     1       1.412   0.357   2.879  1.00  0.00     0.190 HD
HETATM    4  N6  UNL     1       1.880   1.936   1.562  1.00  0.00    -0.278 N 
ATOM      5  H6  UNL     1       2.474   2.535   2.135  1.00  0.00     0.189 HD
HETATM    6  C7  UNL     1       1.531   2.170   0.291  1.00  0.00     0.167 A 
HETATM    7  O4  UNL     1       0.762   1.139  -0.052  1.00  0.00    -0.261 OA
ENDROOT
BRANCH   1   8
HETATM    8  N4  UNL     1      -0.122  -0.917   0.952  1.00  0.00    -0.152 N 
HETATM    9  C5  UNL     1      -1.394  -0.889   0.634  1.00  0.00     0.714 A 
HETATM   10  N3  UNL     1      -1.954   0.287   0.310  1.00  0.00    -0.021 N 
HETATM   11  N13 UNL     1      -2.168  -1.982   0.605  1.00  0.00    -0.021 N 
HETATM   12  C4  UNL     1      -3.244   0.440  -0.043  1.00  0.00     0.709 A 
ATOM     13  H3  UNL     1      -1.364   1.119   0.333  1.00  0.00     0.203 HD
HETATM   14  N16 UNL     1      -3.983  -0.692  -0.058  1.00  0.00    -0.021 N 
HETATM   15  C13 UNL     1      -3.460  -1.910   0.263  1.00  0.00     0.709 A 
ATOM     16  H16 UNL     1      -4.967  -0.633  -0.319  1.00  0.00     0.203 HD
ATOM     17  H13 UNL     1      -1.765  -2.887   0.848  1.00  0.00     0.203 HD
ATOM     18  H4  UNL     1       0.327  -1.798   1.203  1.00  0.00     0.188 HD
BRANCH  12  19
HETATM   19  N2  UNL     1      -3.831   1.688  -0.395  1.00  0.00    -0.217 N 
HETATM   20  C3  UNL     1      -3.896   2.835   0.496  1.00  0.00     0.143 C 
HETATM   21  C2  UNL     1      -5.308   3.374   0.484  1.00  0.00     0.053 C 
HETATM   22  C1  UNL     1      -6.286   2.376  -0.087  1.00  0.00     0.186 C 
HETATM   23  C19 UNL     1      -5.924   1.945  -1.490  1.00  0.00     0.053 C 
HETATM   24  C18 UNL     1      -4.435   1.900  -1.717  1.00  0.00     0.143 C 
BRANCH  22  25
HETATM   25  N1  UNL     1      -7.597   2.954  -0.114  1.00  0.00    -0.075 N 
ATOM     26  H13 UNL     1      -7.886   3.297   0.802  1.00  0.00     0.274 HD
ATOM     27  H12 UNL     1      -7.616   3.843  -0.614  1.00  0.00     0.274 HD
ATOM     28  H11 UNL     1      -8.258   2.280  -0.500  1.00  0.00     0.274 HD
ENDBRANCH  22  25
ENDBRANCH  12  19
BRANCH  15  29
HETATM   29  N14 UNL     1      -4.332  -3.007   0.189  1.00  0.00    -0.215 N 
HETATM   30  C14 UNL     1      -4.467  -3.836  -1.013  1.00  0.00     0.143 C 
HETATM   31  C15 UNL     1      -5.619  -4.771  -0.712  1.00  0.00     0.055 C 
HETATM   32  C16 UNL     1      -5.486  -4.907   0.801  1.00  0.00     0.203 C 
HETATM   33  C17 UNL     1      -5.210  -3.483   1.217  1.00  0.00     0.173 C 
BRANCH  32  34
HETATM   34  N15 UNL     1      -4.329  -5.700   1.094  1.00  0.00    -0.073 N 
ATOM     35 3H15 UNL     1      -4.347  -6.604   0.622  1.00  0.00     0.274 HD
ATOM     36 2H15 UNL     1      -3.483  -5.330   0.660  1.00  0.00     0.274 HD
ATOM     37 1H15 UNL     1      -4.240  -5.791   2.106  1.00  0.00     0.274 HD
ENDBRANCH  32  34
ENDBRANCH  15  29
ENDBRANCH   1   8
BRANCH   6  38
HETATM   38  C8  UNL     1       1.918   3.315  -0.533  1.00  0.00     0.276 C 
BRANCH  38  39
HETATM   39  O1  UNL     1       2.726   3.177  -1.565  1.00  0.00    -0.268 OA
BRANCH  39  40
HETATM   40  S1  UNL     1       4.378   2.674  -1.626  1.00  0.00     0.237 S 
HETATM   41  O2  UNL     1       5.495   3.121  -2.906  1.00  0.00    -0.198 OA
BRANCH  40  42
HETATM   42  N7  UNL     1       4.007   1.130  -2.499  1.00  0.00    -0.323 N 
ATOM     43  H72 UNL     1       3.134   0.719  -2.829  1.00  0.00     0.169 HD
ATOM     44  H71 UNL     1       4.982   0.833  -2.535  1.00  0.00     0.169 HD
ENDBRANCH  40  42
BRANCH  40  45
HETATM   45  N8  UNL     1       5.109   1.597  -0.164  1.00  0.00    -0.230 N 
HETATM   46  C9  UNL     1       6.475   1.439   0.006  1.00  0.00     0.348 C 
HETATM   47  O3  UNL     1       7.240   2.027  -0.837  1.00  0.00    -0.245 OA
HETATM   48  N9  UNL     1       7.044   0.683   1.035  1.00  0.00    -0.249 N 
ATOM     49  H9  UNL     1       6.447   0.204   1.709  1.00  0.00     0.192 HD
ATOM     50  H8  UNL     1       4.470   1.142   0.488  1.00  0.00     0.184 HD
BRANCH  48  51
HETATM   51  N10 UNL     1       8.428   0.587   1.136  1.00  0.00    -0.284 N 
ATOM     52  H10 UNL     1       8.910   1.277   1.712  1.00  0.00     0.188 HD
BRANCH  51  53
HETATM   53  C10 UNL     1       9.209  -0.393   0.500  1.00  0.00     0.119 C 
HETATM   54  N11 UNL     1      10.439  -0.636   0.891  1.00  0.00    -0.354 N 
HETATM   55  C11 UNL     1      11.022  -1.679   0.083  1.00  0.00     0.356 C 
ATOM     56  H11 UNL     1      10.914  -0.156   1.656  1.00  0.00     0.162 HD
HETATM   57  N12 UNL     1       9.866  -2.368  -0.484  1.00  0.00    -0.053 N 
HETATM   58  C12 UNL     1       8.915  -1.286  -0.625  1.00  0.00     0.311 C 
ATOM     59 2H12 UNL     1      10.052  -2.895  -1.337  1.00  0.00     0.279 HD
ATOM     60 1H12 UNL     1       9.534  -3.169   0.052  1.00  0.00     0.279 HD
ENDBRANCH  51  53
ENDBRANCH  48  51
ENDBRANCH  40  45
ENDBRANCH  39  40
ENDBRANCH  38  39
ENDBRANCH   6  38
TORSDOF 12
