REMARK  1 active torsions:
REMARK  status: ('A' for Active; 'I' for Inactive)
REMARK    1  A    between atoms: C2_2  and  C3_3 
ROOT
HETATM    1  C3  UNL     1       0.409   0.061  -0.159  1.00  0.00     0.091 C 
HETATM    2  C4  UNL     1       0.683  -1.236   0.515  1.00  0.00     0.099 C 
HETATM    3  S1  UNL     1      -0.856  -2.231   0.483  1.00  0.00    -0.160 SA
HETATM    4  C5  UNL     1      -2.073  -1.181  -0.381  1.00  0.00     0.146 C 
HETATM    5  C6  UNL     1      -1.975   0.192   0.159  1.00  0.00     0.098 C 
HETATM    6  N1  UNL     1      -3.110   0.919   0.577  1.00  0.00    -0.087 NA
HETATM    7  N2  UNL     1      -0.803   0.705   0.234  1.00  0.00    -0.376 N 
ATOM      8  H2  UNL     1      -0.730   1.652   0.605  1.00  0.00     0.160 HD
ENDROOT
BRANCH   1   9
HETATM    9  C2  UNL     1       1.540   1.060   0.087  1.00  0.00     0.021 C 
HETATM   10  C1  UNL     1       2.843   0.516  -0.447  1.00  0.00     0.007 C 
ENDBRANCH   1   9
TORSDOF 1
