REMARK  7 active torsions:
REMARK  status: ('A' for Active; 'I' for Inactive)
REMARK    1  A    between atoms: O1_2  and  C2_3 
REMARK    2  A    between atoms: C5_6  and  N1_7 
REMARK    3  A    between atoms: N1_7  and  C6_9 
REMARK    4  A    between atoms: C7_10  and  C8_11 
REMARK    5  A    between atoms: C12_20  and  O3_21 
REMARK    6  A    between atoms: C14_25  and  C15_26 
REMARK    7  A    between atoms: C21_32  and  O4_33 
ROOT
HETATM    1  C6  UNL     1      -0.958   0.525  -1.087  1.00  0.00     0.064 A 
HETATM    2  C7  UNL     1      -0.935   1.129  -2.330  1.00  0.00     0.072 A 
HETATM    3  C9  UNL     1      -2.121   1.450  -3.040  1.00  0.00     0.107 A 
HETATM    4  N3  UNL     1      -3.289   1.160  -2.492  1.00  0.00    -0.361 N 
ATOM      5  H3  UNL     1      -4.146   1.387  -2.996  1.00  0.00     0.165 HD
HETATM    6  C10 UNL     1      -3.372   0.573  -1.285  1.00  0.00     0.090 A 
HETATM    7  C11 UNL     1      -4.649   0.354  -0.794  1.00  0.00     0.194 A 
HETATM    8  F1  UNL     1      -5.760   0.673  -1.500  1.00  0.00    -0.199 F 
HETATM    9  C12 UNL     1      -4.782  -0.204   0.451  1.00  0.00     0.184 A 
HETATM   10  N4  UNL     1      -3.689  -0.502   1.113  1.00  0.00    -0.337 N 
ATOM     11  H4  UNL     1      -3.819  -0.915   2.036  1.00  0.00     0.168 HD
HETATM   12  C14 UNL     1      -2.384  -0.321   0.704  1.00  0.00     0.029 A 
HETATM   13  C18 UNL     1      -2.232   0.234  -0.539  1.00  0.00     0.045 A 
ENDROOT
BRANCH   1  14
HETATM   14  N1  UNL     1       0.008   0.299  -0.359  1.00  0.00    -0.354 N 
ATOM     15  H1  UNL     1      -0.338  -0.161   0.483  1.00  0.00     0.166 HD
BRANCH  14  16
HETATM   16  C5  UNL     1       1.359   0.423  -0.239  1.00  0.00     0.041 A 
HETATM   17  C4  UNL     1       1.930   1.669   0.152  1.00  0.00     0.033 A 
HETATM   18  C3  UNL     1       3.268   1.843   0.337  1.00  0.00     0.042 A 
HETATM   19  C2  UNL     1       4.137   0.798   0.148  1.00  0.00     0.102 A 
HETATM   20  C21 UNL     1       3.638  -0.418  -0.228  1.00  0.00     0.109 A 
HETATM   21  C19 UNL     1       2.269  -0.586  -0.415  1.00  0.00     0.001 A 
HETATM   22  C20 UNL     1       1.882  -1.961  -0.882  1.00  0.00     0.054 C 
BRANCH  19  23
HETATM   23  O1  UNL     1       5.508   0.944   0.329  1.00  0.00    -0.353 OA
HETATM   24  C1  UNL     1       6.053   2.195   0.719  1.00  0.00     0.210 C 
ENDBRANCH  19  23
BRANCH  20  25
HETATM   25  O4  UNL     1       4.476  -1.510  -0.432  1.00  0.00    -0.352 OA
HETATM   26  C22 UNL     1       4.769  -2.369   0.654  1.00  0.00     0.210 C 
ENDBRANCH  20  25
ENDBRANCH  14  16
ENDBRANCH   1  14
BRANCH   2  27
HETATM   27  C8  UNL     1       0.253   1.426  -3.063  1.00  0.00     0.268 C 
HETATM   28  N2  UNL     1       0.314   2.763  -3.640  1.00  0.00    -0.057 NA
HETATM   29  O2  UNL     1       1.194   0.671  -3.237  1.00  0.00    -0.271 OA
ENDBRANCH   2  27
BRANCH  12  30
HETATM   30  C15 UNL     1      -1.287  -0.735   1.557  1.00  0.00     0.028 C 
HETATM   31  C16 UNL     1      -2.020  -0.849   2.982  1.00  0.00     0.016 C 
HETATM   32  C17 UNL     1      -0.939  -2.209   1.422  1.00  0.00     0.016 C 
ENDBRANCH  12  30
BRANCH   9  33
HETATM   33  O3  UNL     1      -6.072  -0.440   0.981  1.00  0.00    -0.338 OA
HETATM   34  C13 UNL     1      -6.236  -1.006   2.243  1.00  0.00     0.211 C 
ENDBRANCH   9  33
TORSDOF 7
