REMARK  8 active torsions:
REMARK  status: ('A' for Active; 'I' for Inactive)
REMARK       I    between atoms: C2_5  and  N3_6 
REMARK       I    between atoms: C2_5  and  N4_20 
REMARK    1  A    between atoms: N3_6  and  C3_8 
REMARK    2  A    between atoms: C3_8  and  C4_9 
REMARK    3  A    between atoms: C4_9  and  C5_10 
REMARK    4  A    between atoms: C5_10  and  C6_11 
REMARK    5  A    between atoms: C6_11  and  C7_12 
REMARK    6  A    between atoms: C7_12  and  C8_13 
REMARK    7  A    between atoms: C8_13  and  C9_14 
REMARK    8  A    between atoms: N4_20  and  C15_22 
ROOT
HETATM    1  N1  UNL     1       4.176   0.279  -5.141  1.00  0.00    -0.171 NA
HETATM    2  C1  UNL     1       3.515   0.193  -4.196  1.00  0.00     0.196 C 
HETATM    3  N2  UNL     1       2.705   0.100  -3.074  1.00  0.00    -0.126 N 
ATOM      4  H2  UNL     1       1.695   0.040  -3.206  1.00  0.00     0.197 HD
HETATM    5  C2  UNL     1       3.178   0.086  -1.854  1.00  0.00     0.683 C 
HETATM    6  N3  UNL     1       2.231  -0.013  -0.815  1.00  0.00    -0.226 N 
ATOM      7  H3  UNL     1       1.954  -0.942  -0.498  1.00  0.00     0.177 HD
HETATM    8  N4  UNL     1       4.575   0.169  -1.639  1.00  0.00    -0.221 N 
ATOM      9  H4  UNL     1       5.222   0.112  -2.426  1.00  0.00     0.178 HD
ENDROOT
BRANCH   6  10
HETATM   10  C3  UNL     1       1.630   1.144  -0.174  1.00  0.00     0.138 C 
BRANCH  10  11
HETATM   11  C4  UNL     1       0.679   0.666   0.875  1.00  0.00     0.020 C 
BRANCH  11  12
HETATM   12  C5  UNL     1      -0.430  -0.193   0.320  1.00  0.00     0.002 C 
BRANCH  12  13
HETATM   13  C6  UNL     1      -1.271   0.513  -0.690  1.00  0.00     0.000 C 
BRANCH  13  14
HETATM   14  C7  UNL     1      -2.341  -0.425  -1.179  1.00  0.00     0.000 C 
BRANCH  14  15
HETATM   15  C8  UNL     1      -3.243  -0.906  -0.088  1.00  0.00     0.004 C 
BRANCH  15  16
HETATM   16  C9  UNL     1      -3.970   0.217   0.609  1.00  0.00    -0.014 C 
HETATM   17  C10 UNL     1      -4.835   1.013  -0.313  1.00  0.00     0.004 C 
HETATM   18  C11 UNL     1      -6.148   0.306  -0.619  1.00  0.00     0.000 C 
HETATM   19  C12 UNL     1      -6.987   0.366   0.653  1.00  0.00     0.000 C 
HETATM   20  C13 UNL     1      -6.122   0.393   1.872  1.00  0.00     0.000 C 
HETATM   21  C14 UNL     1      -4.861  -0.406   1.668  1.00  0.00     0.004 C 
ENDBRANCH  15  16
ENDBRANCH  14  15
ENDBRANCH  13  14
ENDBRANCH  12  13
ENDBRANCH  11  12
ENDBRANCH  10  11
ENDBRANCH   6  10
BRANCH   8  22
HETATM   22  C15 UNL     1       5.069   0.333  -0.307  1.00  0.00     0.099 C 
HETATM   23  C16 UNL     1       6.600   0.424  -0.285  1.00  0.00     0.026 C 
HETATM   24  C17 UNL     1       6.856   0.391   1.207  1.00  0.00     0.002 C 
HETATM   25  C18 UNL     1       5.843  -0.577   1.729  1.00  0.00     0.002 C 
HETATM   26  C19 UNL     1       4.842  -0.827   0.608  1.00  0.00     0.026 C 
ENDBRANCH   8  22
TORSDOF 8
