REMARK  8 active torsions:
REMARK  status: ('A' for Active; 'I' for Inactive)
REMARK    1  A    between atoms: S1_2  and  C2_3 
REMARK    2  A    between atoms: C7_8  and  N1_9 
REMARK    3  A    between atoms: N1_9  and  C8_11 
REMARK    4  A    between atoms: C8_11  and  C9_12 
REMARK    5  A    between atoms: C12_15  and  C13_16 
REMARK    6  A    between atoms: C13_16  and  N2_17 
REMARK    7  A    between atoms: N2_17  and  C14_20 
REMARK    8  A    between atoms: C14_20  and  C15_21 
ROOT
HETATM    1  C9  UNL     1      -0.961  -1.286   0.033  1.00  0.00    -0.041 A 
HETATM    2  C10 UNL     1      -0.625  -0.156   0.748  1.00  0.00     0.009 A 
HETATM    3  C11 UNL     1       0.648   0.409   0.677  1.00  0.00     0.009 A 
HETATM    4  C12 UNL     1       1.610  -0.141  -0.109  1.00  0.00    -0.033 A 
HETATM    5  C18 UNL     1       1.290  -1.273  -0.832  1.00  0.00     0.009 A 
HETATM    6  C19 UNL     1       0.036  -1.838  -0.768  1.00  0.00     0.009 A 
ENDROOT
BRANCH   1   7
HETATM    7  C8  UNL     1      -2.287  -1.930   0.068  1.00  0.00     0.158 C 
BRANCH   7   8
HETATM    8  N1  UNL     1      -3.324  -1.116   0.650  1.00  0.00    -0.385 N 
ATOM      9  H1  UNL     1      -3.754  -1.400   1.530  1.00  0.00     0.160 HD
BRANCH   8  10
HETATM   10  C7  UNL     1      -3.748   0.061   0.020  1.00  0.00     0.045 A 
HETATM   11  C2  UNL     1      -4.719   0.838   0.665  1.00  0.00     0.026 A 
HETATM   12  C3  UNL     1      -5.206   2.005   0.115  1.00  0.00     0.021 A 
HETATM   13  C4  UNL     1      -4.707   2.391  -1.099  1.00  0.00     0.002 A 
HETATM   14  C5  UNL     1      -3.747   1.653  -1.770  1.00  0.00     0.002 A 
HETATM   15  C6  UNL     1      -3.266   0.479  -1.204  1.00  0.00     0.030 A 
BRANCH  11  16
HETATM   16  S1  UNL     1      -5.334   0.295   2.252  1.00  0.00    -0.132 SA
HETATM   17  C1  UNL     1      -6.774  -0.764   1.965  1.00  0.00     0.095 C 
ENDBRANCH  11  16
ENDBRANCH   8  10
ENDBRANCH   7   8
ENDBRANCH   1   7
BRANCH   4  18
HETATM   18  C13 UNL     1       2.990   0.435  -0.210  1.00  0.00     0.270 C 
BRANCH  18  19
HETATM   19  N2  UNL     1       3.829  -0.309   0.696  1.00  0.00    -0.071 N 
ATOM     20  H22 UNL     1       3.436  -0.300   1.637  1.00  0.00     0.277 HD
ATOM     21  H21 UNL     1       3.775  -1.308   0.497  1.00  0.00     0.277 HD
BRANCH  19  22
HETATM   22  C14 UNL     1       5.191   0.127   0.715  1.00  0.00     0.237 C 
BRANCH  22  23
HETATM   23  C15 UNL     1       5.932  -0.159  -0.575  1.00  0.00     0.011 A 
HETATM   24  C16 UNL     1       7.372   0.253  -0.670  1.00  0.00     0.007 A 
HETATM   25  C17 UNL     1       6.297   1.040  -1.400  1.00  0.00     0.007 A 
ENDBRANCH  22  23
ENDBRANCH  19  22
ENDBRANCH  18  19
ENDBRANCH   4  18
TORSDOF 8
