REMARK  3 active torsions:
REMARK  status: ('A' for Active; 'I' for Inactive)
REMARK    1  A    between atoms: C2_2  and  N1_3 
REMARK       I    between atoms: N1_3  and  C4_5 
REMARK    2  A    between atoms: C4_5  and  C5_7 
REMARK    3  A    between atoms: C10_12  and  C11_13 
REMARK       I    between atoms: C11_13  and  N2_15 
ROOT
HETATM    1  C5  UNL     1       2.114  -0.655  -0.642  1.00  0.00     0.097 C 
HETATM    2  C6  UNL     1       0.767   0.091  -0.651  1.00  0.00     0.030 C 
HETATM    3  C7  UNL     1      -0.272  -0.955  -0.448  1.00  0.00    -0.007 C 
HETATM    4  C8  UNL     1      -0.980  -1.309  -1.753  1.00  0.00     0.016 C 
HETATM    5  C9  UNL     1      -2.273  -0.498  -1.766  1.00  0.00     0.016 C 
HETATM    6  C10 UNL     1      -2.137   0.418  -0.571  1.00  0.00     0.087 C 
HETATM    7  C13 UNL     1      -1.438  -0.506   0.405  1.00  0.00    -0.020 C 
HETATM    8  C14 UNL     1      -1.017   0.188   1.654  1.00  0.00     0.017 C 
HETATM    9  C15 UNL     1      -2.226  -1.741   0.733  1.00  0.00     0.014 C 
HETATM   10  C16 UNL     1      -1.381  -2.578   1.671  1.00  0.00     0.028 C 
HETATM   11  C17 UNL     1      -0.036  -2.841   1.093  1.00  0.00    -0.022 C 
HETATM   12  C18 UNL     1       0.466  -2.093   0.122  1.00  0.00    -0.059 C 
HETATM   13  C19 UNL     1       1.764  -2.102  -0.655  1.00  0.00     0.100 C 
HETATM   14 BR1  UNL     1       3.066  -3.292   0.033  1.00  0.00    -0.086 Br
ENDROOT
BRANCH   1  15
HETATM   15  C4  UNL     1       2.900  -0.269   0.538  1.00  0.00     0.225 C 
HETATM   16  N1  UNL     1       3.504   1.005   0.661  1.00  0.00    -0.356 N 
HETATM   17  C3  UNL     1       4.258   1.303   1.897  1.00  0.00     0.152 C 
HETATM   18  O1  UNL     1       3.033  -1.109   1.469  1.00  0.00    -0.273 OA
BRANCH  16  19
HETATM   19  C2  UNL     1       3.449   2.046  -0.323  1.00  0.00     0.120 C 
HETATM   20  C1  UNL     1       4.635   1.894  -1.272  1.00  0.00     0.026 C 
ENDBRANCH  16  19
ENDBRANCH   1  15
BRANCH   6  21
HETATM   21  C11 UNL     1      -3.386   0.987  -0.087  1.00  0.00     0.222 C 
HETATM   22  O2  UNL     1      -3.737   0.801   1.100  1.00  0.00    -0.273 OA
HETATM   23  N2  UNL     1      -4.235   1.756  -0.922  1.00  0.00    -0.365 N 
HETATM   24  C12 UNL     1      -5.481   2.330  -0.458  1.00  0.00     0.149 C 
ATOM     25  H2  UNL     1      -3.956   1.912  -1.891  1.00  0.00     0.161 HD
ENDBRANCH   6  21
TORSDOF 3
