REMARK  6 active torsions:
REMARK  status: ('A' for Active; 'I' for Inactive)
REMARK    1  A    between atoms: N1_2  and  C2_4 
REMARK    2  A    between atoms: C2_4  and  N2_6 
REMARK    3  A    between atoms: C2_4  and  C4_10 
REMARK       I    between atoms: C4_10  and  N3_12 
REMARK    4  A    between atoms: N3_12  and  C5_14 
REMARK    5  A    between atoms: C8_18  and  C9_19 
REMARK    6  A    between atoms: C9_19  and  O3_21 
ROOT
HETATM    1  C5  UNL     1      -0.005   0.005   0.128  1.00  0.00     0.094 A 
HETATM    2  S1  UNL     1      -0.179  -1.721   0.061  1.00  0.00    -0.069 SA
HETATM    3  C6  UNL     1      -1.822  -1.814  -0.347  1.00  0.00     0.036 A 
HETATM    4  C7  UNL     1      -2.211  -0.502  -0.427  1.00  0.00    -0.020 A 
HETATM    5  C8  UNL     1      -1.272   0.437  -0.182  1.00  0.00     0.081 A 
HETATM    6  C11 UNL     1      -3.667  -0.362  -0.803  1.00  0.00     0.041 C 
HETATM    7  C12 UNL     1      -4.004  -1.330  -1.934  1.00  0.00     0.011 C 
HETATM    8  C13 UNL     1      -3.928  -2.773  -1.510  1.00  0.00     0.058 C 
HETATM    9  C14 UNL     1      -2.769  -2.938  -0.591  1.00  0.00     0.020 C 
HETATM   10  N4  UNL     1      -2.506  -4.019   0.031  1.00  0.00    -0.401 N 
ATOM     11  H41 UNL     1      -3.154  -4.789  -0.136  1.00  0.00     0.156 HD
ATOM     12  H42 UNL     1      -1.712  -4.132   0.661  1.00  0.00     0.156 HD
ENDROOT
BRANCH   1  13
HETATM   13  N3  UNL     1       1.204   0.702   0.431  1.00  0.00    -0.317 N 
HETATM   14  C4  UNL     1       2.385  -0.090   0.622  1.00  0.00     0.278 C 
HETATM   15  O1  UNL     1       2.316  -1.308   0.510  1.00  0.00    -0.268 OA
ATOM     16  H3  UNL     1       1.227   1.719   0.508  1.00  0.00     0.169 HD
BRANCH  14  17
HETATM   17  C2  UNL     1       3.677   0.587   0.947  1.00  0.00     0.268 C 
HETATM   18  C3  UNL     1       3.734   0.781   2.468  1.00  0.00     0.081 C 
BRANCH  17  19
HETATM   19  N1  UNL     1       4.809  -0.159   0.485  1.00  0.00    -0.388 N 
HETATM   20  C1  UNL     1       4.907  -1.505   0.983  1.00  0.00     0.142 C 
ATOM     21  H1  UNL     1       5.499   0.237  -0.154  1.00  0.00     0.155 HD
ENDBRANCH  17  19
BRANCH  17  22
HETATM   22  N2  UNL     1       3.674   1.889   0.339  1.00  0.00    -0.044 N 
ATOM     23  H23 UNL     1       4.551   2.387   0.493  1.00  0.00     0.277 HD
ATOM     24  H22 UNL     1       3.711   1.838  -0.679  1.00  0.00     0.277 HD
ATOM     25  H21 UNL     1       2.868   2.420   0.668  1.00  0.00     0.277 HD
ENDBRANCH  17  22
ENDBRANCH  14  17
ENDBRANCH   1  13
BRANCH   5  26
HETATM   26  C9  UNL     1      -1.521   1.914  -0.252  1.00  0.00     0.296 C 
HETATM   27  O2  UNL     1      -0.631   2.757  -0.065  1.00  0.00    -0.259 OA
BRANCH  26  28
HETATM   28  O3  UNL     1      -2.781   2.441  -0.530  1.00  0.00    -0.322 OA
HETATM   29  C10 UNL     1      -2.999   3.837  -0.593  1.00  0.00     0.213 C 
ENDBRANCH  26  28
ENDBRANCH   5  26
TORSDOF 6
