REMARK  9 active torsions:
REMARK  status: ('A' for Active; 'I' for Inactive)
REMARK    1  A    between atoms: C1_2  and  C2_4 
REMARK    2  A    between atoms: C2_4  and  N2_5 
REMARK    3  A    between atoms: N2_5  and  C3_7 
REMARK    4  A    between atoms: C4_10  and  N4_11 
REMARK    5  A    between atoms: N4_11  and  C5_13 
REMARK    6  A    between atoms: C5_13  and  C6_14 
REMARK    7  A    between atoms: C6_14  and  C7_15 
REMARK    8  A    between atoms: C7_15  and  C8_16 
REMARK    9  A    between atoms: C8_16  and  N5_17 
ROOT
HETATM    1  C3  UNL     1       4.946  -1.190   0.669  1.00  0.00     0.136 A 
HETATM    2  N3  UNL     1       3.993  -0.271   0.614  1.00  0.00    -0.176 N 
ATOM      3  H3  UNL     1       4.238   0.714   0.512  1.00  0.00     0.186 HD
HETATM    4  C4  UNL     1       2.694  -0.641   0.693  1.00  0.00     0.679 A 
HETATM    5  N6  UNL     1       2.364  -1.936   0.828  1.00  0.00    -0.201 N 
ATOM      6  H6  UNL     1       1.379  -2.193   0.886  1.00  0.00     0.183 HD
HETATM    7  C14 UNL     1       3.301  -2.909   0.889  1.00  0.00     0.129 A 
HETATM    8  C15 UNL     1       4.618  -2.530   0.808  1.00  0.00     0.071 A 
HETATM    9 BR1  UNL     1       5.960  -3.877   0.891  1.00  0.00    -0.046 Br
ENDROOT
BRANCH   4  10
HETATM   10  N4  UNL     1       1.763   0.230   0.642  1.00  0.00    -0.226 N 
ATOM     11  H4  UNL     1       2.064   1.199   0.540  1.00  0.00     0.177 HD
BRANCH  10  12
HETATM   12  C5  UNL     1       0.348   0.018   0.710  1.00  0.00     0.138 C 
BRANCH  12  13
HETATM   13  C6  UNL     1      -0.252  -0.347  -0.620  1.00  0.00     0.022 C 
BRANCH  13  14
HETATM   14  C7  UNL     1      -1.731  -0.574  -0.564  1.00  0.00     0.032 C 
BRANCH  14  15
HETATM   15  C8  UNL     1      -2.486   0.641  -0.098  1.00  0.00     0.272 C 
BRANCH  15  16
HETATM   16  N5  UNL     1      -3.890   0.398  -0.054  1.00  0.00     0.088 N 
HETATM   17  C9  UNL     1      -4.543   1.612   0.403  1.00  0.00     0.272 C 
HETATM   18  C10 UNL     1      -5.843   1.223   1.043  1.00  0.00     0.030 C 
HETATM   19  C11 UNL     1      -6.495   0.174   0.202  1.00  0.00     0.003 C 
HETATM   20  C12 UNL     1      -5.966   0.113  -1.208  1.00  0.00     0.030 C 
HETATM   21  C13 UNL     1      -4.474  -0.044  -1.276  1.00  0.00     0.272 C 
ENDBRANCH  15  16
ENDBRANCH  14  15
ENDBRANCH  13  14
ENDBRANCH  12  13
ENDBRANCH  10  12
ENDBRANCH   4  10
BRANCH   1  22
HETATM   22  N2  UNL     1       6.208  -0.914   0.600  1.00  0.00    -0.366 N 
ATOM     23  H2  UNL     1       6.869  -1.689   0.651  1.00  0.00     0.161 HD
BRANCH  22  24
HETATM   24  C2  UNL     1       6.737   0.411   0.456  1.00  0.00     0.220 C 
BRANCH  24  25
HETATM   25  C1  UNL     1       6.587   0.820  -0.959  1.00  0.00     0.248 C 
HETATM   26  N1  UNL     1       7.046   2.112  -1.349  1.00  0.00    -0.061 NA
HETATM   27  O1  UNL     1       6.069   0.047  -1.794  1.00  0.00    -0.275 OA
ENDBRANCH  24  25
ENDBRANCH  22  24
ENDBRANCH   1  22
TORSDOF 9
