REMARK  1 active torsions:
REMARK  status: ('A' for Active; 'I' for Inactive)
REMARK    1  A    between atoms: C1_2  and  C2_4 
ROOT
HETATM    1  C2  UNL     1       1.002   0.157  -0.636  1.00  0.00     0.079 C 
HETATM    2  C3  UNL     1       0.817  -1.303  -0.760  1.00  0.00     0.014 C 
HETATM    3  C4  UNL     1      -0.540  -1.845  -0.580  1.00  0.00     0.001 C 
HETATM    4  C5  UNL     1      -1.652  -0.844  -0.683  1.00  0.00     0.005 C 
HETATM    5  C6  UNL     1      -1.798  -0.104   0.620  1.00  0.00    -0.014 C 
HETATM    6  C7  UNL     1      -2.010   1.367   0.233  1.00  0.00     0.005 C 
HETATM    7  C8  UNL     1      -0.634   1.903   0.039  1.00  0.00     0.006 C 
HETATM    8  C9  UNL     1       0.346   0.842   0.502  1.00  0.00    -0.002 C 
HETATM    9  C10 UNL     1      -0.504  -0.010   1.381  1.00  0.00     0.010 C 
ENDROOT
BRANCH   1  10
HETATM   10  C1  UNL     1       2.465   0.421  -0.560  1.00  0.00     0.235 C 
HETATM   11  N1  UNL     1       3.160  -0.192   0.537  1.00  0.00    -0.062 NA
HETATM   12  O1  UNL     1       3.043   1.135  -1.408  1.00  0.00    -0.276 OA
ENDBRANCH   1  10
TORSDOF 1
