REMARK  2 active torsions:
REMARK  status: ('A' for Active; 'I' for Inactive)
REMARK    1  A    between atoms: C2_2  and  C3_3 
REMARK       I    between atoms: N2_5  and  C4_7 
REMARK    2  A    between atoms: C4_7  and  C5_9 
ROOT
HETATM    1  C3  UNL     1       2.355  -0.909   0.230  1.00  0.00     0.117 C 
HETATM    2  N1  UNL     1       3.189  -2.102   0.229  1.00  0.00    -0.083 NA
HETATM    3  N2  UNL     1       1.192  -1.087   0.653  1.00  0.00    -0.315 N 
ATOM      4  H2  UNL     1       1.029  -2.056   0.928  1.00  0.00     0.170 HD
HETATM    5  C4  UNL     1       0.076  -0.303   0.840  1.00  0.00     0.236 C 
HETATM    6  O1  UNL     1      -0.079   0.353   1.901  1.00  0.00    -0.272 OA
ENDROOT
BRANCH   5   7
HETATM    7  C5  UNL     1      -0.970  -0.218  -0.209  1.00  0.00     0.068 A 
HETATM    8  C6  UNL     1      -0.706  -1.036  -1.462  1.00  0.00     0.031 C 
HETATM    9  C7  UNL     1      -2.352  -0.298   0.371  1.00  0.00    -0.066 A 
HETATM   10  C8  UNL     1      -3.248  -1.022   1.029  1.00  0.00     0.016 C 
HETATM   11  C9  UNL     1      -1.880   0.900  -0.316  1.00  0.00     0.033 A 
HETATM   12  C10 UNL     1      -1.707   2.197   0.441  1.00  0.00     0.016 C 
ENDBRANCH   5   7
BRANCH   1  13
HETATM   13  C2  UNL     1       2.949   0.312  -0.245  1.00  0.00     0.035 C 
HETATM   14  C1  UNL     1       2.411   1.493  -0.338  1.00  0.00     0.015 C 
ENDBRANCH   1  13
TORSDOF 2
