REMARK  7 active torsions:
REMARK  status: ('A' for Active; 'I' for Inactive)
REMARK    1  A    between atoms: C2_2  and  O1_4 
REMARK    2  A    between atoms: O1_4  and  C4_5 
REMARK    3  A    between atoms: C5_7  and  O3_8 
REMARK    4  A    between atoms: C6_10  and  C7_11 
REMARK    5  A    between atoms: C7_11  and  O4_13 
REMARK    6  A    between atoms: C9_15  and  O5_16 
REMARK    7  A    between atoms: C10_18  and  O6_19 
ROOT
HETATM    1  C4  UNL     1       1.111  -0.692   0.187  1.00  0.00     0.300 C 
HETATM    2  O2  UNL     1       0.689   0.489   0.724  1.00  0.00    -0.328 OA
HETATM    3  C5  UNL     1      -0.496   0.975   0.221  1.00  0.00     0.269 C 
HETATM    4  C6  UNL     1      -1.600   0.028   0.622  1.00  0.00     0.101 C 
HETATM    5  C9  UNL     1      -1.303  -1.398   0.256  1.00  0.00     0.163 C 
HETATM    6  C10 UNL     1       0.066  -1.593  -0.333  1.00  0.00     0.203 C 
ENDROOT
BRANCH   1   7
HETATM    7  O1  UNL     1       2.097  -0.431  -0.823  1.00  0.00    -0.323 OA
BRANCH   7   8
HETATM    8  C2  UNL     1       3.280   0.223  -0.524  1.00  0.00     0.036 C 
HETATM    9  C1  UNL     1       3.277   1.543  -0.480  1.00  0.00     0.045 C 
HETATM   10  C3  UNL     1       4.512  -0.549  -0.262  1.00  0.00     0.075 C 
ENDBRANCH   7   8
ENDBRANCH   1   7
BRANCH   6  11
HETATM   11  O6  UNL     1       0.014  -1.509  -1.729  1.00  0.00    -0.388 OA
ATOM     12  H6  UNL     1      -0.659  -2.089  -2.064  1.00  0.00     0.210 HD
ENDBRANCH   6  11
BRANCH   3  13
HETATM   13  O3  UNL     1      -0.478   1.273  -1.118  1.00  0.00    -0.371 OA
ATOM     14  H3  UNL     1      -1.296   1.609  -1.465  1.00  0.00     0.212 HD
ENDBRANCH   3  13
BRANCH   5  15
HETATM   15  O5  UNL     1      -1.436  -2.242   1.382  1.00  0.00    -0.392 OA
ATOM     16  H5  UNL     1      -1.248  -3.144   1.150  1.00  0.00     0.210 HD
ENDBRANCH   5  15
BRANCH   4  17
HETATM   17  C7  UNL     1      -2.927   0.408   0.023  1.00  0.00     0.125 C 
HETATM   18  C8  UNL     1      -3.390   1.771   0.427  1.00  0.00     0.040 C 
BRANCH  17  19
HETATM   19  O4  UNL     1      -3.848  -0.577   0.425  1.00  0.00    -0.395 OA
ATOM     20  H4  UNL     1      -4.686  -0.337   0.047  1.00  0.00     0.210 HD
ENDBRANCH  17  19
ENDBRANCH   4  17
TORSDOF 7
