REMARK  1 active torsions:
REMARK  status: ('A' for Active; 'I' for Inactive)
REMARK       I    between atoms: N2_5  and  C4_6 
REMARK       I    between atoms: C4_6  and  N3_8 
REMARK       I    between atoms: N3_8  and  C5_10 
REMARK    1  A    between atoms: C5_10  and  C6_12 
ROOT
HETATM    1  C1  UNL     1       5.305  -0.183  -0.051  1.00  0.00     0.143 C 
HETATM    2  N1  UNL     1       3.963  -0.555  -0.347  1.00  0.00    -0.414 N 
HETATM    3  C2  UNL     1       3.291   0.238  -1.305  1.00  0.00     0.136 C 
HETATM    4  C3  UNL     1       1.866   0.550  -1.041  1.00  0.00     0.147 C 
HETATM    5  N2  UNL     1       1.163  -0.434  -0.282  1.00  0.00    -0.331 N 
HETATM    6  C4  UNL     1      -0.243  -0.294  -0.091  1.00  0.00     0.325 C 
HETATM    7  O1  UNL     1      -0.804  -1.174   0.573  1.00  0.00    -0.247 OA
HETATM    8  N3  UNL     1      -0.941   0.793  -0.635  1.00  0.00    -0.279 N 
ATOM      9  H3  UNL     1      -0.360   1.446  -1.160  1.00  0.00     0.173 HD
HETATM   10  C5  UNL     1      -2.291   1.137  -0.584  1.00  0.00     0.233 C 
HETATM   11  O2  UNL     1      -2.616   2.229  -1.203  1.00  0.00    -0.272 OA
HETATM   12  C10 UNL     1       1.863  -1.537   0.274  1.00  0.00     0.147 C 
HETATM   13  C11 UNL     1       3.212  -1.055   0.740  1.00  0.00     0.136 C 
ENDROOT
BRANCH  10  14
HETATM   14  C6  UNL     1      -3.416   0.452   0.068  1.00  0.00     0.030 C 
HETATM   15  C7  UNL     1      -4.711   1.261  -0.167  1.00  0.00     0.025 C 
HETATM   16  C8  UNL     1      -3.630  -0.903  -0.565  1.00  0.00     0.025 C 
HETATM   17  C9  UNL     1      -3.284   0.296   1.548  1.00  0.00     0.025 C 
ENDBRANCH  10  14
TORSDOF 1
