REMARK  2 active torsions:
REMARK  status: ('A' for Active; 'I' for Inactive)
REMARK    1  A    between atoms: C2_2  and  C4_4 
REMARK    2  A    between atoms: C5_5  and  C6_6 
ROOT
HETATM    1  C6  UNL     1      -1.048  -1.116   0.269  1.00  0.00     0.174 C 
HETATM    2  C7  UNL     1      -1.025  -2.622   0.128  1.00  0.00     0.064 C 
HETATM    3  N1  UNL     1      -1.799  -0.703   1.430  1.00  0.00    -0.339 N 
ATOM      4  H1  UNL     1      -1.770  -1.153   2.345  1.00  0.00     0.164 HD
HETATM    5  C8  UNL     1      -2.580   0.423   1.096  1.00  0.00     0.177 C 
HETATM    6  S1  UNL     1      -3.405   1.435   2.106  1.00  0.00    -0.041 SA
HETATM    7  N2  UNL     1      -2.559   0.581  -0.326  1.00  0.00    -0.296 N 
HETATM    8  C9  UNL     1      -3.251   1.635  -1.055  1.00  0.00     0.162 C 
HETATM    9  C10 UNL     1      -1.757  -0.461  -0.854  1.00  0.00     0.266 C 
HETATM   10  O1  UNL     1      -1.653  -0.788  -2.054  1.00  0.00    -0.269 OA
ENDROOT
BRANCH   1  11
HETATM   11  C5  UNL     1       0.330  -0.581   0.311  1.00  0.00    -0.065 C 
HETATM   12  C4  UNL     1       1.463  -0.163   0.344  1.00  0.00    -0.099 C 
BRANCH  12  13
HETATM   13  C2  UNL     1       2.853   0.327   0.401  1.00  0.00     0.057 C 
HETATM   14  C1  UNL     1       2.850   1.812   0.330  1.00  0.00     0.023 C 
HETATM   15  C3  UNL     1       3.601  -0.333  -0.726  1.00  0.00     0.023 C 
ENDBRANCH  12  13
ENDBRANCH   1  11
TORSDOF 2
