REMARK  9 active torsions:
REMARK  status: ('A' for Active; 'I' for Inactive)
REMARK    1  A    between atoms: C3_3  and  S1_4 
REMARK    2  A    between atoms: C8_10  and  S2_11 
REMARK    3  A    between atoms: S2_11  and  N1_14 
REMARK    4  A    between atoms: N1_14  and  C9_16 
REMARK    5  A    between atoms: C10_19  and  C11_20 
REMARK    6  A    between atoms: C11_20  and  C12_21 
REMARK    7  A    between atoms: C12_21  and  C13_22 
REMARK    8  A    between atoms: C17_29  and  C18_30 
REMARK    9  A    between atoms: C22_36  and  N5_37 
ROOT
HETATM    1  C9  UNL     1       0.091  -0.153  -1.625  1.00  0.00     0.160 A 
HETATM    2  N2  UNL     1      -0.782   0.384  -0.777  1.00  0.00    -0.337 N 
ATOM      3  H2  UNL     1      -0.537   0.376   0.213  1.00  0.00     0.167 HD
HETATM    4  C10 UNL     1      -1.981   0.947  -1.122  1.00  0.00     0.057 A 
HETATM    5  C17 UNL     1      -2.311   0.958  -2.461  1.00  0.00     0.060 A 
HETATM    6  N4  UNL     1      -1.409   0.400  -3.357  1.00  0.00    -0.338 N 
ATOM      7  H4  UNL     1      -1.634   0.398  -4.352  1.00  0.00     0.167 HD
HETATM    8  C22 UNL     1      -0.250  -0.136  -2.948  1.00  0.00     0.145 A 
ENDROOT
BRANCH   1   9
HETATM    9  N1  UNL     1       1.213  -0.671  -1.317  1.00  0.00    -0.263 N 
ATOM     10  H1  UNL     1       1.767  -1.042  -2.089  1.00  0.00     0.180 HD
BRANCH   9  11
HETATM   11  S2  UNL     1       1.893  -0.814   0.242  1.00  0.00     0.264 S 
HETATM   12  O2  UNL     1       1.140  -1.814   1.072  1.00  0.00    -0.200 OA
HETATM   13  O3  UNL     1       1.822   0.528   0.911  1.00  0.00    -0.200 OA
BRANCH  11  14
HETATM   14  C8  UNL     1       3.564  -1.318   0.076  1.00  0.00     0.087 A 
HETATM   15  C2  UNL     1       4.300  -1.492   1.245  1.00  0.00    -0.020 A 
HETATM   16  C1  UNL     1       3.683  -1.257   2.569  1.00  0.00     0.051 C 
HETATM   17  C3  UNL     1       5.614  -1.889   1.100  1.00  0.00     0.038 A 
HETATM   18  C5  UNL     1       6.201  -2.112  -0.132  1.00  0.00     0.021 A 
HETATM   19  C6  UNL     1       5.436  -1.928  -1.269  1.00  0.00     0.003 A 
HETATM   20  C7  UNL     1       4.117  -1.530  -1.145  1.00  0.00     0.026 A 
BRANCH  17  21
HETATM   21  S1  UNL     1       6.532  -2.104   2.597  1.00  0.00     0.046 S 
HETATM   22  C4  UNL     1       7.326  -0.565   3.041  1.00  0.00     0.133 C 
HETATM   23  O1  UNL     1       7.679  -3.293   2.318  1.00  0.00    -0.253 OA
ENDBRANCH  17  21
ENDBRANCH  11  14
ENDBRANCH   9  11
ENDBRANCH   1   9
BRANCH   8  24
HETATM   24  N5  UNL     1       0.528  -0.631  -3.837  1.00  0.00    -0.382 N 
ATOM     25  H52 UNL     1       1.410  -1.039  -3.526  1.00  0.00     0.157 HD
ATOM     26  H51 UNL     1       0.273  -0.618  -4.825  1.00  0.00     0.157 HD
ENDBRANCH   8  24
BRANCH   4  27
HETATM   27  C11 UNL     1      -2.728   1.446  -0.159  1.00  0.00     0.011 C 
BRANCH  27  28
HETATM   28  C12 UNL     1      -2.266   1.391   1.247  1.00  0.00     0.086 C 
BRANCH  28  29
HETATM   29  C13 UNL     1      -2.935   0.353   2.055  1.00  0.00     0.013 A 
HETATM   30  C14 UNL     1      -2.504  -0.938   2.192  1.00  0.00     0.028 A 
HETATM   31  C15 UNL     1      -3.371  -1.627   3.021  1.00  0.00     0.039 A 
HETATM   32  C16 UNL     1      -4.343  -0.728   3.388  1.00  0.00     0.080 A 
HETATM   33 BR1  UNL     1      -5.813  -1.152   4.543  1.00  0.00    -0.031 Br
HETATM   34  N3  UNL     1      -4.055   0.439   2.797  1.00  0.00    -0.354 N 
ATOM     35  H3  UNL     1      -4.614   1.286   2.897  1.00  0.00     0.166 HD
ENDBRANCH  28  29
ENDBRANCH  27  28
ENDBRANCH   4  27
BRANCH   5  36
HETATM   36  C18 UNL     1      -3.383   1.438  -3.003  1.00  0.00     0.034 C 
HETATM   37  C19 UNL     1      -4.627   2.103  -2.712  1.00  0.00    -0.085 C 
HETATM   38  C20 UNL     1      -5.679   1.302  -2.004  1.00  0.00     0.043 C 
HETATM   39  C21 UNL     1      -4.596   3.520  -2.246  1.00  0.00     0.043 C 
ENDBRANCH   5  36
TORSDOF 9
