REMARK  10 active torsions:
REMARK  status: ('A' for Active; 'I' for Inactive)
REMARK    1  A    between atoms: C6_9  and  C7_10 
REMARK       I    between atoms: C7_10  and  N2_12 
REMARK    2  A    between atoms: C10_15  and  C11_16 
REMARK    3  A    between atoms: C11_16  and  N3_17 
REMARK       I    between atoms: N3_17  and  C12_19 
REMARK    4  A    between atoms: C12_19  and  C13_21 
REMARK    5  A    between atoms: C13_21  and  C14_22 
REMARK    6  A    between atoms: C18_26  and  N4_27 
REMARK    7  A    between atoms: N4_27  and  C19_29 
REMARK    8  A    between atoms: C19_29  and  O3_30 
REMARK    9  A    between atoms: C19_29  and  C20_32 
REMARK   10  A    between atoms: C20_32  and  N5_33 
ROOT
HETATM    1  C1  UNL     1      -2.730  -5.060   0.811  1.00  0.00     0.069 C 
HETATM    2  C2  UNL     1      -2.484  -3.602   0.920  1.00  0.00     0.024 A 
HETATM    3  N1  UNL     1      -2.457  -2.928   2.099  1.00  0.00    -0.358 N 
ATOM      4  H1  UNL     1      -2.595  -3.318   3.031  1.00  0.00     0.166 HD
HETATM    5  C3  UNL     1      -2.208  -1.627   1.784  1.00  0.00     0.040 A 
HETATM    6  C4  UNL     1      -2.070  -1.493   0.424  1.00  0.00     0.003 A 
HETATM    7  C5  UNL     1      -2.250  -2.724  -0.120  1.00  0.00     0.042 A 
HETATM    8 BR1  UNL     1      -2.275  -3.230  -1.933  1.00  0.00    -0.048 Br
HETATM    9  C6  UNL     1      -1.637  -0.185  -0.077  1.00  0.00     0.141 C 
HETATM   10  C18 UNL     1      -2.248   0.970   0.716  1.00  0.00     0.124 C 
HETATM   11  C24 UNL     1      -2.338   0.751   2.152  1.00  0.00     0.001 C 
HETATM   12  C25 UNL     1      -2.329  -0.463   2.665  1.00  0.00     0.028 C 
ENDROOT
BRANCH   9  13
HETATM   13  C7  UNL     1      -0.170   0.027   0.014  1.00  0.00     0.231 C 
HETATM   14  O1  UNL     1       0.244   1.029   0.710  1.00  0.00    -0.272 OA
HETATM   15  N2  UNL     1       0.742  -0.825  -0.633  1.00  0.00    -0.337 N 
HETATM   16  C8  UNL     1       1.384  -1.869  -1.393  1.00  0.00     0.108 A 
HETATM   17  C10 UNL     1       2.270  -0.877  -0.852  1.00  0.00     0.128 A 
HETATM   18  C9  UNL     1       1.549  -3.263  -0.774  1.00  0.00     0.034 C 
BRANCH  17  19
HETATM   19  C11 UNL     1       2.954  -1.040   0.498  1.00  0.00     0.150 C 
BRANCH  19  20
HETATM   20  N3  UNL     1       4.374  -1.102   0.425  1.00  0.00    -0.359 N 
HETATM   21  C12 UNL     1       5.131  -0.009  -0.112  1.00  0.00     0.218 C 
HETATM   22  O2  UNL     1       4.581   1.025  -0.529  1.00  0.00    -0.274 OA
ATOM     23  H3  UNL     1       4.859  -1.935   0.759  1.00  0.00     0.162 HD
BRANCH  21  24
HETATM   24  C13 UNL     1       6.608  -0.126  -0.166  1.00  0.00     0.111 C 
BRANCH  24  25
HETATM   25  C14 UNL     1       7.174   1.124  -0.765  1.00  0.00    -0.043 C 
HETATM   26  C15 UNL     1       8.697   0.966  -0.803  1.00  0.00     0.015 C 
HETATM   27  C16 UNL     1       6.688   1.283  -2.176  1.00  0.00     0.015 C 
HETATM   28  C17 UNL     1       6.836   2.308   0.102  1.00  0.00     0.015 C 
ENDBRANCH  24  25
ENDBRANCH  21  24
ENDBRANCH  19  20
ENDBRANCH  17  19
ENDBRANCH   9  13
BRANCH  10  29
HETATM   29  N4  UNL     1      -3.570   1.276   0.133  1.00  0.00    -0.364 N 
ATOM     30  H4  UNL     1      -4.329   0.596   0.181  1.00  0.00     0.162 HD
BRANCH  29  31
HETATM   31  C19 UNL     1      -3.762   2.515  -0.486  1.00  0.00     0.138 C 
BRANCH  31  32
HETATM   32  O3  UNL     1      -2.754   3.352  -0.519  1.00  0.00    -0.348 OA
ATOM     33  H3  UNL     1      -2.884   4.194  -0.940  1.00  0.00     0.219 HD
ENDBRANCH  31  32
BRANCH  31  34
HETATM   34  C20 UNL     1      -4.989   3.003  -1.118  1.00  0.00     0.319 C 
BRANCH  34  35
HETATM   35  N5  UNL     1      -6.089   2.107  -1.089  1.00  0.00    -0.071 N 
HETATM   36  C21 UNL     1      -7.221   2.780  -1.786  1.00  0.00     0.272 C 
HETATM   37  C22 UNL     1      -6.557   1.789   0.221  1.00  0.00     0.272 C 
HETATM   38  C23 UNL     1      -5.769   0.922  -1.876  1.00  0.00     0.272 C 
ENDBRANCH  34  35
ENDBRANCH  31  34
ENDBRANCH  29  31
ENDBRANCH  10  29
TORSDOF 10
