REMARK  10 active torsions:
REMARK  status: ('A' for Active; 'I' for Inactive)
REMARK    1  A    between atoms: C2_2  and  C3_3 
REMARK    2  A    between atoms: C3_3  and  N1_4 
REMARK    3  A    between atoms: N2_7  and  C6_8 
REMARK    4  A    between atoms: C6_8  and  C7_9 
REMARK    5  A    between atoms: N3_11  and  C9_12 
REMARK    6  A    between atoms: C9_12  and  O1_16 
REMARK    7  A    between atoms: N5_20  and  C12_21 
REMARK    8  A    between atoms: C12_21  and  C13_22 
REMARK    9  A    between atoms: C12_21  and  C21_31 
REMARK   10  A    between atoms: C14_23  and  C15_24 
ROOT
HETATM    1  C7  UNL     1       0.457   0.946   0.793  1.00  0.00     0.124 C 
HETATM    2  C8  UNL     1       0.037   2.374   0.821  1.00  0.00     0.153 C 
HETATM    3  N3  UNL     1       1.058   3.350   1.048  1.00  0.00    -0.344 N 
HETATM    4  C10 UNL     1       2.306   2.913   1.552  1.00  0.00     0.146 C 
HETATM    5  C11 UNL     1       2.768   1.691   0.861  1.00  0.00     0.138 C 
HETATM    6  N5  UNL     1       1.822   0.676   0.605  1.00  0.00    -0.388 N 
ENDROOT
BRANCH   6   7
HETATM    7  C12 UNL     1       2.192  -0.607   1.052  1.00  0.00     0.193 C 
BRANCH   7   8
HETATM    8  C13 UNL     1       3.520  -1.074   0.568  1.00  0.00     0.008 C 
HETATM    9  C14 UNL     1       3.733  -1.729  -0.524  1.00  0.00     0.010 C 
BRANCH   9  10
HETATM   10  C15 UNL     1       5.057  -2.149  -0.927  1.00  0.00    -0.036 A 
HETATM   11  C16 UNL     1       6.186  -1.895  -0.192  1.00  0.00     0.012 A 
HETATM   12  C17 UNL     1       7.466  -2.306  -0.593  1.00  0.00     0.020 A 
HETATM   13  C18 UNL     1       7.625  -2.995  -1.770  1.00  0.00     0.011 A 
HETATM   14 BR1  UNL     1       9.363  -3.552  -2.313  1.00  0.00    -0.051 Br
HETATM   15  C19 UNL     1       6.506  -3.262  -2.524  1.00  0.00     0.020 A 
HETATM   16  C20 UNL     1       5.263  -2.855  -2.122  1.00  0.00     0.012 A 
ENDBRANCH   9  10
ENDBRANCH   7   8
BRANCH   7  17
HETATM   17  C21 UNL     1       2.194  -0.828   2.521  1.00  0.00     0.257 C 
HETATM   18  N6  UNL     1       2.553  -2.154   2.981  1.00  0.00    -0.060 NA
HETATM   19  O2  UNL     1       1.928  -0.022   3.408  1.00  0.00    -0.274 OA
ENDBRANCH   7  17
ENDBRANCH   6   7
BRANCH   1  20
HETATM   20  C6  UNL     1      -0.366   0.234  -0.248  1.00  0.00     0.264 C 
BRANCH  20  21
HETATM   21  N2  UNL     1      -1.758   0.169  -0.107  1.00  0.00    -0.060 N 
HETATM   22  C5  UNL     1      -2.280  -0.091   1.214  1.00  0.00     0.265 C 
HETATM   23  C4  UNL     1      -3.779   0.078   1.175  1.00  0.00     0.265 C 
HETATM   24  N1  UNL     1      -4.321  -0.298  -0.160  1.00  0.00    -0.062 N 
HETATM   25  C23 UNL     1      -3.939   0.807  -1.020  1.00  0.00     0.265 C 
HETATM   26  C25 UNL     1      -3.570  -1.451  -0.517  1.00  0.00     0.265 C 
HETATM   27  C22 UNL     1      -2.539   1.260  -0.644  1.00  0.00     0.265 C 
HETATM   28  C24 UNL     1      -2.187  -1.004  -0.913  1.00  0.00     0.265 C 
BRANCH  24  29
HETATM   29  C3  UNL     1      -5.715  -0.443   0.033  1.00  0.00     0.237 C 
BRANCH  29  30
HETATM   30  C2  UNL     1      -6.618  -0.274  -1.127  1.00  0.00     0.023 C 
HETATM   31  C1  UNL     1      -6.375  -1.287  -2.195  1.00  0.00     0.007 C 
ENDBRANCH  29  30
ENDBRANCH  24  29
ENDBRANCH  20  21
ENDBRANCH   1  20
BRANCH   3  32
HETATM   32  C9  UNL     1       0.800   4.705   0.769  1.00  0.00     0.212 C 
HETATM   33  N4  UNL     1      -0.408   5.127   0.652  1.00  0.00    -0.365 N 
ATOM     34  H42 UNL     1      -1.167   4.455   0.767  1.00  0.00     0.159 HD
ATOM     35  H41 UNL     1      -0.595   6.109   0.450  1.00  0.00     0.159 HD
BRANCH  32  36
HETATM   36  O1  UNL     1       1.828   5.616   0.613  1.00  0.00    -0.333 OA
ATOM     37  H1  UNL     1       1.654   6.531   0.425  1.00  0.00     0.220 HD
ENDBRANCH  32  36
ENDBRANCH   3  32
TORSDOF 10
