REMARK  11 active torsions:
REMARK  status: ('A' for Active; 'I' for Inactive)
REMARK    1  A    between atoms: C2_2  and  C3_3 
REMARK    2  A    between atoms: C2_2  and  C7_8 
REMARK    3  A    between atoms: C3_3  and  C4_4 
REMARK    4  A    between atoms: C5_5  and  C6_6 
REMARK       I    between atoms: C7_8  and  N1_10 
REMARK    5  A    between atoms: N1_10  and  C8_12 
REMARK    6  A    between atoms: C8_12  and  C9_13 
REMARK       I    between atoms: C9_13  and  N2_15 
REMARK    7  A    between atoms: N2_15  and  C10_17 
REMARK    8  A    between atoms: C10_17  and  C11_18 
REMARK    9  A    between atoms: C11_18  and  N3_19 
REMARK   10  A    between atoms: N4_22  and  C14_23 
REMARK   11  A    between atoms: C14_23  and  C15_24 
ROOT
HETATM    1  C9  UNL     1       2.313  -0.813  -0.330  1.00  0.00     0.275 C 
HETATM    2  O2  UNL     1       2.178   0.185   0.417  1.00  0.00    -0.269 OA
HETATM    3  N2  UNL     1       1.254  -1.379  -1.079  1.00  0.00    -0.356 N 
ATOM      4  H2  UNL     1       1.457  -2.189  -1.664  1.00  0.00     0.162 HD
ENDROOT
BRANCH   1   5
HETATM    5  C8  UNL     1       3.661  -1.428  -0.430  1.00  0.00     0.280 C 
HETATM    6  C23 UNL     1       4.155  -1.479  -1.846  1.00  0.00     0.074 C 
HETATM    7  C24 UNL     1       4.210  -2.905  -2.253  1.00  0.00     0.032 C 
HETATM    8  C25 UNL     1       3.726  -3.670  -1.073  1.00  0.00     0.236 C 
HETATM    9  N5  UNL     1       3.539  -2.798   0.038  1.00  0.00    -0.039 N 
ATOM     10  H52 UNL     1       4.171  -3.006   0.811  1.00  0.00     0.280 HD
ATOM     11  H51 UNL     1       2.660  -2.969   0.527  1.00  0.00     0.280 HD
BRANCH   5  12
HETATM   12  N1  UNL     1       4.571  -0.676   0.411  1.00  0.00    -0.320 N 
HETATM   13  C7  UNL     1       5.933  -0.987   0.552  1.00  0.00     0.224 C 
HETATM   14  O1  UNL     1       6.340  -2.001  -0.116  1.00  0.00    -0.273 OA
ATOM     15  H1  UNL     1       4.202   0.122   0.928  1.00  0.00     0.165 HD
BRANCH  13  16
HETATM   16  C2  UNL     1       6.873  -0.223   1.399  1.00  0.00     0.085 C 
HETATM   17  C1  UNL     1       8.138  -1.089   1.525  1.00  0.00     0.021 C 
BRANCH  16  18
HETATM   18  C3  UNL     1       7.318   1.078   0.777  1.00  0.00     0.107 C 
BRANCH  18  19
HETATM   19  C4  UNL     1       6.280   2.055   0.574  1.00  0.00    -0.105 C 
HETATM   20  C5  UNL     1       5.432   2.893   0.402  1.00  0.00    -0.096 C 
BRANCH  20  21
HETATM   21  C6  UNL     1       4.376   3.909   0.208  1.00  0.00     0.178 C 
HETATM   22 BR1  UNL     1       4.776   5.523   1.210  1.00  0.00    -0.083 Br
ENDBRANCH  20  21
ENDBRANCH  18  19
ENDBRANCH  16  18
ENDBRANCH  13  16
ENDBRANCH   5  12
ENDBRANCH   1   5
BRANCH   3  23
HETATM   23  C10 UNL     1      -0.102  -0.872  -1.061  1.00  0.00     0.150 C 
BRANCH  23  24
HETATM   24  C11 UNL     1      -0.655  -0.968   0.320  1.00  0.00     0.257 C 
BRANCH  24  25
HETATM   25  N3  UNL     1      -2.015  -0.472   0.380  1.00  0.00    -0.061 N 
HETATM   26  C12 UNL     1      -2.398  -0.497   1.803  1.00  0.00     0.265 C 
HETATM   27  C13 UNL     1      -3.898  -0.372   1.797  1.00  0.00     0.265 C 
HETATM   28  N4  UNL     1      -4.352   0.481   0.667  1.00  0.00    -0.061 N 
HETATM   29  C19 UNL     1      -4.222  -0.411  -0.492  1.00  0.00     0.265 C 
HETATM   30  C21 UNL     1      -3.395   1.525   0.580  1.00  0.00     0.265 C 
HETATM   31  C20 UNL     1      -2.976  -1.291  -0.299  1.00  0.00     0.265 C 
HETATM   32  C22 UNL     1      -2.104   0.925  -0.002  1.00  0.00     0.265 C 
BRANCH  28  33
HETATM   33  C14 UNL     1      -5.675   0.801   1.006  1.00  0.00     0.245 C 
BRANCH  33  34
HETATM   34  C15 UNL     1      -6.578   1.490   0.090  1.00  0.00    -0.027 C 
HETATM   35  C16 UNL     1      -7.917   1.636   0.856  1.00  0.00     0.016 C 
HETATM   36  C17 UNL     1      -6.205   2.937  -0.229  1.00  0.00     0.016 C 
HETATM   37  C18 UNL     1      -6.936   0.802  -1.183  1.00  0.00     0.016 C 
ENDBRANCH  33  34
ENDBRANCH  28  33
ENDBRANCH  24  25
ENDBRANCH  23  24
ENDBRANCH   3  23
TORSDOF 11
