REMARK  1 active torsions:
REMARK  status: ('A' for Active; 'I' for Inactive)
REMARK    1  A    between atoms: C2_2  and  C4_4 
ROOT
HETATM    1  C4  UNL     1       0.680   0.161  -0.365  1.00  0.00     0.223 C 
HETATM    2  C5  UNL     1       0.380   1.491  -0.934  1.00  0.00     0.111 C 
HETATM    3  S1  UNL     1      -1.244   2.022  -0.263  1.00  0.00    -0.165 SA
HETATM    4  C6  UNL     1      -2.387   0.652  -0.574  1.00  0.00     0.106 C 
HETATM    5  C7  UNL     1      -1.588  -0.626  -0.510  1.00  0.00     0.192 C 
HETATM    6  C8  UNL     1      -2.449  -1.772  -0.005  1.00  0.00     0.041 C 
HETATM    7  N1  UNL     1      -0.447  -0.390   0.346  1.00  0.00    -0.062 N 
ATOM      8  H11 UNL     1      -0.701   0.198   1.140  1.00  0.00     0.278 HD
ATOM      9  H12 UNL     1      -0.184  -1.239   0.846  1.00  0.00     0.278 HD
ENDROOT
BRANCH   1  10
HETATM   10  C2  UNL     1       1.862   0.084   0.496  1.00  0.00    -0.062 C 
HETATM   11  C1  UNL     1       1.721  -0.303   1.739  1.00  0.00     0.016 C 
HETATM   12  C3  UNL     1       3.245   0.418   0.056  1.00  0.00     0.044 C 
ENDBRANCH   1  10
TORSDOF 1
