REMARK  5 active torsions:
REMARK  status: ('A' for Active; 'I' for Inactive)
REMARK    1  A    between atoms: N1_2  and  C2_3 
REMARK    2  A    between atoms: C2_3  and  C3_4 
REMARK    3  A    between atoms: C3_4  and  O1_5 
REMARK    4  A    between atoms: C4_7  and  C5_8 
REMARK    5  A    between atoms: C14_18  and  O2_19 
ROOT
HETATM    1  C5  UNL     1      -0.268   0.054   0.437  1.00  0.00     0.020 C 
HETATM    2  C6  UNL     1      -1.059   0.861   1.493  1.00  0.00     0.022 C 
HETATM    3  C7  UNL     1      -2.521   0.686   1.405  1.00  0.00    -0.011 C 
HETATM    4  C8  UNL     1      -2.907  -0.795   1.414  1.00  0.00     0.012 C 
HETATM    5  C9  UNL     1      -2.178  -1.462   0.308  1.00  0.00     0.018 C 
HETATM    6  C10 UNL     1      -2.596  -0.893  -1.037  1.00  0.00     0.033 C 
HETATM    7  C11 UNL     1      -2.240   0.561  -1.033  1.00  0.00     0.039 C 
HETATM    8 CL1  UNL     1      -2.687   1.351  -2.568  1.00  0.00    -0.119 Cl
HETATM    9  C12 UNL     1      -3.014   1.232   0.080  1.00  0.00     0.030 C 
HETATM   10  C13 UNL     1      -0.742   0.706  -0.895  1.00  0.00     0.043 C 
HETATM   11  C14 UNL     1      -0.663  -1.351   0.465  1.00  0.00     0.136 C 
ENDROOT
BRANCH   1  12
HETATM   12  C4  UNL     1       1.138   0.462   0.678  1.00  0.00     0.075 C 
HETATM   13  N1  UNL     1       2.223  -0.022   0.009  1.00  0.00    -0.375 N 
HETATM   14  C1  UNL     1       2.699  -1.318   0.279  1.00  0.00     0.154 C 
BRANCH  13  15
HETATM   15  C2  UNL     1       2.805   0.647  -1.071  1.00  0.00     0.088 C 
BRANCH  15  16
HETATM   16  C3  UNL     1       4.255   1.040  -0.859  1.00  0.00     0.208 C 
BRANCH  16  17
HETATM   17  O1  UNL     1       4.674   1.691  -2.021  1.00  0.00    -0.396 OA
ATOM     18  H1  UNL     1       5.582   1.937  -1.888  1.00  0.00     0.209 HD
ENDBRANCH  16  17
ENDBRANCH  15  16
ENDBRANCH  13  15
ENDBRANCH   1  12
BRANCH  11  19
HETATM   19  O2  UNL     1      -0.100  -2.102  -0.606  1.00  0.00    -0.394 OA
ATOM     20  H2  UNL     1      -0.357  -3.016  -0.588  1.00  0.00     0.210 HD
ENDBRANCH  11  19
TORSDOF 5
