REMARK  6 active torsions:
REMARK  status: ('A' for Active; 'I' for Inactive)
REMARK    1  A    between atoms: O1_1  and  C1_3 
REMARK    2  A    between atoms: C1_3  and  C2_4 
REMARK    3  A    between atoms: C1_3  and  C6_9 
REMARK    4  A    between atoms: C11_16  and  N2_17 
REMARK    5  A    between atoms: N2_17  and  C12_20 
REMARK    6  A    between atoms: C12_20  and  C13_21 
ROOT
HETATM    1  C6  UNL     1      -0.937  -0.354   0.773  1.00  0.00     0.123 C 
HETATM    2  C7  UNL     1      -1.809  -1.446   0.585  1.00  0.00    -0.171 C 
HETATM    3  C8  UNL     1      -2.642  -2.528   0.249  1.00  0.00     0.100 C 
HETATM    4  C9  UNL     1      -2.207  -2.968  -1.201  1.00  0.00     0.130 C 
HETATM    5  N1  UNL     1      -1.478  -1.878  -1.847  1.00  0.00    -0.399 N 
ATOM      6  H1  UNL     1      -1.910  -1.417  -2.648  1.00  0.00     0.158 HD
HETATM    7  C10 UNL     1      -0.250  -1.443  -1.437  1.00  0.00     0.089 C 
HETATM    8  C11 UNL     1      -0.086  -0.209  -0.526  1.00  0.00     0.241 C 
ENDROOT
BRANCH   8   9
HETATM    9  N2  UNL     1       1.321  -0.182  -0.210  1.00  0.00    -0.061 N 
ATOM     10  H22 UNL     1       1.603  -1.059   0.228  1.00  0.00     0.278 HD
ATOM     11  H21 UNL     1       1.877  -0.225  -1.064  1.00  0.00     0.278 HD
BRANCH   9  12
HETATM   12  C12 UNL     1       1.727   0.921   0.588  1.00  0.00     0.271 C 
BRANCH  12  13
HETATM   13  C13 UNL     1       3.212   0.801   0.812  1.00  0.00    -0.033 A 
HETATM   14  C14 UNL     1       3.902   1.812   1.475  1.00  0.00     0.009 A 
HETATM   15  C15 UNL     1       5.260   1.664   1.662  1.00  0.00     0.001 A 
HETATM   16  C16 UNL     1       5.958   0.556   1.217  1.00  0.00     0.000 A 
HETATM   17  C17 UNL     1       5.270  -0.444   0.560  1.00  0.00     0.001 A 
HETATM   18  C18 UNL     1       3.920  -0.294   0.376  1.00  0.00     0.009 A 
ENDBRANCH  12  13
ENDBRANCH   9  12
ENDBRANCH   8   9
BRANCH   1  19
HETATM   19  C1  UNL     1      -1.612   0.958   1.123  1.00  0.00     0.192 C 
BRANCH  19  20
HETATM   20  O1  UNL     1      -2.300   0.706   2.334  1.00  0.00    -0.388 OA
ATOM     21  H1  UNL     1      -1.652   0.389   2.952  1.00  0.00     0.210 HD
ENDBRANCH  19  20
BRANCH  19  22
HETATM   22  C2  UNL     1      -2.601   1.442   0.179  1.00  0.00     0.082 A 
HETATM   23  C3  UNL     1      -2.415   2.516  -0.700  1.00  0.00     0.037 A 
HETATM   24  C4  UNL     1      -3.576   2.677  -1.438  1.00  0.00     0.027 A 
HETATM   25  C5  UNL     1      -4.416   1.684  -0.965  1.00  0.00     0.142 A 
HETATM   26  O2  UNL     1      -3.796   1.006  -0.034  1.00  0.00    -0.324 OA
ENDBRANCH  19  22
ENDBRANCH   1  19
TORSDOF 6
