REMARK  7 active torsions:
REMARK  status: ('A' for Active; 'I' for Inactive)
REMARK    1  A    between atoms: C2_3  and  C3_5 
REMARK    2  A    between atoms: C6_8  and  C7_9 
REMARK    3  A    between atoms: C15_20  and  C16_21 
REMARK       I    between atoms: C16_21  and  N2_23 
REMARK    4  A    between atoms: N2_23  and  C17_25 
REMARK    5  A    between atoms: C17_25  and  C18_26 
REMARK    6  A    between atoms: C18_26  and  C19_27 
REMARK    7  A    between atoms: C19_27  and  N3_28 
ROOT
HETATM    1  C1  UNL     1      -5.001   4.116   2.958  1.00  0.00     0.263 C 
HETATM    2  N1  UNL     1      -4.122   3.685   1.952  1.00  0.00    -0.420 NA
HETATM    3  C2  UNL     1      -3.300   3.284   1.012  1.00  0.00     0.291 C 
HETATM    4  O1  UNL     1      -2.094   3.479   0.848  1.00  0.00    -0.257 OA
ENDROOT
BRANCH   3   5
HETATM    5  C3  UNL     1      -3.919   2.426  -0.108  1.00  0.00     0.102 C 
HETATM    6  C4  UNL     1      -3.053   2.377  -1.328  1.00  0.00     0.017 C 
HETATM    7  C5  UNL     1      -3.689   1.171  -2.044  1.00  0.00     0.022 C 
HETATM    8  C6  UNL     1      -3.772   0.138  -0.906  1.00  0.00     0.060 C 
HETATM    9  C8  UNL     1      -2.565  -0.704  -1.006  1.00  0.00     0.011 C 
HETATM   10  C30 UNL     1      -3.982   0.962   0.325  1.00  0.00    -0.013 C 
HETATM   11  C9  UNL     1      -2.763  -1.904  -1.909  1.00  0.00     0.011 C 
HETATM   12  C27 UNL     1      -1.974  -1.140   0.285  1.00  0.00     0.001 C 
HETATM   13  C10 UNL     1      -2.546  -3.217  -1.257  1.00  0.00    -0.004 C 
HETATM   14  C11 UNL     1      -1.910  -4.203  -2.246  1.00  0.00     0.018 C 
HETATM   15  C32 UNL     1      -1.382  -3.341  -0.333  1.00  0.00    -0.021 C 
HETATM   16  C12 UNL     1      -0.708  -4.167  -1.328  1.00  0.00     0.065 C 
HETATM   17  C13 UNL     1       0.449  -3.580  -2.013  1.00  0.00     0.132 C 
HETATM   18  O4  UNL     1       0.707  -3.805  -3.167  1.00  0.00    -0.298 OA
HETATM   19  C14 UNL     1       1.272  -2.696  -1.173  1.00  0.00     0.093 C 
HETATM   20  C15 UNL     1       0.294  -1.544  -0.773  1.00  0.00     0.094 C 
HETATM   21  C25 UNL     1      -0.759  -2.036   0.108  1.00  0.00    -0.019 C 
HETATM   22  C26 UNL     1      -0.215  -2.287   1.497  1.00  0.00     0.017 C 
HETATM   23  C33 UNL     1      -1.794  -4.213   0.850  1.00  0.00     0.017 C 
HETATM   24  C28 UNL     1      -1.769   0.045   1.127  1.00  0.00     0.007 C 
HETATM   25  C29 UNL     1      -3.127   0.621   1.475  1.00  0.00     0.012 C 
HETATM   26  C31 UNL     1      -5.427   0.760   0.811  1.00  0.00     0.017 C 
BRANCH   8  27
HETATM   27  C7  UNL     1      -5.028  -0.665  -1.193  1.00  0.00     0.183 C 
HETATM   28  O2  UNL     1      -5.395  -1.575  -0.406  1.00  0.00    -0.647 OA
HETATM   29  O3  UNL     1      -5.809  -0.440  -2.313  1.00  0.00    -0.647 OA
ENDBRANCH   8  27
BRANCH  20  30
HETATM   30  C16 UNL     1       1.227  -0.484  -0.408  1.00  0.00     0.223 C 
HETATM   31  O5  UNL     1       1.172   0.566  -1.112  1.00  0.00    -0.273 OA
HETATM   32  N2  UNL     1       2.184  -0.486   0.616  1.00  0.00    -0.361 N 
ATOM     33  H2  UNL     1       2.237  -1.290   1.241  1.00  0.00     0.162 HD
BRANCH  32  34
HETATM   34  C17 UNL     1       3.122   0.646   0.819  1.00  0.00     0.124 C 
BRANCH  34  35
HETATM   35  C18 UNL     1       4.030   0.710  -0.404  1.00  0.00     0.050 C 
BRANCH  35  36
HETATM   36  C19 UNL     1       5.038   1.808  -0.278  1.00  0.00     0.274 C 
BRANCH  36  37
HETATM   37  N3  UNL     1       5.883   1.625   0.846  1.00  0.00     0.088 N 
HETATM   38  C20 UNL     1       6.802   0.540   0.817  1.00  0.00     0.272 C 
HETATM   39  C21 UNL     1       8.107   0.841   0.104  1.00  0.00     0.030 C 
HETATM   40  C22 UNL     1       8.782   1.948   0.914  1.00  0.00     0.003 C 
HETATM   41  C23 UNL     1       7.853   3.133   0.806  1.00  0.00     0.030 C 
HETATM   42  C24 UNL     1       6.475   2.860   1.326  1.00  0.00     0.272 C 
ENDBRANCH  36  37
ENDBRANCH  35  36
ENDBRANCH  34  35
ENDBRANCH  32  34
ENDBRANCH  20  30
ENDBRANCH   3   5
TORSDOF 6
