REMARK  8 active torsions:
REMARK  status: ('A' for Active; 'I' for Inactive)
REMARK    1  A    between atoms: S1_2  and  C1_4 
REMARK    2  A    between atoms: S1_2  and  N1_10 
REMARK    3  A    between atoms: C8_12  and  O3_13 
REMARK    4  A    between atoms: C8_12  and  C9_15 
REMARK    5  A    between atoms: C9_15  and  N2_16 
REMARK    6  A    between atoms: N2_16  and  C10_18 
REMARK    7  A    between atoms: C10_18  and  C11_19 
REMARK    8  A    between atoms: C11_19  and  C12_20 
ROOT
HETATM    1  N1  UNL     1      -2.139  -0.670   0.498  1.00  0.00    -0.201 NA
HETATM    2  C7  UNL     1      -1.658   0.301  -0.464  1.00  0.00     0.148 C 
HETATM    3  C8  UNL     1      -0.353  -0.517  -0.475  1.00  0.00     0.099 C 
HETATM    4  C17 UNL     1      -0.783  -0.848   0.935  1.00  0.00     0.148 C 
ENDROOT
BRANCH   3   5
HETATM    5  O3  UNL     1      -0.457  -1.548  -1.402  1.00  0.00    -0.386 OA
ATOM      6  H3  UNL     1       0.348  -2.053  -1.409  1.00  0.00     0.210 HD
ENDBRANCH   3   5
BRANCH   3   7
HETATM    7  C9  UNL     1       0.814   0.395  -0.641  1.00  0.00     0.154 C 
BRANCH   7   8
HETATM    8  N2  UNL     1       2.079  -0.259  -0.563  1.00  0.00    -0.418 N 
ATOM      9  H2  UNL     1       2.685  -0.351  -1.378  1.00  0.00     0.153 HD
BRANCH   8  10
HETATM   10  C10 UNL     1       2.453  -0.777   0.707  1.00  0.00     0.120 C 
BRANCH  10  11
HETATM   11  C11 UNL     1       3.808  -1.439   0.553  1.00  0.00     0.076 C 
BRANCH  11  12
HETATM   12  C12 UNL     1       4.839  -0.501   0.092  1.00  0.00     0.010 A 
HETATM   13  C13 UNL     1       6.143  -0.957  -0.103  1.00  0.00     0.025 A 
HETATM   14  C14 UNL     1       7.142  -0.126  -0.534  1.00  0.00     0.003 A 
HETATM   15  C15 UNL     1       6.836   1.191  -0.776  1.00  0.00     0.017 A 
HETATM   16  C16 UNL     1       5.557   1.613  -0.578  1.00  0.00     0.088 A 
HETATM   17  N3  UNL     1       4.576   0.798  -0.156  1.00  0.00    -0.369 N 
ATOM     18  H3  UNL     1       3.632   1.162  -0.023  1.00  0.00     0.165 HD
ENDBRANCH  11  12
ENDBRANCH  10  11
ENDBRANCH   8  10
ENDBRANCH   7   8
ENDBRANCH   3   7
BRANCH   1  19
HETATM   19  S1  UNL     1      -3.290  -0.128   1.624  1.00  0.00     0.243 S 
HETATM   20  O1  UNL     1      -3.718  -1.265   2.508  1.00  0.00    -0.206 OA
HETATM   21  O2  UNL     1      -2.753   1.025   2.462  1.00  0.00    -0.206 OA
BRANCH  19  22
HETATM   22  C1  UNL     1      -4.702   0.387   0.728  1.00  0.00     0.074 A 
HETATM   23  C2  UNL     1      -4.899   1.675   0.298  1.00  0.00     0.025 A 
HETATM   24  C3  UNL     1      -6.039   1.984  -0.402  1.00  0.00     0.002 A 
HETATM   25  C4  UNL     1      -7.013   1.034  -0.696  1.00  0.00     0.000 A 
HETATM   26  C5  UNL     1      -6.790  -0.244  -0.255  1.00  0.00     0.002 A 
HETATM   27  C6  UNL     1      -5.662  -0.558   0.440  1.00  0.00     0.025 A 
ENDBRANCH  19  22
ENDBRANCH   1  19
TORSDOF 8
