REMARK  10 active torsions:
REMARK  status: ('A' for Active; 'I' for Inactive)
REMARK    1  A    between atoms: O1_1  and  C1_3 
REMARK    2  A    between atoms: C1_3  and  C2_4 
REMARK    3  A    between atoms: C2_4  and  N1_5 
REMARK    4  A    between atoms: N2_8  and  C5_9 
REMARK    5  A    between atoms: C5_9  and  C6_10 
REMARK    6  A    between atoms: C6_10  and  C7_11 
REMARK    7  A    between atoms: C7_11  and  N3_12 
REMARK    8  A    between atoms: N3_12  and  C8_14 
REMARK    9  A    between atoms: C8_14  and  N4_16 
REMARK   10  A    between atoms: C11_19  and  C12_20 
ROOT
HETATM    1  N3  UNL     1      -1.345   0.622  -0.147  1.00  0.00    -0.365 N 
ATOM      2  H3  UNL     1      -1.579   1.145  -0.991  1.00  0.00     0.161 HD
ENDROOT
BRANCH   1   3
HETATM    3  C7  UNL     1       0.045   0.405   0.240  1.00  0.00     0.127 C 
BRANCH   3   4
HETATM    4  C6  UNL     1       0.482  -1.008   0.003  1.00  0.00     0.064 C 
BRANCH   4   5
HETATM    5  C5  UNL     1       1.881  -1.318   0.465  1.00  0.00     0.065 C 
BRANCH   5   6
HETATM    6  N2  UNL     1       2.939  -0.592  -0.060  1.00  0.00    -0.370 N 
HETATM    7  C4  UNL     1       3.140   0.760   0.252  1.00  0.00     0.157 C 
HETATM    8  C3  UNL     1       4.625   0.952   0.601  1.00  0.00     0.293 C 
HETATM    9  N1  UNL     1       5.438   0.557  -0.550  1.00  0.00     0.096 N 
HETATM   10  C16 UNL     1       5.157  -0.823  -0.915  1.00  0.00     0.317 C 
HETATM   11  C15 UNL     1       3.666  -1.030  -1.177  1.00  0.00     0.093 C 
BRANCH   9  12
HETATM   12  C2  UNL     1       6.819   0.608  -0.107  1.00  0.00     0.298 C 
BRANCH  12  13
HETATM   13  C1  UNL     1       7.803   0.284  -1.200  1.00  0.00     0.194 C 
BRANCH  13  14
HETATM   14  O1  UNL     1       9.103   0.370  -0.666  1.00  0.00    -0.399 OA
ATOM     15  H1  UNL     1       9.724   0.166  -1.355  1.00  0.00     0.209 HD
ENDBRANCH  13  14
ENDBRANCH  12  13
ENDBRANCH   9  12
ENDBRANCH   5   6
ENDBRANCH   4   5
ENDBRANCH   3   4
ENDBRANCH   1   3
BRANCH   1  16
HETATM   16  C8  UNL     1      -2.355   0.088   0.679  1.00  0.00     0.195 C 
HETATM   17  S1  UNL     1      -1.970  -0.681   2.057  1.00  0.00    -0.039 SA
BRANCH  16  18
HETATM   18  N4  UNL     1      -3.748   0.245   0.335  1.00  0.00    -0.207 N 
HETATM   19  C9  UNL     1      -4.746  -0.315   1.218  1.00  0.00     0.167 C 
HETATM   20  C10 UNL     1      -5.989  -0.745   0.513  1.00  0.00     0.077 C 
HETATM   21  C11 UNL     1      -6.310   0.007  -0.714  1.00  0.00     0.018 C 
HETATM   22  N5  UNL     1      -5.436   0.752  -1.280  1.00  0.00    -0.249 N 
HETATM   23  O2  UNL     1      -4.180   0.887  -0.789  1.00  0.00    -0.152 OA
ATOM     24  H5  UNL     1      -5.693   1.260  -2.127  1.00  0.00     0.196 HD
BRANCH  21  25
HETATM   25  C12 UNL     1      -7.705  -0.126  -1.292  1.00  0.00     0.033 A 
HETATM   26  C13 UNL     1      -8.853   0.315  -0.459  1.00  0.00     0.011 A 
HETATM   27  C14 UNL     1      -8.422   1.096  -1.716  1.00  0.00     0.011 A 
ENDBRANCH  21  25
ENDBRANCH  16  18
ENDBRANCH   1  16
TORSDOF 10
