REMARK  7 active torsions:
REMARK  status: ('A' for Active; 'I' for Inactive)
REMARK    1  A    between atoms: O1_2  and  C2_3 
REMARK    2  A    between atoms: C2_3  and  C5_6 
REMARK    3  A    between atoms: N1_7  and  N2_9 
REMARK       I    between atoms: N2_9  and  C6_11 
REMARK    4  A    between atoms: C6_11  and  C7_13 
REMARK       I    between atoms: N3_18  and  C12_19 
REMARK    5  A    between atoms: C12_19  and  C13_21 
REMARK    6  A    between atoms: C13_21  and  N4_22 
REMARK    7  A    between atoms: N4_22  and  C14_25 
ROOT
HETATM    1  C7  UNL     1       0.605   1.840   0.870  1.00  0.00     0.114 C 
HETATM    2  C8  UNL     1       0.633   2.278   2.320  1.00  0.00     0.049 C 
HETATM    3  C9  UNL     1       0.605   3.139   0.053  1.00  0.00     0.042 C 
HETATM    4  C10 UNL     1      -0.835   3.545   0.106  1.00  0.00     0.023 C 
HETATM    5  C11 UNL     1      -1.492   2.171  -0.177  1.00  0.00     0.127 C 
HETATM    6  N3  UNL     1      -0.644   1.226   0.507  1.00  0.00    -0.333 N 
HETATM    7  C12 UNL     1      -0.994  -0.109   0.806  1.00  0.00     0.246 C 
HETATM    8  O3  UNL     1      -0.146  -0.824   1.483  1.00  0.00    -0.271 OA
ENDROOT
BRANCH   1   9
HETATM    9  C6  UNL     1       1.817   1.108   0.479  1.00  0.00     0.264 C 
HETATM   10  N2  UNL     1       1.881   0.090  -0.490  1.00  0.00    -0.268 N 
ATOM     11  H2  UNL     1       1.021  -0.173  -0.971  1.00  0.00     0.190 HD
HETATM   12  O2  UNL     1       2.916   1.408   1.053  1.00  0.00    -0.269 OA
BRANCH  10  13
HETATM   13  N1  UNL     1       3.059  -0.580  -0.828  1.00  0.00    -0.310 N 
HETATM   14  C5  UNL     1       3.917  -1.032  -0.012  1.00  0.00     0.117 C 
ATOM     15  H1  UNL     1       3.246  -0.718  -1.821  1.00  0.00     0.185 HD
BRANCH  14  16
HETATM   16  C2  UNL     1       5.147  -1.734  -0.443  1.00  0.00     0.086 C 
HETATM   17  C3  UNL     1       5.336  -1.491  -1.924  1.00  0.00     0.051 C 
HETATM   18  C4  UNL     1       4.945  -3.240  -0.225  1.00  0.00     0.051 C 
BRANCH  16  19
HETATM   19  O1  UNL     1       6.261  -1.390   0.297  1.00  0.00    -0.380 OA
HETATM   20  C1  UNL     1       6.610  -0.050   0.173  1.00  0.00     0.203 C 
ENDBRANCH  16  19
ENDBRANCH  14  16
ENDBRANCH  10  13
ENDBRANCH   1   9
BRANCH   7  21
HETATM   21  C13 UNL     1      -2.205  -0.851   0.459  1.00  0.00     0.335 C 
BRANCH  21  22
HETATM   22  N4  UNL     1      -3.234  -0.173  -0.244  1.00  0.00    -0.063 N 
ATOM     23  H42 UNL     1      -3.630   0.583   0.315  1.00  0.00     0.278 HD
ATOM     24  H41 UNL     1      -2.857   0.379  -1.015  1.00  0.00     0.278 HD
BRANCH  22  25
HETATM   25  C14 UNL     1      -4.283  -1.103  -0.711  1.00  0.00     0.186 C 
HETATM   26  C15 UNL     1      -4.998  -1.794   0.390  1.00  0.00     0.033 C 
HETATM   27  C16 UNL     1      -6.272  -0.997   0.659  1.00  0.00     0.002 C 
HETATM   28  C17 UNL     1      -6.668  -0.617  -0.737  1.00  0.00     0.002 C 
HETATM   29  C18 UNL     1      -5.346  -0.221  -1.365  1.00  0.00     0.033 C 
ENDBRANCH  22  25
ENDBRANCH  21  22
ENDBRANCH   7  21
TORSDOF 7
