REMARK  8 active torsions:
REMARK  status: ('A' for Active; 'I' for Inactive)
REMARK    1  A    between atoms: C2_2  and  O1_3 
REMARK    2  A    between atoms: C2_2  and  C3_5 
REMARK    3  A    between atoms: C6_8  and  C8_10 
REMARK    4  A    between atoms: C12_14  and  C13_15 
REMARK    5  A    between atoms: C15_17  and  O2_18 
REMARK    6  A    between atoms: C16_20  and  O3_21 
REMARK    7  A    between atoms: N1_23  and  C17_24 
REMARK    8  A    between atoms: C17_24  and  C18_25 
ROOT
HETATM    1  C13 UNL     1      -2.117  -1.342   0.591  1.00  0.00     0.050 A 
HETATM    2  C14 UNL     1      -1.884  -1.549   1.963  1.00  0.00     0.071 A 
HETATM    3  C15 UNL     1      -3.036  -1.977   2.535  1.00  0.00     0.119 A 
HETATM    4  C16 UNL     1      -3.978  -2.037   1.546  1.00  0.00     0.177 A 
HETATM    5  N1  UNL     1      -3.388  -1.639   0.367  1.00  0.00    -0.320 N 
ENDROOT
BRANCH   1   6
HETATM    6  C12 UNL     1      -1.001  -0.880  -0.242  1.00  0.00    -0.009 A 
HETATM    7  C11 UNL     1      -0.982  -1.046  -1.600  1.00  0.00     0.014 A 
HETATM    8  C10 UNL     1       0.053  -0.506  -2.358  1.00  0.00     0.002 A 
HETATM    9  C9  UNL     1       1.044   0.188  -1.720  1.00  0.00     0.008 A 
HETATM   10  C8  UNL     1       1.075   0.382  -0.365  1.00  0.00    -0.049 A 
HETATM   11  C24 UNL     1       0.045  -0.158   0.365  1.00  0.00     0.021 A 
BRANCH  10  12
HETATM   12  C6  UNL     1       2.131   1.126   0.362  1.00  0.00    -0.017 C 
HETATM   13  C5  UNL     1       2.847   0.160   1.266  1.00  0.00     0.014 C 
HETATM   14  C4  UNL     1       4.235   0.602   1.644  1.00  0.00     0.008 C 
HETATM   15  C3  UNL     1       5.110   0.889   0.473  1.00  0.00     0.014 C 
HETATM   16  C26 UNL     1       4.260   0.823  -0.776  1.00  0.00     0.008 C 
HETATM   17  C25 UNL     1       3.108   1.806  -0.536  1.00  0.00     0.014 C 
HETATM   18  C7  UNL     1       1.455   2.203   1.199  1.00  0.00     0.020 C 
BRANCH  15  19
HETATM   19  C2  UNL     1       6.347   0.062   0.392  1.00  0.00     0.118 C 
HETATM   20  C1  UNL     1       6.149  -1.395   0.298  1.00  0.00     0.040 C 
BRANCH  19  21
HETATM   21  O1  UNL     1       7.090   0.524  -0.709  1.00  0.00    -0.396 OA
ATOM     22  H1  UNL     1       7.218   1.463  -0.648  1.00  0.00     0.210 HD
ENDBRANCH  19  21
ENDBRANCH  15  19
ENDBRANCH  10  12
ENDBRANCH   1   6
BRANCH   5  23
HETATM   23  C17 UNL     1      -4.172  -1.468  -0.816  1.00  0.00     0.176 C 
BRANCH  23  24
HETATM   24  C18 UNL     1      -5.125  -0.337  -0.807  1.00  0.00     0.037 A 
HETATM   25  C19 UNL     1      -4.793   0.981  -0.780  1.00  0.00     0.130 A 
HETATM   26  F1  UNL     1      -3.513   1.405  -0.717  1.00  0.00    -0.205 F 
HETATM   27  C20 UNL     1      -5.778   1.980  -0.823  1.00  0.00     0.085 A 
HETATM   28  C21 UNL     1      -7.117   1.682  -0.895  1.00  0.00     0.122 A 
HETATM   29  F2  UNL     1      -8.061   2.680  -0.937  1.00  0.00    -0.206 F 
HETATM   30  C22 UNL     1      -7.466   0.361  -0.924  1.00  0.00     0.085 A 
HETATM   31  C23 UNL     1      -6.502  -0.612  -0.882  1.00  0.00     0.130 A 
HETATM   32  F3  UNL     1      -6.900  -1.922  -0.970  1.00  0.00    -0.205 F 
ENDBRANCH  23  24
ENDBRANCH   5  23
BRANCH   3  33
HETATM   33  O2  UNL     1      -3.239  -2.303   3.891  1.00  0.00    -0.357 OA
ATOM     34  H2  UNL     1      -4.046  -2.603   4.292  1.00  0.00     0.218 HD
ENDBRANCH   3  33
BRANCH   4  35
HETATM   35  O3  UNL     1      -5.278  -2.437   1.759  1.00  0.00    -0.344 OA
ATOM     36  H3  UNL     1      -5.933  -2.479   1.072  1.00  0.00     0.219 HD
ENDBRANCH   4  35
TORSDOF 8
