REMARK  6 active torsions:
REMARK  status: ('A' for Active; 'I' for Inactive)
REMARK       I    between atoms: C2_2  and  N1_4 
REMARK    1  A    between atoms: N1_4  and  C3_6 
REMARK    2  A    between atoms: C4_11  and  C5_12 
REMARK       I    between atoms: C5_12  and  N4_14 
REMARK    3  A    between atoms: N4_14  and  N5_16 
REMARK       I    between atoms: N5_16  and  C6_18 
REMARK    4  A    between atoms: C6_18  and  C7_20 
REMARK    5  A    between atoms: C7_20  and  S1_22 
REMARK    6  A    between atoms: S1_22  and  C9_23 
ROOT
HETATM    1  C5  UNL     1       0.848  -0.367   0.046  1.00  0.00     0.312 C 
HETATM    2  O2  UNL     1       0.812  -1.350   0.821  1.00  0.00    -0.262 OA
HETATM    3  N4  UNL     1      -0.328   0.319  -0.308  1.00  0.00    -0.260 N 
ATOM      4  H4  UNL     1      -0.255   1.113  -0.944  1.00  0.00     0.190 HD
ENDROOT
BRANCH   1   5
HETATM    5  C4  UNL     1       2.138   0.066  -0.495  1.00  0.00     0.236 A 
HETATM    6  N3  UNL     1       2.341   1.104  -1.347  1.00  0.00    -0.272 N 
HETATM    7  N2  UNL     1       3.633   1.136  -1.569  1.00  0.00    -0.263 N 
ATOM      8  H3  UNL     1       1.634   1.729  -1.734  1.00  0.00     0.189 HD
HETATM    9  C3  UNL     1       4.226   0.140  -0.872  1.00  0.00     0.247 A 
ATOM     10  H2  UNL     1       4.114   1.805  -2.171  1.00  0.00     0.190 HD
HETATM   11  O4  UNL     1       3.288  -0.496  -0.226  1.00  0.00    -0.254 OA
BRANCH   9  12
HETATM   12  N1  UNL     1       5.512  -0.100  -0.877  1.00  0.00    -0.292 N 
HETATM   13  C2  UNL     1       6.166  -1.111  -0.177  1.00  0.00     0.220 C 
HETATM   14  C1  UNL     1       5.646  -1.969   0.892  1.00  0.00     0.117 C 
HETATM   15  O1  UNL     1       7.390  -1.321  -0.514  1.00  0.00    -0.274 OA
ATOM     16  H1  UNL     1       6.092   0.513  -1.449  1.00  0.00     0.172 HD
ENDBRANCH   9  12
ENDBRANCH   1   5
BRANCH   3  17
HETATM   17  N5  UNL     1      -1.600  -0.039   0.175  1.00  0.00    -0.266 N 
HETATM   18  C6  UNL     1      -2.371   0.967   0.794  1.00  0.00     0.250 C 
HETATM   19  O3  UNL     1      -1.930   2.124   0.899  1.00  0.00    -0.271 OA
ATOM     20  H5  UNL     1      -1.952  -0.992   0.081  1.00  0.00     0.190 HD
BRANCH  18  21
HETATM   21  C7  UNL     1      -3.710   0.636   1.317  1.00  0.00     0.144 C 
HETATM   22  C8  UNL     1      -3.647  -0.419   2.404  1.00  0.00     0.031 C 
BRANCH  21  23
HETATM   23  S1  UNL     1      -4.691  -0.079  -0.059  1.00  0.00    -0.089 SA
BRANCH  23  24
HETATM   24  C9  UNL     1      -4.973   1.173  -1.305  1.00  0.00     0.150 C 
HETATM   25  N6  UNL     1      -5.730   0.844  -2.476  1.00  0.00    -0.082 NA
HETATM   26  S2  UNL     1      -4.366   2.674  -1.097  1.00  0.00    -0.056 SA
ENDBRANCH  23  24
ENDBRANCH  21  23
ENDBRANCH  18  21
ENDBRANCH   3  17
TORSDOF 6
