REMARK  3 active torsions:
REMARK  status: ('A' for Active; 'I' for Inactive)
REMARK    1  A    between atoms: C4_4  and  C5_5 
REMARK    2  A    between atoms: N1_6  and  O1_8 
REMARK    3  A    between atoms: C6_11  and  C7_12 
ROOT
HETATM    1  C1  UNL     1      -2.697  -0.679   2.180  1.00  0.00     0.011 C 
HETATM    2  C2  UNL     1      -2.404  -0.811   0.673  1.00  0.00    -0.005 C 
HETATM    3  C3  UNL     1      -1.252  -1.716   0.526  1.00  0.00     0.049 C 
HETATM    4  C4  UNL     1      -0.157  -1.057  -0.267  1.00  0.00     0.108 C 
HETATM    5  O2  UNL     1       1.072  -1.697  -0.331  1.00  0.00    -0.337 OA
HETATM    6  C6  UNL     1       1.681  -0.435  -0.115  1.00  0.00     0.176 C 
HETATM    7  O3  UNL     1       1.705   0.456  -1.140  1.00  0.00    -0.348 OA
HETATM    8  C10 UNL     1       1.121   1.658  -0.686  1.00  0.00     0.133 C 
HETATM    9  C11 UNL     1       0.785   2.620  -1.768  1.00  0.00     0.040 C 
HETATM   10  C12 UNL     1       0.099   1.344   0.316  1.00  0.00     0.097 C 
HETATM   11  C13 UNL     1      -1.314   1.380  -0.015  1.00  0.00     0.138 C 
HETATM   12  O4  UNL     1      -1.644   2.475  -0.454  1.00  0.00    -0.297 OA
HETATM   13  C14 UNL     1      -2.474   0.480   0.023  1.00  0.00     0.055 C 
HETATM   14  C15 UNL     1      -3.576   1.302   0.731  1.00  0.00     0.018 C 
HETATM   15  C16 UNL     1       0.440  -0.081   0.609  1.00  0.00     0.102 C 
ENDROOT
BRANCH   4  16
HETATM   16  C5  UNL     1      -0.590  -0.892  -1.639  1.00  0.00     0.125 C 
HETATM   17  N1  UNL     1      -0.729  -2.014  -2.273  1.00  0.00    -0.281 N 
ATOM     18  H1  UNL     1      -0.539  -2.900  -1.804  1.00  0.00     0.193 HD
BRANCH  17  19
HETATM   19  O1  UNL     1      -1.133  -1.995  -3.577  1.00  0.00    -0.290 OA
ATOM     20  H1  UNL     1      -1.235  -2.817  -4.042  1.00  0.00     0.244 HD
ENDBRANCH  17  19
ENDBRANCH   4  16
BRANCH   6  21
HETATM   21  C7  UNL     1       2.937  -0.672   0.674  1.00  0.00     0.041 C 
HETATM   22  C8  UNL     1       3.727   0.548   1.003  1.00  0.00     0.015 C 
HETATM   23  C9  UNL     1       3.744  -1.721  -0.046  1.00  0.00     0.015 C 
ENDBRANCH   6  21
TORSDOF 3
