REMARK  12 active torsions:
REMARK  status: ('A' for Active; 'I' for Inactive)
REMARK    1  A    between atoms: C2_2  and  N1_4 
REMARK    2  A    between atoms: N1_4  and  C4_6 
REMARK    3  A    between atoms: C4_6  and  C5_7 
REMARK    4  A    between atoms: C5_7  and  C6_8 
REMARK    5  A    between atoms: C5_7  and  O2_11 
REMARK    6  A    between atoms: C6_8  and  O1_9 
REMARK    7  A    between atoms: O2_11  and  C7_12 
REMARK    8  A    between atoms: C7_12  and  N2_13 
REMARK    9  A    between atoms: C8_14  and  C9_15 
REMARK   10  A    between atoms: C9_15  and  C10_16 
REMARK   11  A    between atoms: C10_16  and  N3_17 
REMARK   12  A    between atoms: C14_23  and  N5_24 
ROOT
HETATM    1  N2  UNL     1       1.084  -0.676  -0.791  1.00  0.00    -0.298 N 
HETATM    2  C8  UNL     1       2.219   0.066  -1.006  1.00  0.00     0.092 A 
HETATM    3  N4  UNL     1       3.218  -0.830  -1.025  1.00  0.00    -0.339 N 
ATOM      4  H4  UNL     1       4.198  -0.585  -1.168  1.00  0.00     0.167 HD
HETATM    5  C13 UNL     1       2.784  -2.080  -0.835  1.00  0.00     0.122 A 
HETATM    6  C14 UNL     1       3.354  -3.346  -0.762  1.00  0.00     0.131 A 
HETATM    7  N6  UNL     1       2.608  -4.453  -0.556  1.00  0.00    -0.337 N 
ATOM      8  H6  UNL     1       3.050  -5.371  -0.506  1.00  0.00     0.168 HD
HETATM    9  C15 UNL     1       1.286  -4.333  -0.418  1.00  0.00     0.183 A 
HETATM   10  N7  UNL     1       0.725  -3.128  -0.483  1.00  0.00    -0.336 N 
ATOM     11  H7  UNL     1      -0.287  -3.060  -0.375  1.00  0.00     0.168 HD
HETATM   12  C16 UNL     1       1.433  -1.977  -0.687  1.00  0.00     0.142 A 
ENDROOT
BRANCH   1  13
HETATM   13  C7  UNL     1      -0.256  -0.178  -0.710  1.00  0.00     0.302 C 
BRANCH  13  14
HETATM   14  O2  UNL     1      -0.641   0.102   0.591  1.00  0.00    -0.359 OA
BRANCH  14  15
HETATM   15  C5  UNL     1      -1.968   0.610   0.549  1.00  0.00     0.185 C 
BRANCH  15  16
HETATM   16  C4  UNL     1      -2.803  -0.458   1.231  1.00  0.00     0.089 C 
BRANCH  16  17
HETATM   17  N1  UNL     1      -4.186  -0.213   1.275  1.00  0.00    -0.396 N 
ATOM     18  H1  UNL     1      -4.648   0.018   2.154  1.00  0.00     0.159 HD
BRANCH  17  19
HETATM   19  C2  UNL     1      -4.923  -0.295   0.067  1.00  0.00     0.072 C 
HETATM   20  C1  UNL     1      -6.292  -0.905   0.411  1.00  0.00     0.031 C 
HETATM   21  C3  UNL     1      -5.176   0.969  -0.670  1.00  0.00     0.031 C 
ENDBRANCH  17  19
ENDBRANCH  16  17
ENDBRANCH  15  16
BRANCH  15  22
HETATM   22  C6  UNL     1      -1.926   1.890   1.316  1.00  0.00     0.201 C 
BRANCH  22  23
HETATM   23  O1  UNL     1      -0.990   2.718   0.707  1.00  0.00    -0.398 OA
ATOM     24  H1  UNL     1      -0.963   3.533   1.195  1.00  0.00     0.209 HD
ENDBRANCH  22  23
ENDBRANCH  15  22
ENDBRANCH  14  15
ENDBRANCH  13  14
ENDBRANCH   1  13
BRANCH   2  25
HETATM   25  C9  UNL     1       2.317   1.523  -1.155  1.00  0.00     0.121 C 
BRANCH  25  26
HETATM   26  C10 UNL     1       2.709   2.283   0.064  1.00  0.00     0.064 C 
BRANCH  26  27
HETATM   27  N3  UNL     1       3.991   2.009   0.569  1.00  0.00    -0.401 N 
HETATM   28  C11 UNL     1       5.094   2.427  -0.260  1.00  0.00     0.148 C 
HETATM   29  C12 UNL     1       4.234   0.965   1.472  1.00  0.00     0.148 C 
ENDBRANCH  26  27
ENDBRANCH  25  26
ENDBRANCH   2  25
BRANCH   6  30
HETATM   30  N5  UNL     1       4.594  -3.500  -0.888  1.00  0.00    -0.383 N 
ATOM     31  H52 UNL     1       5.157  -2.664  -1.044  1.00  0.00     0.157 HD
ATOM     32  H51 UNL     1       5.012  -4.429  -0.834  1.00  0.00     0.157 HD
ENDBRANCH   6  30
TORSDOF 12
