REMARK  13 active torsions:
REMARK  status: ('A' for Active; 'I' for Inactive)
REMARK    1  A    between atoms: O1_2  and  C2_3 
REMARK    2  A    between atoms: C2_3  and  C3_5 
REMARK    3  A    between atoms: C5_7  and  O3_8 
REMARK    4  A    between atoms: C7_10  and  O4_11 
REMARK    5  A    between atoms: C8_13  and  C9_14 
REMARK    6  A    between atoms: C9_14  and  C10_16 
REMARK    7  A    between atoms: C10_16  and  N1_17 
REMARK    8  A    between atoms: C10_16  and  C11_29 
REMARK    9  A    between atoms: N1_17  and  S1_19 
REMARK   10  A    between atoms: S1_19  and  N2_20 
REMARK   11  A    between atoms: S1_19  and  N3_24 
REMARK   12  A    between atoms: N3_24  and  N4_26 
REMARK   13  A    between atoms: C11_29  and  O8_31 
ROOT
HETATM    1  C10 UNL     1       2.301  -0.818   0.738  1.00  0.00     0.267 C 
ENDROOT
BRANCH   1   2
HETATM    2  C9  UNL     1       1.192   0.098   0.455  1.00  0.00     0.195 C 
HETATM    3  O5  UNL     1       1.475   1.343   0.559  1.00  0.00    -0.289 OA
BRANCH   2   4
HETATM    4  C8  UNL     1      -0.165  -0.205   0.079  1.00  0.00     0.049 A 
HETATM    5  C7  UNL     1      -0.683  -1.476  -0.115  1.00  0.00     0.113 A 
HETATM    6  C5  UNL     1      -2.005  -1.714  -0.457  1.00  0.00     0.103 A 
HETATM    7  C4  UNL     1      -2.866  -0.660  -0.618  1.00  0.00     0.057 A 
HETATM    8  C3  UNL     1      -2.413   0.614  -0.442  1.00  0.00     0.043 A 
HETATM    9  C13 UNL     1      -1.109   0.815  -0.106  1.00  0.00     0.035 A 
BRANCH   5  10
HETATM   10  O4  UNL     1       0.131  -2.577   0.029  1.00  0.00    -0.357 OA
ATOM     11  H4  UNL     1       1.037  -2.414   0.263  1.00  0.00     0.217 HD
ENDBRANCH   5  10
BRANCH   6  12
HETATM   12  O3  UNL     1      -2.481  -3.001  -0.640  1.00  0.00    -0.353 OA
HETATM   13  C6  UNL     1      -3.830  -3.233  -0.988  1.00  0.00     0.210 C 
ENDBRANCH   6  12
BRANCH   8  14
HETATM   14  C2  UNL     1      -3.320   1.764  -0.610  1.00  0.00     0.293 C 
HETATM   15  O2  UNL     1      -4.513   1.558  -0.918  1.00  0.00    -0.259 OA
BRANCH  14  16
HETATM   16  O1  UNL     1      -2.884   3.059  -0.437  1.00  0.00    -0.323 OA
HETATM   17  C1  UNL     1      -3.692   4.195  -0.582  1.00  0.00     0.213 C 
ENDBRANCH  14  16
ENDBRANCH   8  14
ENDBRANCH   2   4
ENDBRANCH   1   2
BRANCH   1  18
HETATM   18  N1  UNL     1       3.579  -0.135   0.455  1.00  0.00    -0.297 N 
ATOM     19  H1  UNL     1       4.301   0.041   1.154  1.00  0.00     0.173 HD
BRANCH  18  20
HETATM   20  S1  UNL     1       3.702   0.328  -1.198  1.00  0.00     0.206 S 
HETATM   21  O6  UNL     1       4.751  -0.580  -1.813  1.00  0.00    -0.205 OA
BRANCH  20  22
HETATM   22  N2  UNL     1       2.379   0.000  -1.975  1.00  0.00    -0.328 N 
ATOM     23  H22 UNL     1       1.562  -0.431  -1.543  1.00  0.00     0.169 HD
ATOM     24  H21 UNL     1       2.452   0.274  -2.955  1.00  0.00     0.169 HD
ENDBRANCH  20  22
BRANCH  20  25
HETATM   25  N3  UNL     1       4.185   1.940  -1.425  1.00  0.00    -0.234 N 
ATOM     26  H3  UNL     1       5.058   2.315  -1.053  1.00  0.00     0.199 HD
BRANCH  25  27
HETATM   27  N4  UNL     1       3.282   2.709  -2.166  1.00  0.00    -0.336 N 
ATOM     28  H42 UNL     1       2.413   2.320  -2.532  1.00  0.00     0.177 HD
ATOM     29  H41 UNL     1       3.572   3.677  -2.302  1.00  0.00     0.177 HD
ENDBRANCH  25  27
ENDBRANCH  20  25
ENDBRANCH  18  20
ENDBRANCH   1  18
BRANCH   1  30
HETATM   30  C11 UNL     1       2.312  -1.022   2.223  1.00  0.00     0.289 C 
HETATM   31  O7  UNL     1       3.346  -0.617   2.850  1.00  0.00    -0.262 OA
BRANCH  30  32
HETATM   32  O8  UNL     1       1.297  -1.606   2.944  1.00  0.00    -0.325 OA
HETATM   33  C12 UNL     1       1.447  -1.730   4.346  1.00  0.00     0.213 C 
ENDBRANCH  30  32
ENDBRANCH   1  30
TORSDOF 13
