REMARK  19 active torsions:
REMARK  status: ('A' for Active; 'I' for Inactive)
REMARK    1  A    between atoms: N1_1  and  C1_4 
REMARK    2  A    between atoms: C2_10  and  N4_11 
REMARK    3  A    between atoms: C3_15  and  C4_16 
REMARK    4  A    between atoms: C4_16  and  O2_17 
REMARK    5  A    between atoms: C4_16  and  N7_19 
REMARK    6  A    between atoms: N7_19  and  C5_22 
REMARK    7  A    between atoms: C5_22  and  O3_23 
REMARK    8  A    between atoms: C5_22  and  C6_25 
REMARK    9  A    between atoms: C6_25  and  C7_26 
REMARK   10  A    between atoms: C6_25  and  N10_37 
REMARK   11  A    between atoms: C7_26  and  C8_27 
REMARK   12  A    between atoms: C8_27  and  C9_28 
REMARK   13  A    between atoms: C9_28  and  N8_29 
REMARK   14  A    between atoms: C9_28  and  N9_33 
REMARK   15  A    between atoms: N10_37  and  N11_39 
REMARK       I    between atoms: N11_39  and  C10_41 
REMARK   16  A    between atoms: C10_41  and  C11_43 
REMARK   17  A    between atoms: C12_45  and  N12_46 
REMARK   18  A    between atoms: C13_49  and  O8_50 
REMARK   19  A    between atoms: C14_52  and  O9_53 
ROOT
HETATM    1  C6  UNL     1      -0.488   0.582  -0.335  1.00  0.00     0.234 C 
ENDROOT
BRANCH   1   2
HETATM    2  C5  UNL     1       0.087   0.128   0.960  1.00  0.00     0.358 C 
BRANCH   2   3
HETATM    3  N7  UNL     1       1.556   0.408   0.917  1.00  0.00    -0.013 N 
ATOM      4  H72 UNL     1       1.792   1.316   1.317  1.00  0.00     0.283 HD
ATOM      5  H71 UNL     1       1.893   0.580  -0.030  1.00  0.00     0.283 HD
BRANCH   3   6
HETATM    6  C4  UNL     1       2.250  -0.670   1.558  1.00  0.00     0.393 C 
BRANCH   6   7
HETATM    7  C3  UNL     1       3.693  -0.449   1.617  1.00  0.00     0.168 A 
HETATM    8  N6  UNL     1       4.421   0.227   2.507  1.00  0.00    -0.266 N 
HETATM    9  N5  UNL     1       5.704   0.129   2.147  1.00  0.00     0.004 NA
ATOM     10  H6  UNL     1       4.062   0.730   3.319  1.00  0.00     0.185 HD
HETATM   11  N4  UNL     1       5.822  -0.590   1.046  1.00  0.00    -0.156 N 
HETATM   12  N13 UNL     1       4.576  -0.948   0.721  1.00  0.00    -0.263 N 
ATOM     13  H13 UNL     1       4.326  -1.517  -0.088  1.00  0.00     0.190 HD
BRANCH  11  14
HETATM   14  C2  UNL     1       7.003  -0.924   0.336  1.00  0.00     0.210 A 
HETATM   15  C1  UNL     1       7.426  -2.182  -0.042  1.00  0.00     0.170 A 
HETATM   16  N2  UNL     1       8.593  -2.052  -0.702  1.00  0.00    -0.222 N 
HETATM   17  O1  UNL     1       8.876  -0.796  -0.732  1.00  0.00    -0.153 OA
ATOM     18  H2  UNL     1       9.149  -2.807  -1.103  1.00  0.00     0.198 HD
HETATM   19  N3  UNL     1       7.971  -0.094  -0.134  1.00  0.00    -0.219 N 
ATOM     20  H3  UNL     1       7.981   0.921  -0.031  1.00  0.00     0.198 HD
BRANCH  15  21
HETATM   21  N1  UNL     1       6.794  -3.295   0.202  1.00  0.00    -0.381 N 
ATOM     22  H12 UNL     1       7.107  -4.225  -0.077  1.00  0.00     0.157 HD
ATOM     23  H11 UNL     1       5.910  -3.393   0.702  1.00  0.00     0.157 HD
ENDBRANCH  15  21
ENDBRANCH  11  14
ENDBRANCH   6   7
BRANCH   6  24
HETATM   24  O2  UNL     1       1.790  -0.952   2.853  1.00  0.00    -0.364 OA
ATOM     25  H2  UNL     1       0.852  -1.096   2.815  1.00  0.00     0.212 HD
ENDBRANCH   6  24
ENDBRANCH   3   6
ENDBRANCH   2   3
BRANCH   2  26
HETATM   26  O3  UNL     1      -0.059  -1.169   1.328  1.00  0.00    -0.367 OA
ATOM     27  H3  UNL     1      -0.992  -1.347   1.355  1.00  0.00     0.212 HD
ENDBRANCH   2  26
ENDBRANCH   1   2
BRANCH   1  28
HETATM   28  C7  UNL     1      -0.088   2.111  -0.319  1.00  0.00    -0.071 C 
BRANCH  28  29
HETATM   29  C8  UNL     1       0.142   3.283  -0.290  1.00  0.00    -0.043 C 
BRANCH  29  30
HETATM   30  C9  UNL     1       0.352   4.712  -0.246  1.00  0.00     0.456 C 
BRANCH  30  31
HETATM   31  N8  UNL     1       1.156   5.143  -1.345  1.00  0.00    -0.040 N 
ATOM     32  H83 UNL     1       2.039   4.634  -1.389  1.00  0.00     0.277 HD
ATOM     33  H82 UNL     1       0.763   4.847  -2.238  1.00  0.00     0.277 HD
ATOM     34  H81 UNL     1       1.304   6.152  -1.314  1.00  0.00     0.277 HD
ENDBRANCH  30  31
BRANCH  30  35
HETATM   35  N9  UNL     1      -0.929   5.431  -0.360  1.00  0.00    -0.040 N 
ATOM     36  H93 UNL     1      -1.447   5.151  -1.193  1.00  0.00     0.277 HD
ATOM     37  H92 UNL     1      -1.598   5.125   0.347  1.00  0.00     0.277 HD
ATOM     38  H91 UNL     1      -0.781   6.440  -0.329  1.00  0.00     0.277 HD
ENDBRANCH  30  35
ENDBRANCH  29  30
ENDBRANCH  28  29
ENDBRANCH   1  28
BRANCH   1  39
HETATM   39  N10 UNL     1      -1.800   0.595  -0.651  1.00  0.00    -0.313 N 
ATOM     40  H10 UNL     1      -1.984   1.534  -1.003  1.00  0.00     0.182 HD
BRANCH  39  41
HETATM   41  N11 UNL     1      -2.929  -0.021  -0.717  1.00  0.00    -0.267 N 
HETATM   42  C10 UNL     1      -3.519  -1.199  -0.228  1.00  0.00     0.296 C 
HETATM   43  O4  UNL     1      -2.835  -1.965   0.503  1.00  0.00    -0.264 OA
ATOM     44  H11 UNL     1      -3.590   0.499  -1.294  1.00  0.00     0.190 HD
BRANCH  42  45
HETATM   45  C11 UNL     1      -4.893  -1.643  -0.475  1.00  0.00     0.183 A 
HETATM   46  O5  UNL     1      -5.348  -2.762   0.072  1.00  0.00    -0.278 OA
HETATM   47  C12 UNL     1      -6.586  -2.979  -0.262  1.00  0.00     0.252 A 
HETATM   48  C13 UNL     1      -6.996  -1.976  -1.068  1.00  0.00     0.160 A 
HETATM   49  C14 UNL     1      -5.888  -1.077  -1.223  1.00  0.00     0.143 A 
BRANCH  47  50
HETATM   50  N12 UNL     1      -7.368  -4.110   0.173  1.00  0.00    -0.087 N 
HETATM   51  O6  UNL     1      -6.885  -4.970   0.925  1.00  0.00    -0.530 OA
HETATM   52  O7  UNL     1      -8.667  -4.183  -0.268  1.00  0.00    -0.530 OA
ENDBRANCH  47  50
BRANCH  48  53
HETATM   53  O8  UNL     1      -8.200  -1.764  -1.673  1.00  0.00    -0.354 OA
ATOM     54  H8  UNL     1      -8.488  -1.058  -2.240  1.00  0.00     0.218 HD
ENDBRANCH  48  53
BRANCH  49  55
HETATM   55  O9  UNL     1      -5.913   0.028  -1.942  1.00  0.00    -0.355 OA
ATOM     56  H9  UNL     1      -6.604   0.421  -2.462  1.00  0.00     0.218 HD
ENDBRANCH  49  55
ENDBRANCH  42  45
ENDBRANCH  39  41
ENDBRANCH   1  39
TORSDOF 19
