REMARK  2 active torsions:
REMARK  status: ('A' for Active; 'I' for Inactive)
REMARK    1  A    between atoms: C3_3  and  C4_4 
REMARK    2  A    between atoms: C4_4  and  N1_5 
ROOT
HETATM    1  C1  UNL     1       3.750  -1.120   0.277  1.00  0.00     0.112 C 
HETATM    2  C2  UNL     1       2.540  -0.337   0.560  1.00  0.00    -0.109 C 
HETATM    3  C3  UNL     1       1.544   0.296   0.808  1.00  0.00    -0.087 C 
ENDROOT
BRANCH   3   4
HETATM    4  C4  UNL     1       0.308   1.053   1.119  1.00  0.00     0.224 C 
BRANCH   4   5
HETATM    5  N1  UNL     1      -0.828   0.448   0.464  1.00  0.00    -0.320 N 
HETATM    6  C5  UNL     1      -1.521  -0.519   1.131  1.00  0.00     0.096 A 
HETATM    7  C6  UNL     1      -2.601  -1.142   0.592  1.00  0.00     0.034 A 
HETATM    8  C7  UNL     1      -3.023  -0.796  -0.672  1.00  0.00     0.092 A 
HETATM    9  N2  UNL     1      -2.335   0.152  -1.314  1.00  0.00    -0.340 N 
HETATM   10  C8  UNL     1      -1.255   0.768  -0.761  1.00  0.00     0.195 A 
ATOM     11  H2  UNL     1      -2.630   0.424  -2.252  1.00  0.00     0.167 HD
HETATM   12  N3  UNL     1      -0.555   1.770  -1.482  1.00  0.00    -0.063 NA
ENDBRANCH   4   5
ENDBRANCH   3   4
TORSDOF 2
