REMARK  3 active torsions:
REMARK  status: ('A' for Active; 'I' for Inactive)
REMARK    1  A    between atoms: C4_7  and  N2_8 
REMARK    2  A    between atoms: N2_8  and  N3_10 
REMARK    3  A    between atoms: N3_10  and  C5_12 
ROOT
HETATM    1  N3  UNL     1       0.599  -0.293  -0.060  1.00  0.00    -0.270 N 
ATOM      2  H3  UNL     1       0.187  -1.063   0.467  1.00  0.00     0.189 HD
ENDROOT
BRANCH   1   3
HETATM    3  N2  UNL     1      -0.276   0.639  -0.560  1.00  0.00    -0.130 N 
ATOM      4  H2  UNL     1       0.055   1.371  -1.188  1.00  0.00     0.205 HD
BRANCH   3   5
HETATM    5  C4  UNL     1      -1.518   0.580  -0.228  1.00  0.00     0.699 A 
HETATM    6  N1  UNL     1      -1.976  -0.386   0.609  1.00  0.00    -0.200 N 
HETATM    7  C3  UNL     1      -3.265  -0.460   0.963  1.00  0.00     0.111 A 
ATOM      8  H1  UNL     1      -1.320  -1.074   0.978  1.00  0.00     0.183 HD
HETATM    9  C2  UNL     1      -4.185   0.443   0.496  1.00  0.00     0.092 A 
HETATM   10  C1  UNL     1      -3.725   1.434  -0.359  1.00  0.00     0.260 A 
HETATM   11  O1  UNL     1      -4.572   2.269  -0.793  1.00  0.00    -0.268 OA
HETATM   12  N7  UNL     1      -2.428   1.459  -0.680  1.00  0.00    -0.155 N 
ATOM     13  H7  UNL     1      -2.108   2.194  -1.310  1.00  0.00     0.187 HD
ENDBRANCH   3   5
ENDBRANCH   1   3
BRANCH   1  14
HETATM   14  C5  UNL     1       1.864  -0.305  -0.179  1.00  0.00     0.141 A 
HETATM   15  C6  UNL     1       2.600   0.642  -0.850  1.00  0.00     0.157 A 
HETATM   16  N4  UNL     1       3.930   0.496  -0.891  1.00  0.00    -0.304 N 
HETATM   17  N5  UNL     1       4.590  -0.496  -0.331  1.00  0.00    -0.252 N 
ATOM     18  H4  UNL     1       4.470   1.203  -1.391  1.00  0.00     0.186 HD
HETATM   19  C7  UNL     1       3.881  -1.418   0.322  1.00  0.00     0.340 A 
ATOM     20  H5  UNL     1       5.606  -0.557  -0.394  1.00  0.00     0.191 HD
HETATM   21  O2  UNL     1       4.445  -2.389   0.877  1.00  0.00    -0.245 OA
HETATM   22  N6  UNL     1       2.544  -1.315   0.390  1.00  0.00    -0.291 N 
ATOM     23  H6  UNL     1       2.023  -2.033   0.894  1.00  0.00     0.172 HD
ENDBRANCH   1  14
TORSDOF 3
