REMARK  7 active torsions:
REMARK  status: ('A' for Active; 'I' for Inactive)
REMARK    1  A    between atoms: C2_2  and  S1_3 
REMARK    2  A    between atoms: S1_3  and  C3_4 
REMARK    3  A    between atoms: C3_4  and  C4_5 
REMARK    4  A    between atoms: C7_9  and  N1_10 
REMARK    5  A    between atoms: C8_11  and  N2_12 
REMARK    6  A    between atoms: C11_23  and  N6_24 
REMARK    7  A    between atoms: C14_30  and  N8_31 
ROOT
HETATM    1  N1  UNL     1      -2.083   0.078   0.879  1.00  0.00    -0.136 N 
HETATM    2  C8  UNL     1      -2.953   0.111   1.940  1.00  0.00     0.682 A 
HETATM    3  N3  UNL     1      -4.058   0.790   1.645  1.00  0.00    -0.174 N 
ATOM      4  H3  UNL     1      -4.847   0.951   2.271  1.00  0.00     0.186 HD
HETATM    5  C9  UNL     1      -3.955   1.219   0.402  1.00  0.00     0.153 A 
HETATM    6  N4  UNL     1      -4.803   1.948  -0.357  1.00  0.00    -0.336 N 
ATOM      7  H4  UNL     1      -5.699   2.262   0.015  1.00  0.00     0.168 HD
HETATM    8  C10 UNL     1      -4.434   2.248  -1.615  1.00  0.00     0.183 A 
HETATM    9  N5  UNL     1      -3.262   1.842  -2.111  1.00  0.00    -0.337 N 
ATOM     10  H5  UNL     1      -3.012   2.087  -3.069  1.00  0.00     0.168 HD
HETATM   11  C11 UNL     1      -2.392   1.104  -1.357  1.00  0.00     0.131 A 
HETATM   12  C12 UNL     1      -2.739   0.780  -0.066  1.00  0.00     0.142 A 
ENDROOT
BRANCH   1  13
HETATM   13  C7  UNL     1      -0.838  -0.564   0.888  1.00  0.00     0.417 C 
HETATM   14  C6  UNL     1       0.377   0.280   0.982  1.00  0.00     0.193 C 
HETATM   15  C4  UNL     1       1.474  -0.712   0.853  1.00  0.00     0.086 C 
HETATM   16  O1  UNL     1       0.380   1.479   1.130  1.00  0.00    -0.293 OA
HETATM   17  C5  UNL     1       1.640  -1.323   2.248  1.00  0.00     0.028 C 
HETATM   18  C14 UNL     1       0.882  -1.771  -0.010  1.00  0.00     0.436 C 
HETATM   19  N7  UNL     1      -0.540  -1.577  -0.075  1.00  0.00     0.147 N 
HETATM   20  C13 UNL     1      -1.294  -2.784   0.085  1.00  0.00     0.316 C 
BRANCH  15  21
HETATM   21  C3  UNL     1       2.752  -0.110   0.368  1.00  0.00     0.095 C 
BRANCH  21  22
HETATM   22  S1  UNL     1       2.550   0.607  -1.248  1.00  0.00    -0.168 SA
BRANCH  22  23
HETATM   23  C2  UNL     1       4.046   1.349  -1.912  1.00  0.00     0.069 C 
HETATM   24  C1  UNL     1       4.511   2.551  -1.147  1.00  0.00     0.016 C 
ENDBRANCH  22  23
ENDBRANCH  21  22
ENDBRANCH  15  21
BRANCH  18  25
HETATM   25  N8  UNL     1       1.499  -1.834  -1.314  1.00  0.00    -0.046 N 
ATOM     26  H83 UNL     1       1.471  -0.926  -1.777  1.00  0.00     0.276 HD
ATOM     27  H82 UNL     1       2.510  -1.947  -1.236  1.00  0.00     0.276 HD
ATOM     28  H81 UNL     1       1.093  -2.560  -1.905  1.00  0.00     0.276 HD
ENDBRANCH  18  25
ENDBRANCH   1  13
BRANCH   2  29
HETATM   29  N2  UNL     1      -2.786  -0.424   3.103  1.00  0.00    -0.234 N 
ATOM     30  H22 UNL     1      -1.939  -0.945   3.329  1.00  0.00     0.174 HD
ATOM     31  H21 UNL     1      -3.433  -0.399   3.892  1.00  0.00     0.174 HD
ENDBRANCH   2  29
BRANCH  11  32
HETATM   32  N6  UNL     1      -1.292   0.738  -1.855  1.00  0.00    -0.383 N 
ATOM     33  H62 UNL     1      -1.035   0.978  -2.812  1.00  0.00     0.157 HD
ATOM     34  H61 UNL     1      -0.643   0.188  -1.293  1.00  0.00     0.157 HD
ENDBRANCH  11  32
TORSDOF 7
