REMARK  0 active torsions:
REMARK  status: ('A' for Active; 'I' for Inactive)
ROOT
HETATM    1  N1  UNL     1       2.452  -1.732   1.045  1.00  0.00    -0.197 NA
HETATM    2  C1  UNL     1       1.540  -1.282   0.509  1.00  0.00     0.066 C 
HETATM    3  C2  UNL     1       0.406  -0.695  -0.163  1.00  0.00     0.118 C 
HETATM    4  C3  UNL     1      -0.753  -0.493   0.782  1.00  0.00     0.031 C 
HETATM    5  C4  UNL     1      -1.867  -0.031  -0.169  1.00  0.00     0.076 C 
HETATM    6  S1  UNL     1      -0.954   1.355  -0.962  1.00  0.00    -0.151 SA
HETATM    7  C5  UNL     1       0.737   0.664  -0.745  1.00  0.00     0.137 C 
HETATM    8  S2  UNL     1       1.729   1.676   0.347  1.00  0.00    -0.080 SA
ENDROOT
TORSDOF 0
