REMARK  1 active torsions:
REMARK  status: ('A' for Active; 'I' for Inactive)
REMARK    1  A    between atoms: C6_6  and  N1_8 
ROOT
HETATM    1  C1  UNL     1      -2.621  -0.917   0.116  1.00  0.00     0.010 C 
HETATM    2  C2  UNL     1      -1.281  -0.243   0.227  1.00  0.00    -0.016 C 
HETATM    3  C3  UNL     1      -1.303   1.169  -0.355  1.00  0.00     0.004 C 
HETATM    4  C4  UNL     1      -0.023   1.835   0.037  1.00  0.00     0.003 C 
HETATM    5  C5  UNL     1       1.207   1.080  -0.280  1.00  0.00     0.038 C 
HETATM    6  C6  UNL     1       1.137  -0.392  -0.070  1.00  0.00     0.120 C 
HETATM    7  C7  UNL     1       1.502  -0.814   1.335  1.00  0.00     0.046 C 
HETATM    8  C8  UNL     1      -0.188  -0.976  -0.506  1.00  0.00     0.042 C 
ENDROOT
BRANCH   6   9
HETATM    9  N1  UNL     1       2.147  -1.000  -0.950  1.00  0.00    -0.071 N 
ATOM     10  H13 UNL     1       2.042  -0.729  -1.928  1.00  0.00     0.275 HD
ATOM     11  H12 UNL     1       3.083  -0.619  -0.809  1.00  0.00     0.275 HD
ATOM     12  H11 UNL     1       2.099  -2.009  -0.806  1.00  0.00     0.275 HD
ENDBRANCH   6   9
TORSDOF 1
