REMARK  1 active torsions:
REMARK  status: ('A' for Active; 'I' for Inactive)
REMARK    1  A    between atoms: C8_8  and  N1_9 
ROOT
HETATM    1  C1  UNL     1      -1.269   1.504  -0.805  1.00  0.00     0.011 C 
HETATM    2  C2  UNL     1      -0.999   0.243  -0.021  1.00  0.00    -0.008 C 
HETATM    3  C3  UNL     1      -1.564  -0.886  -0.852  1.00  0.00     0.005 C 
HETATM    4  C4  UNL     1      -0.751  -2.040  -0.421  1.00  0.00     0.001 C 
HETATM    5  C5  UNL     1       0.103  -1.443   0.712  1.00  0.00     0.012 C 
HETATM    6  C6  UNL     1       0.353  -0.065   0.354  1.00  0.00    -0.013 A 
HETATM    7  C7  UNL     1       0.779   1.227   0.868  1.00  0.00     0.039 A 
HETATM    8  C8  UNL     1       1.646   0.191   0.890  1.00  0.00     0.108 A 
ENDROOT
BRANCH   8   9
HETATM    9  N1  UNL     1       2.753  -0.044  -0.044  1.00  0.00    -0.337 N 
HETATM   10  N2  UNL     1       3.394   0.862  -0.547  1.00  0.00    -0.349 N 
ATOM     11  H22 UNL     1       3.138   1.817  -0.298  1.00  0.00     0.176 HD
ATOM     12  H21 UNL     1       4.164   0.699  -1.196  1.00  0.00     0.176 HD
ATOM     13  H1  UNL     1       2.996  -1.006  -0.282  1.00  0.00     0.180 HD
ENDBRANCH   8   9
TORSDOF 1
