REMARK  6 active torsions:
REMARK  status: ('A' for Active; 'I' for Inactive)
REMARK       I    between atoms: C3_3  and  N1_5 
REMARK    1  A    between atoms: N1_5  and  C4_6 
REMARK    2  A    between atoms: N1_5  and  C6_8 
REMARK    3  A    between atoms: C6_8  and  C7_9 
REMARK    4  A    between atoms: C7_9  and  N2_10 
REMARK       I    between atoms: N2_10  and  C8_12 
REMARK       I    between atoms: C8_12  and  N3_14 
REMARK    5  A    between atoms: N3_14  and  C9_16 
REMARK    6  A    between atoms: C9_16  and  C11_18 
ROOT
HETATM    1  C1  UNL     1       5.756  -2.473   0.293  1.00  0.00     0.022 C 
HETATM    2  C2  UNL     1       5.278  -1.375   0.101  1.00  0.00    -0.016 C 
HETATM    3  C3  UNL     1       4.720  -0.072  -0.125  1.00  0.00     0.301 C 
HETATM    4  O1  UNL     1       5.468   0.923   0.122  1.00  0.00    -0.258 OA
HETATM    5  N1  UNL     1       3.370   0.097  -0.612  1.00  0.00    -0.320 N 
ENDROOT
BRANCH   5   6
HETATM    6  C4  UNL     1       2.906   1.430  -0.806  1.00  0.00     0.127 C 
HETATM    7  C5  UNL     1       2.330   1.992   0.460  1.00  0.00     0.027 C 
ENDBRANCH   5   6
BRANCH   5   8
HETATM    8  C6  UNL     1       2.631  -1.068  -0.900  1.00  0.00     0.087 C 
BRANCH   8   9
HETATM    9  C7  UNL     1       1.807  -1.679   0.169  1.00  0.00     0.169 C 
BRANCH   9  10
HETATM   10  N2  UNL     1       0.713  -0.929   0.685  1.00  0.00    -0.338 N 
HETATM   11  C8  UNL     1      -0.409  -0.529  -0.116  1.00  0.00     0.316 C 
HETATM   12  O2  UNL     1      -0.471  -0.836  -1.341  1.00  0.00    -0.247 OA
HETATM   13  N3  UNL     1      -1.444   0.208   0.468  1.00  0.00    -0.339 N 
ATOM     14  H3  UNL     1      -1.396   0.456   1.456  1.00  0.00     0.164 HD
ATOM     15  H2  UNL     1       0.727  -0.663   1.670  1.00  0.00     0.164 HD
BRANCH  13  16
HETATM   16  C9  UNL     1      -2.591   0.624  -0.328  1.00  0.00     0.085 C 
HETATM   17  C10 UNL     1      -2.728   2.127  -0.227  1.00  0.00     0.032 C 
BRANCH  16  18
HETATM   18  C11 UNL     1      -3.819   0.001   0.302  1.00  0.00    -0.000 C 
HETATM   19  C12 UNL     1      -5.059   0.381  -0.461  1.00  0.00     0.011 C 
HETATM   20  C13 UNL     1      -3.691  -1.523   0.265  1.00  0.00     0.011 C 
ENDBRANCH  16  18
ENDBRANCH  13  16
ENDBRANCH   9  10
ENDBRANCH   8   9
ENDBRANCH   5   8
TORSDOF 6
