REMARK  2 active torsions:
REMARK  status: ('A' for Active; 'I' for Inactive)
REMARK    1  A    between atoms: N1_1  and  C1_5 
REMARK    2  A    between atoms: C1_5  and  C2_6 
ROOT
HETATM    1  C2  UNL     1       0.462   0.043  -0.219  1.00  0.00    -0.002 A 
HETATM    2  C3  UNL     1       1.606   0.704  -0.161  1.00  0.00     0.097 A 
HETATM    3  N2  UNL     1       2.282  -0.441   0.314  1.00  0.00    -0.374 N 
ATOM      4  H2  UNL     1       3.244  -0.647   0.582  1.00  0.00     0.164 HD
HETATM    5  C4  UNL     1       1.199  -1.113   0.272  1.00  0.00     0.097 A 
ENDROOT
BRANCH   1   6
HETATM    6  C1  UNL     1      -0.942   0.302  -0.598  1.00  0.00     0.270 C 
BRANCH   6   7
HETATM    7  N1  UNL     1      -1.868   0.079   0.499  1.00  0.00    -0.075 N 
ATOM      8  H13 UNL     1      -1.760  -0.859   0.885  1.00  0.00     0.274 HD
ATOM      9  H12 UNL     1      -1.603   0.625   1.319  1.00  0.00     0.274 HD
ATOM     10  H11 UNL     1      -2.837   0.258   0.237  1.00  0.00     0.274 HD
ENDBRANCH   6   7
ENDBRANCH   1   6
TORSDOF 2
