REMARK  1 active torsions:
REMARK  status: ('A' for Active; 'I' for Inactive)
REMARK    1  A    between atoms: N1_1  and  C1_4 
ROOT
HETATM    1  C1  UNL     1      -0.543  -0.396  -0.059  1.00  0.00     0.691 A 
HETATM    2  N2  UNL     1       0.592  -1.114  -0.125  1.00  0.00    -0.186 N 
ATOM      3  H2  UNL     1       0.661  -2.124  -0.247  1.00  0.00     0.185 HD
HETATM    4  C2  UNL     1       1.615  -0.259  -0.001  1.00  0.00     0.215 A 
HETATM    5  N3  UNL     1       1.102   0.962   0.139  1.00  0.00    -0.281 N 
ATOM      6  H3  UNL     1       1.640   1.821   0.255  1.00  0.00     0.188 HD
HETATM    7  N4  UNL     1      -0.198   0.882   0.104  1.00  0.00    -0.132 N 
ATOM      8  H4  UNL     1      -0.845   1.667   0.187  1.00  0.00     0.205 HD
ENDROOT
BRANCH   1   9
HETATM    9  N1  UNL     1      -1.748  -0.900  -0.143  1.00  0.00    -0.233 N 
ATOM     10  H12 UNL     1      -2.012  -1.877  -0.268  1.00  0.00     0.174 HD
ATOM     11  H11 UNL     1      -2.609  -0.355  -0.093  1.00  0.00     0.174 HD
ENDBRANCH   1   9
TORSDOF 1
