REMARK  1 active torsions:
REMARK  status: ('A' for Active; 'I' for Inactive)
REMARK    1  A    between atoms: C4_5  and  N2_6 
ROOT
HETATM    1  C1  UNL     1       2.871   0.491  -0.461  1.00  0.00     0.037 C 
HETATM    2  C2  UNL     1       1.782   0.140  -0.075  1.00  0.00    -0.001 C 
HETATM    3  N1  UNL     1       0.532  -0.283   0.385  1.00  0.00    -0.308 N 
HETATM    4  C3  UNL     1      -0.495  -1.285   0.593  1.00  0.00     0.190 A 
HETATM    5  C4  UNL     1      -0.769   0.064   1.069  1.00  0.00     0.310 A 
ENDROOT
BRANCH   5   6
HETATM    6  N2  UNL     1      -1.564   0.989   0.289  1.00  0.00    -0.056 N 
ATOM      7  H23 UNL     1      -1.033   1.828   0.057  1.00  0.00     0.276 HD
ATOM      8  H22 UNL     1      -1.725   0.634  -0.654  1.00  0.00     0.276 HD
ATOM      9  H21 UNL     1      -2.443   1.223   0.751  1.00  0.00     0.276 HD
ENDBRANCH   5   6
TORSDOF 1
