REMARK  7 active torsions:
REMARK  status: ('A' for Active; 'I' for Inactive)
REMARK    1  A    between atoms: C2_2  and  N1_3 
REMARK    2  A    between atoms: N1_3  and  C3_5 
REMARK    3  A    between atoms: C4_8  and  N3_9 
REMARK    4  A    between atoms: C8_13  and  N4_14 
REMARK    5  A    between atoms: C10_21  and  N6_22 
REMARK    6  A    between atoms: N6_22  and  C11_24 
REMARK    7  A    between atoms: C11_24  and  C13_26 
ROOT
HETATM    1  C3  UNL     1      -1.692   2.111   0.613  1.00  0.00     0.707 A 
HETATM    2  N2  UNL     1      -0.382   1.847   0.520  1.00  0.00    -0.021 N 
ATOM      3  H2  UNL     1       0.303   2.581   0.702  1.00  0.00     0.203 HD
HETATM    4  C4  UNL     1       0.033   0.588   0.180  1.00  0.00     0.709 A 
HETATM    5  N5  UNL     1      -0.927  -0.315  -0.041  1.00  0.00    -0.021 N 
ATOM      6  H5  UNL     1      -0.645  -1.261  -0.296  1.00  0.00     0.203 HD
HETATM    7  C10 UNL     1      -2.241  -0.052   0.052  1.00  0.00     0.707 A 
HETATM    8  N7  UNL     1      -2.638   1.189   0.386  1.00  0.00    -0.022 N 
ATOM      9  H7  UNL     1      -3.628   1.421   0.464  1.00  0.00     0.203 HD
ENDROOT
BRANCH   4  10
HETATM   10  N3  UNL     1       1.421   0.288   0.077  1.00  0.00    -0.215 N 
HETATM   11  C5  UNL     1       2.086  -0.181   1.278  1.00  0.00     0.141 C 
HETATM   12  C6  UNL     1       2.638  -1.566   0.923  1.00  0.00     0.022 C 
HETATM   13  C7  UNL     1       3.724  -1.297  -0.111  1.00  0.00     0.036 C 
HETATM   14  C8  UNL     1       3.144  -0.719  -1.355  1.00  0.00     0.202 C 
HETATM   15  C9  UNL     1       2.193   0.417  -1.122  1.00  0.00     0.173 C 
BRANCH  14  16
HETATM   16  N4  UNL     1       4.271  -0.242  -2.170  1.00  0.00    -0.073 N 
ATOM     17  H43 UNL     1       4.880   0.407  -1.672  1.00  0.00     0.274 HD
ATOM     18  H42 UNL     1       4.970  -0.963  -2.350  1.00  0.00     0.274 HD
ATOM     19  H41 UNL     1       3.874   0.154  -3.022  1.00  0.00     0.274 HD
ENDBRANCH  14  16
ENDBRANCH   4  10
BRANCH   1  20
HETATM   20  N1  UNL     1      -2.064   3.296   0.932  1.00  0.00    -0.225 N 
ATOM     21  H1  UNL     1      -3.061   3.498   1.002  1.00  0.00     0.177 HD
BRANCH  20  22
HETATM   22  C2  UNL     1      -1.117   4.355   1.196  1.00  0.00     0.133 C 
HETATM   23  C1  UNL     1      -0.597   4.885  -0.140  1.00  0.00     0.027 C 
ENDBRANCH  20  22
ENDBRANCH   1  20
BRANCH   7  24
HETATM   24  N6  UNL     1      -3.084  -0.980  -0.178  1.00  0.00    -0.220 N 
ATOM     25  H6  UNL     1      -4.083  -0.787  -0.109  1.00  0.00     0.178 HD
BRANCH  24  26
HETATM   26  C11 UNL     1      -2.630  -2.308  -0.537  1.00  0.00     0.105 C 
HETATM   27  C12 UNL     1      -3.716  -2.973  -1.314  1.00  0.00     0.033 C 
BRANCH  26  28
HETATM   28  C13 UNL     1      -2.302  -3.034   0.749  1.00  0.00     0.111 C 
HETATM   29  S1  UNL     1      -1.719  -4.710   0.481  1.00  0.00    -0.096 SA
ENDBRANCH  26  28
ENDBRANCH  24  26
ENDBRANCH   7  24
TORSDOF 7
