REMARK  6 active torsions:
REMARK  status: ('A' for Active; 'I' for Inactive)
REMARK    1  A    between atoms: C1_2  and  C2_4 
REMARK    2  A    between atoms: C5_9  and  C6_10 
REMARK       I    between atoms: C6_10  and  N3_12 
REMARK    3  A    between atoms: N3_12  and  N4_14 
REMARK       I    between atoms: N4_14  and  C7_16 
REMARK    4  A    between atoms: C7_16  and  C8_18 
REMARK    5  A    between atoms: C8_18  and  N5_19 
REMARK    6  A    between atoms: C8_18  and  C9_23 
ROOT
HETATM    1  C6  UNL     1       0.410  -0.905   0.770  1.00  0.00     0.272 C 
HETATM    2  O2  UNL     1       0.156  -0.964   1.998  1.00  0.00    -0.266 OA
HETATM    3  N3  UNL     1      -0.632  -0.622  -0.148  1.00  0.00    -0.263 N 
ATOM      4  H3  UNL     1      -0.432  -0.569  -1.147  1.00  0.00     0.190 HD
ENDROOT
BRANCH   3   5
HETATM    5  N4  UNL     1      -1.943  -0.414   0.321  1.00  0.00    -0.265 N 
HETATM    6  C7  UNL     1      -2.901   0.210  -0.499  1.00  0.00     0.274 C 
HETATM    7  O3  UNL     1      -2.562   0.586  -1.671  1.00  0.00    -0.269 OA
ATOM      8  H4  UNL     1      -2.200  -0.717   1.260  1.00  0.00     0.190 HD
BRANCH   6   9
HETATM    9  C8  UNL     1      -4.308   0.486  -0.139  1.00  0.00     0.364 C 
BRANCH   9  10
HETATM   10  N5  UNL     1      -4.711  -0.228   1.020  1.00  0.00    -0.059 N 
ATOM     11  H53 UNL     1      -4.546  -1.229   0.914  1.00  0.00     0.275 HD
ATOM     12  H52 UNL     1      -4.085  -0.044   1.804  1.00  0.00     0.275 HD
ATOM     13  H51 UNL     1      -5.682  -0.038   1.268  1.00  0.00     0.275 HD
ENDBRANCH   9  10
BRANCH   9  14
HETATM   14  C9  UNL     1      -4.528   1.978   0.096  1.00  0.00     0.356 C 
HETATM   15  F1  UNL     1      -5.850   2.242   0.418  1.00  0.00    -0.185 F 
HETATM   16  F2  UNL     1      -3.813   2.304   1.257  1.00  0.00    -0.185 F 
HETATM   17 CL1  UNL     1      -4.049   2.958  -1.268  1.00  0.00    -0.045 Cl
ENDBRANCH   9  14
ENDBRANCH   6   9
ENDBRANCH   3   5
BRANCH   1  18
HETATM   18  C5  UNL     1       1.783  -1.133   0.346  1.00  0.00     0.059 A 
HETATM   19  C4  UNL     1       2.185  -2.429   0.070  1.00  0.00     0.036 A 
HETATM   20  C3  UNL     1       3.489  -2.672  -0.314  1.00  0.00     0.089 A 
HETATM   21  N2  UNL     1       4.382  -1.671  -0.425  1.00  0.00    -0.360 N 
HETATM   22  C2  UNL     1       4.041  -0.388  -0.168  1.00  0.00     0.120 A 
ATOM     23  H2  UNL     1       5.338  -1.885  -0.709  1.00  0.00     0.165 HD
HETATM   24  C10 UNL     1       2.739  -0.143   0.215  1.00  0.00     0.081 A 
HETATM   25 CL2  UNL     1       2.264   1.494   0.548  1.00  0.00    -0.081 Cl
BRANCH  22  26
HETATM   26  C1  UNL     1       5.064   0.623  -0.285  1.00  0.00     0.283 C 
HETATM   27  N1  UNL     1       4.774   1.995  -0.105  1.00  0.00    -0.056 NA
HETATM   28  O1  UNL     1       6.237   0.297  -0.549  1.00  0.00    -0.269 OA
ENDBRANCH  22  26
ENDBRANCH   1  18
TORSDOF 6
