REMARK  15 active torsions:
REMARK  status: ('A' for Active; 'I' for Inactive)
REMARK    1  A    between atoms: C2_2  and  N1_3 
REMARK    2  A    between atoms: C2_2  and  C17_22 
REMARK    3  A    between atoms: N1_3  and  C3_5 
REMARK    4  A    between atoms: C3_5  and  C4_6 
REMARK    5  A    between atoms: C4_6  and  N2_7 
REMARK    6  A    between atoms: N2_7  and  C7_10 
REMARK    7  A    between atoms: C7_10  and  C8_11 
REMARK    8  A    between atoms: C9_12  and  C10_13 
REMARK    9  A    between atoms: C11_14  and  C12_15 
REMARK   10  A    between atoms: C17_22  and  N3_24 
REMARK   11  A    between atoms: N3_24  and  C18_26 
REMARK   12  A    between atoms: C18_26  and  C19_27 
REMARK   13  A    between atoms: C19_27  and  C20_28 
REMARK   14  A    between atoms: C20_28  and  C21_29 
REMARK   15  A    between atoms: C21_29  and  N4_30 
ROOT
HETATM    1  C3  UNL     1      -1.026  -1.216   0.791  1.00  0.00     0.147 C 
ENDROOT
BRANCH   1   2
HETATM    2  N1  UNL     1      -1.923  -0.280   0.203  1.00  0.00    -0.389 N 
ATOM      3  H1  UNL     1      -1.974   0.689   0.517  1.00  0.00     0.159 HD
BRANCH   2   4
HETATM    4  C2  UNL     1      -2.731  -0.767  -0.832  1.00  0.00     0.039 C 
HETATM    5  C1  UNL     1      -3.682  -1.847  -0.334  1.00  0.00     0.071 C 
BRANCH   4   6
HETATM    6  C17 UNL     1      -3.308   0.171  -1.781  1.00  0.00     0.118 C 
HETATM    7  S1  UNL     1      -2.280   0.618  -3.058  1.00  0.00    -0.059 SA
BRANCH   6   8
HETATM    8  N3  UNL     1      -4.568   0.752  -1.786  1.00  0.00    -0.379 N 
ATOM      9  H3  UNL     1      -4.752   1.375  -2.573  1.00  0.00     0.160 HD
BRANCH   8  10
HETATM   10  C18 UNL     1      -5.640   0.615  -0.868  1.00  0.00     0.120 C 
BRANCH  10  11
HETATM   11  C19 UNL     1      -5.394   1.342   0.410  1.00  0.00     0.021 C 
BRANCH  11  12
HETATM   12  C20 UNL     1      -6.570   1.151   1.358  1.00  0.00     0.029 C 
BRANCH  12  13
HETATM   13  C21 UNL     1      -7.840   1.659   0.781  1.00  0.00     0.229 C 
BRANCH  13  14
HETATM   14  N4  UNL     1      -8.906   1.436   1.780  1.00  0.00    -0.079 N 
ATOM     15  H43 UNL     1      -8.969   0.464   2.083  1.00  0.00     0.274 HD
ATOM     16  H42 UNL     1      -8.691   1.847   2.689  1.00  0.00     0.274 HD
ATOM     17  H41 UNL     1      -9.779   1.785   1.384  1.00  0.00     0.274 HD
ENDBRANCH  13  14
ENDBRANCH  12  13
ENDBRANCH  11  12
ENDBRANCH  10  11
ENDBRANCH   8  10
ENDBRANCH   6   8
ENDBRANCH   4   6
ENDBRANCH   2   4
ENDBRANCH   1   2
BRANCH   1  18
HETATM   18  C4  UNL     1       0.122  -1.544  -0.095  1.00  0.00     0.257 C 
BRANCH  18  19
HETATM   19  N2  UNL     1       1.032  -2.529   0.464  1.00  0.00    -0.063 N 
HETATM   20  C5  UNL     1       1.931  -2.937  -0.582  1.00  0.00     0.273 C 
HETATM   21  C6  UNL     1       0.298  -3.725   0.866  1.00  0.00     0.273 C 
BRANCH  19  22
HETATM   22  C7  UNL     1       1.735  -1.978   1.592  1.00  0.00     0.330 C 
BRANCH  22  23
HETATM   23  C8  UNL     1       2.784  -1.075   1.101  1.00  0.00    -0.065 C 
HETATM   24  C9  UNL     1       3.661  -0.336   0.726  1.00  0.00    -0.013 C 
BRANCH  24  25
HETATM   25  C10 UNL     1       4.712   0.527   0.313  1.00  0.00    -0.015 C 
HETATM   26  C11 UNL     1       5.611   1.261  -0.011  1.00  0.00    -0.087 C 
BRANCH  26  27
HETATM   27  C12 UNL     1       6.724   2.133  -0.387  1.00  0.00     0.072 C 
HETATM   28  C13 UNL     1       7.693   1.338  -1.193  1.00  0.00     0.023 C 
HETATM   29  C14 UNL     1       8.970   2.151  -1.054  1.00  0.00     0.080 C 
HETATM   30  C15 UNL     1       8.836   2.966   0.201  1.00  0.00     0.244 C 
HETATM   31  F1  UNL     1       8.653   4.295  -0.120  1.00  0.00    -0.206 F 
HETATM   32  F2  UNL     1       9.913   2.814   1.054  1.00  0.00    -0.206 F 
HETATM   33  C16 UNL     1       7.550   2.498   0.846  1.00  0.00     0.096 C 
ENDBRANCH  26  27
ENDBRANCH  24  25
ENDBRANCH  22  23
ENDBRANCH  19  22
ENDBRANCH  18  19
ENDBRANCH   1  18
TORSDOF 15
