REMARK  3 active torsions:
REMARK  status: ('A' for Active; 'I' for Inactive)
REMARK    1  A    between atoms: C6_8  and  C7_9 
REMARK    2  A    between atoms: C7_9  and  N1_10 
REMARK    3  A    between atoms: N1_10  and  C8_13 
ROOT
HETATM    1 CL1  UNL     1      -2.497   2.814   0.985  1.00  0.00    -0.101 Cl
HETATM    2  C1  UNL     1      -2.393   1.342   0.008  1.00  0.00     0.118 C 
HETATM    3 CL2  UNL     1      -2.222   1.766  -1.701  1.00  0.00    -0.101 Cl
HETATM    4  C2  UNL     1      -3.542   0.377   0.185  1.00  0.00     0.047 C 
HETATM    5  C3  UNL     1      -2.511  -0.721   0.327  1.00  0.00    -0.004 C 
HETATM    6  C4  UNL     1      -2.229  -1.449  -0.960  1.00  0.00     0.005 C 
HETATM    7  C5  UNL     1      -0.741  -1.318  -1.087  1.00  0.00     0.007 C 
HETATM    8  C6  UNL     1      -0.351   0.018  -0.487  1.00  0.00     0.018 C 
HETATM    9  C11 UNL     1      -1.421   0.299   0.516  1.00  0.00     0.034 C 
ENDROOT
BRANCH   8  10
HETATM   10  C7  UNL     1       1.026  -0.133   0.100  1.00  0.00     0.237 C 
BRANCH  10  11
HETATM   11  N1  UNL     1       1.542   1.080   0.677  1.00  0.00    -0.070 N 
ATOM     12  H12 UNL     1       1.458   1.882   0.052  1.00  0.00     0.277 HD
ATOM     13  H11 UNL     1       0.959   1.436   1.434  1.00  0.00     0.277 HD
BRANCH  11  14
HETATM   14  C8  UNL     1       2.913   0.830   1.091  1.00  0.00     0.186 A 
HETATM   15  C9  UNL     1       3.968   0.593   0.027  1.00  0.00     0.035 A 
HETATM   16  C10 UNL     1       3.536  -0.498   0.922  1.00  0.00     0.035 A 
ENDBRANCH  11  14
ENDBRANCH  10  11
ENDBRANCH   8  10
TORSDOF 3
