REMARK  7 active torsions:
REMARK  status: ('A' for Active; 'I' for Inactive)
REMARK    1  A    between atoms: N1_1  and  C1_5 
REMARK    2  A    between atoms: C1_5  and  C2_6 
REMARK    3  A    between atoms: C3_7  and  C4_8 
REMARK    4  A    between atoms: N3_14  and  C7_15 
REMARK    5  A    between atoms: C7_15  and  C8_16 
REMARK    6  A    between atoms: C8_16  and  N4_17 
REMARK    7  A    between atoms: N4_17  and  C9_19 
ROOT
HETATM    1  C4  UNL     1      -1.972  -0.430   0.907  1.00  0.00     0.127 C 
HETATM    2  C5  UNL     1      -2.717  -1.636   0.494  1.00  0.00     0.151 C 
HETATM    3  N2  UNL     1      -1.713  -2.691   0.354  1.00  0.00    -0.365 N 
ATOM      4  H2  UNL     1      -1.855  -3.698   0.436  1.00  0.00     0.161 HD
HETATM    5  C6  UNL     1      -0.488  -2.003   0.076  1.00  0.00     0.170 C 
HETATM    6  S1  UNL     1       0.712  -2.510  -0.886  1.00  0.00    -0.041 SA
HETATM    7  N3  UNL     1      -0.536  -0.802   0.816  1.00  0.00    -0.347 N 
ENDROOT
BRANCH   7   8
HETATM    8  C7  UNL     1       0.430   0.005   1.477  1.00  0.00     0.145 C 
BRANCH   8   9
HETATM    9  C8  UNL     1       1.869  -0.229   1.284  1.00  0.00     0.141 C 
BRANCH   9  10
HETATM   10  N4  UNL     1       2.258   0.027  -0.071  1.00  0.00    -0.375 N 
ATOM     11  H4  UNL     1       1.515   0.052  -0.769  1.00  0.00     0.161 HD
BRANCH  10  12
HETATM   12  C9  UNL     1       3.463   0.229  -0.491  1.00  0.00     0.100 A 
HETATM   13  C10 UNL     1       4.495   0.208   0.389  1.00  0.00     0.048 A 
HETATM   14  C11 UNL     1       5.811   0.425  -0.030  1.00  0.00     0.005 A 
HETATM   15  C12 UNL     1       6.064   0.664  -1.358  1.00  0.00     0.017 A 
HETATM   16  C13 UNL     1       4.981   0.675  -2.209  1.00  0.00     0.089 A 
HETATM   17  N5  UNL     1       3.737   0.464  -1.780  1.00  0.00    -0.353 N 
ATOM     18  H5  UNL     1       2.971   0.482  -2.454  1.00  0.00     0.166 HD
ENDBRANCH  10  12
ENDBRANCH   9  10
ENDBRANCH   8   9
ENDBRANCH   7   8
BRANCH   1  19
HETATM   19  C3  UNL     1      -2.226   0.818   0.166  1.00  0.00    -0.003 C 
HETATM   20  C2  UNL     1      -3.473   1.543   0.126  1.00  0.00    -0.002 C 
BRANCH  20  21
HETATM   21  C1  UNL     1      -4.780   1.056  -0.299  1.00  0.00     0.256 C 
BRANCH  21  22
HETATM   22  N1  UNL     1      -5.381   0.064   0.528  1.00  0.00    -0.076 N 
ATOM     23  H13 UNL     1      -4.741  -0.722   0.644  1.00  0.00     0.274 HD
ATOM     24  H12 UNL     1      -5.435   0.402   1.489  1.00  0.00     0.274 HD
ATOM     25  H11 UNL     1      -6.295  -0.277   0.231  1.00  0.00     0.274 HD
ENDBRANCH  21  22
ENDBRANCH  20  21
ENDBRANCH   1  19
TORSDOF 7
