REMARK  9 active torsions:
REMARK  status: ('A' for Active; 'I' for Inactive)
REMARK    1  A    between atoms: N1_2  and  C2_4 
REMARK    2  A    between atoms: C4_10  and  N4_11 
REMARK    3  A    between atoms: N5_14  and  C7_15 
REMARK    4  A    between atoms: C7_15  and  C8_16 
REMARK    5  A    between atoms: C8_16  and  O1_17 
REMARK    6  A    between atoms: C11_23  and  N7_24 
REMARK    7  A    between atoms: N7_24  and  N8_26 
REMARK    8  A    between atoms: C12_28  and  C14_30 
REMARK    9  A    between atoms: C14_30  and  C15_31 
ROOT
HETATM    1  C2  UNL     1       0.528   4.847  -0.357  1.00  0.00     0.146 A 
HETATM    2  N2  UNL     1       1.594   4.060  -0.291  1.00  0.00    -0.321 N 
ATOM      3  H2  UNL     1       2.504   4.441  -0.033  1.00  0.00     0.169 HD
HETATM    4  C3  UNL     1       1.458   2.789  -0.562  1.00  0.00     0.144 A 
HETATM    5  N3  UNL     1       2.425   1.816  -0.553  1.00  0.00    -0.175 N 
ATOM      6  H3  UNL     1       3.378   2.086  -0.308  1.00  0.00     0.186 HD
HETATM    7  C4  UNL     1       2.188   0.540  -0.846  1.00  0.00     0.683 A 
HETATM    8  N6  UNL     1       0.960   0.087  -1.182  1.00  0.00    -0.174 N 
ATOM      9  H6  UNL     1       0.794  -0.895  -1.404  1.00  0.00     0.186 HD
HETATM   10  C11 UNL     1      -0.031   0.992  -1.210  1.00  0.00     0.156 A 
HETATM   11  C22 UNL     1       0.212   2.339  -0.902  1.00  0.00     0.099 A 
HETATM   12  S1  UNL     1      -0.718   3.768  -0.817  1.00  0.00    -0.047 SA
ENDROOT
BRANCH  10  13
HETATM   13  N7  UNL     1      -1.233   0.676  -1.513  1.00  0.00    -0.284 N 
ATOM     14  H7  UNL     1      -1.386  -0.309  -1.732  1.00  0.00     0.188 HD
BRANCH  13  15
HETATM   15  N8  UNL     1      -2.340   1.471  -1.585  1.00  0.00    -0.307 N 
HETATM   16  C12 UNL     1      -3.295   1.520  -0.736  1.00  0.00     0.004 C 
HETATM   17  C13 UNL     1      -4.416   2.446  -0.982  1.00  0.00     0.065 C 
ATOM     18  H8  UNL     1      -2.413   2.086  -2.395  1.00  0.00     0.186 HD
BRANCH  16  19
HETATM   19  C14 UNL     1      -3.269   0.677   0.451  1.00  0.00     0.087 C 
BRANCH  19  20
HETATM   20  C15 UNL     1      -4.405  -0.255   0.568  1.00  0.00    -0.078 C 
HETATM   21  C16 UNL     1      -5.139  -0.075   1.663  1.00  0.00    -0.024 C 
HETATM   22  C17 UNL     1      -6.338  -0.757   2.181  1.00  0.00     0.027 C 
HETATM   23  C18 UNL     1      -6.234  -2.262   2.112  1.00  0.00     0.004 C 
HETATM   24  C19 UNL     1      -6.389  -2.649   0.653  1.00  0.00     0.001 C 
HETATM   25  C20 UNL     1      -5.003  -2.621   0.050  1.00  0.00     0.004 C 
HETATM   26  C21 UNL     1      -4.629  -1.263  -0.485  1.00  0.00     0.034 C 
ENDBRANCH  19  20
ENDBRANCH  16  19
ENDBRANCH  13  15
ENDBRANCH  10  13
BRANCH   7  27
HETATM   27  N4  UNL     1       3.275  -0.421  -0.818  1.00  0.00    -0.214 N 
HETATM   28  C5  UNL     1       2.966  -1.804  -1.097  1.00  0.00     0.161 C 
HETATM   29  C6  UNL     1       4.006  -2.661  -0.363  1.00  0.00     0.142 C 
HETATM   30  N5  UNL     1       5.307  -2.377  -0.855  1.00  0.00    -0.388 N 
HETATM   31  C9  UNL     1       5.664  -1.011  -0.962  1.00  0.00     0.142 C 
HETATM   32  C10 UNL     1       4.604  -0.026  -0.529  1.00  0.00     0.161 C 
BRANCH  30  33
HETATM   33  C7  UNL     1       6.332  -3.310  -0.599  1.00  0.00     0.084 C 
BRANCH  33  34
HETATM   34  C8  UNL     1       6.717  -3.391   0.854  1.00  0.00     0.208 C 
BRANCH  34  35
HETATM   35  O1  UNL     1       5.666  -3.771   1.650  1.00  0.00    -0.396 OA
ATOM     36  H1  UNL     1       5.909  -3.822   2.567  1.00  0.00     0.209 HD
ENDBRANCH  34  35
ENDBRANCH  33  34
ENDBRANCH  30  33
ENDBRANCH   7  27
BRANCH   1  37
HETATM   37  N1  UNL     1       0.452   6.138  -0.124  1.00  0.00    -0.375 N 
HETATM   38  C1  UNL     1       1.663   6.820   0.255  1.00  0.00     0.148 C 
ATOM     39  H1  UNL     1      -0.432   6.639  -0.208  1.00  0.00     0.161 HD
ENDBRANCH   1  37
TORSDOF 9
