REMARK  9 active torsions:
REMARK  status: ('A' for Active; 'I' for Inactive)
REMARK    1  A    between atoms: C4_4  and  N1_5 
REMARK    2  A    between atoms: N1_5  and  C5_7 
REMARK    3  A    between atoms: C5_7  and  C6_8 
REMARK    4  A    between atoms: C6_8  and  C7_9 
REMARK    5  A    between atoms: C7_9  and  N2_10 
REMARK    6  A    between atoms: C8_16  and  N4_17 
REMARK    7  A    between atoms: N4_17  and  C9_19 
REMARK    8  A    between atoms: C9_19  and  C10_20 
REMARK    9  A    between atoms: C10_20  and  C11_21 
ROOT
HETATM    1  C1  UNL     1      -0.074  -3.633  -0.553  1.00  0.00     0.069 C 
HETATM    2  C2  UNL     1       0.515  -2.383   0.036  1.00  0.00     0.026 A 
HETATM    3  C3  UNL     1       1.876  -2.266   0.232  1.00  0.00     0.073 A 
HETATM    4  C4  UNL     1       2.412  -1.113   0.775  1.00  0.00     0.118 A 
HETATM    5  N3  UNL     1       1.558  -0.130   1.096  1.00  0.00    -0.177 N 
ATOM      6  H3  UNL     1       1.941   0.726   1.497  1.00  0.00     0.185 HD
HETATM    7  C8  UNL     1       0.226  -0.206   0.921  1.00  0.00     0.679 A 
HETATM    8  N5  UNL     1      -0.261  -1.339   0.392  1.00  0.00    -0.196 N 
ATOM      9  H5  UNL     1      -1.269  -1.414   0.252  1.00  0.00     0.184 HD
ENDROOT
BRANCH   7  10
HETATM   10  N4  UNL     1      -0.550   0.795   1.259  1.00  0.00    -0.226 N 
ATOM     11  H4  UNL     1      -0.125   1.632   1.658  1.00  0.00     0.177 HD
BRANCH  10  12
HETATM   12  C9  UNL     1      -1.969   0.758   1.090  1.00  0.00     0.142 C 
BRANCH  12  13
HETATM   13  C10 UNL     1      -2.415   1.128  -0.312  1.00  0.00     0.058 C 
BRANCH  13  14
HETATM   14  C11 UNL     1      -3.899   1.044  -0.329  1.00  0.00    -0.057 A 
HETATM   15  C12 UNL     1      -4.570  -0.109  -0.651  1.00  0.00     0.007 A 
HETATM   16  C13 UNL     1      -5.966  -0.166  -0.660  1.00  0.00     0.001 A 
HETATM   17  C14 UNL     1      -6.658   0.976  -0.334  1.00  0.00     0.000 A 
HETATM   18  C15 UNL     1      -6.011   2.147  -0.006  1.00  0.00     0.001 A 
HETATM   19  C16 UNL     1      -4.630   2.180  -0.004  1.00  0.00     0.007 A 
ENDBRANCH  13  14
ENDBRANCH  12  13
ENDBRANCH  10  12
ENDBRANCH   7  10
BRANCH   4  20
HETATM   20  N1  UNL     1       3.675  -1.067   0.930  1.00  0.00    -0.376 N 
ATOM     21  H1  UNL     1       4.213  -1.885   0.644  1.00  0.00     0.161 HD
BRANCH  20  22
HETATM   22  C5  UNL     1       4.407   0.051   1.479  1.00  0.00     0.123 C 
BRANCH  22  23
HETATM   23  C6  UNL     1       4.748   1.076   0.430  1.00  0.00     0.047 C 
BRANCH  23  24
HETATM   24  C7  UNL     1       5.604   0.486  -0.672  1.00  0.00     0.231 C 
BRANCH  24  25
HETATM   25  N2  UNL     1       5.934   1.457  -1.678  1.00  0.00    -0.079 N 
ATOM     26  H23 UNL     1       5.095   1.897  -2.057  1.00  0.00     0.274 HD
ATOM     27  H22 UNL     1       6.376   2.279  -1.267  1.00  0.00     0.274 HD
ATOM     28  H21 UNL     1       6.510   1.060  -2.420  1.00  0.00     0.274 HD
ENDBRANCH  24  25
ENDBRANCH  23  24
ENDBRANCH  22  23
ENDBRANCH  20  22
ENDBRANCH   4  20
TORSDOF 9
