REMARK  13 active torsions:
REMARK  status: ('A' for Active; 'I' for Inactive)
REMARK    1  A    between atoms: C2_2  and  C4_4 
REMARK    2  A    between atoms: C4_4  and  C5_5 
REMARK    3  A    between atoms: C8_8  and  C9_9 
REMARK    4  A    between atoms: C9_9  and  C10_10 
REMARK    5  A    between atoms: C10_10  and  C11_11 
REMARK    6  A    between atoms: C11_11  and  C12_12 
REMARK    7  A    between atoms: C12_12  and  C13_13 
REMARK    8  A    between atoms: C13_13  and  C14_14 
REMARK    9  A    between atoms: C14_14  and  N1_15 
REMARK   10  A    between atoms: C16_17  and  C17_18 
REMARK   11  A    between atoms: C19_22  and  N3_23 
REMARK   12  A    between atoms: N3_23  and  C20_25 
REMARK   13  A    between atoms: C20_25  and  C21_26 
ROOT
HETATM    1  N1  UNL     1       2.782   0.366  -1.570  1.00  0.00    -0.301 N 
HETATM    2  C15 UNL     1       3.192   0.651  -2.817  1.00  0.00     0.126 A 
HETATM    3  C16 UNL     1       4.526   0.612  -3.127  1.00  0.00     0.050 A 
HETATM    4  C18 UNL     1       5.436   0.273  -2.123  1.00  0.00     0.068 A 
HETATM    5  C19 UNL     1       4.976  -0.011  -0.862  1.00  0.00     0.120 A 
HETATM    6  N6  UNL     1       3.659   0.047  -0.635  1.00  0.00    -0.284 N 
ATOM      7  H6  UNL     1       3.317  -0.165   0.302  1.00  0.00     0.188 HD
ENDROOT
BRANCH   1   8
HETATM    8  C14 UNL     1       1.350   0.425  -1.310  1.00  0.00     0.148 C 
BRANCH   8   9
HETATM    9  C13 UNL     1       0.688  -0.901  -1.556  1.00  0.00     0.022 C 
BRANCH   9  10
HETATM   10  C12 UNL     1      -0.786  -0.783  -1.295  1.00  0.00     0.002 C 
BRANCH  10  11
HETATM   11  C11 UNL     1      -1.025  -0.376   0.116  1.00  0.00     0.000 C 
BRANCH  11  12
HETATM   12  C10 UNL     1      -2.504  -0.264   0.445  1.00  0.00     0.006 C 
BRANCH  12  13
HETATM   13  C9  UNL     1      -3.248  -1.564   0.255  1.00  0.00     0.057 C 
BRANCH  13  14
HETATM   14  C8  UNL     1      -4.668  -1.304   0.614  1.00  0.00     0.010 A 
HETATM   15  C7  UNL     1      -5.659  -0.887  -0.233  1.00  0.00     0.038 A 
HETATM   16  C6  UNL     1      -6.860  -0.758   0.486  1.00  0.00    -0.012 A 
HETATM   17  C5  UNL     1      -7.958  -0.369  -0.096  1.00  0.00    -0.009 C 
HETATM   18  C25 UNL     1      -6.574  -1.099   1.764  1.00  0.00     0.033 A 
HETATM   19  N7  UNL     1      -5.240  -1.425   1.809  1.00  0.00    -0.360 N 
HETATM   20  C26 UNL     1      -7.366  -1.131   2.833  1.00  0.00     0.044 C 
ATOM     21  H7  UNL     1      -4.750  -1.722   2.653  1.00  0.00     0.166 HD
BRANCH  17  22
HETATM   22  C4  UNL     1      -9.301  -0.170   0.449  1.00  0.00     0.061 C 
BRANCH  22  23
HETATM   23  C2  UNL     1      -9.501   1.204   1.006  1.00  0.00    -0.090 C 
HETATM   24  C1  UNL     1      -8.518   2.084   0.957  1.00  0.00     0.014 C 
HETATM   25  C3  UNL     1     -10.784   1.600   1.618  1.00  0.00     0.043 C 
ENDBRANCH  22  23
ENDBRANCH  17  22
ENDBRANCH  13  14
ENDBRANCH  12  13
ENDBRANCH  11  12
ENDBRANCH  10  11
ENDBRANCH   9  10
ENDBRANCH   8   9
ENDBRANCH   1   8
BRANCH   3  26
HETATM   26  C17 UNL     1       4.975   0.917  -4.465  1.00  0.00     0.266 C 
HETATM   27  N2  UNL     1       6.364   0.872  -4.757  1.00  0.00    -0.057 NA
HETATM   28  O1  UNL     1       4.165   1.219  -5.370  1.00  0.00    -0.271 OA
ENDBRANCH   3  26
BRANCH   5  29
HETATM   29  N3  UNL     1       5.922  -0.354   0.139  1.00  0.00    -0.349 N 
ATOM     30  H3  UNL     1       5.586  -0.566   1.078  1.00  0.00     0.167 HD
BRANCH  29  31
HETATM   31  C20 UNL     1       7.316  -0.414  -0.114  1.00  0.00     0.125 C 
BRANCH  31  32
HETATM   32  C21 UNL     1       8.201  -0.074   0.836  1.00  0.00     0.118 A 
HETATM   33  N4  UNL     1       7.930   0.345   2.081  1.00  0.00    -0.338 N 
HETATM   34  C22 UNL     1       9.086   0.582   2.716  1.00  0.00     0.098 A 
ATOM     35  H4  UNL     1       6.998   0.464   2.479  1.00  0.00     0.167 HD
HETATM   36  C23 UNL     1       9.254   1.010   3.962  1.00  0.00     0.063 C 
HETATM   37  N5  UNL     1      10.103   0.315   1.879  1.00  0.00    -0.308 N 
HETATM   38  C24 UNL     1       9.571  -0.090   0.717  1.00  0.00     0.275 A 
ATOM     39  H5  UNL     1      11.097   0.404   2.089  1.00  0.00     0.170 HD
HETATM   40  O2  UNL     1      10.245  -0.422  -0.293  1.00  0.00    -0.266 OA
ENDBRANCH  31  32
ENDBRANCH  29  31
ENDBRANCH   5  29
TORSDOF 13
