REMARK  12 active torsions:
REMARK  status: ('A' for Active; 'I' for Inactive)
REMARK    1  A    between atoms: C1_4  and  C2_6 
REMARK    2  A    between atoms: N3_9  and  C5_10 
REMARK    3  A    between atoms: C5_10  and  C6_11 
REMARK    4  A    between atoms: C6_11  and  C7_12 
REMARK    5  A    between atoms: C7_12  and  C8_13 
REMARK    6  A    between atoms: N4_17  and  C12_18 
REMARK    7  A    between atoms: C12_18  and  C13_19 
REMARK    8  A    between atoms: C13_19  and  C14_20 
REMARK    9  A    between atoms: C14_20  and  C15_21 
REMARK   10  A    between atoms: C15_21  and  N5_22 
REMARK   11  A    between atoms: C18_25  and  N6_26 
REMARK   12  A    between atoms: N6_26  and  C19_28 
ROOT
HETATM    1  C13 UNL     1      -1.073   1.644  -0.854  1.00  0.00     0.022 C 
ENDROOT
BRANCH   1   2
HETATM    2  C12 UNL     1      -0.727   1.424   0.596  1.00  0.00     0.128 C 
BRANCH   2   3
HETATM    3  N4  UNL     1      -0.235   0.053   0.716  1.00  0.00    -0.366 N 
HETATM    4  C11 UNL     1      -1.137  -0.912   0.976  1.00  0.00     0.090 A 
HETATM    5  C10 UNL     1      -0.728  -2.244   1.101  1.00  0.00     0.018 A 
HETATM    6  C9  UNL     1       0.626  -2.502   0.946  1.00  0.00     0.010 A 
HETATM    7  C8  UNL     1       1.533  -1.498   0.681  1.00  0.00    -0.043 A 
HETATM    8  C24 UNL     1       1.085  -0.210   0.567  1.00  0.00     0.097 A 
BRANCH   7   9
HETATM    9  C7  UNL     1       2.969  -1.881   0.532  1.00  0.00     0.041 C 
BRANCH   9  10
HETATM   10  C6  UNL     1       3.612  -1.803   1.901  1.00  0.00     0.025 C 
BRANCH  10  11
HETATM   11  C5  UNL     1       5.054  -2.162   1.908  1.00  0.00     0.128 C 
BRANCH  11  12
HETATM   12  N3  UNL     1       5.898  -1.355   1.095  1.00  0.00    -0.366 N 
HETATM   13  C4  UNL     1       6.502  -0.244   1.531  1.00  0.00     0.091 A 
HETATM   14  C3  UNL     1       7.319   0.523   0.720  1.00  0.00     0.032 A 
HETATM   15  C2  UNL     1       7.555   0.178  -0.596  1.00  0.00     0.007 A 
HETATM   16  C26 UNL     1       6.927  -0.969  -1.036  1.00  0.00     0.032 A 
HETATM   17  C25 UNL     1       6.110  -1.713  -0.182  1.00  0.00     0.091 A 
BRANCH  15  18
HETATM   18  C1  UNL     1       8.414   1.001  -1.419  1.00  0.00     0.120 C 
HETATM   19  N1  UNL     1       8.702   0.775  -2.653  1.00  0.00    -0.387 N 
ATOM     20  H12 UNL     1       9.308   1.355  -3.233  1.00  0.00     0.157 HD
ATOM     21  H11 UNL     1       8.280  -0.058  -3.065  1.00  0.00     0.157 HD
HETATM   22  N2  UNL     1       9.001   2.160  -0.846  1.00  0.00    -0.082 NA
ENDBRANCH  15  18
ENDBRANCH  11  12
ENDBRANCH  10  11
ENDBRANCH   9  10
ENDBRANCH   7   9
ENDBRANCH   2   3
ENDBRANCH   1   2
BRANCH   1  23
HETATM   23  C14 UNL     1      -1.600   3.001  -1.161  1.00  0.00     0.022 C 
BRANCH  23  24
HETATM   24  C15 UNL     1      -2.870   3.383  -0.476  1.00  0.00     0.129 C 
BRANCH  24  25
HETATM   25  N5  UNL     1      -3.995   2.540  -0.796  1.00  0.00    -0.353 N 
HETATM   26  C16 UNL     1      -4.379   1.448  -0.156  1.00  0.00     0.095 A 
HETATM   27  C17 UNL     1      -5.477   0.700  -0.550  1.00  0.00     0.066 A 
HETATM   28  C18 UNL     1      -6.210   1.090  -1.644  1.00  0.00     0.108 A 
HETATM   29  N10 UNL     1      -5.811   2.214  -2.298  1.00  0.00    -0.338 N 
HETATM   30  C23 UNL     1      -4.744   2.898  -1.877  1.00  0.00     0.184 A 
ATOM     31  H10 UNL     1      -6.330   2.536  -3.115  1.00  0.00     0.168 HD
BRANCH  28  32
HETATM   32  N6  UNL     1      -7.245   0.432  -2.058  1.00  0.00    -0.327 N 
ATOM     33  H6  UNL     1      -7.776   0.739  -2.873  1.00  0.00     0.169 HD
BRANCH  32  34
HETATM   34  C19 UNL     1      -7.614  -0.733  -1.336  1.00  0.00     0.139 A 
HETATM   35  C20 UNL     1      -8.546  -1.078  -0.469  1.00  0.00     0.122 A 
HETATM   36  N7  UNL     1      -9.613  -0.963   0.338  1.00  0.00    -0.346 N 
HETATM   37  C22 UNL     1      -8.081  -2.370  -0.364  1.00  0.00     0.139 A 
HETATM   38  C21 UNL     1      -9.791  -2.161   0.919  1.00  0.00     0.182 A 
ATOM     39  H7  UNL     1     -10.179  -0.127   0.482  1.00  0.00     0.167 HD
HETATM   40  N8  UNL     1      -8.864  -3.041   0.505  1.00  0.00    -0.337 N 
ATOM     41  H8  UNL     1      -8.772  -4.016   0.790  1.00  0.00     0.168 HD
HETATM   42  N9  UNL     1      -7.157  -2.076  -1.206  1.00  0.00    -0.325 N 
ATOM     43  H9  UNL     1      -6.389  -2.603  -1.623  1.00  0.00     0.169 HD
ENDBRANCH  32  34
ENDBRANCH  28  32
ENDBRANCH  24  25
ENDBRANCH  23  24
ENDBRANCH   1  23
TORSDOF 12
