REMARK  8 active torsions:
REMARK  status: ('A' for Active; 'I' for Inactive)
REMARK    1  A    between atoms: N1_1  and  N2_4 
REMARK    2  A    between atoms: N2_4  and  N3_5 
REMARK    3  A    between atoms: N3_5  and  C1_7 
REMARK    4  A    between atoms: C3_13  and  C4_14 
REMARK    5  A    between atoms: C5_17  and  C6_18 
REMARK    6  A    between atoms: C9_21  and  C10_22 
REMARK    7  A    between atoms: C10_22  and  O1_23 
REMARK    8  A    between atoms: C12_28  and  C13_29 
ROOT
HETATM    1  C1  UNL     1      -4.085   3.339   0.442  1.00  0.00     0.738 A 
HETATM    2  N4  UNL     1      -2.791   3.698   0.419  1.00  0.00    -0.017 N 
ATOM      3  H4  UNL     1      -2.441   4.656   0.431  1.00  0.00     0.203 HD
HETATM    4  C2  UNL     1      -2.026   2.581   0.377  1.00  0.00     0.719 A 
HETATM    5  N5  UNL     1      -0.771   2.109   0.336  1.00  0.00    -0.183 N 
ATOM      6  H5  UNL     1       0.087   2.661   0.327  1.00  0.00     0.184 HD
HETATM    7  C3  UNL     1      -0.865   0.741   0.309  1.00  0.00     0.126 A 
HETATM    8  C12 UNL     1      -2.195   0.398   0.333  1.00  0.00     0.088 A 
HETATM    9  N8  UNL     1      -2.902   1.556   0.376  1.00  0.00    -0.073 N 
HETATM   10  N9  UNL     1      -4.142   1.993   0.415  1.00  0.00    -0.108 N 
ATOM     11  H9  UNL     1      -4.987   1.421   0.423  1.00  0.00     0.207 HD
ENDROOT
BRANCH   7  12
HETATM   12  C4  UNL     1       0.336  -0.079   0.286  1.00  0.00     0.177 A 
HETATM   13  N6  UNL     1       1.624   0.313   0.283  1.00  0.00    -0.334 N 
HETATM   14  C5  UNL     1       2.426  -0.769   0.260  1.00  0.00     0.063 A 
ATOM     15  H6  UNL     1       1.944   1.282   0.296  1.00  0.00     0.168 HD
HETATM   16  C11 UNL     1       1.570  -1.851   0.249  1.00  0.00     0.172 A 
HETATM   17  O3  UNL     1       0.370  -1.375   0.266  1.00  0.00    -0.302 OA
BRANCH  14  18
HETATM   18  C6  UNL     1       3.908  -0.824   0.259  1.00  0.00     0.173 C 
HETATM   19  C7  UNL     1       4.408  -0.270  -1.045  1.00  0.00     0.041 C 
HETATM   20  C8  UNL     1       5.182   0.954  -0.624  1.00  0.00     0.037 C 
HETATM   21  C9  UNL     1       5.536   0.583   0.824  1.00  0.00     0.146 C 
HETATM   22  O2  UNL     1       4.342   0.029   1.267  1.00  0.00    -0.372 OA
BRANCH  21  23
HETATM   23  C10 UNL     1       6.648  -0.420   0.754  1.00  0.00     0.196 C 
BRANCH  23  24
HETATM   24  O1  UNL     1       7.799   0.242   0.301  1.00  0.00    -0.398 OA
ATOM     25  H1  UNL     1       8.504  -0.394   0.257  1.00  0.00     0.209 HD
ENDBRANCH  23  24
ENDBRANCH  21  23
ENDBRANCH  14  18
ENDBRANCH   7  12
BRANCH   8  26
HETATM   26  C13 UNL     1      -2.720  -0.971   0.281  1.00  0.00     0.044 C 
HETATM   27  C14 UNL     1      -4.162  -1.068   0.722  1.00  0.00     0.038 C 
HETATM   28  C15 UNL     1      -5.092  -1.172  -0.461  1.00  0.00     0.233 C 
HETATM   29  N7  UNL     1      -4.948  -2.544  -0.986  1.00  0.00    -0.075 N 
HETATM   30  C16 UNL     1      -3.545  -2.799  -1.094  1.00  0.00     0.233 C 
ATOM     31  H72 UNL     1      -5.442  -3.242  -0.429  1.00  0.00     0.277 HD
ATOM     32  H71 UNL     1      -5.453  -2.696  -1.859  1.00  0.00     0.277 HD
HETATM   33  C17 UNL     1      -2.714  -1.510  -1.160  1.00  0.00     0.038 C 
ENDBRANCH   8  26
BRANCH   1  34
HETATM   34  N3  UNL     1      -5.228   4.215   0.486  1.00  0.00    -0.044 N 
ATOM     35  H3  UNL     1      -6.082   3.981   0.993  1.00  0.00     0.223 HD
BRANCH  34  36
HETATM   36  N2  UNL     1      -5.091   5.277  -0.142  1.00  0.00    -0.229 NA
BRANCH  36  37
HETATM   37  N1  UNL     1      -5.116   6.402  -0.642  1.00  0.00    -0.260 N 
ATOM     38  H12 UNL     1      -5.881   6.638  -0.009  1.00  0.00     0.193 HD
ATOM     39  H11 UNL     1      -5.003   7.275  -1.158  1.00  0.00     0.193 HD
ENDBRANCH  36  37
ENDBRANCH  34  36
ENDBRANCH   1  34
TORSDOF 8
