REMARK  7 active torsions:
REMARK  status: ('A' for Active; 'I' for Inactive)
REMARK    1  A    between atoms: C2_2  and  C5_5 
REMARK    2  A    between atoms: C5_5  and  C6_7 
REMARK    3  A    between atoms: C6_7  and  C7_8 
REMARK    4  A    between atoms: C8_10  and  O3_11 
REMARK    5  A    between atoms: C10_14  and  O4_15 
REMARK    6  A    between atoms: C13_19  and  O5_20 
REMARK    7  A    between atoms: C15_23  and  C16_24 
ROOT
HETATM    1  C7  UNL     1       0.590   0.166  -1.798  1.00  0.00     0.077 A 
HETATM    2  O2  UNL     1       0.550  -0.426  -2.972  1.00  0.00    -0.290 OA
HETATM    3  C8  UNL     1      -0.610  -0.952  -3.221  1.00  0.00     0.197 A 
HETATM    4  C9  UNL     1      -1.443  -0.713  -2.147  1.00  0.00     0.074 A 
HETATM    5  C10 UNL     1      -2.754  -1.017  -1.845  1.00  0.00     0.116 A 
HETATM    6  C11 UNL     1      -3.266  -0.596  -0.634  1.00  0.00     0.117 A 
HETATM    7  C12 UNL     1      -2.487   0.120   0.267  1.00  0.00     0.048 A 
HETATM    8  C13 UNL     1      -1.199   0.415  -0.037  1.00  0.00     0.091 A 
HETATM    9  C14 UNL     1      -0.662   0.004  -1.243  1.00  0.00     0.046 A 
HETATM   10  C15 UNL     1      -3.129   0.519   1.517  1.00  0.00     0.224 C 
HETATM   11  O7  UNL     1      -4.455   0.903   1.355  1.00  0.00    -0.350 OA
HETATM   12  C17 UNL     1      -5.222   0.137   0.545  1.00  0.00     0.346 C 
HETATM   13  O8  UNL     1      -4.565  -0.843  -0.223  1.00  0.00    -0.323 OA
ENDROOT
BRANCH   1  14
HETATM   14  C6  UNL     1       1.777   0.845  -1.251  1.00  0.00     0.145 C 
BRANCH  14  15
HETATM   15  C5  UNL     1       2.415  -0.080  -0.243  1.00  0.00     0.140 C 
HETATM   16  O1  UNL     1       1.928  -1.174  -0.042  1.00  0.00    -0.297 OA
BRANCH  15  17
HETATM   17  C2  UNL     1       3.622   0.304   0.513  1.00  0.00     0.010 C 
HETATM   18  C1  UNL     1       4.812   0.595  -0.363  1.00  0.00     0.022 C 
HETATM   19  C3  UNL     1       3.383   1.586   1.323  1.00  0.00     0.022 C 
HETATM   20  C4  UNL     1       3.955  -0.781   1.499  1.00  0.00     0.022 C 
ENDBRANCH  15  17
ENDBRANCH  14  15
ENDBRANCH   1  14
BRANCH   3  21
HETATM   21  O3  UNL     1      -1.038  -1.655  -4.346  1.00  0.00    -0.340 OA
ATOM     22  H3  UNL     1      -1.887  -2.040  -4.528  1.00  0.00     0.220 HD
ENDBRANCH   3  21
BRANCH   8  23
HETATM   23  O5  UNL     1      -0.389   1.115   0.809  1.00  0.00    -0.359 OA
ATOM     24  H5  UNL     1       0.513   1.322   0.596  1.00  0.00     0.217 HD
ENDBRANCH   8  23
BRANCH   5  25
HETATM   25  O4  UNL     1      -3.551  -1.727  -2.721  1.00  0.00    -0.357 OA
ATOM     26  H4  UNL     1      -4.454  -1.936  -2.513  1.00  0.00     0.217 HD
ENDBRANCH   5  25
BRANCH  10  27
HETATM   27  C16 UNL     1      -3.141  -0.669   2.417  1.00  0.00     0.268 C 
HETATM   28  O6  UNL     1      -4.160  -1.151   2.878  1.00  0.00    -0.304 OA
ENDBRANCH  10  27
TORSDOF 7
