REMARK  8 active torsions:
REMARK  status: ('A' for Active; 'I' for Inactive)
REMARK    1  A    between atoms: C3_3  and  C4_4 
REMARK    2  A    between atoms: C5_5  and  O1_6 
REMARK    3  A    between atoms: C7_9  and  O2_10 
REMARK    4  A    between atoms: C11_16  and  O4_17 
REMARK    5  A    between atoms: C18_25  and  C19_26 
REMARK    6  A    between atoms: C19_26  and  C20_27 
REMARK    7  A    between atoms: C20_27  and  O6_28 
REMARK    8  A    between atoms: O6_28  and  C21_29 
ROOT
HETATM    1  C4  UNL     1      -2.634   0.999   1.174  1.00  0.00     0.032 A 
HETATM    2  C5  UNL     1      -3.967   1.205   0.981  1.00  0.00     0.081 A 
HETATM    3  C6  UNL     1      -4.746   0.447   0.112  1.00  0.00     0.075 A 
HETATM    4  C7  UNL     1      -4.202  -0.559  -0.602  1.00  0.00     0.085 A 
HETATM    5  C8  UNL     1      -2.861  -0.828  -0.459  1.00  0.00     0.083 A 
HETATM    6  C9  UNL     1      -2.288  -1.865  -1.191  1.00  0.00     0.203 A 
HETATM    7  O3  UNL     1      -2.972  -2.558  -1.978  1.00  0.00    -0.286 OA
HETATM    8  C10 UNL     1      -0.938  -2.072  -0.993  1.00  0.00     0.083 A 
HETATM    9  C11 UNL     1      -0.319  -3.088  -1.692  1.00  0.00     0.086 A 
HETATM   10  C13 UNL     1       1.028  -3.284  -1.483  1.00  0.00     0.054 A 
HETATM   11  C14 UNL     1       1.768  -2.499  -0.601  1.00  0.00     0.030 A 
HETATM   12  C15 UNL     1       1.157  -1.477   0.104  1.00  0.00    -0.004 A 
HETATM   13  C16 UNL     1      -0.210  -1.286  -0.114  1.00  0.00     0.101 A 
HETATM   14  O5  UNL     1      -0.814  -0.335   0.535  1.00  0.00    -0.307 OA
HETATM   15  C17 UNL     1      -2.104  -0.078   0.396  1.00  0.00     0.106 A 
HETATM   16  C18 UNL     1       1.924  -0.605   1.031  1.00  0.00     0.032 C 
HETATM   17  C23 UNL     1       3.018  -1.424   1.731  1.00  0.00     0.097 C 
HETATM   18  C24 UNL     1       3.893  -1.900   0.603  1.00  0.00     0.200 C 
HETATM   19  O8  UNL     1       5.085  -1.639   0.459  1.00  0.00    -0.289 OA
HETATM   20  C25 UNL     1       3.188  -2.748  -0.371  1.00  0.00     0.228 C 
HETATM   21  O9  UNL     1       3.773  -3.663  -0.995  1.00  0.00    -0.284 OA
ENDROOT
BRANCH  16  22
HETATM   22  C19 UNL     1       2.669   0.488   0.290  1.00  0.00     0.036 C 
BRANCH  22  23
HETATM   23  C20 UNL     1       1.799   1.408  -0.489  1.00  0.00     0.179 C 
BRANCH  23  24
HETATM   24  O6  UNL     1       2.539   2.377  -1.161  1.00  0.00    -0.322 OA
BRANCH  24  25
HETATM   25  C21 UNL     1       3.321   3.322  -0.582  1.00  0.00     0.254 C 
HETATM   26  C22 UNL     1       4.103   4.338  -1.350  1.00  0.00     0.126 C 
HETATM   27  O7  UNL     1       3.425   3.385   0.661  1.00  0.00    -0.266 OA
ENDBRANCH  24  25
ENDBRANCH  23  24
ENDBRANCH  22  23
ENDBRANCH  16  22
BRANCH   9  28
HETATM   28  O4  UNL     1      -1.078  -3.856  -2.565  1.00  0.00    -0.355 OA
HETATM   29  C12 UNL     1      -0.451  -4.907  -3.292  1.00  0.00     0.210 C 
ENDBRANCH   9  28
BRANCH   1  30
HETATM   30  C3  UNL     1      -1.736   1.744   2.009  1.00  0.00     0.013 C 
HETATM   31  C2  UNL     1      -1.755   2.789   2.698  1.00  0.00    -0.030 C 
HETATM   32  C1  UNL     1      -2.697   3.847   3.045  1.00  0.00     0.036 C 
ENDBRANCH   1  30
BRANCH   4  33
HETATM   33  O2  UNL     1      -4.968  -1.318  -1.469  1.00  0.00    -0.360 OA
ATOM     34  H2  UNL     1      -4.585  -2.027  -1.972  1.00  0.00     0.217 HD
ENDBRANCH   4  33
BRANCH   2  35
HETATM   35  O1  UNL     1      -4.613   2.204   1.667  1.00  0.00    -0.360 OA
ATOM     36  H1  UNL     1      -5.542   2.348   1.532  1.00  0.00     0.217 HD
ENDBRANCH   2  35
TORSDOF 8
