REMARK  6 active torsions:
REMARK  status: ('A' for Active; 'I' for Inactive)
REMARK    1  A    between atoms: O1_2  and  C2_3 
REMARK    2  A    between atoms: C6_7  and  C7_8 
REMARK    3  A    between atoms: C7_8  and  C8_9 
REMARK    4  A    between atoms: C8_9  and  N1_10 
REMARK    5  A    between atoms: N1_10  and  C9_12 
REMARK    6  A    between atoms: C12_17  and  N3_18 
ROOT
HETATM    1  N1  UNL     1       1.779  -1.324   0.728  1.00  0.00    -0.355 N 
ATOM      2  H1  UNL     1       1.874  -2.102   1.381  1.00  0.00     0.166 HD
ENDROOT
BRANCH   1   3
HETATM    3  C8  UNL     1       0.424  -1.158   0.583  1.00  0.00     0.067 C 
BRANCH   3   4
HETATM    4  C7  UNL     1       0.037  -0.033  -0.336  1.00  0.00     0.083 C 
BRANCH   4   5
HETATM    5  C6  UNL     1      -1.451   0.092  -0.448  1.00  0.00    -0.051 A 
HETATM    6  C5  UNL     1      -2.101  -0.621  -1.431  1.00  0.00     0.007 A 
HETATM    7  C4  UNL     1      -3.476  -0.537  -1.572  1.00  0.00     0.003 A 
HETATM    8  C3  UNL     1      -4.209   0.277  -0.712  1.00  0.00     0.037 A 
HETATM    9  C2  UNL     1      -3.575   0.998   0.277  1.00  0.00     0.068 A 
HETATM   10  C13 UNL     1      -2.201   0.883   0.381  1.00  0.00     0.044 A 
BRANCH   9  11
HETATM   11  O1  UNL     1      -4.281   1.827   1.161  1.00  0.00    -0.356 OA
HETATM   12  C1  UNL     1      -5.683   1.917   1.022  1.00  0.00     0.210 C 
ENDBRANCH   9  11
ENDBRANCH   4   5
ENDBRANCH   3   4
ENDBRANCH   1   3
BRANCH   1  13
HETATM   13  C9  UNL     1       2.926  -1.003   0.464  1.00  0.00     0.121 A 
HETATM   14  C10 UNL     1       3.979  -1.731   1.079  1.00  0.00     0.066 A 
HETATM   15  C11 UNL     1       5.253  -1.361   0.775  1.00  0.00     0.110 A 
HETATM   16  N2  UNL     1       5.536  -0.349  -0.072  1.00  0.00    -0.202 N 
HETATM   17  C12 UNL     1       4.509   0.313  -0.632  1.00  0.00     0.677 A 
ATOM     18  H2  UNL     1       6.501  -0.094  -0.281  1.00  0.00     0.183 HD
HETATM   19  N4  UNL     1       3.228   0.001  -0.376  1.00  0.00    -0.177 N 
ATOM     20  H4  UNL     1       2.479   0.530  -0.823  1.00  0.00     0.185 HD
BRANCH  17  21
HETATM   21  N3  UNL     1       4.788   1.297  -1.455  1.00  0.00    -0.234 N 
ATOM     22  H32 UNL     1       5.761   1.534  -1.649  1.00  0.00     0.174 HD
ATOM     23  H31 UNL     1       4.009   1.799  -1.880  1.00  0.00     0.174 HD
ENDBRANCH  17  21
ENDBRANCH   1  13
TORSDOF 6
