REMARK  6 active torsions:
REMARK  status: ('A' for Active; 'I' for Inactive)
REMARK    1  A    between atoms: O1_2  and  C2_3 
REMARK    2  A    between atoms: C2_3  and  C3_5 
REMARK    3  A    between atoms: C10_12  and  O3_13 
REMARK    4  A    between atoms: C18_21  and  O4_22 
REMARK    5  A    between atoms: C18_21  and  O5_24 
REMARK    6  A    between atoms: O5_24  and  C19_25 
ROOT
HETATM    1  C3  UNL     1      -2.010  -0.206  -0.638  1.00  0.00     0.105 C 
HETATM    2  C4  UNL     1      -1.824  -0.455  -2.101  1.00  0.00     0.032 C 
HETATM    3  C5  UNL     1      -0.739   0.255   0.040  1.00  0.00     0.013 C 
HETATM    4  C6  UNL     1      -0.112   1.474  -0.533  1.00  0.00     0.007 C 
HETATM    5  C7  UNL     1       1.400   1.292  -0.699  1.00  0.00     0.012 C 
HETATM    6  C8  UNL     1       2.064   0.769   0.528  1.00  0.00    -0.014 C 
HETATM    7  C9  UNL     1       2.203   1.880   1.553  1.00  0.00     0.018 C 
HETATM    8  C10 UNL     1       3.375   0.107   0.230  1.00  0.00     0.129 C 
HETATM    9  C12 UNL     1       3.616  -0.710   1.479  1.00  0.00     0.033 C 
HETATM   10  C13 UNL     1       2.243  -1.379   1.641  1.00  0.00     0.008 C 
HETATM   11  C14 UNL     1       1.287  -0.348   1.194  1.00  0.00     0.001 C 
HETATM   12  C15 UNL     1       0.294  -0.850   0.140  1.00  0.00    -0.004 C 
HETATM   13  C16 UNL     1      -0.221  -2.167   0.564  1.00  0.00     0.011 C 
HETATM   14  C17 UNL     1      -1.550  -2.570  -0.033  1.00  0.00     0.070 C 
HETATM   15  C18 UNL     1      -2.489  -1.402   0.148  1.00  0.00     0.187 C 
ENDROOT
BRANCH   1  16
HETATM   16  C2  UNL     1      -2.999   0.891  -0.420  1.00  0.00     0.272 C 
HETATM   17  O2  UNL     1      -4.018   0.726   0.298  1.00  0.00    -0.264 OA
BRANCH  16  18
HETATM   18  O1  UNL     1      -2.855   2.147  -0.990  1.00  0.00    -0.326 OA
HETATM   19  C1  UNL     1      -3.816   3.155  -0.753  1.00  0.00     0.213 C 
ENDBRANCH  16  18
ENDBRANCH   1  16
BRANCH  15  20
HETATM   20  O4  UNL     1      -2.228  -1.024   1.511  1.00  0.00    -0.364 OA
ATOM     21  H4  UNL     1      -2.530  -1.777   2.006  1.00  0.00     0.213 HD
ENDBRANCH  15  20
BRANCH  15  22
HETATM   22  O5  UNL     1      -3.814  -1.698   0.141  1.00  0.00    -0.289 OA
BRANCH  22  23
HETATM   23  C19 UNL     1      -4.722  -2.042  -0.781  1.00  0.00     0.401 C 
HETATM   24  O6  UNL     1      -4.375  -2.150  -1.953  1.00  0.00    -0.276 OA
ENDBRANCH  22  23
ENDBRANCH  15  22
BRANCH   8  25
HETATM   25  O3  UNL     1       4.418   0.994   0.044  1.00  0.00    -0.390 OA
HETATM   26  C11 UNL     1       4.960   0.719  -1.226  1.00  0.00     0.202 C 
ENDBRANCH   8  25
TORSDOF 6
