REMARK  5 active torsions:
REMARK  status: ('A' for Active; 'I' for Inactive)
REMARK    1  A    between atoms: C3_3  and  C4_4 
REMARK    2  A    between atoms: C4_4  and  O2_6 
REMARK    3  A    between atoms: O2_6  and  C5_7 
REMARK    4  A    between atoms: C12_15  and  O4_16 
REMARK    5  A    between atoms: O4_16  and  C13_17 
ROOT
HETATM    1  C5  UNL     1       0.706  -0.773  -0.003  1.00  0.00     0.142 C 
HETATM    2  C6  UNL     1       0.768  -1.623  -1.224  1.00  0.00     0.076 C 
HETATM    3  C7  UNL     1      -0.185  -2.771  -1.158  1.00  0.00     0.110 A 
HETATM    4  C8  UNL     1       0.105  -4.054  -0.819  1.00  0.00     0.209 A 
HETATM    5  O3  UNL     1      -0.126  -3.676  -2.226  1.00  0.00    -0.372 OA
HETATM    6  C9  UNL     1      -1.578  -2.172  -0.949  1.00  0.00     0.160 C 
HETATM    7  C10 UNL     1      -1.795  -2.010   0.507  1.00  0.00     0.043 C 
HETATM    8  C11 UNL     1      -1.622  -0.577   0.933  1.00  0.00     0.030 C 
HETATM    9  C12 UNL     1      -2.555   0.249   0.031  1.00  0.00     0.171 C 
HETATM   10  C15 UNL     1      -1.421   0.141  -1.003  1.00  0.00     0.091 C 
HETATM   11  C16 UNL     1      -1.291   1.336  -1.890  1.00  0.00     0.049 C 
HETATM   12  O6  UNL     1      -1.615  -1.013  -1.689  1.00  0.00    -0.369 OA
HETATM   13  C17 UNL     1      -0.490   0.062   0.162  1.00  0.00     0.059 C 
ENDROOT
BRANCH   1  14
HETATM   14  O2  UNL     1       1.853   0.092  -0.034  1.00  0.00    -0.312 OA
BRANCH  14  15
HETATM   15  C4  UNL     1       2.861   0.032   0.891  1.00  0.00     0.282 C 
HETATM   16  O1  UNL     1       2.785  -0.808   1.803  1.00  0.00    -0.260 OA
BRANCH  15  17
HETATM   17  C3  UNL     1       3.987   0.967   0.761  1.00  0.00     0.077 C 
HETATM   18  C2  UNL     1       4.992   0.974   1.606  1.00  0.00    -0.025 C 
HETATM   19  C1  UNL     1       6.094   1.935   1.426  1.00  0.00     0.036 C 
ENDBRANCH  15  17
ENDBRANCH  14  15
ENDBRANCH   1  14
BRANCH   9  20
HETATM   20  O4  UNL     1      -2.676   1.588   0.425  1.00  0.00    -0.313 OA
BRANCH  20  21
HETATM   21  C13 UNL     1      -3.877   2.265   0.422  1.00  0.00     0.255 C 
HETATM   22  C14 UNL     1      -4.012   3.692   0.841  1.00  0.00     0.126 C 
HETATM   23  O5  UNL     1      -4.907   1.655   0.048  1.00  0.00    -0.266 OA
ENDBRANCH  20  21
ENDBRANCH   9  20
TORSDOF 5
