REMARK  13 active torsions:
REMARK  status: ('A' for Active; 'I' for Inactive)
REMARK    1  A    between atoms: C2_2  and  C3_3 
REMARK    2  A    between atoms: C3_3  and  C4_4 
REMARK    3  A    between atoms: C4_4  and  O1_5 
REMARK    4  A    between atoms: C4_4  and  N1_7 
REMARK    5  A    between atoms: N1_7  and  C5_9 
REMARK    6  A    between atoms: C7_13  and  N3_14 
REMARK    7  A    between atoms: C11_18  and  C12_19 
REMARK    8  A    between atoms: C12_19  and  C13_20 
REMARK    9  A    between atoms: C13_20  and  C14_21 
REMARK   10  A    between atoms: C18_27  and  C19_28 
REMARK   11  A    between atoms: C19_28  and  S1_31 
REMARK   12  A    between atoms: S1_31  and  C20_34 
REMARK   13  A    between atoms: C20_34  and  C21_35 
ROOT
HETATM    1  C5  UNL     1      -2.598  -2.444   0.110  1.00  0.00     0.151 A 
HETATM    2  N2  UNL     1      -1.428  -1.876   0.147  1.00  0.00    -0.334 N 
ATOM      3  H2  UNL     1      -0.603  -2.445   0.338  1.00  0.00     0.168 HD
HETATM    4  C6  UNL     1      -1.286  -0.590  -0.055  1.00  0.00     0.078 A 
HETATM    5  C7  UNL     1      -0.106   0.162   0.019  1.00  0.00     0.059 A 
HETATM    6  C17 UNL     1      -0.155   1.525  -0.149  1.00  0.00     0.046 A 
HETATM    7  C18 UNL     1      -1.271   2.267  -0.392  1.00  0.00     0.032 A 
HETATM    8  C23 UNL     1      -2.452   1.495  -0.474  1.00  0.00     0.035 A 
HETATM    9  C24 UNL     1      -2.426   0.127  -0.307  1.00  0.00     0.038 A 
HETATM   10  S2  UNL     1      -3.629  -1.092  -0.240  1.00  0.00    -0.052 SA
ENDROOT
BRANCH   5  11
HETATM   11  N3  UNL     1       1.139  -0.440   0.286  1.00  0.00    -0.379 N 
HETATM   12  C8  UNL     1       1.443  -0.994   1.611  1.00  0.00     0.123 C 
HETATM   13  C9  UNL     1       2.510  -0.117   2.198  1.00  0.00     0.020 C 
HETATM   14  C10 UNL     1       3.368   0.623   1.247  1.00  0.00     0.008 C 
HETATM   15  C11 UNL     1       3.497   0.031  -0.120  1.00  0.00     0.004 C 
HETATM   16  C16 UNL     1       2.224  -0.581  -0.663  1.00  0.00     0.127 C 
BRANCH  15  17
HETATM   17  C12 UNL     1       4.685  -0.846  -0.333  1.00  0.00     0.012 C 
BRANCH  17  18
HETATM   18  C13 UNL     1       4.788  -2.039   0.558  1.00  0.00     0.079 C 
BRANCH  18  19
HETATM   19  C14 UNL     1       6.030  -2.840   0.239  1.00  0.00     0.240 C 
HETATM   20  C15 UNL     1       6.071  -3.370  -1.165  1.00  0.00     0.090 C 
HETATM   21  F1  UNL     1       6.170  -3.866   1.180  1.00  0.00    -0.207 F 
HETATM   22  F2  UNL     1       7.109  -1.970   0.436  1.00  0.00    -0.207 F 
ENDBRANCH  18  19
ENDBRANCH  17  18
ENDBRANCH  15  17
ENDBRANCH   5  11
BRANCH   7  23
HETATM   23  C19 UNL     1      -1.403   3.707  -0.384  1.00  0.00     0.370 C 
HETATM   24  F3  UNL     1      -2.621   4.047  -1.061  1.00  0.00    -0.183 F 
HETATM   25  F4  UNL     1      -1.736   4.118   0.944  1.00  0.00    -0.183 F 
BRANCH  23  26
HETATM   26  S1  UNL     1      -0.154   4.749  -0.986  1.00  0.00     0.217 S 
HETATM   27  O2  UNL     1       1.094   4.600  -0.147  1.00  0.00    -0.221 OA
HETATM   28  O3  UNL     1       0.177   4.547  -2.416  1.00  0.00    -0.221 OA
BRANCH  26  29
HETATM   29  C20 UNL     1      -0.785   6.407  -0.652  1.00  0.00     0.147 C 
BRANCH  29  30
HETATM   30  C21 UNL     1       0.096   7.512  -1.054  1.00  0.00     0.011 C 
HETATM   31  C22 UNL     1      -0.596   8.806  -0.618  1.00  0.00     0.006 C 
ENDBRANCH  29  30
ENDBRANCH  26  29
ENDBRANCH  23  26
ENDBRANCH   7  23
BRANCH   1  32
HETATM   32  N1  UNL     1      -3.077  -3.791   0.387  1.00  0.00    -0.321 N 
ATOM     33  H1  UNL     1      -2.450  -4.524   0.718  1.00  0.00     0.169 HD
BRANCH  32  34
HETATM   34  C4  UNL     1      -4.436  -4.031   0.177  1.00  0.00     0.117 C 
BRANCH  34  35
HETATM   35  C3  UNL     1      -5.189  -5.230   0.508  1.00  0.00     0.083 C 
BRANCH  35  36
HETATM   36  C2  UNL     1      -6.588  -5.153  -0.083  1.00  0.00     0.003 C 
HETATM   37  C1  UNL     1      -7.475  -6.299   0.264  1.00  0.00     0.005 C 
ENDBRANCH  35  36
ENDBRANCH  34  35
BRANCH  34  38
HETATM   38  O1  UNL     1      -5.152  -3.079  -0.377  1.00  0.00    -0.349 OA
ATOM     39  H1  UNL     1      -4.660  -2.296  -0.593  1.00  0.00     0.219 HD
ENDBRANCH  34  38
ENDBRANCH  32  34
ENDBRANCH   1  32
TORSDOF 13
