REMARK  13 active torsions:
REMARK  status: ('A' for Active; 'I' for Inactive)
REMARK    1  A    between atoms: C2_2  and  C3_3 
REMARK    2  A    between atoms: C3_3  and  C4_4 
REMARK    3  A    between atoms: C4_4  and  O1_5 
REMARK    4  A    between atoms: O1_5  and  C5_6 
REMARK    5  A    between atoms: C5_6  and  C6_8 
REMARK    6  A    between atoms: C11_15  and  C12_16 
REMARK    7  A    between atoms: C12_16  and  O3_17 
REMARK    8  A    between atoms: C12_16  and  C13_19 
REMARK    9  A    between atoms: C12_16  and  C20_30 
REMARK   10  A    between atoms: C13_19  and  O4_20 
REMARK   11  A    between atoms: O4_20  and  C14_21 
REMARK   12  A    between atoms: C20_30  and  O6_32 
REMARK   13  A    between atoms: O6_32  and  C21_33 
ROOT
HETATM    1  C12 UNL     1       1.380  -0.896  -0.089  1.00  0.00     0.192 C 
ENDROOT
BRANCH   1   2
HETATM    2  C11 UNL     1       0.401  -0.597   0.988  1.00  0.00    -0.018 C 
HETATM    3  C6  UNL     1      -1.021  -0.677   0.783  1.00  0.00     0.044 C 
HETATM    4  C7  UNL     1      -1.728  -1.646   1.426  1.00  0.00     0.033 C 
HETATM    5  C8  UNL     1      -1.202  -2.642   2.355  1.00  0.00     0.132 C 
HETATM    6 CL1  UNL     1      -0.916  -4.246   1.725  1.00  0.00    -0.097 Cl
HETATM    7 CL2  UNL     1      -2.538  -2.801   3.616  1.00  0.00    -0.097 Cl
HETATM    8  C9  UNL     1      -0.060  -2.009   3.081  1.00  0.00     0.051 C 
HETATM    9  C10 UNL     1       0.889  -1.225   2.272  1.00  0.00     0.042 C 
BRANCH   3  10
HETATM   10  C5  UNL     1      -1.806   0.211  -0.097  1.00  0.00     0.293 C 
HETATM   11  O2  UNL     1      -1.323   1.149  -0.710  1.00  0.00    -0.259 OA
BRANCH  10  12
HETATM   12  O1  UNL     1      -3.178   0.014  -0.275  1.00  0.00    -0.318 OA
BRANCH  12  13
HETATM   13  C4  UNL     1      -4.025   0.769  -1.065  1.00  0.00     0.179 C 
BRANCH  13  14
HETATM   14  C3  UNL     1      -4.156   2.212  -0.720  1.00  0.00     0.026 C 
BRANCH  14  15
HETATM   15  C2  UNL     1      -5.127   2.922  -1.672  1.00  0.00    -0.002 C 
HETATM   16  C1  UNL     1      -6.498   2.327  -1.620  1.00  0.00     0.005 C 
ENDBRANCH  14  15
ENDBRANCH  13  14
ENDBRANCH  12  13
ENDBRANCH  10  12
ENDBRANCH   3  10
ENDBRANCH   1   2
BRANCH   1  17
HETATM   17  O3  UNL     1       2.658  -0.800   0.596  1.00  0.00    -0.373 OA
ATOM     18  H3  UNL     1       3.284  -0.991  -0.093  1.00  0.00     0.211 HD
ENDBRANCH   1  17
BRANCH   1  19
HETATM   19  C13 UNL     1       1.476  -0.048  -1.306  1.00  0.00     0.229 C 
BRANCH  19  20
HETATM   20  O4  UNL     1       1.782   1.243  -1.291  1.00  0.00    -0.346 OA
BRANCH  20  21
HETATM   21  C14 UNL     1       2.690   2.155  -1.023  1.00  0.00     0.092 A 
HETATM   22  C15 UNL     1       3.971   1.967  -0.558  1.00  0.00     0.040 A 
HETATM   23  C16 UNL     1       4.854   3.025  -0.310  1.00  0.00     0.028 A 
HETATM   24  C17 UNL     1       4.451   4.313  -0.532  1.00  0.00     0.057 A 
HETATM   25 CL3  UNL     1       5.496   5.679  -0.245  1.00  0.00    -0.082 Cl
HETATM   26  C18 UNL     1       3.182   4.550  -0.998  1.00  0.00     0.080 A 
HETATM   27 CL4  UNL     1       2.631   6.208  -1.297  1.00  0.00    -0.081 Cl
HETATM   28  C19 UNL     1       2.331   3.504  -1.235  1.00  0.00     0.090 A 
HETATM   29 CL5  UNL     1       0.729   3.872  -1.848  1.00  0.00    -0.079 Cl
ENDBRANCH  20  21
ENDBRANCH  19  20
ENDBRANCH   1  19
BRANCH   1  30
HETATM   30  C20 UNL     1       1.327  -2.309  -0.595  1.00  0.00     0.300 C 
HETATM   31  O5  UNL     1       0.322  -2.630  -1.285  1.00  0.00    -0.261 OA
BRANCH  30  32
HETATM   32  O6  UNL     1       2.311  -3.212  -0.329  1.00  0.00    -0.319 OA
BRANCH  32  33
HETATM   33  C21 UNL     1       2.280  -4.556  -0.799  1.00  0.00     0.174 C 
HETATM   34  C22 UNL     1       3.552  -5.211  -0.283  1.00  0.00     0.034 C 
ENDBRANCH  32  33
ENDBRANCH  30  32
ENDBRANCH   1  30
TORSDOF 13
