REMARK  4 active torsions:
REMARK  status: ('A' for Active; 'I' for Inactive)
REMARK    1  A    between atoms: N1_1  and  C1_4 
REMARK    2  A    between atoms: C2_7  and  C3_8 
REMARK    3  A    between atoms: C3_8  and  C4_9 
REMARK    4  A    between atoms: C4_9  and  N3_10 
ROOT
HETATM    1  C1  UNL     1       2.667   0.288   0.422  1.00  0.00     0.698 A 
HETATM    2  N2  UNL     1       1.423   0.580   0.827  1.00  0.00    -0.168 N 
ATOM      3  H2  UNL     1       1.164   1.287   1.515  1.00  0.00     0.186 HD
HETATM    4  C2  UNL     1       0.586  -0.221   0.169  1.00  0.00     0.202 A 
HETATM    5  O1  UNL     1       1.341  -0.980  -0.617  1.00  0.00    -0.206 OA
HETATM    6  N5  UNL     1       2.586  -0.684  -0.475  1.00  0.00    -0.090 N 
ATOM      7  H5  UNL     1       3.368  -1.119  -0.964  1.00  0.00     0.213 HD
ENDROOT
BRANCH   4   8
HETATM    8  C3  UNL     1      -0.870  -0.349   0.203  1.00  0.00     0.239 A 
HETATM    9  C5  UNL     1      -1.409  -1.651   0.756  1.00  0.00     0.283 A 
HETATM   10  N4  UNL     1      -1.576  -0.346   1.465  1.00  0.00    -0.052 N 
ATOM     11  H42 UNL     1      -1.347  -0.016   2.403  1.00  0.00     0.278 HD
ATOM     12  H41 UNL     1      -2.382   0.166   1.823  1.00  0.00     0.278 HD
BRANCH   8  13
HETATM   13  C4  UNL     1      -1.590   0.305  -0.974  1.00  0.00     0.279 C 
BRANCH  13  14
HETATM   14  N3  UNL     1      -1.265   1.724  -0.940  1.00  0.00    -0.076 N 
ATOM     15  H33 UNL     1      -1.481   2.163  -0.045  1.00  0.00     0.274 HD
ATOM     16  H32 UNL     1      -0.261   1.904  -0.935  1.00  0.00     0.274 HD
ATOM     17  H31 UNL     1      -1.746   2.161  -1.726  1.00  0.00     0.274 HD
ENDBRANCH  13  14
ENDBRANCH   8  13
ENDBRANCH   4   8
BRANCH   1  18
HETATM   18  N1  UNL     1       3.781   0.842   0.834  1.00  0.00    -0.233 N 
ATOM     19  H12 UNL     1       3.843   1.590   1.524  1.00  0.00     0.174 HD
ATOM     20  H11 UNL     1       4.728   0.620   0.526  1.00  0.00     0.174 HD
ENDBRANCH   1  18
TORSDOF 4
