REMARK  4 active torsions:
REMARK  status: ('A' for Active; 'I' for Inactive)
REMARK    1  A    between atoms: C5_6  and  O2_7 
REMARK    2  A    between atoms: O2_7  and  C6_8 
REMARK    3  A    between atoms: C6_8  and  S2_10 
REMARK    4  A    between atoms: C13_17  and  O3_18 
ROOT
HETATM    1  C1  UNL     1       0.207   0.236   3.508  1.00  0.00     0.049 C 
HETATM    2  C2  UNL     1       0.115  -0.169   2.251  1.00  0.00     0.068 C 
HETATM    3  O1  UNL     1      -1.031   0.003   1.481  1.00  0.00    -0.340 OA
HETATM    4  C3  UNL     1      -0.739  -0.180   0.117  1.00  0.00     0.096 C 
HETATM    5  C4  UNL     1       0.359  -1.215   0.179  1.00  0.00     0.080 C 
HETATM    6  C5  UNL     1       1.138  -0.851   1.428  1.00  0.00     0.189 C 
HETATM    7  C8  UNL     1      -0.173   1.055  -0.531  1.00  0.00     0.046 C 
HETATM    8  C9  UNL     1      -1.182   2.132  -0.748  1.00  0.00    -0.007 A 
HETATM    9  C10 UNL     1      -2.177   2.537   0.246  1.00  0.00     0.010 A 
HETATM   10  C11 UNL     1      -2.544   1.762  -1.045  1.00  0.00    -0.007 A 
HETATM   11  C12 UNL     1      -2.978   0.355  -0.880  1.00  0.00     0.040 C 
HETATM   12  C13 UNL     1      -1.875  -0.645  -0.708  1.00  0.00     0.156 C 
ENDROOT
BRANCH  12  13
HETATM   13  O3  UNL     1      -2.427  -1.775  -0.114  1.00  0.00    -0.388 OA
HETATM   14  C14 UNL     1      -2.443  -2.891  -0.911  1.00  0.00     0.202 C 
ENDBRANCH  12  13
BRANCH   6  15
HETATM   15  O2  UNL     1       2.211   0.003   1.215  1.00  0.00    -0.323 OA
BRANCH  15  16
HETATM   16  C6  UNL     1       3.349  -0.266   0.504  1.00  0.00     0.175 C 
HETATM   17  S1  UNL     1       4.055  -1.729   0.422  1.00  0.00    -0.045 SA
BRANCH  16  18
HETATM   18  S2  UNL     1       4.103   1.107  -0.397  1.00  0.00    -0.098 SA
HETATM   19  C7  UNL     1       5.590   0.568  -1.275  1.00  0.00     0.098 C 
ENDBRANCH  16  18
ENDBRANCH  15  16
ENDBRANCH   6  15
TORSDOF 4
