REMARK  4 active torsions:
REMARK  status: ('A' for Active; 'I' for Inactive)
REMARK    1  A    between atoms: C2_2  and  S1_4 
REMARK    2  A    between atoms: S1_4  and  C3_5 
REMARK    3  A    between atoms: C3_5  and  C4_7 
REMARK    4  A    between atoms: C7_12  and  C8_13 
ROOT
HETATM    1  C4  UNL     1       1.824  -1.400  -1.499  1.00  0.00     0.176 C 
HETATM    2  C5  UNL     1       1.700  -2.546  -0.576  1.00  0.00     0.271 C 
HETATM    3  O3  UNL     1       2.464  -2.901   0.337  1.00  0.00    -0.264 OA
HETATM    4  O4  UNL     1       0.526  -3.189  -0.922  1.00  0.00    -0.320 OA
HETATM    5  C6  UNL     1      -0.295  -2.348  -1.699  1.00  0.00     0.188 C 
HETATM    6  C7  UNL     1       0.333  -1.019  -1.639  1.00  0.00     0.054 C 
ENDROOT
BRANCH   6   7
HETATM    7  C8  UNL     1       0.006  -0.134  -0.543  1.00  0.00    -0.016 C 
HETATM    8  C9  UNL     1      -0.723  -0.093   0.499  1.00  0.00    -0.083 C 
HETATM    9  C10 UNL     1      -0.603   1.219   1.286  1.00  0.00     0.034 C 
HETATM   10  C15 UNL     1      -1.617  -1.147   0.939  1.00  0.00     0.034 C 
HETATM   11  C11 UNL     1      -2.012   1.810   1.427  1.00  0.00     0.004 C 
HETATM   12  C12 UNL     1      -2.878   0.963   2.292  1.00  0.00     0.000 C 
HETATM   13  C13 UNL     1      -3.713  -0.053   1.615  1.00  0.00     0.000 C 
HETATM   14  C14 UNL     1      -3.070  -0.883   0.569  1.00  0.00     0.004 C 
ENDBRANCH   6   7
BRANCH   1  15
HETATM   15  C3  UNL     1       2.654  -0.311  -1.003  1.00  0.00     0.207 C 
HETATM   16  O2  UNL     1       3.193  -0.326   0.113  1.00  0.00    -0.284 OA
BRANCH  15  17
HETATM   17  S1  UNL     1       2.915   1.115  -2.042  1.00  0.00    -0.015 SA
BRANCH  17  18
HETATM   18  C2  UNL     1       3.950   2.336  -1.276  1.00  0.00     0.189 C 
HETATM   19  C1  UNL     1       4.495   2.117   0.077  1.00  0.00     0.105 C 
HETATM   20  O1  UNL     1       4.207   3.354  -1.871  1.00  0.00    -0.285 OA
ENDBRANCH  17  18
ENDBRANCH  15  17
ENDBRANCH   1  15
TORSDOF 4
