REMARK  4 active torsions:
REMARK  status: ('A' for Active; 'I' for Inactive)
REMARK    1  A    between atoms: O1_1  and  C1_3 
REMARK    2  A    between atoms: C2_6  and  C3_7 
REMARK    3  A    between atoms: C6_13  and  C7_14 
REMARK    4  A    between atoms: C7_14  and  C8_15 
ROOT
HETATM    1  C1  UNL     1       2.583   1.152  -1.164  1.00  0.00     0.154 A 
HETATM    2  N1  UNL     1       3.885   1.302  -0.861  1.00  0.00    -0.333 N 
ATOM      3  H1  UNL     1       4.545   1.917  -1.337  1.00  0.00     0.168 HD
HETATM    4  C2  UNL     1       4.165   0.495   0.185  1.00  0.00     0.111 A 
HETATM    5  C4  UNL     1       3.004  -0.170   0.536  1.00  0.00     0.118 A 
HETATM    6  O2  UNL     1       2.510  -1.031   1.362  1.00  0.00    -0.319 OA
HETATM    7  C5  UNL     1       1.236  -1.233   1.131  1.00  0.00     0.150 A 
HETATM    8  C6  UNL     1       0.849  -0.449   0.073  1.00  0.00    -0.018 A 
HETATM    9  C14 UNL     1       2.003   0.234  -0.302  1.00  0.00     0.059 A 
ENDROOT
BRANCH   8  10
HETATM   10  C7  UNL     1      -0.422  -0.256  -0.620  1.00  0.00     0.046 C 
BRANCH  10  11
HETATM   11  C8  UNL     1      -1.580  -1.025  -0.128  1.00  0.00    -0.010 C 
HETATM   12  C9  UNL     1      -1.983  -0.787   1.285  1.00  0.00     0.005 C 
HETATM   13  C10 UNL     1      -3.509  -0.633   1.381  1.00  0.00     0.000 C 
HETATM   14  C11 UNL     1      -3.943   0.618   0.696  1.00  0.00     0.000 C 
HETATM   15  C12 UNL     1      -3.356   0.659  -0.703  1.00  0.00     0.000 C 
HETATM   16  C13 UNL     1      -2.768  -0.675  -1.035  1.00  0.00     0.005 C 
ENDBRANCH  10  11
ENDBRANCH   8  10
BRANCH   1  17
HETATM   17  O1  UNL     1       1.858   1.792  -2.178  1.00  0.00    -0.345 OA
ATOM     18  H1  UNL     1       0.938   1.686  -2.392  1.00  0.00     0.219 HD
ENDBRANCH   1  17
BRANCH   4  19
HETATM   19  C3  UNL     1       5.511   0.404   0.785  1.00  0.00     0.406 C 
HETATM   20  F1  UNL     1       5.861   1.672   1.209  1.00  0.00    -0.207 F 
HETATM   21  F2  UNL     1       6.441   0.065  -0.207  1.00  0.00    -0.207 F 
ENDBRANCH   4  19
TORSDOF 4
