REMARK  13 active torsions:
REMARK  status: ('A' for Active; 'I' for Inactive)
REMARK    1  A    between atoms: O1_2  and  C2_3 
REMARK    2  A    between atoms: C5_7  and  C6_8 
REMARK    3  A    between atoms: C6_8  and  C7_9 
REMARK    4  A    between atoms: C7_9  and  N1_10 
REMARK    5  A    between atoms: N1_10  and  C8_12 
REMARK    6  A    between atoms: C14_24  and  O2_25 
REMARK    7  A    between atoms: N5_27  and  C15_28 
REMARK    8  A    between atoms: C15_28  and  C16_29 
REMARK    9  A    between atoms: C23_38  and  O3_39 
REMARK   10  A    between atoms: O3_39  and  C24_40 
REMARK   11  A    between atoms: C24_40  and  C25_41 
REMARK   12  A    between atoms: C25_41  and  C26_42 
REMARK   13  A    between atoms: C26_42  and  N6_43 
ROOT
HETATM    1  C8  UNL     1       2.784  -0.576  -0.027  1.00  0.00     0.137 A 
HETATM    2  N2  UNL     1       2.853  -1.717   0.699  1.00  0.00    -0.337 N 
ATOM      3  H2  UNL     1       2.087  -2.389   0.663  1.00  0.00     0.168 HD
HETATM    4  C9  UNL     1       3.924  -1.966   1.465  1.00  0.00     0.183 A 
HETATM    5  N3  UNL     1       4.945  -1.101   1.531  1.00  0.00    -0.336 N 
ATOM      6  H3  UNL     1       5.742  -1.329   2.126  1.00  0.00     0.168 HD
HETATM    7  C10 UNL     1       4.962   0.051   0.847  1.00  0.00     0.145 A 
HETATM    8  C11 UNL     1       3.850   0.294   0.061  1.00  0.00     0.122 A 
HETATM    9  N4  UNL     1       3.842   1.439  -0.628  1.00  0.00    -0.350 N 
ATOM     10  H4  UNL     1       3.032   1.638  -1.215  1.00  0.00     0.166 HD
HETATM   11  C12 UNL     1       4.825   2.337  -0.596  1.00  0.00     0.058 A 
HETATM   12  C13 UNL     1       4.799   3.606  -1.369  1.00  0.00     0.072 C 
HETATM   13  C14 UNL     1       5.916   2.035   0.213  1.00  0.00     0.171 A 
HETATM   14  N5  UNL     1       6.024   0.910   0.944  1.00  0.00    -0.284 N 
ENDROOT
BRANCH   1  15
HETATM   15  N1  UNL     1       1.750  -0.414  -0.722  1.00  0.00    -0.354 N 
ATOM     16  H1  UNL     1       1.096  -1.191  -0.632  1.00  0.00     0.166 HD
BRANCH  15  17
HETATM   17  C7  UNL     1       1.281   0.580  -1.592  1.00  0.00     0.067 C 
BRANCH  17  18
HETATM   18  C6  UNL     1       0.386   1.628  -0.930  1.00  0.00     0.083 C 
BRANCH  18  19
HETATM   19  C5  UNL     1      -0.800   0.946  -0.360  1.00  0.00    -0.049 A 
HETATM   20  C4  UNL     1      -0.733   0.497   0.939  1.00  0.00     0.029 A 
HETATM   21  C3  UNL     1      -1.800  -0.153   1.542  1.00  0.00     0.047 A 
HETATM   22  C2  UNL     1      -2.961  -0.339   0.781  1.00  0.00     0.118 A 
HETATM   23 BR1  UNL     1      -1.702  -0.773   3.340  1.00  0.00    -0.048 Br
HETATM   24  C23 UNL     1      -3.057   0.096  -0.509  1.00  0.00     0.103 A 
HETATM   25  C22 UNL     1      -1.969   0.740  -1.075  1.00  0.00     0.047 A 
BRANCH  22  26
HETATM   26  O1  UNL     1      -4.042  -0.987   1.362  1.00  0.00    -0.352 OA
HETATM   27  C1  UNL     1      -4.191  -2.402   1.290  1.00  0.00     0.210 C 
ENDBRANCH  22  26
BRANCH  24  28
HETATM   28  O3  UNL     1      -4.236  -0.113  -1.227  1.00  0.00    -0.348 OA
BRANCH  28  29
HETATM   29  C24 UNL     1      -4.371   0.322  -2.565  1.00  0.00     0.181 C 
BRANCH  29  30
HETATM   30  C25 UNL     1      -5.742  -0.039  -3.068  1.00  0.00     0.072 C 
BRANCH  30  31
HETATM   31  C26 UNL     1      -6.869   0.557  -2.320  1.00  0.00     0.070 C 
BRANCH  31  32
HETATM   32  N6  UNL     1      -7.035   0.264  -0.968  1.00  0.00    -0.351 N 
HETATM   33  C27 UNL     1      -7.410  -1.033  -0.586  1.00  0.00     0.095 C 
HETATM   34  C28 UNL     1      -8.118  -1.196   0.714  1.00  0.00     0.277 C 
HETATM   35  N7  UNL     1      -7.931  -0.114   1.634  1.00  0.00    -0.066 N 
HETATM   36  C29 UNL     1      -8.091   1.177   0.974  1.00  0.00     0.277 C 
ATOM     37  H72 UNL     1      -8.547  -0.200   2.443  1.00  0.00     0.277 HD
ATOM     38  H71 UNL     1      -7.033  -0.181   2.113  1.00  0.00     0.277 HD
HETATM   39  C30 UNL     1      -6.944   1.281  -0.005  1.00  0.00     0.095 C 
ENDBRANCH  31  32
ENDBRANCH  30  31
ENDBRANCH  29  30
ENDBRANCH  28  29
ENDBRANCH  24  28
ENDBRANCH  18  19
ENDBRANCH  17  18
ENDBRANCH  15  17
ENDBRANCH   1  15
BRANCH  14  40
HETATM   40  C15 UNL     1       7.095   0.602   1.833  1.00  0.00     0.115 C 
BRANCH  40  41
HETATM   41  C16 UNL     1       8.081  -0.397   1.476  1.00  0.00     0.019 A 
HETATM   42  C17 UNL     1       8.076  -1.605   2.200  1.00  0.00     0.019 A 
HETATM   43  C18 UNL     1       9.004  -2.568   1.918  1.00  0.00     0.043 A 
HETATM   44  C19 UNL     1       9.966  -2.429   0.949  1.00  0.00     0.119 A 
HETATM   45  F1  UNL     1      10.878  -3.431   0.703  1.00  0.00    -0.206 F 
HETATM   46  C20 UNL     1       9.976  -1.259   0.245  1.00  0.00     0.085 A 
HETATM   47  C21 UNL     1       9.032  -0.259   0.520  1.00  0.00     0.131 A 
HETATM   48  F2  UNL     1       9.163   0.868  -0.258  1.00  0.00    -0.205 F 
ENDBRANCH  40  41
ENDBRANCH  14  40
BRANCH  13  49
HETATM   49  O2  UNL     1       6.926   2.976   0.250  1.00  0.00    -0.344 OA
ATOM     50  H2  UNL     1       7.671   2.770   0.802  1.00  0.00     0.219 HD
ENDBRANCH  13  49
TORSDOF 13
