REMARK  13 active torsions:
REMARK  status: ('A' for Active; 'I' for Inactive)
REMARK    1  A    between atoms: C5_5  and  C6_6 
REMARK    2  A    between atoms: C7_11  and  N3_12 
REMARK    3  A    between atoms: N3_12  and  C8_14 
REMARK    4  A    between atoms: C8_14  and  C9_15 
REMARK    5  A    between atoms: C9_15  and  C10_16 
REMARK    6  A    between atoms: C10_16  and  N4_17 
REMARK    7  A    between atoms: C17_25  and  N6_26 
REMARK    8  A    between atoms: N7_29  and  C20_30 
REMARK    9  A    between atoms: C20_30  and  C21_31 
REMARK   10  A    between atoms: C21_31  and  C22_32 
REMARK   11  A    between atoms: C22_32  and  C23_33 
REMARK   12  A    between atoms: C27_40  and  C28_41 
REMARK   13  A    between atoms: C28_41  and  N8_42 
ROOT
HETATM    1  C6  UNL     1      -0.168  -0.517   0.415  1.00  0.00     0.085 A 
HETATM    2  N1  UNL     1       0.770  -1.334   1.043  1.00  0.00    -0.296 N 
ATOM      3  H1  UNL     1       0.490  -2.280   1.300  1.00  0.00     0.187 HD
HETATM    4  N2  UNL     1       1.980  -0.956   1.318  1.00  0.00    -0.285 N 
ATOM      5  H2  UNL     1       2.624  -1.599   1.778  1.00  0.00     0.188 HD
HETATM    6  C7  UNL     1       2.386   0.294   0.994  1.00  0.00     0.121 A 
HETATM    7  C16 UNL     1       1.495   1.135   0.391  1.00  0.00     0.081 A 
HETATM    8  C17 UNL     1       0.150   0.741   0.074  1.00  0.00     0.063 A 
ENDROOT
BRANCH   1   9
HETATM    9  C5  UNL     1      -1.281  -1.227  -0.133  1.00  0.00    -0.005 A 
HETATM   10  C4  UNL     1      -0.858  -1.850  -1.353  1.00  0.00     0.014 A 
HETATM   11  C3  UNL     1      -1.696  -2.590  -2.109  1.00  0.00     0.008 A 
HETATM   12  C2  UNL     1      -2.977  -2.767  -1.726  1.00  0.00    -0.051 A 
HETATM   13  C1  UNL     1      -3.866  -3.528  -2.609  1.00  0.00     0.049 C 
HETATM   14  C27 UNL     1      -3.449  -2.191  -0.526  1.00  0.00    -0.019 A 
HETATM   15  C26 UNL     1      -2.563  -1.439   0.223  1.00  0.00     0.026 A 
BRANCH  14  16
HETATM   16  C28 UNL     1      -4.853  -2.415  -0.265  1.00  0.00     0.071 C 
BRANCH  16  17
HETATM   17  N8  UNL     1      -5.275  -3.258   0.838  1.00  0.00    -0.290 NA
HETATM   18  C29 UNL     1      -6.161  -4.296   0.240  1.00  0.00     0.114 C 
HETATM   19  C30 UNL     1      -5.543  -5.633   0.078  1.00  0.00     0.137 C 
HETATM   20  N9  UNL     1      -5.568  -6.426   1.314  1.00  0.00    -0.360 N 
HETATM   21  C31 UNL     1      -5.287  -5.831   2.586  1.00  0.00     0.218 C 
ATOM     22  H9  UNL     1      -5.790  -7.420   1.265  1.00  0.00     0.162 HD
HETATM   23  O1  UNL     1      -5.409  -6.666   3.519  1.00  0.00    -0.274 OA
HETATM   24  C32 UNL     1      -4.894  -4.432   2.889  1.00  0.00     0.117 C 
HETATM   25  C33 UNL     1      -4.256  -3.856   1.615  1.00  0.00     0.104 C 
ENDBRANCH  16  17
ENDBRANCH  14  16
ENDBRANCH   1   9
BRANCH   8  26
HETATM   26  N6  UNL     1      -0.699   1.711  -0.484  1.00  0.00    -0.376 N 
HETATM   27  C18 UNL     1      -1.583   1.725  -1.572  1.00  0.00     0.153 C 
HETATM   28  C19 UNL     1      -2.920   2.351  -1.148  1.00  0.00     0.292 C 
HETATM   29  N7  UNL     1      -2.628   3.786  -0.972  1.00  0.00     0.091 N 
HETATM   30  C24 UNL     1      -1.748   3.893   0.204  1.00  0.00     0.292 C 
HETATM   31  C25 UNL     1      -0.562   3.043   0.187  1.00  0.00     0.153 C 
BRANCH  29  32
HETATM   32  C20 UNL     1      -3.867   4.444  -0.568  1.00  0.00     0.273 C 
BRANCH  32  33
HETATM   33  C21 UNL     1      -3.719   5.944  -0.678  1.00  0.00     0.039 C 
BRANCH  33  34
HETATM   34  C22 UNL     1      -4.954   6.664  -0.180  1.00  0.00     0.119 C 
BRANCH  34  35
HETATM   35  C23 UNL     1      -4.728   8.157  -0.438  1.00  0.00     0.387 C 
HETATM   36  F1  UNL     1      -5.784   8.923   0.001  1.00  0.00    -0.171 F 
HETATM   37  F2  UNL     1      -4.601   8.283  -1.831  1.00  0.00    -0.171 F 
HETATM   38  F3  UNL     1      -3.514   8.499   0.084  1.00  0.00    -0.171 F 
ENDBRANCH  34  35
ENDBRANCH  33  34
ENDBRANCH  32  33
ENDBRANCH  29  32
ENDBRANCH   8  26
BRANCH   6  39
HETATM   39  N3  UNL     1       3.624   0.630   1.198  1.00  0.00    -0.355 N 
ATOM     40  H3  UNL     1       4.211  -0.109   1.585  1.00  0.00     0.166 HD
BRANCH  39  41
HETATM   41  C8  UNL     1       4.280   1.844   0.972  1.00  0.00     0.064 C 
BRANCH  41  42
HETATM   42  C9  UNL     1       5.740   1.902   1.320  1.00  0.00     0.074 C 
BRANCH  42  43
HETATM   43  C10 UNL     1       6.634   1.247   0.359  1.00  0.00     0.277 C 
BRANCH  43  44
HETATM   44  N4  UNL     1       6.582  -0.135   0.087  1.00  0.00     0.092 N 
HETATM   45  C11 UNL     1       7.223  -0.442  -1.194  1.00  0.00     0.302 C 
HETATM   46  C12 UNL     1       8.689  -0.583  -1.184  1.00  0.00     0.302 C 
HETATM   47  N5  UNL     1       9.023  -1.641  -0.239  1.00  0.00     0.087 N 
HETATM   48  C13 UNL     1      10.374  -2.087  -0.322  1.00  0.00     0.310 C 
HETATM   49  C14 UNL     1       8.671  -1.076   1.066  1.00  0.00     0.302 C 
HETATM   50  C15 UNL     1       7.188  -0.944   1.143  1.00  0.00     0.302 C 
ENDBRANCH  43  44
ENDBRANCH  42  43
ENDBRANCH  41  42
ENDBRANCH  39  41
ENDBRANCH   6  39
TORSDOF 13
