REMARK  5 active torsions:
REMARK  status: ('A' for Active; 'I' for Inactive)
REMARK    1  A    between atoms: N1_1  and  C1_4 
REMARK    2  A    between atoms: C2_7  and  C3_8 
REMARK    3  A    between atoms: C3_8  and  S1_9 
REMARK    4  A    between atoms: S1_9  and  C4_10 
REMARK    5  A    between atoms: C5_15  and  C6_16 
ROOT
HETATM    1  C4  UNL     1       0.734   1.070   0.912  1.00  0.00     0.203 A 
HETATM    2  N3  UNL     1       0.903   0.064   1.816  1.00  0.00    -0.272 N 
ATOM      3  H3  UNL     1       1.741  -0.148   2.357  1.00  0.00     0.189 HD
HETATM    4  N4  UNL     1      -0.253  -0.579   1.842  1.00  0.00    -0.281 N 
ATOM      5  H4  UNL     1      -0.448  -1.391   2.427  1.00  0.00     0.189 HD
HETATM    6  C5  UNL     1      -1.128  -0.027   1.004  1.00  0.00     0.145 A 
HETATM    7  O1  UNL     1      -0.489   0.982   0.450  1.00  0.00    -0.272 OA
ENDROOT
BRANCH   1   8
HETATM    8  S1  UNL     1       1.924   2.289   0.424  1.00  0.00    -0.079 SA
BRANCH   8   9
HETATM    9  C3  UNL     1       2.863   1.656  -0.975  1.00  0.00     0.140 C 
BRANCH   9  10
HETATM   10  C2  UNL     1       3.704   0.500  -0.659  1.00  0.00     0.037 A 
HETATM   11  N2  UNL     1       4.979   0.620  -0.243  1.00  0.00    -0.195 N 
HETATM   12  C1  UNL     1       5.768  -0.417   0.052  1.00  0.00     0.675 A 
ATOM     13  H2  UNL     1       5.366   1.559  -0.147  1.00  0.00     0.184 HD
HETATM   14  N5  UNL     1       5.231  -1.656  -0.083  1.00  0.00    -0.202 N 
HETATM   15  C13 UNL     1       3.977  -1.867  -0.489  1.00  0.00     0.108 A 
ATOM     16  H5  UNL     1       5.813  -2.464   0.136  1.00  0.00     0.183 HD
HETATM   17  C12 UNL     1       3.180  -0.780  -0.788  1.00  0.00     0.044 A 
BRANCH  12  18
HETATM   18  N1  UNL     1       6.997  -0.296   0.453  1.00  0.00    -0.234 N 
ATOM     19  H12 UNL     1       7.401   0.635   0.554  1.00  0.00     0.174 HD
ATOM     20  H11 UNL     1       7.599  -1.088   0.678  1.00  0.00     0.174 HD
ENDBRANCH  12  18
ENDBRANCH   9  10
ENDBRANCH   8   9
ENDBRANCH   1   8
BRANCH   6  21
HETATM   21  C6  UNL     1      -2.528  -0.435   0.730  1.00  0.00     0.062 C 
HETATM   22  C7  UNL     1      -2.597  -0.917  -0.699  1.00  0.00     0.013 C 
HETATM   23  C8  UNL     1      -4.011  -0.950  -1.220  1.00  0.00     0.001 C 
HETATM   24  C9  UNL     1      -4.621   0.408  -1.200  1.00  0.00     0.000 C 
HETATM   25  C10 UNL     1      -4.140   1.300  -0.119  1.00  0.00     0.001 C 
HETATM   26  C11 UNL     1      -3.538   0.600   1.061  1.00  0.00     0.013 C 
ENDBRANCH   6  21
TORSDOF 5
