REMARK  10 active torsions:
REMARK  status: ('A' for Active; 'I' for Inactive)
REMARK    1  A    between atoms: C1_4  and  C2_5 
REMARK    2  A    between atoms: C2_5  and  N2_6 
REMARK    3  A    between atoms: C2_5  and  C11_19 
REMARK    4  A    between atoms: N2_6  and  N3_7 
REMARK       I    between atoms: N3_7  and  C3_9 
REMARK    5  A    between atoms: C3_9  and  C4_11 
REMARK    6  A    between atoms: C4_11  and  O2_12 
REMARK    7  A    between atoms: O2_12  and  C5_13 
REMARK    8  A    between atoms: C11_19  and  C12_21 
REMARK    9  A    between atoms: C12_21  and  C13_22 
REMARK   10  A    between atoms: C13_22  and  N4_23 
ROOT
HETATM    1  C2  UNL     1      -2.516   0.315  -0.262  1.00  0.00     0.206 C 
ENDROOT
BRANCH   1   2
HETATM    2  C1  UNL     1      -2.219   1.615   0.421  1.00  0.00     0.083 C 
HETATM    3  N1  UNL     1      -2.156   1.638   1.678  1.00  0.00    -0.409 N 
ATOM      4  H12 UNL     1      -2.307   0.779   2.207  1.00  0.00     0.155 HD
ATOM      5  H11 UNL     1      -1.954   2.523   2.143  1.00  0.00     0.155 HD
ENDBRANCH   1   2
BRANCH   1   6
HETATM    6  N2  UNL     1      -1.519  -0.651   0.107  1.00  0.00    -0.121 NA
BRANCH   6   7
HETATM    7  N3  UNL     1      -0.260  -0.108  -0.237  1.00  0.00    -0.271 N 
HETATM    8  C3  UNL     1       0.930  -0.764   0.230  1.00  0.00     0.257 C 
HETATM    9  O1  UNL     1       0.841  -1.803   0.929  1.00  0.00    -0.270 OA
ATOM     10  H3  UNL     1      -0.197   0.735  -0.807  1.00  0.00     0.185 HD
BRANCH   8  11
HETATM   11  C4  UNL     1       2.249  -0.213  -0.112  1.00  0.00     0.279 C 
BRANCH  11  12
HETATM   12  O2  UNL     1       3.278  -1.008   0.443  1.00  0.00    -0.342 OA
BRANCH  12  13
HETATM   13  C5  UNL     1       4.623  -0.707   0.277  1.00  0.00     0.069 A 
HETATM   14  C6  UNL     1       5.571  -1.527   0.845  1.00  0.00     0.037 A 
HETATM   15  C7  UNL     1       6.937  -1.261   0.703  1.00  0.00     0.003 A 
HETATM   16  C8  UNL     1       7.346  -0.154  -0.021  1.00  0.00     0.000 A 
HETATM   17  C9  UNL     1       6.414   0.679  -0.598  1.00  0.00     0.003 A 
HETATM   18  C10 UNL     1       5.064   0.387  -0.439  1.00  0.00     0.037 A 
ENDBRANCH  12  13
ENDBRANCH  11  12
ENDBRANCH   8  11
ENDBRANCH   6   7
ENDBRANCH   1   6
BRANCH   1  19
HETATM   19  C11 UNL     1      -3.876  -0.067   0.210  1.00  0.00     0.154 C 
HETATM   20  O3  UNL     1      -4.131  -1.075   0.834  1.00  0.00    -0.296 OA
BRANCH  19  21
HETATM   21  C12 UNL     1      -4.999   0.851  -0.107  1.00  0.00     0.107 C 
BRANCH  21  22
HETATM   22  C13 UNL     1      -6.313   0.338   0.482  1.00  0.00     0.237 C 
BRANCH  22  23
HETATM   23  N4  UNL     1      -6.572  -0.960  -0.092  1.00  0.00    -0.079 N 
ATOM     24  H43 UNL     1      -6.571  -0.950  -1.112  1.00  0.00     0.274 HD
ATOM     25  H42 UNL     1      -5.798  -1.612   0.036  1.00  0.00     0.274 HD
ATOM     26  H41 UNL     1      -7.449  -1.302   0.301  1.00  0.00     0.274 HD
ENDBRANCH  22  23
ENDBRANCH  21  22
ENDBRANCH  19  21
ENDBRANCH   1  19
TORSDOF 10
