REMARK  13 active torsions:
REMARK  status: ('A' for Active; 'I' for Inactive)
REMARK    1  A    between atoms: C1_2  and  C2_4 
REMARK    2  A    between atoms: C2_4  and  N2_5 
REMARK    3  A    between atoms: N3_8  and  C5_9 
REMARK    4  A    between atoms: C5_9  and  C6_10 
REMARK    5  A    between atoms: C5_9  and  C16_26 
REMARK    6  A    between atoms: C6_10  and  N4_11 
REMARK    7  A    between atoms: N4_11  and  C7_13 
REMARK    8  A    between atoms: C7_13  and  C8_14 
REMARK    9  A    between atoms: C8_14  and  C9_15 
REMARK   10  A    between atoms: C9_15  and  C10_16 
REMARK   11  A    between atoms: C16_26  and  O2_27 
REMARK   12  A    between atoms: O2_27  and  C17_28 
REMARK   13  A    between atoms: C21_35  and  O4_36 
ROOT
HETATM    1  C5  UNL     1      -0.775   0.157   0.977  1.00  0.00     0.120 C 
ENDROOT
BRANCH   1   2
HETATM    2  N3  UNL     1      -1.240   1.216   0.191  1.00  0.00    -0.402 N 
HETATM    3  C4  UNL     1      -2.009   1.114  -0.946  1.00  0.00     0.137 C 
HETATM    4  C3  UNL     1      -2.940   2.345  -1.049  1.00  0.00     0.141 C 
HETATM    5  N2  UNL     1      -2.970   3.119   0.118  1.00  0.00    -0.383 N 
HETATM    6  C23 UNL     1      -1.735   3.558   0.672  1.00  0.00     0.141 C 
HETATM    7  C22 UNL     1      -0.654   2.506   0.474  1.00  0.00     0.137 C 
BRANCH   5   8
HETATM    8  C2  UNL     1      -4.151   3.400   0.797  1.00  0.00     0.157 C 
BRANCH   8   9
HETATM    9  C1  UNL     1      -5.072   4.323   0.061  1.00  0.00     0.269 C 
HETATM   10  N1  UNL     1      -4.693   4.808  -1.209  1.00  0.00    -0.057 NA
HETATM   11  O1  UNL     1      -6.170   4.657   0.573  1.00  0.00    -0.270 OA
ENDBRANCH   8   9
ENDBRANCH   5   8
ENDBRANCH   1   2
BRANCH   1  12
HETATM   12  C6  UNL     1       0.201  -0.706   0.227  1.00  0.00     0.141 C 
BRANCH  12  13
HETATM   13  N4  UNL     1       1.383  -0.015  -0.229  1.00  0.00    -0.419 N 
ATOM     14  H4  UNL     1       1.556   0.181  -1.215  1.00  0.00     0.153 HD
BRANCH  13  15
HETATM   15  C7  UNL     1       2.293   0.374   0.799  1.00  0.00     0.114 C 
BRANCH  15  16
HETATM   16  C8  UNL     1       2.991  -0.751   1.475  1.00  0.00     0.025 C 
BRANCH  16  17
HETATM   17  C9  UNL     1       3.868  -1.600   0.620  1.00  0.00     0.058 C 
BRANCH  17  18
HETATM   18  C10 UNL     1       4.982  -0.807   0.049  1.00  0.00     0.010 A 
HETATM   19  C11 UNL     1       5.041  -0.123  -1.129  1.00  0.00     0.040 A 
HETATM   20  C12 UNL     1       6.294   0.468  -1.225  1.00  0.00     0.009 A 
HETATM   21  C13 UNL     1       7.161   1.248  -1.954  1.00  0.00     0.101 A 
HETATM   22  C15 UNL     1       6.956   0.098  -0.054  1.00  0.00     0.059 A 
HETATM   23  N5  UNL     1       8.318   1.370  -1.280  1.00  0.00    -0.372 N 
HETATM   24  C14 UNL     1       8.206   0.681  -0.136  1.00  0.00     0.117 A 
ATOM     25  H5  UNL     1       9.137   1.895  -1.586  1.00  0.00     0.164 HD
HETATM   26  N6  UNL     1       6.164  -0.666   0.703  1.00  0.00    -0.358 N 
ATOM     27  H6  UNL     1       6.403  -1.070   1.608  1.00  0.00     0.166 HD
ENDBRANCH  17  18
ENDBRANCH  16  17
ENDBRANCH  15  16
ENDBRANCH  13  15
ENDBRANCH  12  13
ENDBRANCH   1  12
BRANCH   1  28
HETATM   28  C16 UNL     1      -1.780  -0.624   1.725  1.00  0.00     0.197 C 
BRANCH  28  29
HETATM   29  O2  UNL     1      -2.687  -1.359   1.113  1.00  0.00    -0.362 OA
BRANCH  29  30
HETATM   30  C17 UNL     1      -2.470  -2.549   0.519  1.00  0.00     0.252 C 
HETATM   31  N7  UNL     1      -3.079  -3.634   1.335  1.00  0.00    -0.332 N 
HETATM   32  C18 UNL     1      -3.331  -4.874   0.776  1.00  0.00     0.219 C 
ATOM     33  H7  UNL     1      -3.312  -3.462   2.313  1.00  0.00     0.165 HD
HETATM   34  O3  UNL     1      -3.674  -5.884   1.513  1.00  0.00    -0.274 OA
HETATM   35  C19 UNL     1      -3.222  -5.114  -0.678  1.00  0.00     0.105 C 
HETATM   36  C20 UNL     1      -2.287  -4.113  -1.317  1.00  0.00     0.045 C 
HETATM   37  C21 UNL     1      -2.865  -2.740  -0.907  1.00  0.00     0.167 C 
BRANCH  37  38
HETATM   38  O4  UNL     1      -4.226  -2.812  -1.118  1.00  0.00    -0.391 OA
ATOM     39  H4  UNL     1      -4.478  -2.934  -2.026  1.00  0.00     0.210 HD
ENDBRANCH  37  38
ENDBRANCH  29  30
ENDBRANCH  28  29
ENDBRANCH   1  28
TORSDOF 13
