REMARK  9 active torsions:
REMARK  status: ('A' for Active; 'I' for Inactive)
REMARK    1  A    between atoms: N1_1  and  C1_4 
REMARK    2  A    between atoms: N4_13  and  C5_14 
REMARK    3  A    between atoms: C6_16  and  C7_17 
REMARK    4  A    between atoms: C7_17  and  O3_18 
REMARK    5  A    between atoms: O3_18  and  S1_19 
REMARK    6  A    between atoms: C8_23  and  C9_24 
REMARK       I    between atoms: C9_24  and  N5_26 
REMARK    7  A    between atoms: N5_26  and  N6_28 
REMARK    8  A    between atoms: C10_31  and  O8_32 
REMARK    9  A    between atoms: C10_31  and  O9_34 
ROOT
HETATM    1  C5  UNL     1       0.306   0.349  -0.712  1.00  0.00     0.294 C 
HETATM    2  O2  UNL     1      -0.070   0.667   0.552  1.00  0.00    -0.352 OA
HETATM    3  C6  UNL     1      -1.448   0.550   0.581  1.00  0.00     0.168 C 
HETATM    4  C8  UNL     1      -1.849  -0.429  -0.493  1.00  0.00     0.177 C 
HETATM    5  C10 UNL     1      -0.499  -0.937  -0.950  1.00  0.00     0.220 C 
ENDROOT
BRANCH   1   6
HETATM    6  N4  UNL     1       1.691   0.224  -0.996  1.00  0.00    -0.294 N 
HETATM    7  C4  UNL     1       2.156   0.156  -2.272  1.00  0.00     0.188 A 
HETATM    8  N3  UNL     1       3.489   0.044  -2.227  1.00  0.00    -0.345 N 
HETATM    9  C3  UNL     1       3.879   0.039  -0.945  1.00  0.00     0.147 A 
ATOM     10  H3  UNL     1       4.107  -0.026  -3.036  1.00  0.00     0.167 HD
HETATM   11  C2  UNL     1       5.149  -0.056  -0.389  1.00  0.00     0.290 A 
HETATM   12  C11 UNL     1       2.734   0.154  -0.171  1.00  0.00     0.159 A 
HETATM   13  N2  UNL     1       5.195  -0.029   0.956  1.00  0.00    -0.154 N 
HETATM   14  O1  UNL     1       6.151  -0.157  -1.126  1.00  0.00    -0.265 OA
HETATM   15  C1  UNL     1       4.092   0.081   1.713  1.00  0.00     0.680 A 
ATOM     16  H2  UNL     1       6.102  -0.095   1.417  1.00  0.00     0.187 HD
HETATM   17  N7  UNL     1       2.850   0.174   1.174  1.00  0.00    -0.174 N 
ATOM     18  H7  UNL     1       2.026   0.257   1.769  1.00  0.00     0.186 HD
BRANCH  15  19
HETATM   19  N1  UNL     1       4.222   0.099   2.989  1.00  0.00    -0.234 N 
ATOM     20  H12 UNL     1       5.155   0.029   3.394  1.00  0.00     0.174 HD
ATOM     21  H11 UNL     1       3.384   0.183   3.564  1.00  0.00     0.174 HD
ENDBRANCH  15  19
ENDBRANCH   1   6
BRANCH   5  22
HETATM   22  O8  UNL     1      -0.498  -1.277  -2.294  1.00  0.00    -0.361 OA
ATOM     23  H8  UNL     1      -0.996  -2.073  -2.441  1.00  0.00     0.213 HD
ENDBRANCH   5  22
BRANCH   5  24
HETATM   24  O9  UNL     1      -0.003  -1.913  -0.132  1.00  0.00    -0.361 OA
ATOM     25  H9  UNL     1      -0.501  -2.709  -0.279  1.00  0.00     0.213 HD
ENDBRANCH   5  24
BRANCH   3  26
HETATM   26  C7  UNL     1      -2.037   1.933   0.310  1.00  0.00     0.226 C 
BRANCH  26  27
HETATM   27  O3  UNL     1      -3.424   1.772   0.348  1.00  0.00    -0.254 OA
BRANCH  27  28
HETATM   28  S1  UNL     1      -4.250   3.185   0.072  1.00  0.00     0.251 S 
HETATM   29  O4  UNL     1      -3.793   4.309   0.963  1.00  0.00    -0.572 OA
HETATM   30  O5  UNL     1      -4.109   3.658  -1.347  1.00  0.00    -0.572 OA
HETATM   31  O6  UNL     1      -5.881   2.898   0.412  1.00  0.00    -0.572 OA
ENDBRANCH  27  28
ENDBRANCH  26  27
ENDBRANCH   3  26
BRANCH   4  32
HETATM   32  C9  UNL     1      -2.785  -1.464  -0.060  1.00  0.00     0.247 C 
HETATM   33  O7  UNL     1      -3.876  -1.564  -0.707  1.00  0.00    -0.271 OA
HETATM   34  N5  UNL     1      -2.589  -2.357   1.005  1.00  0.00    -0.276 N 
ATOM     35  H5  UNL     1      -1.729  -2.311   1.552  1.00  0.00     0.189 HD
BRANCH  34  36
HETATM   36  N6  UNL     1      -3.554  -3.302   1.320  1.00  0.00    -0.343 N 
ATOM     37  H62 UNL     1      -4.408  -3.335   0.763  1.00  0.00     0.176 HD
ATOM     38  H61 UNL     1      -3.412  -3.951   2.094  1.00  0.00     0.176 HD
ENDBRANCH  34  36
ENDBRANCH   4  32
TORSDOF 9
