REMARK  3 active torsions:
REMARK  status: ('A' for Active; 'I' for Inactive)
REMARK    1  A    between atoms: N1_1  and  N2_4 
REMARK    2  A    between atoms: C3_9  and  N4_10 
REMARK    3  A    between atoms: N4_10  and  C4_12 
ROOT
HETATM    1  N4  UNL     1       0.424  -1.099  -0.549  1.00  0.00    -0.019 N 
ATOM      2  H4  UNL     1       0.343  -2.088  -0.786  1.00  0.00     0.203 HD
ENDROOT
BRANCH   1   3
HETATM    3  C3  UNL     1      -0.720  -0.401  -0.116  1.00  0.00     0.709 C 
HETATM    4  N2  UNL     1      -1.567  -0.749   0.987  1.00  0.00    -0.129 N 
HETATM    5  C1  UNL     1      -2.822  -0.057   0.760  1.00  0.00     0.187 C 
HETATM    6  C2  UNL     1      -2.347   1.152  -0.005  1.00  0.00     0.160 C 
HETATM    7  N3  UNL     1      -1.164   0.671  -0.671  1.00  0.00    -0.223 N 
ATOM      8  H3  UNL     1      -0.734   1.122  -1.478  1.00  0.00     0.177 HD
BRANCH   4   9
HETATM    9  N1  UNL     1      -1.185  -1.591   2.029  1.00  0.00    -0.329 N 
ATOM     10  H12 UNL     1      -1.788  -1.839   2.814  1.00  0.00     0.177 HD
ATOM     11  H11 UNL     1      -0.303  -2.077   2.189  1.00  0.00     0.177 HD
ENDBRANCH   4   9
ENDBRANCH   1   3
BRANCH   1  12
HETATM   12  C4  UNL     1       1.561  -0.526  -0.653  1.00  0.00     0.712 A 
HETATM   13  N5  UNL     1       2.713  -1.093  -1.055  1.00  0.00    -0.185 N 
HETATM   14  C5  UNL     1       3.718  -0.198  -1.046  1.00  0.00     0.215 A 
ATOM     15  H5  UNL     1       2.811  -2.070  -1.330  1.00  0.00     0.185 HD
HETATM   16  N6  UNL     1       3.178   0.962  -0.627  1.00  0.00    -0.281 N 
HETATM   17  N7  UNL     1       1.875   0.757  -0.391  1.00  0.00    -0.131 N 
ATOM     18  H6  UNL     1       3.675   1.845  -0.509  1.00  0.00     0.188 HD
ATOM     19  H7  UNL     1       1.220   1.466  -0.062  1.00  0.00     0.205 HD
ENDBRANCH   1  12
TORSDOF 3
