REMARK  11 active torsions:
REMARK  status: ('A' for Active; 'I' for Inactive)
REMARK    1  A    between atoms: C4_4  and  C5_5 
REMARK    2  A    between atoms: C5_5  and  C6_6 
REMARK    3  A    between atoms: C6_6  and  C7_7 
REMARK    4  A    between atoms: C8_8  and  C9_9 
REMARK    5  A    between atoms: C11_11  and  N1_12 
REMARK    6  A    between atoms: C16_19  and  O3_20 
REMARK    7  A    between atoms: C17_22  and  O4_23 
REMARK    8  A    between atoms: C20_27  and  C21_28 
REMARK    9  A    between atoms: C21_28  and  C22_29 
REMARK   10  A    between atoms: C22_29  and  C23_30 
REMARK   11  A    between atoms: C23_30  and  C24_31 
ROOT
HETATM    1  C5  UNL     1       0.904   3.663   0.500  1.00  0.00     0.042 C 
ENDROOT
BRANCH   1   2
HETATM    2  C4  UNL     1      -0.365   3.262  -0.122  1.00  0.00    -0.057 A 
HETATM    3  C3  UNL     1      -1.544   3.672   0.431  1.00  0.00     0.014 A 
HETATM    4  C2  UNL     1      -2.756   3.318  -0.139  1.00  0.00    -0.055 A 
HETATM    5  C1  UNL     1      -3.962   3.886   0.532  1.00  0.00     0.049 C 
HETATM    6  C20 UNL     1      -2.847   2.556  -1.259  1.00  0.00    -0.052 A 
HETATM    7  C19 UNL     1      -1.626   2.142  -1.818  1.00  0.00     0.008 A 
HETATM    8  C18 UNL     1      -0.424   2.493  -1.254  1.00  0.00     0.007 A 
BRANCH   6   9
HETATM    9  C21 UNL     1      -4.076   2.108  -1.868  1.00  0.00     0.039 C 
BRANCH   9  10
HETATM   10  C22 UNL     1      -4.706   0.857  -1.392  1.00  0.00     0.005 C 
BRANCH  10  11
HETATM   11  C23 UNL     1      -5.130   0.752   0.016  1.00  0.00     0.005 C 
BRANCH  11  12
HETATM   12  C24 UNL     1      -5.758  -0.594   0.351  1.00  0.00    -0.014 C 
HETATM   13  C25 UNL     1      -6.972  -0.896  -0.463  1.00  0.00     0.010 C 
HETATM   14  C26 UNL     1      -7.669  -2.106   0.117  1.00  0.00     0.079 C 
HETATM   15  C27 UNL     1      -6.780  -2.999   0.919  1.00  0.00     0.243 C 
HETATM   16  F1  UNL     1      -6.803  -2.708   2.272  1.00  0.00    -0.206 F 
HETATM   17  F2  UNL     1      -7.270  -4.309   0.823  1.00  0.00    -0.206 F 
HETATM   18  C28 UNL     1      -5.358  -3.051   0.466  1.00  0.00     0.079 C 
HETATM   19  C29 UNL     1      -4.734  -1.670   0.328  1.00  0.00     0.010 C 
ENDBRANCH  11  12
ENDBRANCH  10  11
ENDBRANCH   9  10
ENDBRANCH   6   9
ENDBRANCH   1   2
BRANCH   1  20
HETATM   20  C6  UNL     1       1.325   2.689   1.551  1.00  0.00     0.031 C 
BRANCH  20  21
HETATM   21  C7  UNL     1       1.522   1.353   0.944  1.00  0.00    -0.030 C 
HETATM   22  C8  UNL     1       2.708   0.776   1.008  1.00  0.00    -0.023 C 
BRANCH  22  23
HETATM   23  C9  UNL     1       3.017  -0.557   0.435  1.00  0.00     0.041 C 
HETATM   24  C10 UNL     1       4.148  -0.448  -0.583  1.00  0.00     0.039 C 
HETATM   25  C11 UNL     1       5.077  -1.517  -0.177  1.00  0.00     0.119 C 
HETATM   26  C16 UNL     1       5.008  -1.548   1.328  1.00  0.00     0.170 C 
HETATM   27  C17 UNL     1       3.478  -1.534   1.494  1.00  0.00     0.156 C 
BRANCH  25  28
HETATM   28  N1  UNL     1       6.375  -1.553  -0.722  1.00  0.00    -0.341 N 
HETATM   29  C12 UNL     1       6.870  -2.692  -1.526  1.00  0.00     0.152 C 
HETATM   30  C13 UNL     1       8.162  -3.157  -0.944  1.00  0.00     0.188 C 
HETATM   31  O1  UNL     1       8.948  -2.218  -0.354  1.00  0.00    -0.380 OA
HETATM   32  C14 UNL     1       8.763  -0.917  -0.741  1.00  0.00     0.270 C 
HETATM   33  C15 UNL     1       7.325  -0.515  -0.553  1.00  0.00     0.244 C 
HETATM   34  O2  UNL     1       6.943   0.622  -0.272  1.00  0.00    -0.271 OA
ENDBRANCH  25  28
BRANCH  26  35
HETATM   35  O3  UNL     1       5.466  -0.426   1.966  1.00  0.00    -0.391 OA
ATOM     36  H3  UNL     1       5.423  -0.446   2.915  1.00  0.00     0.210 HD
ENDBRANCH  26  35
BRANCH  27  37
HETATM   37  O4  UNL     1       3.084  -1.220   2.768  1.00  0.00    -0.392 OA
ATOM     38  H4  UNL     1       3.373  -1.834   3.433  1.00  0.00     0.210 HD
ENDBRANCH  27  37
ENDBRANCH  22  23
ENDBRANCH  20  21
ENDBRANCH   1  20
TORSDOF 11
