REMARK  11 active torsions:
REMARK  status: ('A' for Active; 'I' for Inactive)
REMARK    1  A    between atoms: N1_2  and  C2_5 
REMARK    2  A    between atoms: C2_5  and  C3_6 
REMARK    3  A    between atoms: C3_6  and  C4_7 
REMARK    4  A    between atoms: C4_7  and  O1_8 
REMARK    5  A    between atoms: O1_8  and  C5_9 
REMARK    6  A    between atoms: C12_16  and  C13_17 
REMARK    7  A    between atoms: C13_17  and  N2_18 
REMARK       I    between atoms: N2_18  and  C14_20 
REMARK    8  A    between atoms: C14_20  and  C15_22 
REMARK    9  A    between atoms: C15_22  and  C19_26 
REMARK   10  A    between atoms: C24_31  and  C25_32 
REMARK   11  A    between atoms: C27_37  and  N3_38 
ROOT
HETATM    1  C5  UNL     1      -0.541  -0.001  -1.039  1.00  0.00     0.135 C 
HETATM    2  C6  UNL     1      -0.928  -0.150  -2.489  1.00  0.00     0.033 C 
HETATM    3  C7  UNL     1      -2.332  -0.637  -2.676  1.00  0.00     0.007 C 
HETATM    4  C8  UNL     1      -2.462  -2.139  -2.562  1.00  0.00    -0.012 C 
HETATM    5  C9  UNL     1      -1.222  -2.858  -3.022  1.00  0.00     0.009 C 
HETATM    6  C10 UNL     1      -0.289  -3.244  -1.958  1.00  0.00    -0.011 C 
HETATM    7  C11 UNL     1       0.570  -2.192  -1.317  1.00  0.00     0.022 C 
HETATM    8  C12 UNL     1      -0.036  -1.263  -0.371  1.00  0.00     0.021 C 
HETATM    9  C26 UNL     1      -1.207  -1.873   0.413  1.00  0.00     0.048 C 
HETATM   10  C27 UNL     1      -1.919  -2.985  -0.226  1.00  0.00     0.037 C 
HETATM   11  C32 UNL     1      -2.947  -2.618  -1.247  1.00  0.00     0.036 C 
HETATM   12  C33 UNL     1      -0.977  -4.002  -0.872  1.00  0.00     0.036 C 
ENDROOT
BRANCH   8  13
HETATM   13  C13 UNL     1       0.881  -0.781   0.720  1.00  0.00     0.076 C 
BRANCH  13  14
HETATM   14  N2  UNL     1       2.003  -0.006   0.523  1.00  0.00    -0.336 N 
HETATM   15  C14 UNL     1       3.233  -0.257  -0.122  1.00  0.00     0.256 C 
HETATM   16  O2  UNL     1       3.525  -1.342  -0.666  1.00  0.00    -0.267 OA
ATOM     17  H2  UNL     1       1.931   0.931   0.920  1.00  0.00     0.168 HD
BRANCH  15  18
HETATM   18  C15 UNL     1       4.286   0.787  -0.189  1.00  0.00     0.045 C 
HETATM   19  C16 UNL     1       5.405   0.496  -0.779  1.00  0.00    -0.063 A 
HETATM   20  C17 UNL     1       6.256  -0.533  -1.529  1.00  0.00     0.039 A 
HETATM   21  C18 UNL     1       6.844   0.756  -1.222  1.00  0.00     0.039 A 
BRANCH  18  22
HETATM   22  C19 UNL     1       4.014   2.055   0.416  1.00  0.00    -0.005 A 
HETATM   23  C20 UNL     1       4.198   2.137   1.821  1.00  0.00     0.013 A 
HETATM   24  C21 UNL     1       3.924   3.285   2.511  1.00  0.00     0.001 A 
HETATM   25  C22 UNL     1       3.460   4.369   1.795  1.00  0.00     0.001 A 
HETATM   26  C23 UNL     1       3.283   4.292   0.437  1.00  0.00     0.017 A 
HETATM   27  C24 UNL     1       3.560   3.120  -0.279  1.00  0.00     0.059 A 
BRANCH  27  28
HETATM   28  C25 UNL     1       3.344   3.158  -1.706  1.00  0.00     0.418 C 
HETATM   29  F1  UNL     1       4.494   2.995  -2.439  1.00  0.00    -0.166 F 
HETATM   30  F2  UNL     1       2.454   2.217  -2.201  1.00  0.00    -0.166 F 
HETATM   31  F3  UNL     1       2.826   4.403  -2.113  1.00  0.00    -0.166 F 
ENDBRANCH  27  28
ENDBRANCH  18  22
ENDBRANCH  15  18
ENDBRANCH  13  14
ENDBRANCH   8  13
BRANCH   1  32
HETATM   32  O1  UNL     1      -1.579   0.618  -0.339  1.00  0.00    -0.384 OA
BRANCH  32  33
HETATM   33  C4  UNL     1      -1.184   1.876   0.027  1.00  0.00     0.179 C 
BRANCH  33  34
HETATM   34  C3  UNL     1      -2.253   2.640   0.780  1.00  0.00     0.005 A 
HETATM   35  C34 UNL     1      -3.654   2.544   0.191  1.00  0.00     0.014 A 
HETATM   36  C35 UNL     1      -3.297   1.923   1.546  1.00  0.00     0.014 A 
BRANCH  34  37
HETATM   37  C2  UNL     1      -1.841   4.032   1.192  1.00  0.00     0.243 C 
BRANCH  37  38
HETATM   38  N1  UNL     1      -0.681   4.029   2.064  1.00  0.00    -0.078 N 
HETATM   39  C1  UNL     1      -0.334   5.409   2.437  1.00  0.00     0.267 C 
ATOM     40  H12 UNL     1       0.109   3.534   1.650  1.00  0.00     0.276 HD
ATOM     41  H11 UNL     1      -0.817   3.434   2.881  1.00  0.00     0.276 HD
ENDBRANCH  37  38
ENDBRANCH  34  37
ENDBRANCH  33  34
ENDBRANCH  32  33
ENDBRANCH   1  32
BRANCH  10  42
HETATM   42  N3  UNL     1      -2.631  -3.751   0.811  1.00  0.00    -0.343 N 
HETATM   43  C28 UNL     1      -4.087  -3.967   0.892  1.00  0.00     0.127 C 
HETATM   44  C29 UNL     1      -4.342  -4.240   2.337  1.00  0.00     0.029 C 
HETATM   45  C30 UNL     1      -3.150  -5.034   2.766  1.00  0.00     0.104 C 
HETATM   46  C31 UNL     1      -2.065  -4.420   1.923  1.00  0.00     0.220 C 
HETATM   47  O3  UNL     1      -0.856  -4.527   2.225  1.00  0.00    -0.273 OA
ENDBRANCH  10  42
TORSDOF 11
