REMARK  3 active torsions:
REMARK  status: ('A' for Active; 'I' for Inactive)
REMARK    1  A    between atoms: C5_7  and  C6_8 
REMARK    2  A    between atoms: C6_8  and  S1_9 
REMARK    3  A    between atoms: S1_9  and  C7_10 
ROOT
HETATM    1  N1  UNL     1      -5.295  -1.296   1.646  1.00  0.00    -0.195 NA
HETATM    2  C1  UNL     1      -4.280  -0.764   1.483  1.00  0.00     0.095 C 
HETATM    3  C2  UNL     1      -2.984  -0.079   1.248  1.00  0.00     0.315 C 
HETATM    4  C3  UNL     1      -3.245   1.214   0.561  1.00  0.00     0.215 C 
HETATM    5  O1  UNL     1      -2.198   1.701  -0.177  1.00  0.00    -0.386 OA
HETATM    6  C4  UNL     1      -1.610   0.765  -1.014  1.00  0.00     0.201 C 
HETATM    7  C5  UNL     1      -1.062  -0.347  -0.174  1.00  0.00     0.220 C 
HETATM    8  N2  UNL     1      -2.193  -1.009   0.465  1.00  0.00    -0.049 N 
ATOM      9  H21 UNL     1      -2.768  -1.505  -0.216  1.00  0.00     0.279 HD
ATOM     10  H22 UNL     1      -1.890  -1.805   1.026  1.00  0.00     0.279 HD
ENDROOT
BRANCH   7  11
HETATM   11  C6  UNL     1      -0.364  -1.411  -0.979  1.00  0.00     0.114 C 
BRANCH  11  12
HETATM   12  S1  UNL     1       1.032  -0.837  -1.929  1.00  0.00    -0.128 SA
BRANCH  12  13
HETATM   13  C7  UNL     1       2.389  -0.282  -0.909  1.00  0.00     0.000 A 
HETATM   14  C8  UNL     1       2.490   1.033  -0.501  1.00  0.00     0.018 A 
HETATM   15  C9  UNL     1       3.542   1.478   0.293  1.00  0.00     0.001 A 
HETATM   16  C10 UNL     1       4.529   0.600   0.702  1.00  0.00     0.000 A 
HETATM   17  C11 UNL     1       4.418  -0.710   0.290  1.00  0.00     0.001 A 
HETATM   18  C12 UNL     1       3.378  -1.161  -0.499  1.00  0.00     0.018 A 
ENDBRANCH  12  13
ENDBRANCH  11  12
ENDBRANCH   7  11
TORSDOF 3
