REMARK  9 active torsions:
REMARK  status: ('A' for Active; 'I' for Inactive)
REMARK    1  A    between atoms: C2_2  and  N1_5 
REMARK    2  A    between atoms: N1_5  and  N2_6 
REMARK    3  A    between atoms: N1_5  and  C13_19 
REMARK       I    between atoms: N2_6  and  C5_8 
REMARK    4  A    between atoms: C5_8  and  C6_10 
REMARK    5  A    between atoms: C11_15  and  C12_16 
REMARK    6  A    between atoms: C13_19  and  O4_20 
REMARK    7  A    between atoms: C13_19  and  C14_22 
REMARK    8  A    between atoms: C17_25  and  C18_26 
REMARK    9  A    between atoms: C20_31  and  N3_32 
ROOT
HETATM    1  N1  UNL     1      -0.152  -1.471  -0.098  1.00  0.00    -0.259 N 
ENDROOT
BRANCH   1   2
HETATM    2  C2  UNL     1       0.167  -2.909   0.134  1.00  0.00     0.045 C 
HETATM    3  C1  UNL     1      -0.257  -3.391   1.488  1.00  0.00     0.039 C 
HETATM    4  C3  UNL     1      -0.493  -3.773  -0.907  1.00  0.00     0.039 C 
HETATM    5  C4  UNL     1       1.637  -3.136   0.000  1.00  0.00     0.039 C 
ENDBRANCH   1   2
BRANCH   1   6
HETATM    6  N2  UNL     1       0.902  -0.635  -0.286  1.00  0.00    -0.261 N 
HETATM    7  C5  UNL     1       1.186   0.723  -0.196  1.00  0.00     0.271 C 
HETATM    8  O1  UNL     1       0.390   1.609   0.121  1.00  0.00    -0.266 OA
ATOM      9  H2  UNL     1       1.728  -1.157  -0.579  1.00  0.00     0.190 HD
BRANCH   7  10
HETATM   10  C6  UNL     1       2.559   1.240  -0.502  1.00  0.00     0.050 A 
HETATM   11  C7  UNL     1       2.986   1.227  -1.795  1.00  0.00     0.018 A 
HETATM   12  C8  UNL     1       4.246   1.665  -2.156  1.00  0.00     0.001 A 
HETATM   13  C9  UNL     1       5.061   2.120  -1.129  1.00  0.00     0.001 A 
HETATM   14  C10 UNL     1       4.664   2.142   0.170  1.00  0.00     0.019 A 
HETATM   15  C11 UNL     1       3.378   1.691   0.500  1.00  0.00     0.056 A 
BRANCH  15  16
HETATM   16  C12 UNL     1       3.042   1.723   1.894  1.00  0.00     0.210 C 
HETATM   17  O2  UNL     1       3.856   2.229   2.728  1.00  0.00    -0.644 OA
HETATM   18  O3  UNL     1       1.833   1.204   2.358  1.00  0.00    -0.644 OA
ENDBRANCH  15  16
ENDBRANCH   7  10
ENDBRANCH   1   6
BRANCH   1  19
HETATM   19  C13 UNL     1      -1.510  -1.146  -0.113  1.00  0.00     0.170 C 
BRANCH  19  20
HETATM   20  O4  UNL     1      -2.364  -2.151   0.073  1.00  0.00    -0.344 OA
ATOM     21  H4  UNL     1      -3.288  -1.930   0.063  1.00  0.00     0.219 HD
ENDBRANCH  19  20
BRANCH  19  22
HETATM   22  C14 UNL     1      -2.288   0.030  -0.301  1.00  0.00     0.049 A 
HETATM   23  C15 UNL     1      -2.652   0.434  -1.614  1.00  0.00     0.019 A 
HETATM   24  C16 UNL     1      -3.458   1.514  -1.849  1.00  0.00     0.017 A 
HETATM   25  C17 UNL     1      -3.943   2.247  -0.784  1.00  0.00     0.050 A 
HETATM   26  C19 UNL     1      -3.620   1.891   0.469  1.00  0.00     0.053 A 
HETATM   27  C20 UNL     1      -2.800   0.793   0.699  1.00  0.00     0.118 A 
BRANCH  25  28
HETATM   28  C18 UNL     1      -4.868   3.417  -1.033  1.00  0.00     0.417 C 
HETATM   29  F1  UNL     1      -6.139   2.919  -1.381  1.00  0.00    -0.166 F 
HETATM   30  F2  UNL     1      -4.405   4.136  -2.087  1.00  0.00    -0.166 F 
HETATM   31  F3  UNL     1      -5.036   4.182   0.079  1.00  0.00    -0.166 F 
ENDBRANCH  25  28
BRANCH  27  32
HETATM   32  N3  UNL     1      -2.524   0.505   2.053  1.00  0.00    -0.115 N 
HETATM   33  O5  UNL     1      -3.328   0.843   2.963  1.00  0.00    -0.532 OA
HETATM   34  O6  UNL     1      -1.389  -0.124   2.415  1.00  0.00    -0.532 OA
ENDBRANCH  27  32
ENDBRANCH  19  22
ENDBRANCH   1  19
TORSDOF 9
