REMARK  7 active torsions:
REMARK  status: ('A' for Active; 'I' for Inactive)
REMARK    1  A    between atoms: C5_5  and  O1_6 
REMARK    2  A    between atoms: C19_22  and  O3_23 
REMARK    3  A    between atoms: C19_22  and  C20_25 
REMARK    4  A    between atoms: C20_25  and  C21_28 
REMARK    5  A    between atoms: C21_28  and  O4_29 
REMARK    6  A    between atoms: O4_29  and  C22_30 
REMARK    7  A    between atoms: C22_30  and  C23_31 
ROOT
HETATM    1  C23 UNL     1       7.427   0.233   0.589  1.00  0.00     0.150 C 
HETATM    2  C24 UNL     1       7.519   1.197  -0.495  1.00  0.00     0.061 C 
HETATM    3  N1  UNL     1       7.574   1.971  -1.351  1.00  0.00    -0.197 NA
ENDROOT
BRANCH   1   4
HETATM    4  C22 UNL     1       6.392  -0.809   0.188  1.00  0.00     0.181 C 
BRANCH   4   5
HETATM    5  O4  UNL     1       5.143  -0.258  -0.040  1.00  0.00    -0.384 OA
BRANCH   5   6
HETATM    6  C21 UNL     1       4.612   0.384   1.068  1.00  0.00     0.250 C 
BRANCH   6   7
HETATM    7  C20 UNL     1       3.224   0.960   0.745  1.00  0.00     0.295 C 
HETATM    8  F1  UNL     1       3.434   1.979  -0.161  1.00  0.00    -0.201 F 
HETATM    9  F2  UNL     1       2.838   1.609   1.898  1.00  0.00    -0.201 F 
BRANCH   7  10
HETATM   10  C19 UNL     1       2.265  -0.091   0.345  1.00  0.00     0.133 C 
HETATM   11  C14 UNL     1       0.856   0.265   0.056  1.00  0.00     0.001 C 
HETATM   12  C13 UNL     1      -0.004   0.553   1.253  1.00  0.00     0.014 C 
HETATM   13  C15 UNL     1       0.696   1.340  -0.961  1.00  0.00     0.019 C 
HETATM   14  C16 UNL     1       0.366  -1.034  -0.512  1.00  0.00     0.030 C 
HETATM   15  C12 UNL     1      -0.956  -0.543   1.611  1.00  0.00     0.011 C 
HETATM   16  C11 UNL     1      -1.804  -1.077   0.490  1.00  0.00     0.027 C 
HETATM   17  C2  UNL     1      -3.150  -0.451   0.439  1.00  0.00    -0.032 C 
HETATM   18  C10 UNL     1      -1.056  -1.219  -0.809  1.00  0.00    -0.024 C 
HETATM   19  C1  UNL     1      -3.918  -0.967   1.677  1.00  0.00     0.016 C 
HETATM   20  C3  UNL     1      -3.191   1.038   0.579  1.00  0.00     0.012 C 
HETATM   21  C7  UNL     1      -3.842  -0.843  -0.818  1.00  0.00     0.004 C 
HETATM   22  C4  UNL     1      -4.605   1.521   0.600  1.00  0.00     0.032 C 
HETATM   23  C5  UNL     1      -5.490   1.014  -0.461  1.00  0.00     0.118 C 
HETATM   24  C6  UNL     1      -5.257  -0.403  -0.888  1.00  0.00     0.037 C 
HETATM   25  C8  UNL     1      -3.079  -0.170  -1.957  1.00  0.00     0.088 C 
HETATM   26  C9  UNL     1      -1.663  -0.607  -1.971  1.00  0.00     0.152 C 
HETATM   27  O2  UNL     1      -1.047  -0.431  -2.985  1.00  0.00    -0.293 OA
HETATM   28  C17 UNL     1       1.377  -1.324  -1.536  1.00  0.00     0.013 C 
HETATM   29  C18 UNL     1       2.667  -0.812  -0.926  1.00  0.00     0.046 C 
BRANCH  23  30
HETATM   30  O1  UNL     1      -5.492   1.854  -1.582  1.00  0.00    -0.396 OA
ATOM     31  H1  UNL     1      -6.063   1.527  -2.267  1.00  0.00     0.210 HD
ENDBRANCH  23  30
BRANCH  10  32
HETATM   32  O3  UNL     1       2.357  -1.091   1.347  1.00  0.00    -0.383 OA
ATOM     33  H3  UNL     1       3.260  -1.319   1.532  1.00  0.00     0.210 HD
ENDBRANCH  10  32
ENDBRANCH   7  10
ENDBRANCH   6   7
ENDBRANCH   5   6
ENDBRANCH   4   5
ENDBRANCH   1   4
TORSDOF 7
