REMARK  3 active torsions:
REMARK  status: ('A' for Active; 'I' for Inactive)
REMARK    1  A    between atoms: O1_2  and  C2_3 
REMARK    2  A    between atoms: C2_3  and  C3_5 
REMARK    3  A    between atoms: C5_9  and  O3_10 
ROOT
HETATM    1  C3  UNL     1      -0.480  -0.387  -0.842  1.00  0.00     0.179 C 
HETATM    2  S1  UNL     1      -1.471  -1.836  -0.492  1.00  0.00    -0.128 SA
HETATM    3  C4  UNL     1      -2.560  -0.361  -0.543  1.00  0.00     0.174 C 
HETATM    4 CL1  UNL     1      -3.997  -0.491   0.456  1.00  0.00    -0.111 Cl
HETATM    5  C5  UNL     1      -1.401   0.411   0.092  1.00  0.00     0.169 C 
ENDROOT
BRANCH   1   6
HETATM    6  C2  UNL     1       0.918  -0.437  -0.342  1.00  0.00     0.275 C 
HETATM    7  O2  UNL     1       1.328  -1.440   0.275  1.00  0.00    -0.264 OA
BRANCH   6   8
HETATM    8  O1  UNL     1       1.823   0.596  -0.524  1.00  0.00    -0.326 OA
HETATM    9  C1  UNL     1       3.148   0.570  -0.060  1.00  0.00     0.213 C 
ENDBRANCH   6   8
ENDBRANCH   1   6
BRANCH   5  10
HETATM   10  O3  UNL     1      -1.215   0.122   1.433  1.00  0.00    -0.392 OA
ATOM     11  H3  UNL     1      -1.785   0.616   2.011  1.00  0.00     0.210 HD
ENDBRANCH   5  10
TORSDOF 3
