REMARK  10 active torsions:
REMARK  status: ('A' for Active; 'I' for Inactive)
REMARK    1  A    between atoms: C4_4  and  S1_5 
REMARK    2  A    between atoms: S1_5  and  C5_6 
REMARK    3  A    between atoms: C5_6  and  C6_7 
REMARK    4  A    between atoms: N1_10  and  C9_11 
REMARK    5  A    between atoms: C9_11  and  N2_12 
REMARK    6  A    between atoms: N2_12  and  C10_14 
REMARK    7  A    between atoms: C10_14  and  N3_16 
REMARK    8  A    between atoms: N3_16  and  N4_18 
REMARK    9  A    between atoms: N5_23  and  N6_24 
REMARK   10  A    between atoms: C12_27  and  N7_28 
ROOT
HETATM    1  C6  UNL     1      -0.420   0.201   0.505  1.00  0.00     0.068 A 
HETATM    2  C7  UNL     1      -1.694  -0.404   0.447  1.00  0.00     0.037 A 
HETATM    3  C8  UNL     1      -1.892  -1.695   1.212  1.00  0.00     0.070 C 
HETATM    4  N1  UNL     1      -2.493   0.276  -0.330  1.00  0.00    -0.308 N 
HETATM    5  C11 UNL     1      -1.824   1.312  -0.805  1.00  0.00     0.201 A 
HETATM    6  S3  UNL     1      -2.415   2.460  -1.802  1.00  0.00    -0.038 SA
HETATM    7  N5  UNL     1      -0.544   1.256  -0.277  1.00  0.00    -0.238 N 
ENDROOT
BRANCH   1   8
HETATM    8  C5  UNL     1       0.650  -0.308   1.397  1.00  0.00     0.141 C 
BRANCH   8   9
HETATM    9  S1  UNL     1       2.049  -0.975   0.801  1.00  0.00    -0.121 SA
BRANCH   9  10
HETATM   10  C4  UNL     1       3.390  -0.335   0.008  1.00  0.00     0.034 A 
HETATM   11  C3  UNL     1       4.505   0.118   0.718  1.00  0.00     0.029 A 
HETATM   12  C2  UNL     1       5.680   0.481   0.114  1.00  0.00    -0.039 A 
HETATM   13  C1  UNL     1       6.804   0.922   0.977  1.00  0.00     0.050 C 
HETATM   14  C14 UNL     1       5.775   0.399  -1.277  1.00  0.00     0.042 A 
HETATM   15  C13 UNL     1       4.718  -0.034  -1.983  1.00  0.00     0.061 A 
HETATM   16 CL1  UNL     1       7.324   0.847  -1.998  1.00  0.00    -0.084 Cl
HETATM   17  C12 UNL     1       3.507  -0.408  -1.392  1.00  0.00     0.121 A 
BRANCH  17  18
HETATM   18  N7  UNL     1       2.509  -0.872  -2.254  1.00  0.00    -0.114 N 
HETATM   19  O3  UNL     1       1.333  -0.700  -2.216  1.00  0.00    -0.532 OA
HETATM   20  O4  UNL     1       2.949  -1.579  -3.374  1.00  0.00    -0.532 OA
ENDBRANCH  17  18
ENDBRANCH   9  10
ENDBRANCH   8   9
ENDBRANCH   1   8
BRANCH   7  21
HETATM   21  N6  UNL     1       0.414   2.253  -0.488  1.00  0.00    -0.336 N 
ATOM     22  H62 UNL     1       1.356   2.212  -0.099  1.00  0.00     0.177 HD
ATOM     23  H61 UNL     1       0.318   3.069  -1.093  1.00  0.00     0.177 HD
ENDBRANCH   7  21
BRANCH   4  24
HETATM   24  C9  UNL     1      -3.943  -0.119  -0.542  1.00  0.00     0.256 C 
BRANCH  24  25
HETATM   25  N2  UNL     1      -4.647   0.516   0.496  1.00  0.00    -0.349 N 
ATOM     26  H2  UNL     1      -4.176   1.338   0.873  1.00  0.00     0.163 HD
BRANCH  25  27
HETATM   27  C10 UNL     1      -5.844   0.239   1.095  1.00  0.00     0.192 C 
HETATM   28  S2  UNL     1      -6.283   1.180   2.459  1.00  0.00    -0.039 SA
BRANCH  27  29
HETATM   29  N3  UNL     1      -6.760  -0.766   0.768  1.00  0.00    -0.216 N 
ATOM     30  H3  UNL     1      -7.591  -0.832   1.355  1.00  0.00     0.195 HD
BRANCH  29  31
HETATM   31  N4  UNL     1      -6.662  -1.675  -0.259  1.00  0.00    -0.037 N 
HETATM   32  O1  UNL     1      -6.113  -2.783  -0.098  1.00  0.00    -0.516 OA
HETATM   33  O2  UNL     1      -7.296  -1.371  -1.472  1.00  0.00    -0.516 OA
ENDBRANCH  29  31
ENDBRANCH  27  29
ENDBRANCH  25  27
ENDBRANCH  24  25
ENDBRANCH   4  24
TORSDOF 10
