REMARK  8 active torsions:
REMARK  status: ('A' for Active; 'I' for Inactive)
REMARK    1  A    between atoms: C1_2  and  C2_4 
REMARK    2  A    between atoms: C2_4  and  S1_5 
REMARK    3  A    between atoms: S1_5  and  C3_6 
REMARK    4  A    between atoms: C5_14  and  C6_15 
REMARK    5  A    between atoms: C7_18  and  O2_19 
REMARK    6  A    between atoms: C8_21  and  N6_22 
REMARK    7  A    between atoms: C10_27  and  N7_28 
REMARK    8  A    between atoms: C11_32  and  N8_33 
ROOT
HETATM    1  C6  UNL     1      -1.243   0.058   0.889  1.00  0.00     0.181 C 
HETATM    2  N5  UNL     1      -2.104   1.174   0.942  1.00  0.00    -0.382 N 
ATOM      3  H5  UNL     1      -2.284   1.672   1.814  1.00  0.00     0.156 HD
HETATM    4  C7  UNL     1      -2.710   1.569  -0.287  1.00  0.00     0.244 C 
HETATM    5  C8  UNL     1      -4.039   0.942  -0.562  1.00  0.00     0.233 C 
HETATM    6  C9  UNL     1      -3.966  -0.510  -0.909  1.00  0.00     0.072 C 
HETATM    7  C10 UNL     1      -3.174  -1.339   0.041  1.00  0.00     0.218 C 
HETATM    8  C11 UNL     1      -1.717  -1.114   0.059  1.00  0.00     0.243 C 
ENDROOT
BRANCH   1   9
HETATM    9  C5  UNL     1       0.150   0.332   0.447  1.00  0.00     0.137 A 
HETATM   10  N4  UNL     1       0.660   1.219  -0.383  1.00  0.00    -0.174 N 
HETATM   11  C4  UNL     1       1.985   1.036  -0.528  1.00  0.00     0.722 A 
ATOM     12  H4  UNL     1       0.122   1.947  -0.853  1.00  0.00     0.185 HD
HETATM   13  N3  UNL     1       3.134   1.422  -1.112  1.00  0.00    -0.128 N 
HETATM   14  N10 UNL     1       2.301  -0.006   0.249  1.00  0.00    -0.059 N 
HETATM   15  N2  UNL     1       4.121   0.637  -0.700  1.00  0.00    -0.263 N 
ATOM     16  H3  UNL     1       3.231   2.197  -1.768  1.00  0.00     0.205 HD
HETATM   17  C3  UNL     1       3.627  -0.270   0.155  1.00  0.00     0.199 A 
ATOM     18  H2  UNL     1       5.097   0.711  -0.987  1.00  0.00     0.189 HD
HETATM   19  N9  UNL     1       1.211  -0.433   0.838  1.00  0.00    -0.263 N 
ATOM     20  H9  UNL     1       1.163  -1.217   1.489  1.00  0.00     0.189 HD
BRANCH  17  21
HETATM   21  S1  UNL     1       4.477  -1.605   0.977  1.00  0.00    -0.081 SA
BRANCH  21  22
HETATM   22  C2  UNL     1       6.181  -1.698   0.467  1.00  0.00     0.181 C 
BRANCH  22  23
HETATM   23  C1  UNL     1       6.972  -0.535   0.886  1.00  0.00     0.240 C 
HETATM   24  N1  UNL     1       7.381   0.461  -0.062  1.00  0.00    -0.061 NA
HETATM   25  O1  UNL     1       7.310  -0.392   2.074  1.00  0.00    -0.276 OA
ENDBRANCH  22  23
ENDBRANCH  21  22
ENDBRANCH  17  21
ENDBRANCH   1   9
BRANCH   8  26
HETATM   26  N8  UNL     1      -1.054  -1.065  -1.213  1.00  0.00    -0.071 N 
ATOM     27  H83 UNL     1      -1.181  -0.171  -1.688  1.00  0.00     0.274 HD
ATOM     28  H82 UNL     1      -0.038  -1.032  -1.125  1.00  0.00     0.274 HD
ATOM     29  H81 UNL     1      -1.374  -1.855  -1.773  1.00  0.00     0.274 HD
ENDBRANCH   8  26
BRANCH   4  30
HETATM   30  O2  UNL     1      -2.906   2.958  -0.240  1.00  0.00    -0.375 OA
ATOM     31  H2  UNL     1      -3.310   3.221  -1.059  1.00  0.00     0.212 HD
ENDBRANCH   4  30
BRANCH   7  32
HETATM   32  N7  UNL     1      -3.736  -1.223   1.346  1.00  0.00    -0.073 N 
ATOM     33  H73 UNL     1      -3.812  -0.252   1.650  1.00  0.00     0.274 HD
ATOM     34  H72 UNL     1      -4.729  -1.457   1.362  1.00  0.00     0.274 HD
ATOM     35  H71 UNL     1      -3.193  -1.791   1.997  1.00  0.00     0.274 HD
ENDBRANCH   7  32
BRANCH   5  36
HETATM   36  N6  UNL     1      -4.987   1.295   0.441  1.00  0.00    -0.071 N 
ATOM     37  H63 UNL     1      -4.649   1.066   1.376  1.00  0.00     0.274 HD
ATOM     38  H62 UNL     1      -5.063   2.307   0.548  1.00  0.00     0.274 HD
ATOM     39  H61 UNL     1      -5.894   0.867   0.253  1.00  0.00     0.274 HD
ENDBRANCH   5  36
TORSDOF 8
