REMARK  11 active torsions:
REMARK  status: ('A' for Active; 'I' for Inactive)
REMARK    1  A    between atoms: C3_3  and  C4_4 
REMARK    2  A    between atoms: C8_8  and  N1_9 
REMARK       I    between atoms: N1_9  and  C9_11 
REMARK    3  A    between atoms: C9_11  and  C10_13 
REMARK       I    between atoms: N2_18  and  C15_19 
REMARK    4  A    between atoms: C15_19  and  C16_21 
REMARK    5  A    between atoms: C16_21  and  C17_22 
REMARK    6  A    between atoms: C16_21  and  N3_29 
REMARK    7  A    between atoms: C17_22  and  C18_23 
REMARK       I    between atoms: N3_29  and  C24_31 
REMARK    8  A    between atoms: C24_31  and  C25_33 
REMARK    9  A    between atoms: C25_33  and  N4_34 
REMARK   10  A    between atoms: C25_33  and  C26_38 
REMARK   11  A    between atoms: C26_38  and  C27_39 
ROOT
HETATM    1  C1  UNL     1       5.864   4.611   2.574  1.00  0.00     0.012 C 
HETATM    2  C2  UNL     1       5.804   3.445   2.356  1.00  0.00    -0.117 C 
HETATM    3  C3  UNL     1       5.710   2.030   2.079  1.00  0.00     0.099 C 
ENDROOT
BRANCH   3   4
HETATM    4  C4  UNL     1       4.797   1.737   0.907  1.00  0.00     0.019 C 
HETATM    5  C5  UNL     1       5.258   2.385  -0.358  1.00  0.00     0.007 C 
HETATM    6  C6  UNL     1       6.283   1.405  -0.884  1.00  0.00     0.002 C 
HETATM    7  C7  UNL     1       5.741   0.056  -0.538  1.00  0.00     0.026 C 
HETATM    8  C8  UNL     1       4.744   0.255   0.606  1.00  0.00     0.089 C 
BRANCH   8   9
HETATM    9  N1  UNL     1       3.435  -0.131   0.087  1.00  0.00    -0.354 N 
HETATM   10  C9  UNL     1       2.617  -1.093   0.667  1.00  0.00     0.241 C 
HETATM   11  O1  UNL     1       3.108  -1.639   1.735  1.00  0.00    -0.271 OA
ATOM     12  H1  UNL     1       3.099   0.336  -0.756  1.00  0.00     0.162 HD
BRANCH  10  13
HETATM   13  C10 UNL     1       1.297  -1.592   0.277  1.00  0.00     0.179 C 
HETATM   14  C11 UNL     1       1.300  -3.133   0.212  1.00  0.00     0.035 C 
HETATM   15  C12 UNL     1       1.372  -3.596  -1.222  1.00  0.00     0.004 C 
HETATM   16  C13 UNL     1       2.123  -2.638  -2.097  1.00  0.00     0.020 C 
HETATM   17  C14 UNL     1       1.402  -1.308  -2.167  1.00  0.00     0.127 C 
HETATM   18  N2  UNL     1       0.703  -1.056  -0.912  1.00  0.00    -0.337 N 
HETATM   19  C15 UNL     1      -0.552  -0.341  -0.944  1.00  0.00     0.243 C 
HETATM   20  O2  UNL     1      -0.950   0.064  -2.086  1.00  0.00    -0.271 OA
BRANCH  19  21
HETATM   21  C16 UNL     1      -1.410  -0.048   0.173  1.00  0.00     0.177 C 
BRANCH  21  22
HETATM   22  C17 UNL     1      -1.595   1.394   0.477  1.00  0.00     0.039 C 
BRANCH  22  23
HETATM   23  C18 UNL     1      -0.466   2.252   0.803  1.00  0.00    -0.012 C 
HETATM   24  C19 UNL     1       0.597   2.524  -0.185  1.00  0.00     0.005 C 
HETATM   25  C20 UNL     1       0.108   3.425  -1.331  1.00  0.00     0.000 C 
HETATM   26  C21 UNL     1      -0.311   4.740  -0.756  1.00  0.00     0.000 C 
HETATM   27  C22 UNL     1      -1.390   4.473   0.275  1.00  0.00     0.000 C 
HETATM   28  C23 UNL     1      -0.897   3.604   1.385  1.00  0.00     0.005 C 
ENDBRANCH  22  23
ENDBRANCH  21  22
BRANCH  21  29
HETATM   29  N3  UNL     1      -2.776  -0.451  -0.295  1.00  0.00    -0.346 N 
HETATM   30  C24 UNL     1      -3.595  -1.325   0.423  1.00  0.00     0.249 C 
HETATM   31  O3  UNL     1      -3.209  -1.810   1.505  1.00  0.00    -0.271 OA
ATOM     32  H3  UNL     1      -3.122  -0.070  -1.176  1.00  0.00     0.163 HD
BRANCH  30  33
HETATM   33  C25 UNL     1      -4.929  -1.681  -0.096  1.00  0.00     0.275 C 
BRANCH  33  34
HETATM   34  N4  UNL     1      -5.212  -1.036  -1.366  1.00  0.00    -0.066 N 
ATOM     35  H43 UNL     1      -5.099  -0.024  -1.300  1.00  0.00     0.275 HD
ATOM     36  H42 UNL     1      -4.484  -1.235  -2.052  1.00  0.00     0.275 HD
ATOM     37  H41 UNL     1      -6.134  -1.282  -1.725  1.00  0.00     0.275 HD
ENDBRANCH  33  34
BRANCH  33  38
HETATM   38  C26 UNL     1      -5.078  -3.175  -0.300  1.00  0.00     0.046 C 
BRANCH  38  39
HETATM   39  C27 UNL     1      -6.466  -3.455  -0.831  1.00  0.00    -0.020 C 
HETATM   40  C28 UNL     1      -7.546  -3.002   0.097  1.00  0.00     0.009 C 
HETATM   41  C29 UNL     1      -6.622  -4.960  -1.030  1.00  0.00     0.009 C 
ENDBRANCH  38  39
ENDBRANCH  33  38
ENDBRANCH  30  33
ENDBRANCH  21  29
ENDBRANCH  19  21
ENDBRANCH  10  13
ENDBRANCH   8   9
ENDBRANCH   3   4
TORSDOF 11
