REMARK  11 active torsions:
REMARK  status: ('A' for Active; 'I' for Inactive)
REMARK    1  A    between atoms: C2_2  and  C5_5 
REMARK    2  A    between atoms: C5_5  and  N1_6 
REMARK    3  A    between atoms: C5_5  and  C12_17 
REMARK       I    between atoms: N1_6  and  C6_8 
REMARK       I    between atoms: C6_8  and  N2_10 
REMARK    4  A    between atoms: N2_10  and  C7_12 
REMARK    5  A    between atoms: C17_22  and  C18_23 
REMARK    6  A    between atoms: C18_23  and  O2_24 
REMARK    7  A    between atoms: C18_23  and  C19_26 
REMARK    8  A    between atoms: C19_26  and  N3_27 
REMARK    9  A    between atoms: N3_27  and  C20_28 
REMARK   10  A    between atoms: N3_27  and  S1_34 
REMARK   11  A    between atoms: C20_28  and  C21_29 
ROOT
HETATM    1  C12 UNL     1       0.446  -1.442  -0.474  1.00  0.00     0.019 C 
HETATM    2  C13 UNL     1      -0.024  -0.021  -0.723  1.00  0.00     0.007 C 
HETATM    3  C14 UNL     1      -0.564   0.017  -2.138  1.00  0.00     0.001 C 
HETATM    4  C15 UNL     1      -1.321  -1.177  -2.569  1.00  0.00     0.001 C 
HETATM    5  C16 UNL     1      -1.275  -2.403  -1.755  1.00  0.00     0.011 C 
HETATM    6  C17 UNL     1      -0.780  -2.250  -0.309  1.00  0.00     0.050 C 
ENDROOT
BRANCH   1   7
HETATM    7  C5  UNL     1       1.629  -1.535   0.384  1.00  0.00     0.098 C 
BRANCH   7   8
HETATM    8  C2  UNL     1       2.298  -2.812   0.655  1.00  0.00    -0.030 C 
HETATM    9  C1  UNL     1       3.584  -2.410   1.465  1.00  0.00     0.016 C 
HETATM   10  C3  UNL     1       2.907  -3.463  -0.583  1.00  0.00     0.016 C 
HETATM   11  C4  UNL     1       1.687  -3.851   1.520  1.00  0.00     0.016 C 
ENDBRANCH   7   8
BRANCH   7  12
HETATM   12  N1  UNL     1       2.659  -0.749  -0.372  1.00  0.00    -0.337 N 
HETATM   13  C6  UNL     1       3.305   0.374   0.154  1.00  0.00     0.316 C 
HETATM   14  O1  UNL     1       3.011   0.757   1.324  1.00  0.00    -0.247 OA
HETATM   15  N2  UNL     1       4.278   1.128  -0.534  1.00  0.00    -0.339 N 
ATOM     16  H2  UNL     1       4.532   0.838  -1.479  1.00  0.00     0.164 HD
ATOM     17  H1  UNL     1       2.900  -1.049  -1.317  1.00  0.00     0.164 HD
BRANCH  15  18
HETATM   18  C7  UNL     1       4.929   2.276   0.018  1.00  0.00     0.086 C 
HETATM   19  C8  UNL     1       4.647   3.543  -0.751  1.00  0.00     0.025 C 
HETATM   20  C9  UNL     1       5.846   4.425  -0.520  1.00  0.00     0.002 C 
HETATM   21  C10 UNL     1       6.958   3.565  -0.013  1.00  0.00     0.002 C 
HETATM   22  C11 UNL     1       6.417   2.160   0.135  1.00  0.00     0.025 C 
ENDBRANCH  15  18
ENDBRANCH   7  12
ENDBRANCH   1   7
BRANCH   6  23
HETATM   23  C18 UNL     1      -1.786  -2.037   0.693  1.00  0.00     0.064 C 
BRANCH  23  24
HETATM   24  O2  UNL     1      -1.246  -2.096   2.035  1.00  0.00    -0.363 OA
ATOM     25  H2  UNL     1      -1.912  -1.955   2.698  1.00  0.00     0.217 HD
ENDBRANCH  23  24
BRANCH  23  26
HETATM   26  C19 UNL     1      -2.819  -1.015   0.843  1.00  0.00     0.140 C 
BRANCH  26  27
HETATM   27  N3  UNL     1      -3.694  -0.649  -0.176  1.00  0.00    -0.263 N 
BRANCH  27  28
HETATM   28  C20 UNL     1      -3.917   0.705  -0.463  1.00  0.00     0.086 C 
BRANCH  28  29
HETATM   29  C21 UNL     1      -4.850   1.511   0.335  1.00  0.00     0.025 C 
HETATM   30  C22 UNL     1      -4.852   2.946  -0.262  1.00  0.00     0.010 C 
HETATM   31  C23 UNL     1      -3.964   3.739   0.668  1.00  0.00     0.001 C 
HETATM   32  C24 UNL     1      -3.469   2.791   1.726  1.00  0.00     0.001 C 
HETATM   33  C25 UNL     1      -4.551   1.734   1.783  1.00  0.00     0.010 C 
ENDBRANCH  28  29
ENDBRANCH  27  28
BRANCH  27  34
HETATM   34  S1  UNL     1      -5.062  -1.646  -0.432  1.00  0.00     0.232 S 
HETATM   35  C26 UNL     1      -6.124  -1.699   0.995  1.00  0.00     0.186 C 
HETATM   36  O3  UNL     1      -4.726  -3.060  -0.786  1.00  0.00    -0.206 OA
HETATM   37  O4  UNL     1      -5.865  -1.087  -1.573  1.00  0.00    -0.206 OA
ENDBRANCH  27  34
ENDBRANCH  26  27
ENDBRANCH  23  26
ENDBRANCH   6  23
TORSDOF 11
