REMARK  11 active torsions:
REMARK  status: ('A' for Active; 'I' for Inactive)
REMARK    1  A    between atoms: C2_2  and  C4_4 
REMARK    2  A    between atoms: C4_4  and  C5_5 
REMARK    3  A    between atoms: C5_5  and  N1_6 
REMARK    4  A    between atoms: C5_5  and  C29_36 
REMARK       I    between atoms: N1_6  and  C6_8 
REMARK    5  A    between atoms: C6_8  and  C7_10 
REMARK    6  A    between atoms: C7_10  and  N2_13 
REMARK       I    between atoms: N2_13  and  C10_15 
REMARK    7  A    between atoms: C10_15  and  C11_17 
REMARK    8  A    between atoms: C11_17  and  C12_19 
REMARK    9  A    between atoms: C12_19  and  C13_20 
REMARK   10  A    between atoms: C13_20  and  C14_21 
REMARK   11  A    between atoms: C14_21  and  C15_22 
ROOT
HETATM    1  N2  UNL     1       1.955   0.153  -0.251  1.00  0.00    -0.339 N 
ATOM      2  H2  UNL     1       1.186  -0.509  -0.354  1.00  0.00     0.164 HD
HETATM    3  C10 UNL     1       1.647   1.445   0.238  1.00  0.00     0.266 C 
HETATM    4  O2  UNL     1       2.491   2.368   0.369  1.00  0.00    -0.266 OA
ENDROOT
BRANCH   3   5
HETATM    5  C11 UNL     1       0.240   1.813   0.638  1.00  0.00     0.113 C 
HETATM    6  N3  UNL     1      -0.168   3.090   0.165  1.00  0.00    -0.097 NA
BRANCH   5   7
HETATM    7  C12 UNL     1      -0.692   0.712   0.609  1.00  0.00     0.028 C 
BRANCH   7   8
HETATM    8  C13 UNL     1      -2.001   0.689   0.945  1.00  0.00    -0.024 C 
BRANCH   8   9
HETATM    9  C14 UNL     1      -2.623  -0.680   0.775  1.00  0.00     0.032 C 
BRANCH   9  10
HETATM   10  C15 UNL     1      -3.793  -0.625  -0.167  1.00  0.00    -0.005 C 
HETATM   11  C16 UNL     1      -4.444  -1.939  -0.356  1.00  0.00     0.011 C 
HETATM   12  C17 UNL     1      -5.859  -2.050   0.015  1.00  0.00     0.000 A 
HETATM   13  C18 UNL     1      -7.016  -1.881  -0.886  1.00  0.00     0.000 A 
HETATM   14  C28 UNL     1      -6.690  -0.766  -0.142  1.00  0.00    -0.024 A 
HETATM   15  C19 UNL     1      -6.569  -1.598  -2.320  1.00  0.00     0.006 C 
HETATM   16  C20 UNL     1      -5.754  -0.296  -2.224  1.00  0.00     0.011 C 
HETATM   17  C21 UNL     1      -5.915   0.277  -0.914  1.00  0.00    -0.031 C 
HETATM   18  C22 UNL     1      -6.630   1.577  -1.007  1.00  0.00     0.016 C 
HETATM   19  C23 UNL     1      -4.794   0.421   0.083  1.00  0.00     0.007 C 
HETATM   20  C24 UNL     1      -5.502   0.475   1.373  1.00  0.00    -0.042 C 
HETATM   21  C25 UNL     1      -5.708   1.905   1.855  1.00  0.00     0.015 C 
HETATM   22  C26 UNL     1      -4.959  -0.257   2.560  1.00  0.00     0.015 C 
HETATM   23  C27 UNL     1      -6.893  -0.147   1.144  1.00  0.00     0.020 C 
ENDBRANCH   9  10
ENDBRANCH   8   9
ENDBRANCH   7   8
ENDBRANCH   5   7
ENDBRANCH   3   5
BRANCH   1  24
HETATM   24  C7  UNL     1       3.267  -0.294  -0.612  1.00  0.00     0.106 C 
HETATM   25  C8  UNL     1       3.858   0.420  -1.768  1.00  0.00     0.048 C 
HETATM   26  C9  UNL     1       3.125  -1.766  -1.065  1.00  0.00     0.048 C 
BRANCH  24  27
HETATM   27  C6  UNL     1       4.206  -0.351   0.525  1.00  0.00     0.246 C 
HETATM   28  N1  UNL     1       5.548  -0.694   0.309  1.00  0.00    -0.346 N 
ATOM     29  H1  UNL     1       5.768  -0.863  -0.673  1.00  0.00     0.163 HD
HETATM   30  O1  UNL     1       3.807  -0.095   1.673  1.00  0.00    -0.271 OA
BRANCH  28  31
HETATM   31  C5  UNL     1       6.654  -0.854   1.163  1.00  0.00     0.174 C 
BRANCH  31  32
HETATM   32  C4  UNL     1       7.673   0.175   1.370  1.00  0.00     0.038 C 
BRANCH  32  33
HETATM   33  C2  UNL     1       8.361   0.595   0.115  1.00  0.00    -0.020 C 
HETATM   34  C1  UNL     1       9.529   1.559   0.372  1.00  0.00     0.009 C 
HETATM   35  C3  UNL     1       7.356   1.484  -0.673  1.00  0.00     0.009 C 
ENDBRANCH  32  33
ENDBRANCH  31  32
BRANCH  31  36
HETATM   36  C29 UNL     1       7.312  -2.198   0.930  1.00  0.00     0.254 C 
HETATM   37  N4  UNL     1       7.178  -2.864  -0.298  1.00  0.00    -0.060 NA
HETATM   38  O3  UNL     1       7.957  -2.713   1.864  1.00  0.00    -0.275 OA
ENDBRANCH  31  36
ENDBRANCH  28  31
ENDBRANCH  24  27
ENDBRANCH   1  24
TORSDOF 11
