REMARK  8 active torsions:
REMARK  status: ('A' for Active; 'I' for Inactive)
REMARK    1  A    between atoms: C2_2  and  O1_3 
REMARK    2  A    between atoms: O1_3  and  C3_4 
REMARK    3  A    between atoms: C8_9  and  O2_10 
REMARK    4  A    between atoms: O2_10  and  C9_11 
REMARK    5  A    between atoms: C12_17  and  C14_19 
REMARK    6  A    between atoms: C14_19  and  N2_20 
REMARK    7  A    between atoms: N2_20  and  C15_22 
REMARK    8  A    between atoms: C15_22  and  C16_23 
ROOT
HETATM    1  C3  UNL     1      -4.997  -0.641  -0.316  1.00  0.00     0.102 A 
HETATM    2  C4  UNL     1      -3.899  -1.365  -0.680  1.00  0.00     0.047 A 
HETATM    3  C5  UNL     1      -2.610  -1.048  -0.219  1.00  0.00    -0.047 A 
HETATM    4  C6  UNL     1      -2.521   0.026   0.612  1.00  0.00    -0.024 A 
HETATM    5  C7  UNL     1      -3.623   0.785   1.001  1.00  0.00     0.049 A 
HETATM    6  C8  UNL     1      -4.873   0.462   0.543  1.00  0.00     0.102 A 
HETATM    7  C11 UNL     1      -1.333   0.599   1.267  1.00  0.00     0.272 C 
HETATM    8  N1  UNL     1      -0.132   0.585   0.464  1.00  0.00    -0.061 N 
ATOM      9  H11 UNL     1       0.594   1.157   0.895  1.00  0.00     0.278 HD
ATOM     10  H12 UNL     1      -0.272   1.108  -0.400  1.00  0.00     0.278 HD
HETATM   11  C12 UNL     1       0.357  -0.716   0.186  1.00  0.00     0.138 C 
HETATM   12  C13 UNL     1       0.272  -1.645   1.383  1.00  0.00     0.048 C 
HETATM   13  C22 UNL     1      -0.252  -1.364  -1.013  1.00  0.00     0.045 C 
HETATM   14  C23 UNL     1      -1.595  -1.970  -0.737  1.00  0.00     0.042 C 
ENDROOT
BRANCH  11  15
HETATM   15  C14 UNL     1       1.876  -0.579  -0.106  1.00  0.00     0.157 C 
BRANCH  15  16
HETATM   16  N2  UNL     1       2.103   0.274  -1.213  1.00  0.00    -0.399 N 
ATOM     17  H2  UNL     1       1.354   0.848  -1.600  1.00  0.00     0.158 HD
BRANCH  16  18
HETATM   18  C15 UNL     1       3.380   0.300  -1.752  1.00  0.00     0.060 C 
BRANCH  18  19
HETATM   19  C16 UNL     1       4.486   0.906  -0.965  1.00  0.00     0.027 C 
HETATM   20  C17 UNL     1       4.817   0.266   0.325  1.00  0.00     0.040 C 
HETATM   21  C18 UNL     1       6.331   0.217   0.508  1.00  0.00     0.272 C 
HETATM   22  N3  UNL     1       6.999   1.420   0.134  1.00  0.00     0.084 N 
HETATM   23  C19 UNL     1       8.406   1.292   0.465  1.00  0.00     0.309 C 
HETATM   24  C20 UNL     1       6.817   1.767  -1.261  1.00  0.00     0.272 C 
HETATM   25  C21 UNL     1       5.694   0.984  -1.899  1.00  0.00     0.040 C 
ENDBRANCH  18  19
ENDBRANCH  16  18
ENDBRANCH  15  16
ENDBRANCH  11  15
BRANCH   6  26
HETATM   26  O2  UNL     1      -6.033   1.134   0.860  1.00  0.00    -0.349 OA
BRANCH  26  27
HETATM   27  C9  UNL     1      -6.040   2.228   1.719  1.00  0.00     0.171 C 
HETATM   28  C10 UNL     1      -5.589   1.962   3.122  1.00  0.00     0.034 C 
ENDBRANCH  26  27
ENDBRANCH   6  26
BRANCH   1  29
HETATM   29  O1  UNL     1      -6.271  -0.962  -0.774  1.00  0.00    -0.349 OA
BRANCH  29  30
HETATM   30  C2  UNL     1      -6.503  -2.054  -1.643  1.00  0.00     0.171 C 
HETATM   31  C1  UNL     1      -7.986  -2.110  -1.927  1.00  0.00     0.034 C 
ENDBRANCH  29  30
ENDBRANCH   1  29
TORSDOF 8
