REMARK  10 active torsions:
REMARK  status: ('A' for Active; 'I' for Inactive)
REMARK    1  A    between atoms: C2_2  and  C3_3 
REMARK    2  A    between atoms: C3_3  and  C4_4 
REMARK    3  A    between atoms: C4_4  and  N1_5 
REMARK    4  A    between atoms: C4_4  and  C16_22 
REMARK       I    between atoms: N1_5  and  C5_7 
REMARK    5  A    between atoms: C5_7  and  C6_9 
REMARK       I    between atoms: N2_13  and  C10_14 
REMARK    6  A    between atoms: C10_14  and  C11_16 
REMARK    7  A    between atoms: C11_16  and  C12_17 
REMARK    8  A    between atoms: C11_16  and  C14_19 
REMARK    9  A    between atoms: C14_19  and  C15_20 
REMARK       I    between atoms: C16_22  and  N3_24 
REMARK   10  A    between atoms: N3_24  and  C17_26 
ROOT
HETATM    1  N1  UNL     1      -1.610  -0.928  -0.230  1.00  0.00    -0.346 N 
ATOM      2  H1  UNL     1      -1.635  -1.735  -0.854  1.00  0.00     0.163 HD
HETATM    3  C5  UNL     1      -0.431  -0.144  -0.202  1.00  0.00     0.241 C 
HETATM    4  O1  UNL     1      -0.410   0.832   0.558  1.00  0.00    -0.271 OA
ENDROOT
BRANCH   3   5
HETATM    5  C6  UNL     1       0.712  -0.487  -1.044  1.00  0.00     0.179 C 
HETATM    6  C7  UNL     1       0.315  -0.241  -2.496  1.00  0.00     0.037 C 
HETATM    7  C8  UNL     1       1.102   0.957  -2.919  1.00  0.00     0.022 C 
HETATM    8  C9  UNL     1       1.568   1.555  -1.608  1.00  0.00     0.127 C 
HETATM    9  N2  UNL     1       1.876   0.374  -0.841  1.00  0.00    -0.338 N 
HETATM   10  C10 UNL     1       2.986   0.061  -0.068  1.00  0.00     0.224 C 
HETATM   11  O2  UNL     1       2.999  -1.072   0.549  1.00  0.00    -0.273 OA
BRANCH  10  12
HETATM   12  C11 UNL     1       4.202   0.877   0.149  1.00  0.00     0.078 C 
BRANCH  12  13
HETATM   13  C12 UNL     1       5.045   0.839  -1.072  1.00  0.00     0.009 C 
HETATM   14  C13 UNL     1       6.317   1.642  -0.961  1.00  0.00     0.006 C 
ENDBRANCH  12  13
BRANCH  12  15
HETATM   15  C14 UNL     1       4.926   0.500   1.407  1.00  0.00     0.025 C 
BRANCH  15  16
HETATM   16  C15 UNL     1       4.136   0.659   2.662  1.00  0.00     0.087 C 
HETATM   17  S1  UNL     1       3.582   2.356   2.950  1.00  0.00    -0.098 SA
ENDBRANCH  15  16
ENDBRANCH  12  15
ENDBRANCH  10  12
ENDBRANCH   3   5
BRANCH   1  18
HETATM   18  C4  UNL     1      -2.788  -0.651   0.578  1.00  0.00     0.180 C 
BRANCH  18  19
HETATM   19  C3  UNL     1      -2.985  -1.811   1.573  1.00  0.00     0.061 C 
BRANCH  19  20
HETATM   20  C2  UNL     1      -1.799  -1.938   2.453  1.00  0.00    -0.034 C 
HETATM   21  C1  UNL     1      -1.053  -3.014   2.508  1.00  0.00     0.007 C 
ENDBRANCH  19  20
ENDBRANCH  18  19
BRANCH  18  22
HETATM   22  C16 UNL     1      -3.970  -0.686  -0.308  1.00  0.00     0.241 C 
HETATM   23  O3  UNL     1      -3.862  -0.953  -1.528  1.00  0.00    -0.271 OA
HETATM   24  N3  UNL     1      -5.302  -0.417   0.182  1.00  0.00    -0.355 N 
ATOM     25  H3  UNL     1      -5.439  -0.193   1.168  1.00  0.00     0.162 HD
BRANCH  24  26
HETATM   26  C17 UNL     1      -6.443  -0.460  -0.702  1.00  0.00     0.084 A 
HETATM   27  C18 UNL     1      -7.813  -0.709  -0.227  1.00  0.00     0.027 A 
HETATM   28  C19 UNL     1      -7.430   0.710  -0.548  1.00  0.00     0.027 A 
ENDBRANCH  24  26
ENDBRANCH  18  22
ENDBRANCH   1  18
TORSDOF 10
