REMARK  5 active torsions:
REMARK  status: ('A' for Active; 'I' for Inactive)
REMARK    1  A    between atoms: N1_2  and  C2_5 
REMARK    2  A    between atoms: C2_5  and  C3_6 
REMARK    3  A    between atoms: C2_5  and  N3_17 
REMARK    4  A    between atoms: C5_8  and  O1_9 
REMARK    5  A    between atoms: N2_11  and  C6_12 
ROOT
HETATM    1  C3  UNL     1       0.171   0.537   0.519  1.00  0.00     0.034 A 
HETATM    2  C4  UNL     1       0.695   0.342   1.807  1.00  0.00     0.070 A 
HETATM    3  C5  UNL     1       1.974  -0.095   1.697  1.00  0.00     0.144 A 
HETATM    4  N2  UNL     1       2.300  -0.191   0.399  1.00  0.00    -0.314 N 
HETATM    5  C9  UNL     1       1.198   0.195  -0.320  1.00  0.00     0.118 A 
HETATM    6 CL1  UNL     1       1.156   0.232  -2.052  1.00  0.00    -0.064 Cl
ENDROOT
BRANCH   1   7
HETATM    7  C2  UNL     1      -1.199   1.004   0.266  1.00  0.00     0.322 C 
BRANCH   7   8
HETATM    8  N1  UNL     1      -1.204   2.034  -0.781  1.00  0.00    -0.054 N 
HETATM    9  C1  UNL     1      -2.581   2.549  -0.922  1.00  0.00     0.269 C 
ATOM     10  H12 UNL     1      -0.819   1.698  -1.664  1.00  0.00     0.279 HD
ATOM     11  H11 UNL     1      -0.525   2.774  -0.606  1.00  0.00     0.279 HD
ENDBRANCH   7   8
BRANCH   7  12
HETATM   12  N3  UNL     1      -2.181   0.058  -0.010  1.00  0.00    -0.362 N 
HETATM   13  C10 UNL     1      -2.153  -0.719  -1.181  1.00  0.00     0.124 C 
HETATM   14  C11 UNL     1      -3.493  -1.478  -1.100  1.00  0.00     0.025 C 
HETATM   15  C12 UNL     1      -3.971  -1.327   0.328  1.00  0.00     0.046 C 
HETATM   16  C13 UNL     1      -2.789  -0.683   1.024  1.00  0.00     0.060 C 
ENDBRANCH   7  12
ENDBRANCH   1   7
BRANCH   3  17
HETATM   17  O1  UNL     1       2.776  -0.382   2.821  1.00  0.00    -0.346 OA
ATOM     18  H1  UNL     1       3.672  -0.688   2.744  1.00  0.00     0.219 HD
ENDBRANCH   3  17
BRANCH   4  19
HETATM   19  C6  UNL     1       3.588  -0.627  -0.048  1.00  0.00     0.085 C 
HETATM   20  C7  UNL     1       4.654  -0.009   0.842  1.00  0.00     0.032 C 
HETATM   21  C8  UNL     1       3.937  -0.280  -1.459  1.00  0.00     0.032 C 
ENDBRANCH   4  19
TORSDOF 5
