REMARK  1 active torsions:
REMARK  status: ('A' for Active; 'I' for Inactive)
REMARK    1  A    between atoms: C14_17  and  O4_18 
ROOT
HETATM    1  C1  UNL     1       2.694   2.648   0.705  1.00  0.00     0.012 C 
HETATM    2  C2  UNL     1       2.293   1.187   0.452  1.00  0.00     0.015 C 
HETATM    3  C3  UNL     1       1.243   1.177  -0.588  1.00  0.00     0.059 C 
HETATM    4  C4  UNL     1       0.019   0.330  -0.210  1.00  0.00     0.138 C 
HETATM    5  O1  UNL     1      -0.898   0.598  -1.210  1.00  0.00    -0.336 OA
HETATM    6  C5  UNL     1      -2.153   0.114  -0.974  1.00  0.00     0.276 C 
HETATM    7  O2  UNL     1      -2.190  -1.251  -0.716  1.00  0.00    -0.325 OA
HETATM    8  C6  UNL     1      -3.480  -1.607  -0.405  1.00  0.00     0.164 C 
HETATM    9  C7  UNL     1      -3.582  -3.135  -0.314  1.00  0.00     0.079 C 
HETATM   10  C8  UNL     1      -4.507  -1.159  -1.390  1.00  0.00     0.071 C 
HETATM   11  C9  UNL     1      -4.916   0.195  -0.854  1.00  0.00     0.038 C 
HETATM   12  C10 UNL     1      -4.134   0.296   0.425  1.00  0.00     0.138 C 
HETATM   13  O3  UNL     1      -3.922  -1.037   0.795  1.00  0.00    -0.349 OA
HETATM   14  C11 UNL     1      -2.742   0.893   0.177  1.00  0.00     0.035 C 
HETATM   15  C12 UNL     1      -2.945   2.331  -0.186  1.00  0.00     0.023 C 
HETATM   16  C13 UNL     1      -1.890   0.745   1.392  1.00  0.00     0.052 C 
HETATM   17  C14 UNL     1      -0.448   0.566   1.168  1.00  0.00     0.164 C 
HETATM   18  S1  UNL     1       0.539  -1.413  -0.453  1.00  0.00    -0.128 SA
HETATM   19  C15 UNL     1       2.277  -1.625   0.014  1.00  0.00     0.087 C 
HETATM   20  C16 UNL     1       3.203  -0.776  -0.807  1.00  0.00     0.059 C 
HETATM   21  C17 UNL     1       3.538   0.520  -0.118  1.00  0.00     0.137 C 
HETATM   22  O5  UNL     1       4.367   0.088   0.917  1.00  0.00    -0.341 OA
HETATM   23  C18 UNL     1       5.266  -0.781   0.353  1.00  0.00     0.253 A 
HETATM   24  F1  UNL     1       5.876  -1.670   1.184  1.00  0.00    -0.206 F 
HETATM   25  C19 UNL     1       6.182  -0.148  -0.677  1.00  0.00     0.245 A 
HETATM   26  O6  UNL     1       5.492  -0.903  -1.649  1.00  0.00    -0.374 OA
HETATM   27  C20 UNL     1       4.566  -1.477  -0.800  1.00  0.00     0.198 A 
ENDROOT
BRANCH  17  28
HETATM   28  O4  UNL     1      -0.004  -0.480   2.014  1.00  0.00    -0.392 OA
ATOM     29  H4  UNL     1      -0.305  -0.328   2.902  1.00  0.00     0.210 HD
ENDBRANCH  17  28
TORSDOF 1
