REMARK  4 active torsions:
REMARK  status: ('A' for Active; 'I' for Inactive)
REMARK    1  A    between atoms: N1_1  and  C1_4 
REMARK    2  A    between atoms: C2_5  and  C3_6 
REMARK    3  A    between atoms: C4_8  and  O1_9 
REMARK    4  A    between atoms: C5_11  and  O2_12 
ROOT
HETATM    1  C1  UNL     1       1.065  -0.719   0.703  1.00  0.00     0.112 A 
HETATM    2  C2  UNL     1       2.102  -0.072   0.014  1.00  0.00     0.035 A 
HETATM    3  C4  UNL     1       1.846   0.985  -0.824  1.00  0.00     0.112 A 
HETATM    4  C5  UNL     1       0.509   1.378  -0.955  1.00  0.00     0.123 A 
HETATM    5  C6  UNL     1      -0.453   0.716  -0.265  1.00  0.00     0.054 A 
HETATM    6  N2  UNL     1      -0.201  -0.324   0.560  1.00  0.00    -0.329 N 
HETATM    7  C7  UNL     1      -1.449  -0.804   1.145  1.00  0.00     0.092 C 
HETATM    8  C8  UNL     1      -2.345  -1.437   0.113  1.00  0.00     0.026 C 
HETATM    9  C9  UNL     1      -2.548  -0.279  -0.872  1.00  0.00     0.013 C 
HETATM   10  C10 UNL     1      -1.952   0.907  -0.209  1.00  0.00     0.041 C 
HETATM   11  C11 UNL     1      -2.155   0.562   1.276  1.00  0.00     0.036 C 
ENDROOT
BRANCH   1  12
HETATM   12  N1  UNL     1       1.423  -1.693   1.460  1.00  0.00    -0.385 N 
ATOM     13  H12 UNL     1       2.391  -1.995   1.569  1.00  0.00     0.157 HD
ATOM     14  H11 UNL     1       0.669  -2.163   1.961  1.00  0.00     0.157 HD
ENDBRANCH   1  12
BRANCH   2  15
HETATM   15  C3  UNL     1       3.499  -0.532   0.192  1.00  0.00     0.160 C 
HETATM   16 CL1  UNL     1       3.689  -2.017  -0.786  1.00  0.00    -0.125 Cl
ENDBRANCH   2  15
BRANCH   3  17
HETATM   17  O1  UNL     1       2.808   1.678  -1.541  1.00  0.00    -0.357 OA
ATOM     18  H1  UNL     1       2.631   2.409  -2.121  1.00  0.00     0.217 HD
ENDBRANCH   3  17
BRANCH   4  19
HETATM   19  O2  UNL     1       0.153   2.435  -1.778  1.00  0.00    -0.356 OA
ATOM     20  H2  UNL     1      -0.754   2.702  -1.867  1.00  0.00     0.218 HD
ENDBRANCH   4  19
TORSDOF 4
