REMARK  10 active torsions:
REMARK  status: ('A' for Active; 'I' for Inactive)
REMARK    1  A    between atoms: C3_4  and  C4_5 
REMARK    2  A    between atoms: C4_5  and  N2_6 
REMARK    3  A    between atoms: N2_6  and  C5_8 
REMARK    4  A    between atoms: C7_14  and  C8_15 
REMARK    5  A    between atoms: C8_15  and  N5_16 
REMARK    6  A    between atoms: N5_16  and  N6_18 
REMARK    7  A    between atoms: C9_20  and  C10_21 
REMARK    8  A    between atoms: C13_24  and  N7_25 
REMARK    9  A    between atoms: N7_25  and  C14_27 
REMARK   10  A    between atoms: C22_46  and  O2_47 
ROOT
HETATM    1  C5  UNL     1      -5.349   1.635  -0.497  1.00  0.00     0.684 A 
HETATM    2  N3  UNL     1      -4.710   1.340   0.636  1.00  0.00    -0.174 N 
ATOM      3  H3  UNL     1      -5.233   0.987   1.437  1.00  0.00     0.186 HD
HETATM    4  C6  UNL     1      -3.357   1.509   0.727  1.00  0.00     0.155 A 
HETATM    5  N4  UNL     1      -2.474   1.300   1.729  1.00  0.00    -0.328 N 
ATOM      6  H4  UNL     1      -2.715   0.948   2.655  1.00  0.00     0.169 HD
HETATM    7  C7  UNL     1      -1.234   1.623   1.329  1.00  0.00     0.103 A 
HETATM    8  N11 UNL     1      -1.348   2.040   0.058  1.00  0.00    -0.337 N 
ATOM      9  H11 UNL     1      -0.572   2.355  -0.524  1.00  0.00     0.167 HD
HETATM   10  C19 UNL     1      -2.627   1.983  -0.338  1.00  0.00     0.148 A 
HETATM   11  C20 UNL     1      -3.311   2.280  -1.496  1.00  0.00     0.292 A 
HETATM   12  O1  UNL     1      -2.657   2.712  -2.473  1.00  0.00    -0.265 OA
HETATM   13  N12 UNL     1      -4.637   2.098  -1.536  1.00  0.00    -0.150 N 
HETATM   14  C21 UNL     1      -5.333   2.417  -2.763  1.00  0.00     0.179 C 
ENDROOT
BRANCH   7  15
HETATM   15  C8  UNL     1       0.036   1.543   2.140  1.00  0.00     0.215 C 
BRANCH  15  16
HETATM   16  N5  UNL     1       0.519   0.182   2.008  1.00  0.00    -0.330 N 
ATOM     17  H5  UNL     1       0.635  -0.359   2.865  1.00  0.00     0.180 HD
BRANCH  16  18
HETATM   18  N6  UNL     1       0.826  -0.424   0.848  1.00  0.00    -0.315 N 
HETATM   19  C9  UNL     1       1.832  -0.732   0.197  1.00  0.00     0.118 C 
ATOM     20  H6  UNL     1      -0.021  -0.716   0.360  1.00  0.00     0.185 HD
BRANCH  19  21
HETATM   21  C10 UNL     1       3.237  -0.536   0.464  1.00  0.00    -0.019 A 
HETATM   22  C11 UNL     1       3.645   0.101   1.602  1.00  0.00     0.015 A 
HETATM   23  C12 UNL     1       5.011   0.293   1.864  1.00  0.00     0.031 A 
HETATM   24  C13 UNL     1       5.960  -0.151   0.989  1.00  0.00     0.049 A 
HETATM   25  C17 UNL     1       5.543  -0.800  -0.168  1.00  0.00     0.031 A 
HETATM   26  C18 UNL     1       4.205  -0.981  -0.413  1.00  0.00     0.015 A 
BRANCH  24  27
HETATM   27  N7  UNL     1       7.337   0.052   1.267  1.00  0.00    -0.192 N 
ATOM     28  H7  UNL     1       7.601   0.534   2.127  1.00  0.00     0.184 HD
BRANCH  27  29
HETATM   29  C14 UNL     1       8.368  -0.397   0.381  1.00  0.00     0.677 C 
HETATM   30  N8  UNL     1       9.063  -1.447   0.634  1.00  0.00    -0.202 N 
HETATM   31  C15 UNL     1      10.098  -1.875  -0.282  1.00  0.00     0.373 C 
ATOM     32  H8  UNL     1       8.885  -1.981   1.484  1.00  0.00     0.179 HD
HETATM   33  N9  UNL     1       9.662  -1.691  -1.635  1.00  0.00    -0.043 N 
HETATM   34  C16 UNL     1       9.229  -0.363  -1.929  1.00  0.00     0.373 C 
ATOM     35  H92 UNL     1      10.388  -1.984  -2.289  1.00  0.00     0.281 HD
ATOM     36  H91 UNL     1       8.935  -2.366  -1.872  1.00  0.00     0.281 HD
HETATM   37  N10 UNL     1       8.638   0.329  -0.808  1.00  0.00    -0.202 N 
ATOM     38  H10 UNL     1       8.418   1.323  -0.870  1.00  0.00     0.179 HD
ENDBRANCH  27  29
ENDBRANCH  24  27
ENDBRANCH  19  21
ENDBRANCH  16  18
ENDBRANCH  15  16
ENDBRANCH   7  15
BRANCH   1  39
HETATM   39  N2  UNL     1      -6.609   1.502  -0.639  1.00  0.00    -0.221 N 
ATOM     40  H2  UNL     1      -7.046   1.743  -1.529  1.00  0.00     0.178 HD
BRANCH  39  41
HETATM   41  C4  UNL     1      -7.418   1.016   0.441  1.00  0.00     0.182 C 
BRANCH  41  42
HETATM   42  C3  UNL     1      -7.513  -0.450   0.482  1.00  0.00     0.029 A 
HETATM   43  C2  UNL     1      -6.940  -1.370  -0.368  1.00  0.00     0.122 A 
HETATM   44  N1  UNL     1      -7.293  -2.606   0.035  1.00  0.00    -0.305 N 
HETATM   45  C1  UNL     1      -6.898  -3.868  -0.596  1.00  0.00     0.177 C 
HETATM   46  N13 UNL     1      -8.067  -2.470   1.110  1.00  0.00    -0.278 N 
HETATM   47  C22 UNL     1      -8.228  -1.162   1.420  1.00  0.00     0.164 A 
ATOM     48  H13 UNL     1      -8.481  -3.245   1.628  1.00  0.00     0.189 HD
BRANCH  47  49
HETATM   49  O2  UNL     1      -8.972  -0.654   2.480  1.00  0.00    -0.345 OA
ATOM     50  H2  UNL     1      -9.465  -1.145   3.127  1.00  0.00     0.219 HD
ENDBRANCH  47  49
ENDBRANCH  41  42
ENDBRANCH  39  41
ENDBRANCH   1  39
TORSDOF 10
