REMARK  11 active torsions:
REMARK  status: ('A' for Active; 'I' for Inactive)
REMARK    1  A    between atoms: O1_2  and  C2_3 
REMARK    2  A    between atoms: C2_3  and  C3_7 
REMARK    3  A    between atoms: C4_9  and  N2_10 
REMARK    4  A    between atoms: N2_10  and  N3_12 
REMARK    5  A    between atoms: N3_12  and  C5_14 
REMARK    6  A    between atoms: C8_17  and  N4_18 
REMARK    7  A    between atoms: C10_22  and  N5_23 
REMARK    8  A    between atoms: C11_26  and  C12_27 
REMARK       I    between atoms: C12_27  and  N6_29 
REMARK    9  A    between atoms: N6_29  and  N7_31 
REMARK       I    between atoms: N7_31  and  C13_33 
REMARK   10  A    between atoms: C13_33  and  C14_35 
REMARK   11  A    between atoms: C14_35  and  N8_36 
ROOT
HETATM    1  C3  UNL     1      -1.152   2.887   0.452  1.00  0.00     0.082 A 
HETATM    2  S1  UNL     1       0.302   2.143   1.032  1.00  0.00    -0.064 SA
HETATM    3  C4  UNL     1      -0.141   0.525   0.857  1.00  0.00     0.107 A 
HETATM    4  C11 UNL     1      -1.424   0.580   0.346  1.00  0.00     0.094 A 
HETATM    5  C15 UNL     1      -1.924   1.807   0.146  1.00  0.00     0.086 A 
HETATM    6  N9  UNL     1      -3.256   2.049  -0.387  1.00  0.00    -0.100 NA
ENDROOT
BRANCH   3   7
HETATM    7  N2  UNL     1       0.662  -0.628   1.183  1.00  0.00    -0.292 N 
ATOM      8  H2  UNL     1       0.517  -1.141   2.053  1.00  0.00     0.187 HD
BRANCH   7   9
HETATM    9  N3  UNL     1       1.615  -1.008   0.297  1.00  0.00    -0.297 N 
ATOM     10  H3  UNL     1       1.204  -1.377  -0.561  1.00  0.00     0.187 HD
BRANCH   9  11
HETATM   11  C5  UNL     1       3.007  -1.028   0.248  1.00  0.00     0.081 A 
HETATM   12  C6  UNL     1       3.564  -1.666  -0.895  1.00  0.00     0.036 A 
HETATM   13  C7  UNL     1       4.887  -1.737  -1.139  1.00  0.00     0.038 A 
HETATM   14  C8  UNL     1       5.746  -1.163  -0.236  1.00  0.00     0.105 A 
HETATM   15  C9  UNL     1       5.242  -0.543   0.871  1.00  0.00     0.074 A 
HETATM   16  C10 UNL     1       3.842  -0.456   1.152  1.00  0.00     0.133 A 
BRANCH  14  17
HETATM   17  N4  UNL     1       7.149  -1.238  -0.485  1.00  0.00    -0.116 N 
HETATM   18  O2  UNL     1       7.949  -0.732   0.332  1.00  0.00    -0.532 OA
HETATM   19  O3  UNL     1       7.657  -1.847  -1.591  1.00  0.00    -0.532 OA
ENDBRANCH  14  17
BRANCH  16  20
HETATM   20  N5  UNL     1       3.509   0.248   2.307  1.00  0.00    -0.113 N 
HETATM   21  O4  UNL     1       4.286   1.242   2.572  1.00  0.00    -0.532 OA
HETATM   22  O5  UNL     1       2.516   0.077   3.160  1.00  0.00    -0.532 OA
ENDBRANCH  16  20
ENDBRANCH   9  11
ENDBRANCH   7   9
ENDBRANCH   3   7
BRANCH   4  23
HETATM   23  C12 UNL     1      -2.128  -0.699   0.086  1.00  0.00     0.274 C 
HETATM   24  O6  UNL     1      -1.544  -1.816   0.354  1.00  0.00    -0.266 OA
HETATM   25  N6  UNL     1      -3.412  -0.848  -0.443  1.00  0.00    -0.263 N 
ATOM     26  H6  UNL     1      -3.978  -0.039  -0.697  1.00  0.00     0.190 HD
BRANCH  25  27
HETATM   27  N7  UNL     1      -3.899  -2.178  -0.613  1.00  0.00    -0.266 N 
HETATM   28  C13 UNL     1      -3.303  -2.995  -1.596  1.00  0.00     0.261 C 
HETATM   29  O7  UNL     1      -2.370  -2.566  -2.304  1.00  0.00    -0.270 OA
ATOM     30  H7  UNL     1      -4.662  -2.531  -0.036  1.00  0.00     0.190 HD
BRANCH  28  31
HETATM   31  C14 UNL     1      -3.829  -4.387  -1.757  1.00  0.00     0.333 C 
BRANCH  31  32
HETATM   32  N8  UNL     1      -4.919  -4.627  -0.810  1.00  0.00    -0.071 N 
ATOM     33  H83 UNL     1      -4.638  -4.434   0.151  1.00  0.00     0.274 HD
ATOM     34  H82 UNL     1      -5.657  -3.928  -0.893  1.00  0.00     0.274 HD
ATOM     35  H81 UNL     1      -5.277  -5.576  -0.920  1.00  0.00     0.274 HD
ENDBRANCH  31  32
ENDBRANCH  28  31
ENDBRANCH  25  27
ENDBRANCH   4  23
BRANCH   1  36
HETATM   36  C2  UNL     1      -1.410   4.338   0.353  1.00  0.00     0.154 C 
HETATM   37  N1  UNL     1      -2.454   4.899  -0.047  1.00  0.00    -0.379 N 
ATOM     38  H12 UNL     1      -2.632   5.901  -0.115  1.00  0.00     0.158 HD
ATOM     39  H11 UNL     1      -3.214   4.284  -0.337  1.00  0.00     0.158 HD
BRANCH  36  40
HETATM   40  O1  UNL     1      -0.358   5.190   0.755  1.00  0.00    -0.340 OA
HETATM   41  C1  UNL     1      -0.691   6.533   1.032  1.00  0.00     0.211 C 
ENDBRANCH  36  40
ENDBRANCH   1  36
TORSDOF 11
