REMARK  4 active torsions:
REMARK  status: ('A' for Active; 'I' for Inactive)
REMARK    1  A    between atoms: C3_3  and  O1_4 
REMARK    2  A    between atoms: O1_4  and  C4_5 
REMARK    3  A    between atoms: C4_5  and  N2_9 
REMARK    4  A    between atoms: N2_9  and  C5_11 
ROOT
HETATM    1  C1  UNL     1       5.097  -0.681   0.222  1.00  0.00     0.114 C 
HETATM    2  C2  UNL     1       3.657  -0.528  -0.008  1.00  0.00    -0.080 C 
HETATM    3  C3  UNL     1       2.472  -0.382  -0.198  1.00  0.00     0.063 C 
ENDROOT
BRANCH   3   4
HETATM    4  O1  UNL     1       1.114  -0.213  -0.393  1.00  0.00    -0.227 OA
BRANCH   4   5
HETATM    5  C4  UNL     1       0.258   0.111   0.637  1.00  0.00     0.228 C 
HETATM    6  N1  UNL     1       0.621  -0.116   1.842  1.00  0.00    -0.365 N 
ATOM      7  H12 UNL     1       1.542  -0.532   1.976  1.00  0.00     0.159 HD
ATOM      8  H11 UNL     1      -0.013   0.124   2.604  1.00  0.00     0.159 HD
BRANCH   5   9
HETATM    9  N2  UNL     1      -1.044   0.699   0.447  1.00  0.00    -0.334 N 
ATOM     10  H2  UNL     1      -1.266   1.558   0.950  1.00  0.00     0.164 HD
BRANCH   9  11
HETATM   11  C5  UNL     1      -2.036   0.141  -0.407  1.00  0.00     0.115 C 
HETATM   12  C6  UNL     1      -3.271   1.009  -0.368  1.00  0.00     0.055 C 
HETATM   13  C7  UNL     1      -2.456  -1.253  -0.001  1.00  0.00     0.055 C 
HETATM   14  C8  UNL     1      -1.503   0.040  -1.785  1.00  0.00     0.090 C 
HETATM   15  N3  UNL     1      -1.073  -0.048  -2.853  1.00  0.00    -0.195 NA
ENDBRANCH   9  11
ENDBRANCH   5   9
ENDBRANCH   4   5
ENDBRANCH   3   4
TORSDOF 4
