REMARK  0 active torsions:
REMARK  status: ('A' for Active; 'I' for Inactive)
ROOT
HETATM    1  C1  UNL     1      -1.509  -0.653   0.809  1.00  0.00     0.002 C 
HETATM    2  C2  UNL     1      -1.772  -1.866   0.000  1.00  0.00     0.002 C 
HETATM    3  C3  UNL     1      -0.603  -2.602  -0.500  1.00  0.00     0.027 C 
HETATM    4  C4  UNL     1       0.731  -2.010  -0.212  1.00  0.00     0.232 C 
HETATM    5  N1  UNL     1       1.102  -0.960  -1.172  1.00  0.00    -0.075 N 
ATOM      6  H11 UNL     1       0.428  -0.195  -1.205  1.00  0.00     0.277 HD
ATOM      7  H12 UNL     1       1.012  -1.259  -2.143  1.00  0.00     0.277 HD
HETATM    8  C5  UNL     1       2.432  -0.521  -0.842  1.00  0.00     0.232 C 
HETATM    9  C6  UNL     1       2.433   0.686   0.084  1.00  0.00     0.029 C 
HETATM   10  C7  UNL     1       1.623   1.829  -0.465  1.00  0.00     0.021 C 
HETATM   11  C8  UNL     1       0.512   2.254   0.492  1.00  0.00     0.113 C 
HETATM   12  N2  UNL     1      -0.771   2.099  -0.125  1.00  0.00    -0.421 N 
ATOM     13  H2  UNL     1      -0.911   2.190  -1.131  1.00  0.00     0.153 HD
HETATM   14  C9  UNL     1      -1.840   1.807   0.776  1.00  0.00     0.113 C 
HETATM   15  C10 UNL     1      -2.506   0.465   0.471  1.00  0.00     0.019 C 
ENDROOT
TORSDOF 0
