REMARK  9 active torsions:
REMARK  status: ('A' for Active; 'I' for Inactive)
REMARK    1  A    between atoms: O1_2  and  C2_3 
REMARK    2  A    between atoms: C4_5  and  O2_6 
REMARK    3  A    between atoms: C6_8  and  C7_9 
REMARK    4  A    between atoms: C7_9  and  N1_10 
REMARK    5  A    between atoms: N1_10  and  C22_35 
REMARK    6  A    between atoms: C8_11  and  C9_12 
REMARK    7  A    between atoms: C13_19  and  O4_20 
REMARK    8  A    between atoms: O4_20  and  C14_21 
REMARK    9  A    between atoms: C28_42  and  O6_43 
ROOT
HETATM    1  C9  UNL     1       0.193   0.561  -0.456  1.00  0.00     0.019 A 
HETATM    2  C10 UNL     1       0.953  -0.183  -1.274  1.00  0.00     0.035 A 
HETATM    3  C11 UNL     1       2.322  -0.433  -1.086  1.00  0.00     0.060 A 
HETATM    4  C12 UNL     1       3.050  -1.211  -1.969  1.00  0.00     0.261 A 
HETATM    5  O3  UNL     1       2.458  -1.708  -2.970  1.00  0.00    -0.267 OA
HETATM    6  N2  UNL     1       4.358  -1.419  -1.742  1.00  0.00    -0.288 N 
ATOM      7  H2  UNL     1       4.886  -1.995  -2.398  1.00  0.00     0.172 HD
HETATM    8  C13 UNL     1       4.994  -0.895  -0.681  1.00  0.00     0.227 A 
HETATM    9  N4  UNL     1       4.265  -0.145   0.158  1.00  0.00    -0.321 N 
ATOM     10  H4  UNL     1       4.728   0.263   0.971  1.00  0.00     0.169 HD
HETATM   11  C19 UNL     1       2.949   0.097  -0.020  1.00  0.00     0.054 A 
HETATM   12  C20 UNL     1       2.234   0.873   0.864  1.00  0.00     0.073 A 
HETATM   13  C21 UNL     1       0.908   1.101   0.662  1.00  0.00     0.130 A 
HETATM   14  F1  UNL     1       0.248   1.853   1.532  1.00  0.00    -0.205 F 
ENDROOT
BRANCH   1  15
HETATM   15  C8  UNL     1      -1.167   0.915  -0.511  1.00  0.00     0.101 C 
HETATM   16  N1  UNL     1      -2.278   0.739  -1.227  1.00  0.00    -0.380 N 
BRANCH  16  17
HETATM   17  C7  UNL     1      -3.398   1.529  -0.596  1.00  0.00     0.164 C 
BRANCH  17  18
HETATM   18  C6  UNL     1      -4.019   0.895   0.536  1.00  0.00    -0.004 A 
HETATM   19  C4  UNL     1      -5.020   1.570   1.204  1.00  0.00     0.079 A 
HETATM   20  C3  UNL     1      -5.679   1.017   2.260  1.00  0.00     0.077 A 
HETATM   21  C2  UNL     1      -5.358  -0.239   2.688  1.00  0.00     0.103 A 
HETATM   22  C28 UNL     1      -4.367  -0.954   2.055  1.00  0.00     0.099 A 
HETATM   23  C27 UNL     1      -3.720  -0.364   0.989  1.00  0.00     0.051 A 
BRANCH  19  24
HETATM   24  O2  UNL     1      -5.362   2.868   0.773  1.00  0.00    -0.355 OA
HETATM   25  C5  UNL     1      -6.387   3.570   1.451  1.00  0.00     0.210 C 
ENDBRANCH  19  24
BRANCH  21  26
HETATM   26  O1  UNL     1      -6.047  -0.801   3.782  1.00  0.00    -0.353 OA
HETATM   27  C1  UNL     1      -7.066  -0.074   4.437  1.00  0.00     0.210 C 
ENDBRANCH  21  26
BRANCH  22  28
HETATM   28  O6  UNL     1      -4.084  -2.220   2.531  1.00  0.00    -0.358 OA
ATOM     29  H6  UNL     1      -3.400  -2.714   2.094  1.00  0.00     0.217 HD
ENDBRANCH  22  28
ENDBRANCH  17  18
ENDBRANCH  16  17
BRANCH  16  30
HETATM   30  C22 UNL     1      -2.665   0.266  -2.444  1.00  0.00     0.088 C 
HETATM   31  C23 UNL     1      -1.929  -0.850  -3.087  1.00  0.00     0.051 C 
HETATM   32  C24 UNL     1      -2.826  -1.599  -4.089  1.00  0.00     0.169 C 
HETATM   33  O5  UNL     1      -3.631  -0.676  -4.727  1.00  0.00    -0.391 OA
HETATM   34  C25 UNL     1      -4.639  -0.337  -3.856  1.00  0.00     0.169 C 
HETATM   35  C26 UNL     1      -4.128  -0.284  -2.406  1.00  0.00     0.051 C 
ENDBRANCH  16  30
ENDBRANCH   1  15
BRANCH   8  36
HETATM   36  O4  UNL     1       6.346  -1.155  -0.516  1.00  0.00    -0.316 OA
BRANCH  36  37
HETATM   37  C14 UNL     1       7.102  -0.652   0.570  1.00  0.00     0.135 C 
HETATM   38  C15 UNL     1       8.248   0.121   0.014  1.00  0.00     0.060 C 
HETATM   39  C16 UNL     1       9.497   0.083   0.828  1.00  0.00     0.235 C 
HETATM   40  N3  UNL     1       9.808  -1.217   1.378  1.00  0.00    -0.075 N 
HETATM   41  C17 UNL     1       8.694  -1.551   2.279  1.00  0.00     0.235 C 
ATOM     42  H32 UNL     1       9.985  -1.928   0.668  1.00  0.00     0.277 HD
ATOM     43  H31 UNL     1      10.723  -1.261   1.827  1.00  0.00     0.277 HD
HETATM   44  C18 UNL     1       7.516  -1.847   1.393  1.00  0.00     0.060 C 
ENDBRANCH  36  37
ENDBRANCH   8  36
TORSDOF 9
