REMARK  11 active torsions:
REMARK  status: ('A' for Active; 'I' for Inactive)
REMARK    1  A    between atoms: C2_2  and  O1_4 
REMARK    2  A    between atoms: C2_2  and  C4_6 
REMARK    3  A    between atoms: C4_6  and  C5_7 
REMARK    4  A    between atoms: C5_7  and  C6_8 
REMARK    5  A    between atoms: C6_8  and  C7_9 
REMARK    6  A    between atoms: C6_8  and  C13_22 
REMARK    7  A    between atoms: C7_9  and  O2_10 
REMARK    8  A    between atoms: C7_9  and  N1_12 
REMARK    9  A    between atoms: N1_12  and  C8_14 
REMARK   10  A    between atoms: C30_41  and  C31_42 
REMARK   11  A    between atoms: C31_42  and  O5_43 
ROOT
HETATM    1  C13 UNL     1       1.149   0.365  -0.980  1.00  0.00    -0.002 C 
HETATM    2  C14 UNL     1       0.750   1.786  -0.832  1.00  0.00     0.006 C 
HETATM    3  C15 UNL     1       0.108   1.891   0.570  1.00  0.00     0.006 C 
HETATM    4  C16 UNL     1      -0.394   0.514   0.867  1.00  0.00    -0.003 C 
HETATM    5  C17 UNL     1      -0.039  -0.328  -0.320  1.00  0.00    -0.005 C 
HETATM    6  C18 UNL     1      -1.089  -0.466  -1.351  1.00  0.00     0.009 C 
HETATM    7  C19 UNL     1      -2.493  -0.606  -0.848  1.00  0.00     0.045 C 
HETATM    8  C20 UNL     1      -2.812   0.440   0.144  1.00  0.00     0.121 C 
HETATM    9  F1  UNL     1      -2.817   1.657  -0.531  1.00  0.00    -0.241 F 
HETATM   10  C21 UNL     1      -1.837   0.419   1.266  1.00  0.00     0.034 C 
HETATM   11  C22 UNL     1      -2.011  -0.793   2.117  1.00  0.00     0.035 C 
HETATM   12  C23 UNL     1      -3.305  -1.502   1.940  1.00  0.00    -0.023 C 
HETATM   13  C24 UNL     1      -4.359  -1.008   1.299  1.00  0.00    -0.069 C 
HETATM   14  C25 UNL     1      -5.523  -1.950   1.278  1.00  0.00     0.042 C 
HETATM   15  C26 UNL     1      -6.827  -1.289   1.618  1.00  0.00     0.082 C 
HETATM   16  C27 UNL     1      -7.229  -0.463   0.444  1.00  0.00     0.127 C 
HETATM   17  O4  UNL     1      -8.177  -0.899  -0.190  1.00  0.00    -0.298 OA
HETATM   18  C28 UNL     1      -6.594   0.792   0.007  1.00  0.00     0.079 C 
HETATM   19  C29 UNL     1      -5.165   0.671  -0.364  1.00  0.00     0.027 C 
HETATM   20  C30 UNL     1      -4.212   0.338   0.740  1.00  0.00     0.041 C 
ENDROOT
BRANCH   1  21
HETATM   21  C6  UNL     1       2.453  -0.110  -0.521  1.00  0.00     0.038 C 
BRANCH  21  22
HETATM   22  C5  UNL     1       2.627  -1.613  -0.772  1.00  0.00     0.012 C 
BRANCH  22  23
HETATM   23  C4  UNL     1       2.633  -1.993  -2.200  1.00  0.00     0.037 C 
BRANCH  23  24
HETATM   24  C2  UNL     1       2.804  -3.479  -2.433  1.00  0.00     0.051 C 
HETATM   25  C1  UNL     1       2.803  -3.815  -3.909  1.00  0.00     0.045 C 
HETATM   26  C3  UNL     1       1.762  -4.311  -1.772  1.00  0.00     0.045 C 
BRANCH  24  27
HETATM   27  O1  UNL     1       4.056  -3.912  -1.937  1.00  0.00    -0.391 OA
ATOM     28  H1  UNL     1       4.057  -3.701  -1.011  1.00  0.00     0.210 HD
ENDBRANCH  24  27
ENDBRANCH  23  24
ENDBRANCH  22  23
ENDBRANCH  21  22
BRANCH  21  29
HETATM   29  C7  UNL     1       3.644   0.518  -1.214  1.00  0.00     0.218 C 
BRANCH  29  30
HETATM   30  O2  UNL     1       4.832  -0.063  -0.687  1.00  0.00    -0.377 OA
ATOM     31  H2  UNL     1       5.579   0.331  -1.122  1.00  0.00     0.212 HD
ENDBRANCH  29  30
BRANCH  29  32
HETATM   32  N1  UNL     1       3.799   1.917  -0.877  1.00  0.00    -0.392 N 
ATOM     33  H1  UNL     1       3.711   2.646  -1.585  1.00  0.00     0.156 HD
BRANCH  32  34
HETATM   34  C8  UNL     1       4.078   2.232   0.478  1.00  0.00     0.089 C 
HETATM   35  C9  UNL     1       5.378   1.757   1.011  1.00  0.00     0.045 C 
HETATM   36  C10 UNL     1       5.976   2.729   2.029  1.00  0.00     0.124 C 
HETATM   37  N2  UNL     1       4.878   3.280   2.789  1.00  0.00    -0.361 N 
HETATM   38  C11 UNL     1       3.911   4.029   2.055  1.00  0.00     0.219 C 
ATOM     39  H2  UNL     1       4.798   3.141   3.796  1.00  0.00     0.162 HD
HETATM   40  O3  UNL     1       3.137   4.812   2.613  1.00  0.00    -0.274 OA
HETATM   41  C12 UNL     1       3.940   3.767   0.572  1.00  0.00     0.127 C 
ENDBRANCH  32  34
ENDBRANCH  29  32
ENDBRANCH  21  29
ENDBRANCH   1  21
BRANCH  20  42
HETATM   42  C31 UNL     1      -4.364   1.332   1.864  1.00  0.00     0.181 C 
BRANCH  42  43
HETATM   43  O5  UNL     1      -4.179   2.644   1.471  1.00  0.00    -0.400 OA
ATOM     44  H5  UNL     1      -4.275   3.270   2.179  1.00  0.00     0.209 HD
ENDBRANCH  42  43
ENDBRANCH  20  42
TORSDOF 11
