REMARK  2 active torsions:
REMARK  status: ('A' for Active; 'I' for Inactive)
REMARK    1  A    between atoms: C17_20  and  N2_21 
REMARK       I    between atoms: N2_21  and  C18_23 
REMARK    2  A    between atoms: C18_23  and  C19_25 
ROOT
HETATM    1  C1  UNL     1      -5.763   2.408  -1.807  1.00  0.00     0.044 C 
HETATM    2  C2  UNL     1      -5.171   1.950  -0.717  1.00  0.00     0.045 A 
HETATM    3  N1  UNL     1      -5.434   2.339   0.491  1.00  0.00    -0.355 N 
ATOM      4  H1  UNL     1      -6.123   3.048   0.741  1.00  0.00     0.166 HD
HETATM    5  C3  UNL     1      -4.652   1.659   1.378  1.00  0.00     0.045 A 
HETATM    6  C4  UNL     1      -4.558   1.955   2.719  1.00  0.00     0.030 A 
HETATM    7  C5  UNL     1      -3.586   1.292   3.395  1.00  0.00     0.003 A 
HETATM    8  C6  UNL     1      -2.845   0.427   2.720  1.00  0.00     0.013 A 
HETATM    9  C7  UNL     1      -2.839   0.037   1.399  1.00  0.00    -0.010 A 
HETATM   10  C8  UNL     1      -1.843  -0.646   0.920  1.00  0.00    -0.002 A 
HETATM   11  C9  UNL     1      -1.717  -1.301  -0.353  1.00  0.00    -0.010 A 
HETATM   12  C10 UNL     1      -2.926  -2.107  -0.679  1.00  0.00     0.013 A 
HETATM   13  C11 UNL     1      -2.938  -2.971  -1.704  1.00  0.00     0.001 A 
HETATM   14  C12 UNL     1      -1.842  -3.165  -2.516  1.00  0.00     0.001 A 
HETATM   15  C13 UNL     1      -0.725  -2.425  -2.213  1.00  0.00     0.016 A 
HETATM   16  C14 UNL     1      -0.697  -1.534  -1.155  1.00  0.00     0.026 A 
HETATM   17  C15 UNL     1       0.637  -1.038  -0.710  1.00  0.00     0.196 A 
HETATM   18  O1  UNL     1       1.581  -1.256  -1.463  1.00  0.00    -0.286 OA
HETATM   19  C16 UNL     1       0.648  -0.360   0.569  1.00  0.00     0.053 A 
HETATM   20  C17 UNL     1       1.936   0.104   0.979  1.00  0.00     0.050 A 
HETATM   21  C24 UNL     1       2.113   0.766   2.175  1.00  0.00     0.030 A 
HETATM   22  C25 UNL     1       1.067   0.996   2.988  1.00  0.00     0.003 A 
HETATM   23  C26 UNL     1      -0.198   0.533   2.567  1.00  0.00     0.013 A 
HETATM   24  C27 UNL     1      -0.434  -0.124   1.412  1.00  0.00    -0.008 A 
HETATM   25  C28 UNL     1      -3.824   0.741   0.667  1.00  0.00     0.025 A 
HETATM   26  C29 UNL     1      -4.161   0.962  -0.651  1.00  0.00     0.083 A 
HETATM   27  C30 UNL     1      -3.486   0.694  -1.885  1.00  0.00     0.102 C 
HETATM   28  N4  UNL     1      -2.940   0.560  -2.920  1.00  0.00    -0.191 NA
ENDROOT
BRANCH  20  29
HETATM   29  N2  UNL     1       3.017   0.029   0.063  1.00  0.00    -0.322 N 
HETATM   30  C18 UNL     1       4.362  -0.132   0.456  1.00  0.00     0.261 C 
HETATM   31  O2  UNL     1       4.644  -0.242   1.666  1.00  0.00    -0.267 OA
ATOM     32  H2  UNL     1       2.810   0.095  -0.934  1.00  0.00     0.169 HD
BRANCH  30  33
HETATM   33  C19 UNL     1       5.494  -0.188  -0.478  1.00  0.00     0.100 A 
HETATM   34  C20 UNL     1       6.621  -0.890  -0.036  1.00  0.00     0.024 A 
HETATM   35  C21 UNL     1       7.713  -1.020  -0.857  1.00  0.00     0.018 A 
HETATM   36  C22 UNL     1       7.727  -0.473  -2.109  1.00  0.00     0.091 A 
HETATM   37  N3  UNL     1       6.637   0.194  -2.506  1.00  0.00    -0.333 N 
HETATM   38  C23 UNL     1       5.550   0.340  -1.730  1.00  0.00     0.261 A 
ATOM     39  H3  UNL     1       6.631   0.609  -3.438  1.00  0.00     0.168 HD
HETATM   40  O3  UNL     1       4.543   0.990  -2.164  1.00  0.00    -0.267 OA
ENDBRANCH  30  33
ENDBRANCH  20  29
TORSDOF 2
