REMARK  9 active torsions:
REMARK  status: ('A' for Active; 'I' for Inactive)
REMARK    1  A    between atoms: C3_5  and  N2_6 
REMARK       I    between atoms: N2_6  and  C4_8 
REMARK    2  A    between atoms: C4_8  and  C5_10 
REMARK    3  A    between atoms: C5_10  and  O2_11 
REMARK    4  A    between atoms: C5_10  and  N3_13 
REMARK       I    between atoms: N3_13  and  C6_15 
REMARK       I    between atoms: C6_15  and  N4_17 
REMARK    5  A    between atoms: C9_20  and  N5_21 
REMARK    6  A    between atoms: N5_21  and  C10_23 
REMARK    7  A    between atoms: C10_23  and  N6_25 
REMARK    8  A    between atoms: N6_25  and  C11_27 
REMARK    9  A    between atoms: C15_31  and  C16_32 
ROOT
HETATM    1  C1  UNL     1      -3.265  -4.643  -0.282  1.00  0.00     0.069 C 
HETATM    2  C2  UNL     1      -2.253  -3.630  -0.762  1.00  0.00     0.019 A 
HETATM    3  N1  UNL     1      -2.463  -2.348  -0.498  1.00  0.00    -0.343 N 
ATOM      4  H1  UNL     1      -3.313  -2.138   0.025  1.00  0.00     0.167 HD
HETATM    5  C3  UNL     1      -1.712  -1.298  -0.825  1.00  0.00     0.143 A 
HETATM    6  C9  UNL     1      -0.507  -1.416  -1.546  1.00  0.00     0.121 A 
HETATM    7  S2  UNL     1      -0.067  -2.996  -1.979  1.00  0.00    -0.072 SA
HETATM    8  C21 UNL     1      -1.190  -4.170  -1.446  1.00  0.00     0.003 A 
HETATM    9  C22 UNL     1      -1.021  -5.624  -1.701  1.00  0.00     0.058 C 
ENDROOT
BRANCH   6  10
HETATM   10  N5  UNL     1       0.183  -0.353  -1.790  1.00  0.00    -0.324 N 
ATOM     11  H5  UNL     1      -0.193   0.527  -1.437  1.00  0.00     0.169 HD
BRANCH  10  12
HETATM   12  C10 UNL     1       1.392  -0.281  -2.488  1.00  0.00     0.177 C 
HETATM   13  S1  UNL     1       1.228  -0.453  -4.171  1.00  0.00    -0.040 SA
BRANCH  12  14
HETATM   14  N6  UNL     1       2.700  -0.092  -2.068  1.00  0.00    -0.333 N 
ATOM     15  H6  UNL     1       3.398  -0.083  -2.812  1.00  0.00     0.168 HD
BRANCH  14  16
HETATM   16  C11 UNL     1       3.213   0.091  -0.756  1.00  0.00     0.034 A 
HETATM   17  C12 UNL     1       2.554  -0.190   0.394  1.00  0.00     0.029 A 
HETATM   18  C13 UNL     1       3.097   0.014   1.671  1.00  0.00     0.003 A 
HETATM   19  C14 UNL     1       4.365   0.528   1.761  1.00  0.00     0.008 A 
HETATM   20  C15 UNL     1       5.086   0.835   0.606  1.00  0.00    -0.048 A 
HETATM   21  C20 UNL     1       4.517   0.618  -0.620  1.00  0.00     0.037 A 
BRANCH  20  22
HETATM   22  C16 UNL     1       6.458   1.406   0.773  1.00  0.00    -0.024 C 
HETATM   23  C17 UNL     1       7.393   0.421   1.431  1.00  0.00     0.019 C 
HETATM   24  C18 UNL     1       6.401   2.649   1.652  1.00  0.00     0.019 C 
HETATM   25  C19 UNL     1       7.050   1.767  -0.581  1.00  0.00     0.019 C 
ENDBRANCH  20  22
ENDBRANCH  14  16
ENDBRANCH  12  14
ENDBRANCH  10  12
ENDBRANCH   6  10
BRANCH   5  26
HETATM   26  N2  UNL     1      -2.002  -0.090  -0.537  1.00  0.00    -0.304 N 
HETATM   27  C4  UNL     1      -3.169   0.369   0.177  1.00  0.00     0.298 C 
HETATM   28  O1  UNL     1      -3.313  -0.047   1.351  1.00  0.00    -0.263 OA
ATOM     29  H2  UNL     1      -1.342   0.625  -0.843  1.00  0.00     0.171 HD
BRANCH  27  30
HETATM   30  C5  UNL     1      -4.081   1.267  -0.495  1.00  0.00     0.214 C 
BRANCH  30  31
HETATM   31  O2  UNL     1      -3.754   1.524  -1.739  1.00  0.00    -0.342 OA
ATOM     32  H2  UNL     1      -4.353   2.114  -2.181  1.00  0.00     0.219 HD
ENDBRANCH  30  31
BRANCH  30  33
HETATM   33  N3  UNL     1      -5.234   1.906  -0.063  1.00  0.00    -0.285 N 
HETATM   34  C6  UNL     1      -5.848   1.873   1.201  1.00  0.00     0.323 C 
HETATM   35  O3  UNL     1      -5.464   1.227   2.183  1.00  0.00    -0.247 OA
HETATM   36  N4  UNL     1      -7.045   2.663   1.381  1.00  0.00    -0.343 N 
HETATM   37  C7  UNL     1      -7.582   3.459   0.295  1.00  0.00     0.154 C 
HETATM   38  C8  UNL     1      -7.705   2.671   2.648  1.00  0.00     0.154 C 
ATOM     39  H3  UNL     1      -5.703   2.482  -0.762  1.00  0.00     0.172 HD
ENDBRANCH  30  33
ENDBRANCH  27  30
ENDBRANCH   5  26
TORSDOF 9
