REMARK  4 active torsions:
REMARK  status: ('A' for Active; 'I' for Inactive)
REMARK    1  A    between atoms: N1_1  and  N2_4 
REMARK       I    between atoms: N2_4  and  C1_6 
REMARK       I    between atoms: C1_6  and  N5_15 
REMARK    2  A    between atoms: N3_7  and  S1_9 
REMARK    3  A    between atoms: S1_9  and  N4_10 
REMARK    4  A    between atoms: N5_15  and  N6_17 
ROOT
HETATM    1  N2  UNL     1      -0.941   1.471   1.165  1.00  0.00    -0.137 N 
ATOM      2  H2  UNL     1      -1.273   1.293   2.113  1.00  0.00     0.205 HD
HETATM    3  C1  UNL     1      -0.484   0.391   0.390  1.00  0.00     0.721 C 
HETATM    4  N3  UNL     1       0.662   0.435  -0.165  1.00  0.00    -0.097 N 
ATOM      5  H3  UNL     1       1.218   1.278  -0.020  1.00  0.00     0.199 HD
HETATM    6  N5  UNL     1      -1.292  -0.749   0.224  1.00  0.00    -0.137 N 
ATOM      7  H5  UNL     1      -1.482  -1.349   1.027  1.00  0.00     0.205 HD
ENDROOT
BRANCH   1   8
HETATM    8  N1  UNL     1      -0.954   2.794   0.672  1.00  0.00    -0.331 N 
ATOM      9  H12 UNL     1      -0.618   2.954  -0.278  1.00  0.00     0.177 HD
ATOM     10  H11 UNL     1      -1.286   3.578   1.234  1.00  0.00     0.177 HD
ENDBRANCH   1   8
BRANCH   4  11
HETATM   11  S1  UNL     1       1.346  -0.794  -1.130  1.00  0.00     0.330 S 
HETATM   12  O1  UNL     1       0.982  -0.661  -2.582  1.00  0.00    -0.182 OA
HETATM   13  O2  UNL     1       0.992  -2.118  -0.559  1.00  0.00    -0.182 OA
BRANCH  11  14
HETATM   14  N4  UNL     1       3.081  -0.636  -1.004  1.00  0.00    -0.311 N 
ATOM     15  H42 UNL     1       3.577   0.065  -0.453  1.00  0.00     0.170 HD
ATOM     16  H41 UNL     1       3.490  -1.371  -1.581  1.00  0.00     0.170 HD
ENDBRANCH  11  14
ENDBRANCH   4  11
BRANCH   6  17
HETATM   17  N6  UNL     1      -1.841  -1.076  -1.026  1.00  0.00    -0.331 N 
ATOM     18  H62 UNL     1      -1.641  -0.466  -1.818  1.00  0.00     0.177 HD
ATOM     19  H61 UNL     1      -2.427  -1.902  -1.146  1.00  0.00     0.177 HD
ENDBRANCH   6  17
TORSDOF 4
