REMARK  5 active torsions:
REMARK  status: ('A' for Active; 'I' for Inactive)
REMARK    1  A    between atoms: C2_2  and  C3_3 
REMARK    2  A    between atoms: C12_12  and  C13_13 
REMARK    3  A    between atoms: C13_13  and  C14_14 
REMARK    4  A    between atoms: C14_14  and  O1_15 
REMARK    5  A    between atoms: C17_22  and  C18_23 
ROOT
HETATM    1  C3  UNL     1      -2.372   0.479   0.085  1.00  0.00     0.053 C 
HETATM    2  C4  UNL     1      -2.059  -0.067  -1.284  1.00  0.00     0.018 C 
HETATM    3  C5  UNL     1      -0.553   0.054  -1.601  1.00  0.00     0.007 C 
HETATM    4  C6  UNL     1       0.148  -0.912  -0.751  1.00  0.00     0.004 C 
HETATM    5  C7  UNL     1      -0.535  -1.202   0.531  1.00  0.00     0.054 C 
HETATM    6  C8  UNL     1       0.515  -1.564   1.542  1.00  0.00     0.011 C 
HETATM    7  C9  UNL     1       1.752  -1.745   0.674  1.00  0.00     0.011 C 
HETATM    8  C10 UNL     1       1.577  -0.627  -0.365  1.00  0.00    -0.027 C 
HETATM    9  C11 UNL     1       2.399  -0.940  -1.575  1.00  0.00     0.016 C 
HETATM   10  C12 UNL     1       1.866   0.697   0.192  1.00  0.00     0.096 C 
HETATM   11  C15 UNL     1       0.788   1.342   0.990  1.00  0.00     0.266 C 
HETATM   12  O2  UNL     1       1.120   2.550   1.256  1.00  0.00    -0.265 OA
HETATM   13  O3  UNL     1      -0.425   0.982   1.494  1.00  0.00    -0.282 OA
HETATM   14  C16 UNL     1      -1.295   0.014   1.003  1.00  0.00     0.188 C 
HETATM   15  O4  UNL     1      -2.292  -0.464   1.874  1.00  0.00    -0.336 OA
HETATM   16  C17 UNL     1      -3.293  -0.370   0.953  1.00  0.00     0.239 C 
ENDROOT
BRANCH  10  17
HETATM   17  C13 UNL     1       3.076   0.752   1.074  1.00  0.00     0.041 C 
BRANCH  17  18
HETATM   18  C14 UNL     1       4.397   0.406   0.476  1.00  0.00     0.165 C 
BRANCH  18  19
HETATM   19  O1  UNL     1       4.788   1.229  -0.582  1.00  0.00    -0.401 OA
ATOM     20  H1  UNL     1       5.630   1.009  -0.963  1.00  0.00     0.209 HD
ENDBRANCH  18  19
ENDBRANCH  17  18
ENDBRANCH  10  17
BRANCH   1  21
HETATM   21  C2  UNL     1      -2.884   1.865   0.148  1.00  0.00     0.014 C 
HETATM   22  C1  UNL     1      -2.111   2.993  -0.367  1.00  0.00     0.006 C 
ENDBRANCH   1  21
BRANCH  16  23
HETATM   23  C18 UNL     1      -3.949  -1.516   0.389  1.00  0.00     0.204 C 
HETATM   24  O5  UNL     1      -4.798  -1.296  -0.546  1.00  0.00    -0.646 OA
HETATM   25  O6  UNL     1      -3.793  -2.845   0.719  1.00  0.00    -0.646 OA
ENDBRANCH  16  23
TORSDOF 5
