REMARK  2 active torsions:
REMARK  status: ('A' for Active; 'I' for Inactive)
REMARK    1  A    between atoms: C2_2  and  N1_3 
REMARK    2  A    between atoms: C14_22  and  C15_23 
ROOT
HETATM    1  N1  UNL     1       1.295   0.428  -0.357  1.00  0.00    -0.352 N 
HETATM    2  C3  UNL     1       1.893  -0.659   0.386  1.00  0.00     0.110 C 
HETATM    3  C4  UNL     1       3.409  -0.514   0.179  1.00  0.00     0.034 C 
HETATM    4  C5  UNL     1       1.537  -2.031   0.017  1.00  0.00     0.182 C 
HETATM    5  C6  UNL     1       2.359  -2.928   0.872  1.00  0.00     0.073 C 
HETATM    6  N2  UNL     1       2.997  -3.641   1.538  1.00  0.00    -0.196 NA
HETATM    7  C7  UNL     1       0.138  -2.406   0.241  1.00  0.00     0.091 C 
HETATM    8  N3  UNL     1      -0.073  -3.512   0.859  1.00  0.00    -0.388 N 
ATOM      9  H31 UNL     1      -1.047  -3.773   1.015  1.00  0.00     0.157 HD
ATOM     10  H32 UNL     1       0.786  -3.994   1.125  1.00  0.00     0.157 HD
HETATM   11  N4  UNL     1      -1.060  -1.734  -0.130  1.00  0.00    -0.361 N 
ATOM     12  H4  UNL     1      -1.923  -2.270  -0.215  1.00  0.00     0.162 HD
HETATM   13  C8  UNL     1      -1.088  -0.274  -0.397  1.00  0.00     0.110 C 
HETATM   14  C9  UNL     1      -1.461   0.303   0.929  1.00  0.00     0.047 C 
HETATM   15  C10 UNL     1      -2.203   1.591   0.727  1.00  0.00     0.012 C 
HETATM   16  C11 UNL     1      -2.831   1.382  -0.640  1.00  0.00     0.035 C 
HETATM   17  C12 UNL     1      -2.425  -0.012  -0.995  1.00  0.00     0.156 C 
HETATM   18  O1  UNL     1      -3.218  -0.810  -0.112  1.00  0.00    -0.382 OA
HETATM   19  C13 UNL     1      -2.677  -0.649   1.164  1.00  0.00     0.176 C 
HETATM   20  C14 UNL     1       0.136   0.129  -1.084  1.00  0.00     0.106 C 
ENDROOT
BRANCH   1  21
HETATM   21  C2  UNL     1       1.593   1.584   0.334  1.00  0.00     0.060 C 
HETATM   22  C1  UNL     1       1.289   2.941  -0.115  1.00  0.00     0.055 C 
ENDBRANCH   1  21
BRANCH  20  23
HETATM   23  C15 UNL     1       0.046   0.750  -2.424  1.00  0.00     0.267 C 
HETATM   24  O2  UNL     1      -0.890   0.786  -3.155  1.00  0.00    -0.273 OA
HETATM   25 CL1  UNL     1       1.457   1.541  -3.072  1.00  0.00    -0.037 Cl
ENDBRANCH  20  23
TORSDOF 2
