REMARK  3 active torsions:
REMARK  status: ('A' for Active; 'I' for Inactive)
REMARK    1  A    between atoms: N1_1  and  C1_4 
REMARK    2  A    between atoms: C3_9  and  C4_10 
REMARK    3  A    between atoms: N4_13  and  O3_14 
ROOT
HETATM    1  C1  UNL     1      -2.066  -0.254   0.220  1.00  0.00     0.695 A 
HETATM    2  N2  UNL     1      -1.346   0.866   0.411  1.00  0.00    -0.153 N 
ATOM      3  H2  UNL     1      -1.833   1.715   0.698  1.00  0.00     0.187 HD
HETATM    4  C2  UNL     1      -0.005   0.916   0.240  1.00  0.00     0.295 A 
HETATM    5  O1  UNL     1       0.635   1.973   0.425  1.00  0.00    -0.265 OA
HETATM    6  C3  UNL     1       0.651  -0.232  -0.146  1.00  0.00     0.214 A 
HETATM    7  N4  UNL     1      -0.073  -1.350  -0.335  1.00  0.00    -0.138 N 
HETATM    8  N5  UNL     1      -1.393  -1.354  -0.155  1.00  0.00    -0.105 N 
ATOM      9  H5  UNL     1      -1.909  -2.221  -0.307  1.00  0.00     0.208 HD
ENDROOT
BRANCH   1  10
HETATM   10  N1  UNL     1      -3.363  -0.272   0.393  1.00  0.00    -0.233 N 
ATOM     11  H12 UNL     1      -3.874   0.563   0.678  1.00  0.00     0.174 HD
ATOM     12  H11 UNL     1      -3.909  -1.121   0.248  1.00  0.00     0.174 HD
ENDBRANCH   1  10
BRANCH   7  13
HETATM   13  O3  UNL     1       0.604  -2.477  -0.718  1.00  0.00    -0.267 OA
ATOM     14  H3  UNL     1       0.093  -3.266  -0.851  1.00  0.00     0.247 HD
ENDBRANCH   7  13
BRANCH   6  15
HETATM   15  C4  UNL     1       2.090  -0.242  -0.345  1.00  0.00     0.291 C 
HETATM   16  N3  UNL     1       2.879   0.924  -0.153  1.00  0.00    -0.056 NA
HETATM   17  O2  UNL     1       2.697  -1.285  -0.697  1.00  0.00    -0.269 OA
ENDBRANCH   6  15
TORSDOF 3
