REMARK  6 active torsions:
REMARK  status: ('A' for Active; 'I' for Inactive)
REMARK    1  A    between atoms: C2_7  and  S1_8 
REMARK    2  A    between atoms: S1_8  and  C3_9 
REMARK    3  A    between atoms: C6_12  and  N3_13 
REMARK    4  A    between atoms: C8_17  and  N4_18 
REMARK    5  A    between atoms: N7_26  and  N8_28 
REMARK    6  A    between atoms: C10_30  and  C11_31 
ROOT
HETATM    1  N1  UNL     1       1.755  -0.498  -3.359  1.00  0.00    -0.234 N 
ATOM      2  H11 UNL     1       2.759  -0.674  -3.325  1.00  0.00     0.174 HD
ATOM      3  H12 UNL     1       1.170  -0.410  -4.190  1.00  0.00     0.174 HD
HETATM    4  C1  UNL     1       1.121  -0.367  -2.245  1.00  0.00     0.692 C 
HETATM    5  N2  UNL     1      -0.279  -0.122  -2.293  1.00  0.00    -0.169 N 
ATOM      6  H2  UNL     1      -0.639   0.063  -3.229  1.00  0.00     0.186 HD
HETATM    7  C2  UNL     1      -1.175  -0.091  -1.367  1.00  0.00     0.179 C 
HETATM    8  N5  UNL     1      -0.978  -0.308   0.023  1.00  0.00    -0.265 N 
ATOM      9  H5  UNL     1      -1.836  -0.368   0.572  1.00  0.00     0.189 HD
HETATM   10  N6  UNL     1       0.203  -0.453   0.762  1.00  0.00    -0.128 N 
ATOM     11  H6  UNL     1       0.091  -0.625   1.761  1.00  0.00     0.205 HD
HETATM   12  C9  UNL     1       1.554  -0.388   0.278  1.00  0.00     0.726 C 
HETATM   13  N7  UNL     1       2.423  -0.227   1.186  1.00  0.00    -0.131 N 
ATOM     14  H7  UNL     1       2.068  -0.164   2.140  1.00  0.00     0.205 HD
HETATM   15  N12 UNL     1       1.935  -0.489  -1.090  1.00  0.00    -0.020 N 
ATOM     16  H12 UNL     1       2.923  -0.673  -1.262  1.00  0.00     0.203 HD
ENDROOT
BRANCH   7  17
HETATM   17  S1  UNL     1      -2.839   0.257  -1.862  1.00  0.00    -0.050 SA
BRANCH  17  18
HETATM   18  C3  UNL     1      -3.956   0.260  -0.471  1.00  0.00     0.041 A 
HETATM   19  C4  UNL     1      -4.188   1.427   0.224  1.00  0.00     0.024 A 
HETATM   20  C5  UNL     1      -5.042   1.469   1.302  1.00  0.00     0.037 A 
HETATM   21  C6  UNL     1      -5.708   0.314   1.730  1.00  0.00     0.105 A 
HETATM   22  C7  UNL     1      -5.458  -0.829   1.020  1.00  0.00     0.073 A 
HETATM   23  C8  UNL     1      -4.607  -0.914  -0.068  1.00  0.00     0.122 A 
BRANCH  21  24
HETATM   24  N3  UNL     1      -6.580   0.376   2.836  1.00  0.00    -0.116 N 
HETATM   25  O1  UNL     1      -6.755   1.445   3.425  1.00  0.00    -0.532 OA
HETATM   26  O2  UNL     1      -7.229  -0.744   3.254  1.00  0.00    -0.532 OA
ENDBRANCH  21  24
BRANCH  23  27
HETATM   27  N4  UNL     1      -4.382  -2.121  -0.768  1.00  0.00    -0.114 N 
HETATM   28  O3  UNL     1      -4.507  -3.197  -0.186  1.00  0.00    -0.532 OA
HETATM   29  O4  UNL     1      -4.029  -2.080  -2.082  1.00  0.00    -0.532 OA
ENDBRANCH  23  27
ENDBRANCH  17  18
ENDBRANCH   7  17
BRANCH  13  30
HETATM   30  N8  UNL     1       3.786  -0.127   1.040  1.00  0.00    -0.295 N 
HETATM   31  C10 UNL     1       4.406   0.830   0.431  1.00  0.00     0.144 C 
ATOM     32  H8  UNL     1       4.356  -0.869   1.446  1.00  0.00     0.186 HD
BRANCH  31  33
HETATM   33  C11 UNL     1       5.857   0.762   0.379  1.00  0.00     0.132 A 
HETATM   34  N9  UNL     1       6.642   1.674  -0.215  1.00  0.00    -0.278 N 
HETATM   35  N10 UNL     1       7.925   1.318  -0.084  1.00  0.00    -0.019 NA
ATOM     36  H9  UNL     1       6.311   2.512  -0.694  1.00  0.00     0.184 HD
HETATM   37  N11 UNL     1       7.996   0.181   0.591  1.00  0.00    -0.248 N 
HETATM   38  C12 UNL     1       6.722  -0.182   0.888  1.00  0.00     0.287 A 
ATOM     39  H11 UNL     1       8.846  -0.325   0.840  1.00  0.00     0.187 HD
HETATM   40  O5  UNL     1       6.351  -1.219   1.531  1.00  0.00    -0.264 OA
ENDBRANCH  31  33
ENDBRANCH  13  30
TORSDOF 6
