REMARK  5 active torsions:
REMARK  status: ('A' for Active; 'I' for Inactive)
REMARK       I    between atoms: C2_2  and  N1_4 
REMARK    1  A    between atoms: N1_4  and  C3_6 
REMARK    2  A    between atoms: C5_8  and  C6_9 
REMARK    3  A    between atoms: C8_13  and  N3_14 
REMARK    4  A    between atoms: N3_14  and  C9_16 
REMARK    5  A    between atoms: C9_16  and  C11_18 
ROOT
HETATM    1  C6  UNL     1       1.267  -0.814   0.078  1.00  0.00     0.027 A 
HETATM    2  C7  UNL     1       0.647   0.302   0.650  1.00  0.00     0.105 A 
HETATM    3  N2  UNL     1      -0.691   0.378   0.669  1.00  0.00    -0.351 N 
ATOM      4  H2  UNL     1      -1.117   1.203   1.092  1.00  0.00     0.166 HD
HETATM    5  C8  UNL     1      -1.502  -0.559   0.169  1.00  0.00     0.112 A 
HETATM    6  C14 UNL     1      -0.895  -1.663  -0.397  1.00  0.00     0.022 A 
HETATM    7  C15 UNL     1      -1.648  -2.700  -0.948  1.00  0.00     0.061 A 
HETATM    8  C16 UNL     1      -1.105  -3.804  -1.515  1.00  0.00     0.155 A 
HETATM    9  F1  UNL     1      -1.863  -4.791  -2.041  1.00  0.00    -0.203 F 
HETATM   10  C17 UNL     1       0.258  -3.935  -1.563  1.00  0.00     0.155 A 
HETATM   11  F2  UNL     1       0.847  -5.041  -2.130  1.00  0.00    -0.203 F 
HETATM   12  C18 UNL     1       1.042  -2.930  -1.028  1.00  0.00     0.059 A 
HETATM   13  C19 UNL     1       0.485  -1.812  -0.454  1.00  0.00    -0.005 A 
ENDROOT
BRANCH   1  14
HETATM   14  C5  UNL     1       2.734  -0.852   0.080  1.00  0.00     0.115 A 
HETATM   15  C4  UNL     1       3.557   0.148   0.613  1.00  0.00     0.090 A 
HETATM   16  C3  UNL     1       4.862  -0.221   0.440  1.00  0.00     0.131 A 
HETATM   17  N4  UNL     1       4.807  -1.414  -0.182  1.00  0.00    -0.244 N 
HETATM   18  O2  UNL     1       3.580  -1.729  -0.365  1.00  0.00    -0.235 OA
ATOM     19  H4  UNL     1       5.612  -1.975  -0.462  1.00  0.00     0.196 HD
BRANCH  16  20
HETATM   20  N1  UNL     1       5.949   0.394   0.777  1.00  0.00    -0.312 N 
HETATM   21  C2  UNL     1       5.837   1.643   1.426  1.00  0.00     0.219 C 
HETATM   22  C1  UNL     1       6.230   2.881   0.722  1.00  0.00     0.117 C 
HETATM   23  O1  UNL     1       5.403   1.691   2.599  1.00  0.00    -0.274 OA
ATOM     24  H1  UNL     1       6.863  -0.013   0.579  1.00  0.00     0.170 HD
ENDBRANCH  16  20
ENDBRANCH   1  14
BRANCH   5  25
HETATM   25  N3  UNL     1      -2.734  -0.503   0.180  1.00  0.00    -0.371 N 
ATOM     26  H3  UNL     1      -3.126  -1.336  -0.260  1.00  0.00     0.161 HD
BRANCH  25  27
HETATM   27  C9  UNL     1      -3.754   0.336   0.602  1.00  0.00     0.082 C 
HETATM   28  C10 UNL     1      -3.586   1.093   1.883  1.00  0.00     0.032 C 
BRANCH  27  29
HETATM   29  C11 UNL     1      -4.264   1.327  -0.444  1.00  0.00    -0.000 C 
HETATM   30  C12 UNL     1      -3.208   2.259  -0.942  1.00  0.00     0.011 C 
HETATM   31  C13 UNL     1      -5.024   0.642  -1.536  1.00  0.00     0.011 C 
ENDBRANCH  27  29
ENDBRANCH  25  27
ENDBRANCH   5  25
TORSDOF 5
