REMARK  4 active torsions:
REMARK  status: ('A' for Active; 'I' for Inactive)
REMARK    1  A    between atoms: N1_1  and  C1_5 
REMARK    2  A    between atoms: C6_11  and  C7_12 
REMARK    3  A    between atoms: C7_12  and  C8_13 
REMARK    4  A    between atoms: C8_13  and  C9_14 
ROOT
HETATM    1  C1  UNL     1      -0.753   0.623  -0.246  1.00  0.00     0.194 C 
HETATM    2  C2  UNL     1      -2.123   0.917   0.419  1.00  0.00     0.034 C 
HETATM    3  C3  UNL     1      -3.060  -0.189  -0.010  1.00  0.00     0.009 C 
HETATM    4  C4  UNL     1      -2.659  -1.491   0.681  1.00  0.00     0.079 C 
HETATM    5  C5  UNL     1      -1.242  -1.393   1.121  1.00  0.00     0.133 C 
HETATM    6  O1  UNL     1      -0.892  -1.936   2.133  1.00  0.00    -0.298 OA
HETATM    7  C6  UNL     1      -0.228  -0.627   0.331  1.00  0.00     0.085 C 
ENDROOT
BRANCH   7   8
HETATM    8  C7  UNL     1       1.084  -0.586   1.036  1.00  0.00     0.015 C 
BRANCH   8   9
HETATM    9  C8  UNL     1       2.309  -0.243   0.321  1.00  0.00     0.017 C 
BRANCH   9  10
HETATM   10  C9  UNL     1       2.496   1.048  -0.368  1.00  0.00     0.056 A 
HETATM   11  C10 UNL     1       3.904   1.155  -0.998  1.00  0.00     0.089 A 
HETATM   12  S1  UNL     1       3.436   2.395   0.243  1.00  0.00    -0.162 SA
ENDBRANCH   9  10
ENDBRANCH   8   9
ENDBRANCH   7   8
BRANCH   1  13
HETATM   13  N1  UNL     1      -1.081   0.488  -1.641  1.00  0.00    -0.074 N 
ATOM     14  H13 UNL     1      -1.805  -0.202  -1.841  1.00  0.00     0.274 HD
ATOM     15  H12 UNL     1      -1.581   1.284  -2.037  1.00  0.00     0.274 HD
ATOM     16  H11 UNL     1      -0.180   0.295  -2.078  1.00  0.00     0.274 HD
ENDBRANCH   1  13
TORSDOF 4
