REMARK  4 active torsions:
REMARK  status: ('A' for Active; 'I' for Inactive)
REMARK    1  A    between atoms: C2_2  and  C3_3 
REMARK    2  A    between atoms: C3_3  and  C4_4 
REMARK    3  A    between atoms: C4_4  and  C5_5 
REMARK    4  A    between atoms: N1_6  and  O1_7 
ROOT
HETATM    1  C5  UNL     1       0.015  -0.465  -0.508  1.00  0.00     0.118 C 
HETATM    2  N1  UNL     1      -0.029  -1.927  -0.367  1.00  0.00    -0.132 NA
HETATM    3  S1  UNL     1       0.972  -1.892   1.086  1.00  0.00    -0.043 SA
HETATM    4  C6  UNL     1       1.357  -0.421   0.121  1.00  0.00     0.044 C 
HETATM    5  C7  UNL     1       1.729   0.796   0.896  1.00  0.00     0.023 C 
HETATM    6  C8  UNL     1       3.253   0.876   0.755  1.00  0.00     0.002 C 
HETATM    7  C9  UNL     1       3.466   0.465  -0.688  1.00  0.00     0.002 C 
HETATM    8  C10 UNL     1       2.456  -0.627  -0.879  1.00  0.00     0.023 C 
ENDROOT
BRANCH   1   9
HETATM    9  C4  UNL     1      -1.131   0.126   0.269  1.00  0.00     0.024 C 
BRANCH   9  10
HETATM   10  C3  UNL     1      -2.409  -0.459  -0.342  1.00  0.00     0.001 C 
BRANCH  10  11
HETATM   11  C2  UNL     1      -3.635   0.071   0.366  1.00  0.00    -0.004 C 
HETATM   12  C1  UNL     1      -3.725   1.569   0.268  1.00  0.00     0.005 C 
ENDBRANCH  10  11
ENDBRANCH   9  10
ENDBRANCH   1   9
BRANCH   2  13
HETATM   13  O1  UNL     1       0.526  -2.559  -1.423  1.00  0.00    -0.302 OA
ATOM     14  H1  UNL     1       0.498  -3.504  -1.332  1.00  0.00     0.238 HD
ENDBRANCH   2  13
TORSDOF 4
