REMARK  6 active torsions:
REMARK  status: ('A' for Active; 'I' for Inactive)
REMARK    1  A    between atoms: N2_7  and  C4_8 
REMARK    2  A    between atoms: C6_10  and  O2_11 
REMARK    3  A    between atoms: C7_13  and  C8_14 
REMARK    4  A    between atoms: C8_14  and  S1_15 
REMARK    5  A    between atoms: S1_15  and  C9_16 
REMARK    6  A    between atoms: C9_16  and  N4_20 
ROOT
HETATM    1  C1  UNL     1      -1.651  -3.075   0.016  1.00  0.00     0.044 C 
HETATM    2  C2  UNL     1      -2.320  -1.952   0.047  1.00  0.00     0.038 A 
HETATM    3  N1  UNL     1      -3.740  -2.020   0.297  1.00  0.00    -0.309 N 
ATOM      4  H1  UNL     1      -4.200  -2.920   0.435  1.00  0.00     0.170 HD
HETATM    5  C3  UNL     1      -4.483  -0.815   0.347  1.00  0.00     0.329 A 
HETATM    6  O1  UNL     1      -5.739  -0.829   0.565  1.00  0.00    -0.246 OA
HETATM    7  N2  UNL     1      -3.815   0.430   0.152  1.00  0.00    -0.280 N 
HETATM    8  C6  UNL     1      -2.417   0.451  -0.092  1.00  0.00     0.155 A 
HETATM    9  C7  UNL     1      -1.668  -0.665  -0.149  1.00  0.00     0.029 A 
ENDROOT
BRANCH   9  10
HETATM   10  C8  UNL     1      -0.223  -0.545  -0.403  1.00  0.00     0.127 C 
BRANCH  10  11
HETATM   11  S1  UNL     1       0.315  -1.367  -1.927  1.00  0.00    -0.090 SA
BRANCH  11  12
HETATM   12  C9  UNL     1       2.075  -1.126  -2.080  1.00  0.00     0.136 C 
HETATM   13  N3  UNL     1       2.682  -1.623  -3.088  1.00  0.00    -0.380 N 
ATOM     14  H32 UNL     1       2.131  -2.142  -3.771  1.00  0.00     0.158 HD
ATOM     15  H31 UNL     1       3.689  -1.485  -3.176  1.00  0.00     0.158 HD
BRANCH  12  16
HETATM   16  N4  UNL     1       2.838  -0.407  -1.134  1.00  0.00    -0.362 N 
HETATM   17  C10 UNL     1       3.098   0.996  -1.338  1.00  0.00     0.125 C 
HETATM   18  C11 UNL     1       4.524   1.242  -0.886  1.00  0.00     0.020 C 
HETATM   19  C12 UNL     1       4.611   1.091   0.597  1.00  0.00     0.003 C 
HETATM   20  C13 UNL     1       3.703   0.021   1.107  1.00  0.00     0.020 C 
HETATM   21  C14 UNL     1       3.374  -1.037   0.046  1.00  0.00     0.125 C 
ENDBRANCH  12  16
ENDBRANCH  11  12
ENDBRANCH  10  11
ENDBRANCH   9  10
BRANCH   8  22
HETATM   22  O2  UNL     1      -1.808   1.687  -0.277  1.00  0.00    -0.345 OA
ATOM     23  H2  UNL     1      -0.872   1.701  -0.440  1.00  0.00     0.219 HD
ENDBRANCH   8  22
BRANCH   7  24
HETATM   24  C4  UNL     1      -4.548   1.670   0.199  1.00  0.00     0.131 C 
HETATM   25  C5  UNL     1      -4.602   2.252   1.590  1.00  0.00     0.027 C 
ENDBRANCH   7  24
TORSDOF 6
