REMARK  1 active torsions:
REMARK  status: ('A' for Active; 'I' for Inactive)
REMARK    1  A    between atoms: C2_2  and  N1_3 
REMARK       I    between atoms: N1_3  and  C3_5 
REMARK       I    between atoms: C3_5  and  N2_7 
ROOT
HETATM    1  N1  UNL     1       3.415  -0.462   0.700  1.00  0.00    -0.342 N 
ATOM      2  H1  UNL     1       3.039  -1.028   1.461  1.00  0.00     0.164 HD
HETATM    3  C3  UNL     1       2.523   0.097  -0.228  1.00  0.00     0.334 C 
HETATM    4  O1  UNL     1       3.033   0.807  -1.161  1.00  0.00    -0.246 OA
HETATM    5  N2  UNL     1       1.134  -0.115  -0.129  1.00  0.00    -0.214 N 
HETATM    6  S1  UNL     1      -0.001   0.667  -1.268  1.00  0.00    -0.020 SA
HETATM    7  C4  UNL     1      -1.590   0.365  -0.530  1.00  0.00     0.084 C 
HETATM    8  C5  UNL     1      -2.534   1.526  -0.583  1.00  0.00     0.034 C 
HETATM    9  C6  UNL     1      -3.777   1.135   0.207  1.00  0.00     0.002 C 
HETATM   10  C7  UNL     1      -4.357  -0.089  -0.438  1.00  0.00     0.000 C 
HETATM   11  C8  UNL     1      -3.397  -1.259  -0.340  1.00  0.00     0.002 C 
HETATM   12  C9  UNL     1      -2.167  -0.890  -1.135  1.00  0.00     0.034 C 
HETATM   13  S2  UNL     1      -1.129  -0.042   1.177  1.00  0.00    -0.070 SA
HETATM   14  C10 UNL     1       0.427  -0.905   0.774  1.00  0.00     0.156 C 
HETATM   15  N3  UNL     1       0.705  -2.035   1.253  1.00  0.00    -0.379 N 
ATOM     16  H31 UNL     1       0.187  -2.614   1.914  1.00  0.00     0.158 HD
ATOM     17  H32 UNL     1       1.575  -2.518   1.028  1.00  0.00     0.158 HD
ENDROOT
BRANCH   1  18
HETATM   18  C2  UNL     1       4.856  -0.266   0.620  1.00  0.00     0.120 C 
HETATM   19  C1  UNL     1       5.202   1.186   0.709  1.00  0.00     0.026 C 
ENDBRANCH   1  18
TORSDOF 1
