REMARK  3 active torsions:
REMARK  status: ('A' for Active; 'I' for Inactive)
REMARK    1  A    between atoms: C6_7  and  N1_8 
REMARK    2  A    between atoms: N3_15  and  N4_16 
REMARK    3  A    between atoms: N4_16  and  C8_18 
ROOT
HETATM    1  C1  UNL     1       3.984  -2.555  -0.293  1.00  0.00     0.056 C 
HETATM    2  C2  UNL     1       3.259  -1.254  -0.152  1.00  0.00    -0.018 A 
HETATM    3  C3  UNL     1       1.910  -1.040  -0.149  1.00  0.00     0.047 A 
HETATM    4  C4  UNL     1       1.469   0.241  -0.007  1.00  0.00     0.080 A 
HETATM    5  C5  UNL     1       2.441   1.187   0.121  1.00  0.00     0.077 A 
HETATM    6  S1  UNL     1       3.897   0.302   0.042  1.00  0.00    -0.089 SA
HETATM    7  C6  UNL     1       2.167   2.551   0.285  1.00  0.00     0.120 A 
HETATM    8  N2  UNL     1       0.905   2.965   0.320  1.00  0.00    -0.317 N 
ATOM      9  H2  UNL     1       0.674   3.951   0.439  1.00  0.00     0.170 HD
HETATM   10  C7  UNL     1      -0.077   2.013   0.190  1.00  0.00     0.199 A 
HETATM   11  S2  UNL     1      -1.589   2.705   0.218  1.00  0.00    -0.039 SA
HETATM   12  N3  UNL     1       0.142   0.718   0.034  1.00  0.00    -0.232 N 
ENDROOT
BRANCH  12  13
HETATM   13  N4  UNL     1      -0.864  -0.196  -0.131  1.00  0.00    -0.318 N 
ATOM     14  H4  UNL     1      -0.464  -1.092  -0.409  1.00  0.00     0.181 HD
BRANCH  13  15
HETATM   15  C8  UNL     1      -2.262  -0.315  -0.046  1.00  0.00     0.035 C 
HETATM   16  C9  UNL     1      -2.865  -0.040   1.306  1.00  0.00     0.039 C 
HETATM   17  C10 UNL     1      -2.536  -1.895  -0.179  1.00  0.00     0.039 C 
HETATM   18  C11 UNL     1      -3.107   0.246  -1.127  1.00  0.00     0.039 C 
ENDBRANCH  13  15
ENDBRANCH  12  13
BRANCH   7  19
HETATM   19  N1  UNL     1       3.191   3.317   0.392  1.00  0.00    -0.384 N 
ATOM     20  H12 UNL     1       4.160   2.999   0.365  1.00  0.00     0.157 HD
ATOM     21  H11 UNL     1       2.991   4.310   0.511  1.00  0.00     0.157 HD
ENDBRANCH   7  19
TORSDOF 3
