REMARK  2 active torsions:
REMARK  status: ('A' for Active; 'I' for Inactive)
REMARK    1  A    between atoms: N1_1  and  C1_4 
REMARK    2  A    between atoms: N4_13  and  C5_14 
ROOT
HETATM    1  C1  UNL     1      -3.234  -0.933  -1.114  1.00  0.00     0.678 A 
HETATM    2  N2  UNL     1      -4.139  -0.415  -0.265  1.00  0.00    -0.179 N 
ATOM      3  H2  UNL     1      -5.134  -0.597  -0.397  1.00  0.00     0.185 HD
HETATM    4  C2  UNL     1      -3.715   0.350   0.765  1.00  0.00     0.147 A 
HETATM    5  S1  UNL     1      -4.783   0.984   1.799  1.00  0.00    -0.057 SA
HETATM    6  C3  UNL     1      -2.380   0.601   0.949  1.00  0.00     0.117 A 
HETATM    7  N3  UNL     1      -1.740   1.320   1.886  1.00  0.00    -0.347 N 
ATOM      8  H3  UNL     1      -2.164   1.829   2.662  1.00  0.00     0.167 HD
HETATM    9  C4  UNL     1      -0.428   1.235   1.598  1.00  0.00     0.185 A 
HETATM   10  N4  UNL     1      -0.245   0.473   0.495  1.00  0.00    -0.321 N 
HETATM   11  C10 UNL     1      -1.449   0.065   0.071  1.00  0.00     0.154 A 
HETATM   12  N5  UNL     1      -1.927  -0.684  -0.929  1.00  0.00    -0.174 N 
ATOM     13  H5  UNL     1      -1.262  -1.089  -1.588  1.00  0.00     0.186 HD
ENDROOT
BRANCH  10  14
HETATM   14  C5  UNL     1       1.007   0.129  -0.152  1.00  0.00     0.101 C 
HETATM   15  C6  UNL     1       2.064   1.041   0.377  1.00  0.00     0.027 C 
HETATM   16  C7  UNL     1       3.356   0.968  -0.381  1.00  0.00     0.012 C 
HETATM   17  C8  UNL     1       4.015  -0.374  -0.331  1.00  0.00     0.074 C 
HETATM   18  S2  UNL     1       2.861  -1.731  -0.678  1.00  0.00    -0.167 SA
HETATM   19  C9  UNL     1       1.311  -1.328   0.218  1.00  0.00     0.099 C 
ENDBRANCH  10  14
BRANCH   1  20
HETATM   20  N1  UNL     1      -3.575  -1.673  -2.118  1.00  0.00    -0.234 N 
ATOM     21  H12 UNL     1      -4.567  -1.862  -2.258  1.00  0.00     0.174 HD
ATOM     22  H11 UNL     1      -2.889  -2.066  -2.762  1.00  0.00     0.174 HD
ENDBRANCH   1  20
TORSDOF 2
