REMARK  13 active torsions:
REMARK  status: ('A' for Active; 'I' for Inactive)
REMARK       I    between atoms: C2_2  and  N1_4 
REMARK    1  A    between atoms: N1_4  and  C3_6 
REMARK    2  A    between atoms: C3_6  and  C4_7 
REMARK    3  A    between atoms: C4_7  and  C5_8 
REMARK    4  A    between atoms: C5_8  and  C6_9 
REMARK    5  A    between atoms: C6_9  and  C7_11 
REMARK    6  A    between atoms: C7_11  and  C8_12 
REMARK    7  A    between atoms: C8_12  and  C9_13 
REMARK    8  A    between atoms: C9_13  and  C10_14 
REMARK    9  A    between atoms: C10_14  and  N2_15 
REMARK       I    between atoms: N2_15  and  C11_17 
REMARK   10  A    between atoms: C11_17  and  C12_19 
REMARK   11  A    between atoms: N3_24  and  C17_25 
REMARK   12  A    between atoms: C26_37  and  C27_38 
REMARK   13  A    between atoms: C27_38  and  C28_39 
ROOT
HETATM    1  C12 UNL     1      -0.337  -0.712  -2.170  1.00  0.00     0.106 C 
HETATM    2  C13 UNL     1      -0.637   0.112  -3.399  1.00  0.00     0.016 C 
HETATM    3  C14 UNL     1      -1.565  -0.696  -4.281  1.00  0.00     0.003 C 
HETATM    4  C15 UNL     1      -2.909  -0.690  -3.604  1.00  0.00     0.030 C 
HETATM    5  C16 UNL     1      -2.917  -1.340  -2.254  1.00  0.00     0.273 C 
HETATM    6  N3  UNL     1      -2.519  -0.475  -1.171  1.00  0.00     0.101 N 
HETATM    7  C30 UNL     1      -1.122  -0.335  -0.962  1.00  0.00     0.287 C 
ENDROOT
BRANCH   6   8
HETATM    8  C17 UNL     1      -3.292  -0.759   0.035  1.00  0.00     0.292 C 
HETATM    9  C18 UNL     1      -2.990  -2.161   0.464  1.00  0.00     0.044 C 
HETATM   10  C19 UNL     1      -4.161  -3.109   0.414  1.00  0.00     0.011 C 
HETATM   11  C20 UNL     1      -5.421  -2.560   1.027  1.00  0.00     0.091 C 
HETATM   12  C21 UNL     1      -6.597  -2.695   0.172  1.00  0.00     0.186 C 
HETATM   13  O4  UNL     1      -6.485  -2.968  -0.999  1.00  0.00    -0.286 OA
HETATM   14  S1  UNL     1      -8.222  -2.458   0.855  1.00  0.00    -0.092 SA
HETATM   15  C22 UNL     1      -8.595  -0.700   1.166  1.00  0.00     0.092 C 
HETATM   16  C23 UNL     1      -8.334  -0.357   2.594  1.00  0.00     0.084 C 
HETATM   17  S2  UNL     1      -7.466   1.210   2.832  1.00  0.00    -0.168 SA
HETATM   18  C24 UNL     1      -6.182   1.464   1.575  1.00  0.00     0.075 C 
HETATM   19  C25 UNL     1      -4.835   1.515   2.243  1.00  0.00     0.023 C 
HETATM   20  C26 UNL     1      -3.660   1.494   1.329  1.00  0.00     0.067 C 
HETATM   21  C29 UNL     1      -3.037   0.163   1.142  1.00  0.00     0.164 C 
HETATM   22  O6  UNL     1      -2.229  -0.191   2.007  1.00  0.00    -0.295 OA
BRANCH  20  23
HETATM   23  C27 UNL     1      -3.895   2.210   0.020  1.00  0.00     0.111 C 
BRANCH  23  24
HETATM   24  C28 UNL     1      -4.212   3.638   0.162  1.00  0.00     0.231 C 
HETATM   25  N4  UNL     1      -4.151   4.317   1.404  1.00  0.00    -0.062 NA
HETATM   26  O5  UNL     1      -4.550   4.298  -0.851  1.00  0.00    -0.277 OA
ENDBRANCH  23  24
ENDBRANCH  20  23
ENDBRANCH   6   8
BRANCH   1  27
HETATM   27  C11 UNL     1       1.153  -0.544  -1.921  1.00  0.00     0.227 C 
HETATM   28  N2  UNL     1       1.713   0.727  -1.733  1.00  0.00    -0.340 N 
ATOM     29  H2  UNL     1       1.045   1.496  -1.788  1.00  0.00     0.167 HD
HETATM   30  O3  UNL     1       1.855  -1.576  -1.894  1.00  0.00    -0.273 OA
BRANCH  28  31
HETATM   31  C10 UNL     1       3.041   1.122  -1.481  1.00  0.00     0.064 C 
BRANCH  31  32
HETATM   32  C9  UNL     1       3.742   0.799  -0.234  1.00  0.00     0.045 C 
BRANCH  32  33
HETATM   33  C8  UNL     1       3.919  -0.614   0.183  1.00  0.00     0.012 C 
BRANCH  33  34
HETATM   34  C7  UNL     1       4.757  -0.671   1.473  1.00  0.00     0.078 C 
BRANCH  34  35
HETATM   35  C6  UNL     1       6.113  -0.068   1.217  1.00  0.00     0.127 C 
HETATM   36  O2  UNL     1       6.297   1.078   1.556  1.00  0.00    -0.298 OA
BRANCH  35  37
HETATM   37  C5  UNL     1       7.101  -0.953   0.563  1.00  0.00     0.080 C 
BRANCH  37  38
HETATM   38  C4  UNL     1       8.456  -0.356   0.355  1.00  0.00     0.027 C 
BRANCH  38  39
HETATM   39  C3  UNL     1       9.139   0.009   1.626  1.00  0.00     0.123 C 
BRANCH  39  40
HETATM   40  N1  UNL     1      10.466   0.576   1.362  1.00  0.00    -0.361 N 
HETATM   41  C2  UNL     1      11.308   0.988   2.421  1.00  0.00     0.213 C 
HETATM   42  C1  UNL     1      12.651   1.555   2.069  1.00  0.00     0.117 C 
HETATM   43  O1  UNL     1      10.908   0.867   3.600  1.00  0.00    -0.274 OA
ATOM     44  H1  UNL     1      10.787   0.675   0.399  1.00  0.00     0.162 HD
ENDBRANCH  39  40
ENDBRANCH  38  39
ENDBRANCH  37  38
ENDBRANCH  35  37
ENDBRANCH  34  35
ENDBRANCH  33  34
ENDBRANCH  32  33
ENDBRANCH  31  32
ENDBRANCH  28  31
ENDBRANCH   1  27
TORSDOF 13
