REMARK  15 active torsions:
REMARK  status: ('A' for Active; 'I' for Inactive)
REMARK    1  A    between atoms: C2_2  and  C3_3 
REMARK    2  A    between atoms: C3_3  and  C4_4 
REMARK    3  A    between atoms: C4_4  and  C5_5 
REMARK       I    between atoms: C5_5  and  N1_7 
REMARK    4  A    between atoms: N1_7  and  C6_9 
REMARK    5  A    between atoms: C9_12  and  C10_13 
REMARK    6  A    between atoms: C10_13  and  N2_14 
REMARK    7  A    between atoms: N2_14  and  C11_16 
REMARK    8  A    between atoms: C11_16  and  C12_17 
REMARK    9  A    between atoms: C12_17  and  C14_21 
REMARK   10  A    between atoms: C14_21  and  C15_23 
REMARK   11  A    between atoms: C15_23  and  N4_25 
REMARK       I    between atoms: N4_25  and  C17_27 
REMARK   12  A    between atoms: C17_27  and  C18_29 
REMARK   13  A    between atoms: C22_34  and  C23_35 
REMARK   14  A    between atoms: C23_35  and  C24_36 
REMARK   15  A    between atoms: N5_44  and  C31_45 
ROOT
HETATM    1  C12 UNL     1       3.340   1.269   0.477  1.00  0.00     0.267 C 
HETATM    2  F1  UNL     1       3.262   2.672   0.802  1.00  0.00    -0.216 F 
HETATM    3  C13 UNL     1       3.583   0.999  -0.852  1.00  0.00     0.113 C 
HETATM    4  N3  UNL     1       3.746   0.771  -1.975  1.00  0.00    -0.193 NA
ENDROOT
BRANCH   1   5
HETATM    5  C11 UNL     1       4.407   0.844   1.516  1.00  0.00     0.181 C 
BRANCH   5   6
HETATM    6  N2  UNL     1       5.554   1.610   1.382  1.00  0.00    -0.416 N 
ATOM      7  H2  UNL     1       5.696   2.360   2.059  1.00  0.00     0.153 HD
BRANCH   6   8
HETATM    8  C10 UNL     1       6.527   1.444   0.404  1.00  0.00     0.120 C 
BRANCH   8   9
HETATM    9  C9  UNL     1       7.365   0.180   0.736  1.00  0.00     0.026 C 
HETATM   10  C6  UNL     1       8.476  -0.086  -0.288  1.00  0.00     0.090 C 
HETATM   11  C7  UNL     1       9.460  -0.190   0.853  1.00  0.00     0.026 C 
HETATM   12  C8  UNL     1       8.442   0.494   1.753  1.00  0.00     0.010 C 
BRANCH  10  13
HETATM   13  N1  UNL     1       8.694   1.033  -1.119  1.00  0.00    -0.356 N 
HETATM   14  C5  UNL     1       8.429   1.101  -2.564  1.00  0.00     0.218 C 
HETATM   15  O1  UNL     1       8.030   0.071  -3.090  1.00  0.00    -0.274 OA
ATOM     16  H1  UNL     1       9.070   1.872  -0.677  1.00  0.00     0.162 HD
BRANCH  14  17
HETATM   17  C4  UNL     1       8.663   2.367  -3.263  1.00  0.00     0.106 C 
BRANCH  17  18
HETATM   18  C3  UNL     1       9.446   2.285  -4.554  1.00  0.00     0.035 C 
BRANCH  18  19
HETATM   19  C2  UNL     1       8.676   1.487  -5.553  1.00  0.00    -0.036 C 
HETATM   20  C1  UNL     1       8.067   1.967  -6.601  1.00  0.00     0.007 C 
ENDBRANCH  18  19
ENDBRANCH  17  18
ENDBRANCH  14  17
ENDBRANCH  10  13
ENDBRANCH   8   9
ENDBRANCH   6   8
ENDBRANCH   5   6
ENDBRANCH   1   5
BRANCH   1  21
HETATM   21  C14 UNL     1       1.991   0.724   0.954  1.00  0.00     0.204 C 
HETATM   22  O2  UNL     1       1.904  -0.524   0.920  1.00  0.00    -0.291 OA
BRANCH  21  23
HETATM   23  C15 UNL     1       0.976   1.568   1.371  1.00  0.00     0.155 C 
HETATM   24  C16 UNL     1       1.033   2.168   2.752  1.00  0.00     0.040 C 
BRANCH  23  25
HETATM   25  N4  UNL     1      -0.336   0.519   1.755  1.00  0.00    -0.346 N 
HETATM   26  C17 UNL     1      -1.399   1.580   1.686  1.00  0.00     0.252 C 
HETATM   27  O3  UNL     1      -1.144   2.727   1.339  1.00  0.00    -0.268 OA
ATOM     28  H4  UNL     1      -0.377  -0.480   1.959  1.00  0.00     0.163 HD
BRANCH  26  29
HETATM   29  C18 UNL     1      -2.787   1.243   2.054  1.00  0.00     0.035 A 
HETATM   30  C19 UNL     1      -3.607   2.252   2.581  1.00  0.00     0.059 A 
HETATM   31  C20 UNL     1      -4.911   1.888   2.921  1.00  0.00     0.117 A 
HETATM   32  F2  UNL     1      -5.600   2.964   3.510  1.00  0.00    -0.206 F 
HETATM   33  C21 UNL     1      -5.452   0.670   2.785  1.00  0.00     0.049 A 
HETATM   34  C22 UNL     1      -4.590  -0.324   2.256  1.00  0.00    -0.052 A 
HETATM   35  C34 UNL     1      -3.317  -0.022   1.911  1.00  0.00     0.024 A 
BRANCH  34  36
HETATM   36  C23 UNL     1      -5.043  -1.727   1.995  1.00  0.00     0.074 C 
BRANCH  36  37
HETATM   37  C24 UNL     1      -5.342  -1.928   0.511  1.00  0.00     0.230 C 
HETATM   38  C25 UNL     1      -5.644  -3.399   0.333  1.00  0.00     0.067 C 
HETATM   39  C26 UNL     1      -6.758  -4.008   1.064  1.00  0.00     0.120 C 
HETATM   40  C27 UNL     1      -6.504  -5.529   1.216  1.00  0.00     0.039 C 
HETATM   41  O4  UNL     1      -8.024  -3.935   0.408  1.00  0.00    -0.380 OA
HETATM   42  C28 UNL     1      -8.347  -2.573   0.471  1.00  0.00     0.146 C 
HETATM   43  C29 UNL     1      -9.817  -2.293   0.247  1.00  0.00     0.041 C 
HETATM   44  C30 UNL     1      -7.484  -1.890  -0.556  1.00  0.00     0.304 C 
HETATM   45  N5  UNL     1      -6.454  -1.131   0.089  1.00  0.00     0.099 N 
BRANCH  45  46
HETATM   46  C31 UNL     1      -6.138  -0.021  -0.750  1.00  0.00     0.215 C 
HETATM   47  C32 UNL     1      -5.585  -0.362  -2.100  1.00  0.00     0.042 C 
HETATM   48  C33 UNL     1      -7.391   0.865  -0.831  1.00  0.00     0.042 C 
ENDBRANCH  45  46
ENDBRANCH  36  37
ENDBRANCH  34  36
ENDBRANCH  26  29
ENDBRANCH  23  25
ENDBRANCH  21  23
ENDBRANCH   1  21
TORSDOF 15
