REMARK  18 active torsions:
REMARK  status: ('A' for Active; 'I' for Inactive)
REMARK    1  A    between atoms: C2_2  and  C3_3 
REMARK    2  A    between atoms: C3_3  and  N1_4 
REMARK    3  A    between atoms: C14_15  and  O1_16 
REMARK    4  A    between atoms: C18_21  and  C19_22 
REMARK    5  A    between atoms: C19_22  and  O3_23 
REMARK    6  A    between atoms: O3_23  and  C20_24 
REMARK    7  A    between atoms: C20_24  and  C21_26 
REMARK    8  A    between atoms: C21_26  and  C22_27 
REMARK    9  A    between atoms: C22_27  and  C23_28 
REMARK   10  A    between atoms: C23_28  and  C24_29 
REMARK   11  A    between atoms: C24_29  and  C25_30 
REMARK   12  A    between atoms: C25_30  and  C26_31 
REMARK   13  A    between atoms: C26_31  and  C27_32 
REMARK   14  A    between atoms: C27_32  and  C28_33 
REMARK   15  A    between atoms: C28_33  and  N2_34 
REMARK   16  A    between atoms: C29_38  and  O5_39 
REMARK   17  A    between atoms: C30_41  and  O6_42 
REMARK   18  A    between atoms: O6_42  and  C31_43 
ROOT
HETATM    1  N1  UNL     1      -5.426   1.553  -0.844  1.00  0.00    -0.343 N 
HETATM    2  C4  UNL     1      -5.608   0.200  -1.107  1.00  0.00     0.067 C 
HETATM    3  C5  UNL     1      -4.407  -0.615  -1.409  1.00  0.00     0.058 C 
HETATM    4  C6  UNL     1      -3.294  -0.522  -0.377  1.00  0.00     0.009 C 
HETATM    5  C7  UNL     1      -2.978  -1.839   0.155  1.00  0.00     0.030 C 
HETATM    6  C8  UNL     1      -4.065  -2.187   1.192  1.00  0.00     0.009 C 
HETATM    7  C9  UNL     1      -3.706  -1.340   2.414  1.00  0.00     0.013 C 
HETATM    8  C10 UNL     1      -2.941  -0.070   1.954  1.00  0.00    -0.005 C 
HETATM    9  C11 UNL     1      -2.994   0.849   3.132  1.00  0.00     0.019 C 
HETATM   10  C12 UNL     1      -3.703   0.397   0.776  1.00  0.00     0.020 C 
HETATM   11  C13 UNL     1      -3.088   1.472  -0.083  1.00  0.00     0.079 C 
HETATM   12  C14 UNL     1      -4.132   2.117  -0.952  1.00  0.00     0.233 C 
HETATM   13  C16 UNL     1      -2.346   0.453  -0.759  1.00  0.00     0.105 A 
HETATM   14  O2  UNL     1      -1.365   0.064  -1.472  1.00  0.00    -0.367 OA
HETATM   15  C17 UNL     1      -0.982   0.714  -0.408  1.00  0.00     0.167 A 
HETATM   16  C18 UNL     1      -0.692   0.435   0.978  1.00  0.00     0.080 C 
HETATM   17  C29 UNL     1      -1.546  -0.613   1.655  1.00  0.00     0.100 C 
HETATM   18  C30 UNL     1      -1.683  -1.904   0.954  1.00  0.00     0.162 C 
ENDROOT
BRANCH  16  19
HETATM   19  C19 UNL     1       0.707   0.490   1.489  1.00  0.00     0.189 C 
BRANCH  19  20
HETATM   20  O3  UNL     1       1.685  -0.300   0.982  1.00  0.00    -0.321 OA
BRANCH  20  21
HETATM   21  C20 UNL     1       2.290  -0.314  -0.219  1.00  0.00     0.258 C 
HETATM   22  O4  UNL     1       1.956   0.533  -1.080  1.00  0.00    -0.265 OA
BRANCH  21  23
HETATM   23  C21 UNL     1       3.365  -1.288  -0.628  1.00  0.00     0.111 C 
BRANCH  23  24
HETATM   24  C22 UNL     1       4.646  -0.876   0.088  1.00  0.00     0.010 C 
BRANCH  24  25
HETATM   25  C23 UNL     1       5.082   0.527  -0.248  1.00  0.00     0.000 C 
BRANCH  25  26
HETATM   26  C24 UNL     1       6.343   0.874   0.502  1.00  0.00     0.000 C 
BRANCH  26  27
HETATM   27  C25 UNL     1       7.510  -0.001   0.206  1.00  0.00     0.000 C 
BRANCH  27  28
HETATM   28  C26 UNL     1       7.919   0.033  -1.247  1.00  0.00     0.002 C 
BRANCH  28  29
HETATM   29  C27 UNL     1       9.110  -0.862  -1.512  1.00  0.00     0.027 C 
BRANCH  29  30
HETATM   30  C28 UNL     1      10.311  -0.460  -0.693  1.00  0.00     0.229 C 
BRANCH  30  31
HETATM   31  N2  UNL     1      10.737   0.897  -0.969  1.00  0.00    -0.079 N 
ATOM     32  H23 UNL     1      10.909   1.033  -1.965  1.00  0.00     0.274 HD
ATOM     33  H22 UNL     1       9.969   1.556  -0.844  1.00  0.00     0.274 HD
ATOM     34  H21 UNL     1      11.549   1.169  -0.415  1.00  0.00     0.274 HD
ENDBRANCH  30  31
ENDBRANCH  29  30
ENDBRANCH  28  29
ENDBRANCH  27  28
ENDBRANCH  26  27
ENDBRANCH  25  26
ENDBRANCH  24  25
ENDBRANCH  23  24
ENDBRANCH  21  23
ENDBRANCH  20  21
ENDBRANCH  19  20
ENDBRANCH  16  19
BRANCH  17  35
HETATM   35  O5  UNL     1      -0.947  -0.835   2.910  1.00  0.00    -0.386 OA
ATOM     36  H5  UNL     1      -0.079  -1.173   2.724  1.00  0.00     0.210 HD
ENDBRANCH  17  35
BRANCH  18  37
HETATM   37  O6  UNL     1      -0.668  -2.311   0.153  1.00  0.00    -0.383 OA
BRANCH  37  38
HETATM   38  C31 UNL     1      -0.069  -3.512   0.531  1.00  0.00     0.164 C 
HETATM   39  C32 UNL     1      -1.010  -4.678   0.557  1.00  0.00     0.033 C 
ENDBRANCH  37  38
ENDBRANCH  18  37
BRANCH  12  40
HETATM   40  O1  UNL     1      -3.662   2.078  -2.267  1.00  0.00    -0.371 OA
HETATM   41  C15 UNL     1      -3.520   3.328  -2.838  1.00  0.00     0.204 C 
ENDBRANCH  12  40
BRANCH   1  42
HETATM   42  C3  UNL     1      -6.406   2.247  -0.114  1.00  0.00     0.092 C 
BRANCH  42  43
HETATM   43  C2  UNL     1      -7.691   2.399  -0.853  1.00  0.00     0.007 C 
HETATM   44  C1  UNL     1      -8.183   3.608  -1.125  1.00  0.00     0.012 C 
ENDBRANCH  42  43
ENDBRANCH   1  42
TORSDOF 18
