REMARK  16 active torsions:
REMARK  status: ('A' for Active; 'I' for Inactive)
REMARK    1  A    between atoms: C2_2  and  C3_3 
REMARK    2  A    between atoms: C3_3  and  C4_4 
REMARK    3  A    between atoms: C4_4  and  C5_5 
REMARK    4  A    between atoms: C5_5  and  C6_6 
REMARK    5  A    between atoms: C6_6  and  C7_7 
REMARK    6  A    between atoms: N2_12  and  C9_13 
REMARK    7  A    between atoms: C9_13  and  C10_14 
REMARK    8  A    between atoms: C11_17  and  C12_18 
REMARK    9  A    between atoms: C13_19  and  C14_20 
REMARK   10  A    between atoms: C14_20  and  C15_21 
REMARK   11  A    between atoms: C15_21  and  N4_22 
REMARK   12  A    between atoms: N4_22  and  C16_23 
REMARK   13  A    between atoms: N4_22  and  C24_37 
REMARK   14  A    between atoms: C16_23  and  C17_24 
REMARK   15  A    between atoms: C17_24  and  C18_25 
REMARK   16  A    between atoms: C22_32  and  O2_33 
ROOT
HETATM    1  C15 UNL     1      -1.203   2.825   0.138  1.00  0.00     0.128 C 
ENDROOT
BRANCH   1   2
HETATM    2  C14 UNL     1      -0.182   2.973  -0.937  1.00  0.00     0.047 C 
BRANCH   2   3
HETATM    3  C13 UNL     1       0.136   1.829  -1.788  1.00  0.00    -0.027 C 
HETATM    4  C12 UNL     1       0.624   0.557  -1.305  1.00  0.00     0.000 C 
BRANCH   4   5
HETATM    5  C11 UNL     1       1.931   0.328  -0.642  1.00  0.00     0.155 C 
HETATM    6  C7  UNL     1       1.953  -1.193  -0.328  1.00  0.00     0.015 C 
HETATM    7  N1  UNL     1       1.765  -1.330   0.911  1.00  0.00    -0.338 N 
HETATM    8  C8  UNL     1       1.861  -0.106   1.619  1.00  0.00     0.175 C 
ATOM      9  H1  UNL     1       1.565  -2.226   1.356  1.00  0.00     0.168 HD
HETATM   10  S1  UNL     1       1.656   0.132   3.232  1.00  0.00    -0.041 SA
HETATM   11  N2  UNL     1       2.174   0.867   0.627  1.00  0.00    -0.337 N 
BRANCH   6  12
HETATM   12  C6  UNL     1       1.963  -2.205  -1.395  1.00  0.00     0.055 C 
BRANCH  12  13
HETATM   13  C5  UNL     1       3.145  -2.036  -2.296  1.00  0.00     0.006 C 
BRANCH  13  14
HETATM   14  C4  UNL     1       4.458  -2.138  -1.554  1.00  0.00     0.000 C 
BRANCH  14  15
HETATM   15  C3  UNL     1       4.643  -3.444  -0.854  1.00  0.00    -0.000 C 
BRANCH  15  16
HETATM   16  C2  UNL     1       5.936  -3.558  -0.117  1.00  0.00    -0.005 C 
HETATM   17  C1  UNL     1       7.150  -3.444  -0.992  1.00  0.00     0.005 C 
ENDBRANCH  15  16
ENDBRANCH  14  15
ENDBRANCH  13  14
ENDBRANCH  12  13
ENDBRANCH   6  12
BRANCH  11  18
HETATM   18  C9  UNL     1       2.737   2.164   0.991  1.00  0.00     0.226 C 
BRANCH  18  19
HETATM   19  C10 UNL     1       4.103   1.930   1.529  1.00  0.00     0.249 C 
HETATM   20  N3  UNL     1       4.852   3.070   1.945  1.00  0.00    -0.061 NA
HETATM   21  O1  UNL     1       4.534   0.757   1.591  1.00  0.00    -0.275 OA
ENDBRANCH  18  19
ENDBRANCH  11  18
ENDBRANCH   4   5
ENDBRANCH   2   3
ENDBRANCH   1   2
BRANCH   1  22
HETATM   22  N4  UNL     1      -2.533   2.504  -0.251  1.00  0.00    -0.361 N 
BRANCH  22  23
HETATM   23  C16 UNL     1      -3.060   1.294  -0.777  1.00  0.00     0.131 C 
BRANCH  23  24
HETATM   24  C17 UNL     1      -3.059   0.203   0.296  1.00  0.00     0.078 C 
BRANCH  24  25
HETATM   25  C18 UNL     1      -3.600  -1.061  -0.251  1.00  0.00     0.032 A 
HETATM   26  C19 UNL     1      -4.083  -1.281  -1.541  1.00  0.00     0.117 A 
HETATM   27  N5  UNL     1      -4.480  -2.560  -1.627  1.00  0.00    -0.330 N 
HETATM   28  C20 UNL     1      -4.256  -3.141  -0.421  1.00  0.00     0.226 A 
ATOM     29  H5  UNL     1      -4.878  -3.013  -2.450  1.00  0.00     0.168 HD
HETATM   30  N6  UNL     1      -3.723  -2.210   0.391  1.00  0.00    -0.313 N 
HETATM   31  O3  UNL     1      -4.463  -4.421   0.078  1.00  0.00    -0.319 OA
HETATM   32  C21 UNL     1      -3.397  -2.626   1.750  1.00  0.00     0.166 C 
HETATM   33  C22 UNL     1      -2.747  -4.008   1.697  1.00  0.00     0.161 C 
HETATM   34  C23 UNL     1      -3.853  -4.947   1.217  1.00  0.00     0.212 C 
BRANCH  33  35
HETATM   35  O2  UNL     1      -2.277  -4.375   2.944  1.00  0.00    -0.392 OA
ATOM     36  H2  UNL     1      -1.873  -5.234   2.911  1.00  0.00     0.210 HD
ENDBRANCH  33  35
ENDBRANCH  24  25
ENDBRANCH  23  24
ENDBRANCH  22  23
BRANCH  22  37
HETATM   37  C24 UNL     1      -3.495   3.585  -0.082  1.00  0.00     0.145 A 
HETATM   38  C25 UNL     1      -4.323   3.805   0.994  1.00  0.00     0.059 A 
HETATM   39  C26 UNL     1      -5.038   4.936   0.692  1.00  0.00     0.036 A 
HETATM   40  C27 UNL     1      -4.593   5.326  -0.553  1.00  0.00     0.051 A 
HETATM   41  C28 UNL     1      -5.050   6.505  -1.344  1.00  0.00     0.077 C 
HETATM   42  O4  UNL     1      -3.667   4.492  -0.987  1.00  0.00    -0.299 OA
ENDBRANCH  22  37
ENDBRANCH   1  22
TORSDOF 16
