REMARK  3 active torsions:
REMARK  status: ('A' for Active; 'I' for Inactive)
REMARK       I    between atoms: N1_2  and  C2_4 
REMARK    1  A    between atoms: C2_4  and  C3_6 
REMARK    2  A    between atoms: C6_9  and  N2_10 
REMARK       I    between atoms: N2_10  and  C7_12 
REMARK    3  A    between atoms: C7_12  and  C8_14 
REMARK       I    between atoms: C8_14  and  N3_16 
ROOT
HETATM    1  N2  UNL     1       0.836  -1.057  -1.412  1.00  0.00    -0.348 N 
ATOM      2  H2  UNL     1       0.742  -1.502  -2.325  1.00  0.00     0.163 HD
HETATM    3  C7  UNL     1      -0.315  -0.437  -0.822  1.00  0.00     0.309 C 
HETATM    4  O2  UNL     1      -0.151   0.096   0.300  1.00  0.00    -0.262 OA
ENDROOT
BRANCH   1   5
HETATM    5  C6  UNL     1       2.100  -1.072  -0.770  1.00  0.00     0.085 C 
HETATM    6  C5  UNL     1       3.170  -0.290  -1.542  1.00  0.00     0.026 C 
HETATM    7  C4  UNL     1       4.276  -0.030  -0.530  1.00  0.00     0.016 C 
HETATM    8  C3  UNL     1       4.786  -1.268   0.121  1.00  0.00     0.078 C 
HETATM    9  C18 UNL     1       3.749  -2.229   0.584  1.00  0.00     0.016 C 
HETATM   10  C17 UNL     1       2.671  -2.425  -0.491  1.00  0.00     0.026 C 
BRANCH   8  11
HETATM   11  C2  UNL     1       5.598  -0.858   1.305  1.00  0.00     0.221 C 
HETATM   12  N1  UNL     1       6.732  -0.044   1.082  1.00  0.00    -0.365 N 
HETATM   13  C1  UNL     1       7.532   0.365   2.219  1.00  0.00     0.149 C 
ATOM     14  H1  UNL     1       6.983   0.250   0.138  1.00  0.00     0.161 HD
HETATM   15  O1  UNL     1       5.307  -1.209   2.470  1.00  0.00    -0.273 OA
ENDBRANCH   8  11
ENDBRANCH   1   5
BRANCH   3  16
HETATM   16  C8  UNL     1      -1.600  -0.426  -1.483  1.00  0.00     0.311 C 
HETATM   17  O3  UNL     1      -1.712  -0.978  -2.604  1.00  0.00    -0.262 OA
HETATM   18  N3  UNL     1      -2.787   0.185  -0.941  1.00  0.00    -0.344 N 
HETATM   19  C9  UNL     1      -4.035   0.137  -1.688  1.00  0.00     0.126 C 
HETATM   20  C16 UNL     1      -2.779   0.845   0.330  1.00  0.00     0.131 C 
HETATM   21  C10 UNL     1      -4.612   1.514  -1.734  1.00  0.00     0.025 C 
HETATM   22  C11 UNL     1      -4.828   2.102  -0.368  1.00  0.00    -0.007 C 
HETATM   23  C12 UNL     1      -6.280   2.007  -0.025  1.00  0.00     0.005 C 
HETATM   24  C15 UNL     1      -4.130   1.353   0.711  1.00  0.00     0.008 C 
HETATM   25  C13 UNL     1      -6.426   0.663   0.603  1.00  0.00     0.001 C 
HETATM   26  C14 UNL     1      -5.077   0.324   1.215  1.00  0.00     0.007 C 
ENDBRANCH   3  16
TORSDOF 3
