REMARK  5 active torsions:
REMARK  status: ('A' for Active; 'I' for Inactive)
REMARK    1  A    between atoms: O1_1  and  C1_3 
REMARK    2  A    between atoms: N1_13  and  C9_14 
REMARK    3  A    between atoms: C9_14  and  C10_15 
REMARK    4  A    between atoms: C10_15  and  N2_16 
REMARK    5  A    between atoms: C13_19  and  C14_21 
ROOT
HETATM    1  C10 UNL     1      -0.179   0.808   0.127  1.00  0.00     0.302 C 
ENDROOT
BRANCH   1   2
HETATM    2  C9  UNL     1      -1.091  -0.189   0.752  1.00  0.00     0.303 C 
BRANCH   2   3
HETATM    3  N1  UNL     1      -2.355  -0.396   0.163  1.00  0.00     0.099 N 
HETATM    4  C3  UNL     1      -2.508  -1.063  -1.059  1.00  0.00     0.226 C 
HETATM    5  C2  UNL     1      -3.925  -1.700  -1.016  1.00  0.00     0.073 C 
HETATM    6  C4  UNL     1      -2.598  -0.021  -2.146  1.00  0.00     0.038 C 
HETATM    7  C1  UNL     1      -4.414  -1.801   0.398  1.00  0.00     0.192 C 
HETATM    8  C8  UNL     1      -4.991  -0.563   0.979  1.00  0.00     0.271 C 
HETATM    9  C7  UNL     1      -4.523   0.736   0.421  1.00  0.00     0.117 C 
HETATM   10  F1  UNL     1      -6.393  -0.562   0.820  1.00  0.00    -0.203 F 
HETATM   11  F2  UNL     1      -4.838  -0.560   2.382  1.00  0.00    -0.203 F 
HETATM   12  C6  UNL     1      -3.103   0.836   0.017  1.00  0.00     0.229 C 
HETATM   13  C5  UNL     1      -3.007   1.205  -1.424  1.00  0.00     0.038 C 
BRANCH   7  14
HETATM   14  O1  UNL     1      -3.458  -2.414   1.244  1.00  0.00    -0.389 OA
ATOM     15  H1  UNL     1      -3.768  -2.478   2.140  1.00  0.00     0.210 HD
ENDBRANCH   7  14
ENDBRANCH   2   3
ENDBRANCH   1   2
BRANCH   1  16
HETATM   16  N2  UNL     1       1.041   0.889   0.947  1.00  0.00     0.093 N 
HETATM   17  C11 UNL     1       1.771   2.099   0.582  1.00  0.00     0.276 C 
HETATM   18  C12 UNL     1       2.832   1.738  -0.381  1.00  0.00     0.080 C 
HETATM   19  C13 UNL     1       2.994   0.235  -0.266  1.00  0.00     0.158 C 
HETATM   20  F3  UNL     1       2.700  -0.391  -1.467  1.00  0.00    -0.236 F 
HETATM   21  C20 UNL     1       1.961  -0.187   0.726  1.00  0.00     0.321 C 
BRANCH  19  22
HETATM   22  C14 UNL     1       4.387  -0.099   0.087  1.00  0.00    -0.011 A 
HETATM   23  C15 UNL     1       4.954   0.236   1.291  1.00  0.00     0.053 A 
HETATM   24  C16 UNL     1       6.270  -0.057   1.614  1.00  0.00     0.119 A 
HETATM   25  F4  UNL     1       6.789   0.300   2.815  1.00  0.00    -0.206 F 
HETATM   26  C17 UNL     1       7.078  -0.719   0.697  1.00  0.00     0.084 A 
HETATM   27  C18 UNL     1       6.523  -1.059  -0.509  1.00  0.00     0.119 A 
HETATM   28  F5  UNL     1       7.318  -1.715  -1.413  1.00  0.00    -0.206 F 
HETATM   29  C19 UNL     1       5.200  -0.765  -0.832  1.00  0.00     0.053 A 
ENDBRANCH  19  22
ENDBRANCH   1  16
TORSDOF 5
