REMARK  7 active torsions:
REMARK  status: ('A' for Active; 'I' for Inactive)
REMARK    1  A    between atoms: N1_2  and  C2_5 
REMARK    2  A    between atoms: C2_5  and  C3_6 
REMARK    3  A    between atoms: C3_6  and  C4_7 
REMARK    4  A    between atoms: C4_7  and  C5_8 
REMARK    5  A    between atoms: C5_8  and  C6_9 
REMARK       I    between atoms: C6_9  and  N2_11 
REMARK    6  A    between atoms: C9_16  and  C10_17 
REMARK    7  A    between atoms: C10_17  and  C11_18 
ROOT
HETATM    1  C5  UNL     1      -1.338  -0.818  -0.803  1.00  0.00     0.065 C 
HETATM    2  C8  UNL     1      -0.667  -0.535  -2.088  1.00  0.00     0.187 C 
HETATM    3  O2  UNL     1      -0.034   0.717  -1.870  1.00  0.00    -0.384 OA
HETATM    4  C9  UNL     1       0.578   0.592  -0.612  1.00  0.00     0.125 C 
HETATM    5  C16 UNL     1      -0.465  -0.080   0.192  1.00  0.00     0.053 C 
ENDROOT
BRANCH   1   6
HETATM    6  C4  UNL     1      -2.757  -0.596  -0.673  1.00  0.00     0.023 C 
BRANCH   6   7
HETATM    7  C3  UNL     1      -3.468   0.644  -0.938  1.00  0.00     0.029 C 
BRANCH   7   8
HETATM    8  C2  UNL     1      -3.132   1.868  -0.194  1.00  0.00     0.231 C 
BRANCH   8   9
HETATM    9  N1  UNL     1      -3.975   3.002  -0.535  1.00  0.00    -0.079 N 
HETATM   10  C1  UNL     1      -5.327   2.865  -0.114  1.00  0.00     0.266 C 
ATOM     11  H12 UNL     1      -3.929   3.194  -1.536  1.00  0.00     0.276 HD
ATOM     12  H11 UNL     1      -3.574   3.868  -0.175  1.00  0.00     0.276 HD
ENDBRANCH   8   9
ENDBRANCH   7   8
ENDBRANCH   6   7
ENDBRANCH   1   6
BRANCH   1  13
HETATM   13  C6  UNL     1      -1.095  -2.281  -0.479  1.00  0.00     0.228 C 
HETATM   14  O1  UNL     1      -0.623  -3.043  -1.320  1.00  0.00    -0.273 OA
HETATM   15  N2  UNL     1      -1.430  -2.722   0.813  1.00  0.00    -0.365 N 
HETATM   16  C7  UNL     1      -1.258  -4.086   1.269  1.00  0.00     0.149 C 
ATOM     17  H2  UNL     1      -1.817  -2.042   1.467  1.00  0.00     0.161 HD
ENDBRANCH   1  13
BRANCH   4  18
HETATM   18  C10 UNL     1       1.910  -0.043  -0.712  1.00  0.00     0.075 C 
BRANCH  18  19
HETATM   19  C11 UNL     1       2.695  -0.212   0.527  1.00  0.00     0.109 C 
HETATM   20  F1  UNL     1       2.158  -0.980   1.519  1.00  0.00    -0.243 F 
HETATM   21  C12 UNL     1       4.009  -0.921   0.148  1.00  0.00     0.071 C 
HETATM   22  C13 UNL     1       5.015   0.043  -0.425  1.00  0.00     0.235 C 
HETATM   23  N3  UNL     1       5.464   0.950   0.598  1.00  0.00    -0.075 N 
HETATM   24  C14 UNL     1       4.501   1.023   1.691  1.00  0.00     0.235 C 
ATOM     25  H32 UNL     1       6.396   0.707   0.933  1.00  0.00     0.277 HD
ATOM     26  H31 UNL     1       5.672   1.873   0.217  1.00  0.00     0.277 HD
HETATM   27  C15 UNL     1       3.107   1.133   1.131  1.00  0.00     0.071 C 
ENDBRANCH  18  19
ENDBRANCH   4  18
TORSDOF 7
