REMARK  2 active torsions:
REMARK  status: ('A' for Active; 'I' for Inactive)
REMARK    1  A    between atoms: C6_12  and  O3_13 
REMARK    2  A    between atoms: C6_12  and  N3_15 
ROOT
HETATM    1  C1  UNL     1       0.940   1.917   0.267  1.00  0.00     0.045 C 
HETATM    2  C2  UNL     1       1.504   0.752   0.082  1.00  0.00     0.057 A 
HETATM    3  N1  UNL     1       2.859   0.656   0.223  1.00  0.00    -0.317 N 
ATOM      4  H1  UNL     1       3.388   1.493   0.467  1.00  0.00     0.169 HD
HETATM    5  C3  UNL     1       3.512  -0.485   0.054  1.00  0.00     0.314 A 
HETATM    6  O1  UNL     1       4.776  -0.588   0.183  1.00  0.00    -0.262 OA
HETATM    7  C4  UNL     1       2.785  -1.605  -0.277  1.00  0.00     0.314 A 
HETATM    8  O2  UNL     1       3.418  -2.685  -0.436  1.00  0.00    -0.262 OA
HETATM    9  N2  UNL     1       1.469  -1.512  -0.415  1.00  0.00    -0.313 N 
ATOM     10  H2  UNL     1       0.954  -2.358  -0.661  1.00  0.00     0.169 HD
HETATM   11  C5  UNL     1       0.750  -0.344  -0.247  1.00  0.00     0.113 A 
HETATM   12  C6  UNL     1      -0.534  -0.395  -0.412  1.00  0.00     0.172 C 
ENDROOT
BRANCH  12  13
HETATM   13  O3  UNL     1      -1.107  -1.651  -0.754  1.00  0.00    -0.344 OA
ATOM     14  H3  UNL     1      -2.049  -1.688  -0.875  1.00  0.00     0.219 HD
ENDBRANCH  12  13
BRANCH  12  15
HETATM   15  N3  UNL     1      -1.439   0.639  -0.296  1.00  0.00    -0.312 N 
HETATM   16  C7  UNL     1      -2.680   0.535   0.033  1.00  0.00     0.203 C 
HETATM   17  N4  UNL     1      -3.439   1.736   0.094  1.00  0.00    -0.066 NA
HETATM   18  N5  UNL     1      -3.259  -0.717   0.319  1.00  0.00    -0.066 NA
ATOM     19  H3  UNL     1      -1.092   1.578  -0.490  1.00  0.00     0.170 HD
ENDBRANCH  12  15
TORSDOF 2
