REMARK  4 active torsions:
REMARK  status: ('A' for Active; 'I' for Inactive)
REMARK    1  A    between atoms: N1_1  and  N2_4 
REMARK    2  A    between atoms: N2_4  and  C1_6 
REMARK    3  A    between atoms: N3_7  and  N4_9 
REMARK    4  A    between atoms: N7_21  and  C7_22 
ROOT
HETATM    1  N4  UNL     1       1.384  -0.197  -1.003  1.00  0.00    -0.286 N 
ATOM      2  H4  UNL     1       1.635  -1.182  -1.082  1.00  0.00     0.188 HD
HETATM    3  C2  UNL     1       0.185   0.069  -0.710  1.00  0.00     0.130 C 
HETATM    4  C3  UNL     1      -0.214   1.516  -0.585  1.00  0.00     0.203 C 
HETATM    5  N5  UNL     1      -1.222   1.795   0.367  1.00  0.00    -0.336 N 
ATOM      6  H5  UNL     1      -0.826   2.358   1.120  1.00  0.00     0.164 HD
HETATM    7  C4  UNL     1      -2.598   1.559   0.634  1.00  0.00     0.317 C 
HETATM    8  O1  UNL     1      -3.192   2.494   1.232  1.00  0.00    -0.247 OA
HETATM    9  N6  UNL     1      -3.525   0.496   0.391  1.00  0.00    -0.332 N 
ATOM     10  H6  UNL     1      -4.495   0.805   0.325  1.00  0.00     0.165 HD
HETATM   11  C5  UNL     1      -3.350  -0.992   0.213  1.00  0.00     0.230 C 
HETATM   12  C6  UNL     1      -2.022  -1.239  -0.172  1.00  0.00    -0.040 C 
HETATM   13  N7  UNL     1      -0.706  -1.078  -0.520  1.00  0.00    -0.242 N 
ENDROOT
BRANCH   1  14
HETATM   14  N3  UNL     1       2.379   0.720  -1.224  1.00  0.00    -0.294 N 
HETATM   15  C1  UNL     1       3.422   0.769  -0.472  1.00  0.00     0.213 C 
ATOM     16  H3  UNL     1       2.291   1.376  -2.000  1.00  0.00     0.187 HD
BRANCH  15  17
HETATM   17  N2  UNL     1       3.592  -0.120   0.620  1.00  0.00    -0.301 N 
ATOM     18  H2  UNL     1       2.789  -0.441   1.160  1.00  0.00     0.187 HD
BRANCH  17  19
HETATM   19  N1  UNL     1       4.889  -0.549   0.941  1.00  0.00    -0.344 N 
ATOM     20  H12 UNL     1       5.682  -0.219   0.391  1.00  0.00     0.176 HD
ATOM     21  H11 UNL     1       5.011  -1.188   1.726  1.00  0.00     0.176 HD
ENDBRANCH  17  19
ENDBRANCH  15  17
ENDBRANCH   1  14
BRANCH  13  22
HETATM   22  C7  UNL     1      -0.016  -2.302  -0.760  1.00  0.00     0.368 C 
HETATM   23  O2  UNL     1      -0.623  -3.411  -0.645  1.00  0.00    -0.282 OA
ENDBRANCH  13  22
TORSDOF 4
