REMARK  3 active torsions:
REMARK  status: ('A' for Active; 'I' for Inactive)
REMARK    1  A    between atoms: N1_1  and  C1_5 
REMARK    2  A    between atoms: N2_8  and  C4_9 
REMARK    3  A    between atoms: C4_9  and  C5_10 
ROOT
HETATM    1  C1  UNL     1      -3.519   0.174   0.010  1.00  0.00     0.186 C 
HETATM    2  C2  UNL     1      -2.566  -0.228  -1.102  1.00  0.00     0.063 C 
HETATM    3  C3  UNL     1      -1.466  -1.121  -0.514  1.00  0.00     0.274 C 
HETATM    4  N2  UNL     1      -0.645  -0.390   0.409  1.00  0.00     0.088 N 
HETATM    5  C11 UNL     1      -1.452   0.211   1.412  1.00  0.00     0.274 C 
HETATM    6  C12 UNL     1      -2.907  -0.176   1.330  1.00  0.00     0.063 C 
ENDROOT
BRANCH   4   7
HETATM    7  C4  UNL     1       0.248   0.538  -0.197  1.00  0.00     0.277 C 
BRANCH   7   8
HETATM    8  C5  UNL     1       1.358  -0.143  -0.978  1.00  0.00     0.014 C 
HETATM    9  C6  UNL     1       2.274   0.845  -1.604  1.00  0.00     0.006 C 
HETATM   10  C7  UNL     1       3.349   1.391  -0.719  1.00  0.00     0.000 C 
HETATM   11  C8  UNL     1       4.106   0.200  -0.129  1.00  0.00     0.000 C 
HETATM   12  C9  UNL     1       3.102  -0.501   0.780  1.00  0.00     0.000 C 
HETATM   13  C10 UNL     1       2.079  -1.161  -0.118  1.00  0.00     0.006 C 
ENDBRANCH   7   8
ENDBRANCH   4   7
BRANCH   1  14
HETATM   14  N1  UNL     1      -4.773  -0.485  -0.228  1.00  0.00    -0.075 N 
ATOM     15  H13 UNL     1      -5.148  -0.298  -1.158  1.00  0.00     0.274 HD
ATOM     16  H12 UNL     1      -4.678  -1.496  -0.321  1.00  0.00     0.274 HD
ATOM     17  H11 UNL     1      -5.413  -0.215   0.519  1.00  0.00     0.274 HD
ENDBRANCH   1  14
TORSDOF 3
