REMARK  8 active torsions:
REMARK  status: ('A' for Active; 'I' for Inactive)
REMARK    1  A    between atoms: O1_2  and  C2_3 
REMARK    2  A    between atoms: C4_5  and  C5_6 
REMARK    3  A    between atoms: C6_7  and  C7_8 
REMARK    4  A    between atoms: C12_14  and  C13_15 
REMARK    5  A    between atoms: N2_19  and  C17_20 
REMARK    6  A    between atoms: N3_21  and  O2_23 
REMARK    7  A    between atoms: C19_26  and  O3_27 
REMARK    8  A    between atoms: C21_29  and  O4_30 
ROOT
HETATM    1  C5  UNL     1      -0.209  -0.297   0.023  1.00  0.00     0.059 A 
HETATM    2  C6  UNL     1      -0.827  -1.490  -0.394  1.00  0.00    -0.004 A 
HETATM    3  C10 UNL     1      -2.126  -1.177  -0.619  1.00  0.00     0.077 A 
HETATM    4  C11 UNL     1      -3.179  -2.031  -1.104  1.00  0.00     0.102 C 
HETATM    5  N1  UNL     1      -4.050  -2.730  -1.507  1.00  0.00    -0.191 NA
HETATM    6  C12 UNL     1      -2.337   0.208  -0.326  1.00  0.00     0.043 A 
HETATM    7  N2  UNL     1      -1.158   0.678   0.049  1.00  0.00    -0.307 N 
ENDROOT
BRANCH   2   8
HETATM    8  C7  UNL     1      -0.175  -2.842  -0.363  1.00  0.00     0.014 C 
HETATM    9  C8  UNL     1      -1.205  -3.975  -0.529  1.00  0.00     0.015 C 
HETATM   10  C9  UNL     1       0.296  -3.067   1.103  1.00  0.00     0.015 C 
ENDBRANCH   2   8
BRANCH   6  11
HETATM   11  C13 UNL     1      -3.624   0.822  -0.556  1.00  0.00     0.038 C 
HETATM   12  C14 UNL     1      -4.253   1.731   0.500  1.00  0.00     0.011 C 
HETATM   13  C15 UNL     1      -4.913   2.424  -0.759  1.00  0.00     0.001 C 
HETATM   14  C16 UNL     1      -3.447   2.228  -1.295  1.00  0.00     0.011 C 
ENDBRANCH   6  11
BRANCH   1  15
HETATM   15  C4  UNL     1       1.230  -0.128   0.197  1.00  0.00    -0.003 A 
HETATM   16  C3  UNL     1       1.731   0.760   1.145  1.00  0.00     0.053 A 
HETATM   17  C2  UNL     1       3.101   1.020   1.286  1.00  0.00     0.104 A 
HETATM   18  C21 UNL     1       3.960   0.368   0.462  1.00  0.00     0.133 A 
HETATM   19  C19 UNL     1       3.521  -0.544  -0.518  1.00  0.00     0.104 A 
HETATM   20  C18 UNL     1       2.176  -0.748  -0.612  1.00  0.00     0.053 A 
BRANCH  17  21
HETATM   21  O1  UNL     1       3.536   1.915   2.243  1.00  0.00    -0.353 OA
HETATM   22  C1  UNL     1       2.589   2.584   3.080  1.00  0.00     0.210 C 
ENDBRANCH  17  21
BRANCH  18  23
HETATM   23  O4  UNL     1       5.350   0.555   0.526  1.00  0.00    -0.356 OA
ATOM     24  H4  UNL     1       5.951   0.099  -0.051  1.00  0.00     0.218 HD
ENDBRANCH  18  23
BRANCH  19  25
HETATM   25  O3  UNL     1       4.426  -1.175  -1.314  1.00  0.00    -0.353 OA
HETATM   26  C20 UNL     1       4.291  -2.124  -2.301  1.00  0.00     0.210 C 
ENDBRANCH  19  25
ENDBRANCH   1  15
BRANCH   7  27
HETATM   27  C17 UNL     1      -0.787   2.023   0.384  1.00  0.00     0.212 C 
HETATM   28  N3  UNL     1      -0.074   2.709  -0.492  1.00  0.00    -0.264 N 
ATOM     29  H3  UNL     1       0.203   2.291  -1.380  1.00  0.00     0.194 HD
BRANCH  28  30
HETATM   30  O2  UNL     1       0.291   4.018  -0.174  1.00  0.00    -0.289 OA
ATOM     31  H2  UNL     1       0.804   4.511  -0.804  1.00  0.00     0.244 HD
ENDBRANCH  28  30
ENDBRANCH   7  27
TORSDOF 8
