REMARK  12 active torsions:
REMARK  status: ('A' for Active; 'I' for Inactive)
REMARK    1  A    between atoms: C2_2  and  C4_4 
REMARK    2  A    between atoms: C4_4  and  C5_5 
REMARK    3  A    between atoms: C4_4  and  N2_11 
REMARK    4  A    between atoms: C5_5  and  N1_6 
REMARK    5  A    between atoms: N1_6  and  C6_8 
REMARK    6  A    between atoms: C6_8  and  C7_9 
REMARK       I    between atoms: N2_11  and  C8_13 
REMARK    7  A    between atoms: C8_13  and  C9_15 
REMARK    8  A    between atoms: C9_15  and  C10_16 
REMARK    9  A    between atoms: C9_15  and  N3_23 
REMARK   10  A    between atoms: C10_16  and  C11_17 
REMARK       I    between atoms: N3_23  and  C17_25 
REMARK   11  A    between atoms: C17_25  and  C18_27 
REMARK   12  A    between atoms: C19_28  and  C20_29 
ROOT
HETATM    1  C9  UNL     1      -1.376   0.849   0.175  1.00  0.00     0.177 C 
ENDROOT
BRANCH   1   2
HETATM    2  C8  UNL     1       0.054   0.608   0.445  1.00  0.00     0.240 C 
HETATM    3  N2  UNL     1       0.864  -0.095  -0.473  1.00  0.00    -0.353 N 
ATOM      4  H2  UNL     1       0.421  -0.431  -1.328  1.00  0.00     0.163 HD
HETATM    5  O1  UNL     1       0.532   1.047   1.509  1.00  0.00    -0.271 OA
BRANCH   3   6
HETATM    6  C4  UNL     1       2.270  -0.377  -0.298  1.00  0.00     0.105 C 
BRANCH   6   7
HETATM    7  C2  UNL     1       3.007   0.926  -0.181  1.00  0.00     0.002 C 
HETATM    8  C1  UNL     1       2.574   1.791  -1.360  1.00  0.00     0.011 C 
HETATM    9  C3  UNL     1       4.498   0.829  -0.260  1.00  0.00     0.011 C 
ENDBRANCH   6   7
BRANCH   6  10
HETATM   10  C5  UNL     1       2.543  -1.373   0.766  1.00  0.00     0.139 C 
BRANCH  10  11
HETATM   11  N1  UNL     1       3.874  -1.842   0.897  1.00  0.00    -0.417 N 
ATOM     12  H1  UNL     1       4.456  -1.589   1.695  1.00  0.00     0.153 HD
BRANCH  11  13
HETATM   13  C6  UNL     1       4.357  -2.688  -0.149  1.00  0.00     0.145 C 
BRANCH  13  14
HETATM   14  C7  UNL     1       5.809  -3.046   0.196  1.00  0.00     0.241 C 
HETATM   15  F1  UNL     1       6.370  -3.859  -0.751  1.00  0.00    -0.254 F 
ENDBRANCH  13  14
ENDBRANCH  11  13
ENDBRANCH  10  11
ENDBRANCH   6  10
ENDBRANCH   3   6
ENDBRANCH   1   2
BRANCH   1  16
HETATM   16  C10 UNL     1      -2.288  -0.094   0.937  1.00  0.00     0.039 C 
BRANCH  16  17
HETATM   17  C11 UNL     1      -2.058  -1.568   0.581  1.00  0.00    -0.012 C 
HETATM   18  C12 UNL     1      -2.340  -1.759  -0.855  1.00  0.00     0.005 C 
HETATM   19  C13 UNL     1      -3.256  -2.853  -1.269  1.00  0.00     0.000 C 
HETATM   20  C14 UNL     1      -4.261  -3.280  -0.252  1.00  0.00     0.000 C 
HETATM   21  C15 UNL     1      -3.446  -3.644   1.003  1.00  0.00     0.000 C 
HETATM   22  C16 UNL     1      -2.928  -2.346   1.527  1.00  0.00     0.005 C 
ENDBRANCH  16  17
ENDBRANCH   1  16
BRANCH   1  23
HETATM   23  N3  UNL     1      -1.634   2.206   0.720  1.00  0.00    -0.344 N 
HETATM   24  C17 UNL     1      -2.077   3.251  -0.121  1.00  0.00     0.241 C 
HETATM   25  O2  UNL     1      -2.250   3.011  -1.336  1.00  0.00    -0.269 OA
ATOM     26  H3  UNL     1      -1.490   2.386   1.714  1.00  0.00     0.163 HD
BRANCH  24  27
HETATM   27  C18 UNL     1      -2.332   4.580   0.386  1.00  0.00     0.071 C 
HETATM   28  C19 UNL     1      -2.744   5.518  -0.440  1.00  0.00    -0.006 C 
BRANCH  28  29
HETATM   29  C20 UNL     1      -3.017   6.911   0.058  1.00  0.00     0.142 C 
HETATM   30 CL1  UNL     1      -2.702   7.014   1.803  1.00  0.00    -0.126 Cl
ENDBRANCH  28  29
ENDBRANCH  24  27
ENDBRANCH   1  23
TORSDOF 12
