REMARK  3 active torsions:
REMARK  status: ('A' for Active; 'I' for Inactive)
REMARK    1  A    between atoms: C5_6  and  C6_7 
REMARK    2  A    between atoms: C6_7  and  N1_8 
REMARK    3  A    between atoms: N1_8  and  C7_10 
ROOT
HETATM    1  F1  UNL     1      -4.123   1.917  -0.092  1.00  0.00    -0.249 F 
HETATM    2  C1  UNL     1      -3.647   0.699  -0.512  1.00  0.00     0.171 C 
HETATM    3  C2  UNL     1      -3.355  -0.150   0.702  1.00  0.00     0.042 C 
HETATM    4  C3  UNL     1      -1.920   0.102   1.090  1.00  0.00    -0.007 A 
HETATM    5  C4  UNL     1      -1.017  -1.088   0.856  1.00  0.00     0.011 A 
HETATM    6  C5  UNL     1      -0.329  -0.364  -0.248  1.00  0.00     0.008 A 
HETATM    7  C10 UNL     1      -1.280   0.827  -0.066  1.00  0.00    -0.002 A 
HETATM    8  C11 UNL     1      -2.309   0.920  -1.165  1.00  0.00     0.042 C 
ENDROOT
BRANCH   6   9
HETATM    9  C6  UNL     1       1.125  -0.003  -0.059  1.00  0.00     0.119 C 
BRANCH   9  10
HETATM   10  N1  UNL     1       1.974  -1.108   0.163  1.00  0.00    -0.417 N 
ATOM     11  H1  UNL     1       1.608  -2.053   0.279  1.00  0.00     0.153 HD
BRANCH  10  12
HETATM   12  C7  UNL     1       3.368  -0.832   0.216  1.00  0.00     0.076 A 
HETATM   13  C8  UNL     1       4.132  -0.348  -0.971  1.00  0.00     0.027 A 
HETATM   14  C9  UNL     1       3.871   0.588   0.183  1.00  0.00     0.027 A 
ENDBRANCH  10  12
ENDBRANCH   9  10
ENDBRANCH   6   9
TORSDOF 3
