REMARK  3 active torsions:
REMARK  status: ('A' for Active; 'I' for Inactive)
REMARK    1  A    between atoms: C2_2  and  C3_3 
REMARK    2  A    between atoms: C3_3  and  N1_4 
REMARK    3  A    between atoms: N1_4  and  C4_6 
ROOT
HETATM    1  C4  UNL     1       0.153  -0.294   0.267  1.00  0.00     0.119 C 
HETATM    2  C5  UNL     1      -0.743  -1.251  -0.505  1.00  0.00     0.226 C 
HETATM    3  F1  UNL     1      -0.122  -1.636  -1.688  1.00  0.00    -0.245 F 
HETATM    4  C6  UNL     1      -1.707  -0.114  -0.816  1.00  0.00     0.264 C 
HETATM    5  C7  UNL     1      -0.904   0.752   0.134  1.00  0.00     0.049 C 
HETATM    6  C8  UNL     1      -1.800   0.880   1.357  1.00  0.00     0.039 C 
HETATM    7  C9  UNL     1      -2.784  -0.252   1.185  1.00  0.00     0.273 C 
HETATM    8  N2  UNL     1      -3.016  -0.208  -0.243  1.00  0.00     0.092 N 
HETATM    9  C10 UNL     1      -3.664   1.086  -0.492  1.00  0.00     0.310 C 
ENDROOT
BRANCH   1  10
HETATM   10  N1  UNL     1       1.444  -0.029  -0.248  1.00  0.00    -0.414 N 
ATOM     11  H1  UNL     1       1.706   0.896  -0.588  1.00  0.00     0.153 HD
BRANCH  10  12
HETATM   12  C3  UNL     1       2.353  -1.113  -0.267  1.00  0.00     0.114 C 
BRANCH  12  13
HETATM   13  C2  UNL     1       3.658  -0.708  -0.940  1.00  0.00     0.015 C 
HETATM   14  C1  UNL     1       4.243   0.438  -0.189  1.00  0.00     0.006 C 
ENDBRANCH  12  13
ENDBRANCH  10  12
ENDBRANCH   1  10
TORSDOF 3
