REMARK  6 active torsions:
REMARK  status: ('A' for Active; 'I' for Inactive)
REMARK    1  A    between atoms: N2_7  and  C5_8 
REMARK    2  A    between atoms: C5_8  and  C6_9 
REMARK    3  A    between atoms: C6_9  and  N3_10 
REMARK    4  A    between atoms: C6_9  and  C7_14 
REMARK    5  A    between atoms: C7_14  and  C8_15 
REMARK    6  A    between atoms: C10_21  and  O1_22 
ROOT
HETATM    1  C6  UNL     1      -0.602  -0.685  -0.673  1.00  0.00     0.206 C 
ENDROOT
BRANCH   1   2
HETATM    2  C5  UNL     1       0.793  -1.018  -1.045  1.00  0.00     0.162 C 
BRANCH   2   3
HETATM    3  N2  UNL     1       1.815  -0.853  -0.081  1.00  0.00    -0.344 N 
HETATM    4  C2  UNL     1       2.589   0.229   0.085  1.00  0.00     0.024 A 
HETATM    5  C1  UNL     1       2.630   1.499  -0.677  1.00  0.00     0.070 C 
HETATM    6  C3  UNL     1       3.446  -0.032   1.157  1.00  0.00     0.113 A 
HETATM    7  N1  UNL     1       3.187  -1.261   1.628  1.00  0.00    -0.360 N 
HETATM    8  C4  UNL     1       2.192  -1.748   0.865  1.00  0.00     0.183 A 
ATOM      9  H1  UNL     1       3.650  -1.731   2.406  1.00  0.00     0.166 HD
ENDBRANCH   2   3
ENDBRANCH   1   2
BRANCH   1  10
HETATM   10  N3  UNL     1      -1.104  -1.481   0.438  1.00  0.00    -0.073 N 
ATOM     11  H33 UNL     1      -1.008  -2.478   0.243  1.00  0.00     0.274 HD
ATOM     12  H32 UNL     1      -0.485  -1.408   1.246  1.00  0.00     0.274 HD
ATOM     13  H31 UNL     1      -2.064  -1.252   0.694  1.00  0.00     0.274 HD
ENDBRANCH   1  10
BRANCH   1  14
HETATM   14  C7  UNL     1      -0.937   0.765  -0.556  1.00  0.00     0.079 C 
BRANCH  14  15
HETATM   15  C8  UNL     1      -2.379   0.906  -0.188  1.00  0.00     0.013 A 
HETATM   16  C9  UNL     1      -3.387   1.184  -1.084  1.00  0.00     0.118 A 
HETATM   17  N4  UNL     1      -4.540   1.220  -0.408  1.00  0.00    -0.309 N 
HETATM   18  N5  UNL     1      -4.324   0.982   0.862  1.00  0.00    -0.280 N 
ATOM     19  H4  UNL     1      -5.454   1.406  -0.821  1.00  0.00     0.186 HD
HETATM   20  C10 UNL     1      -3.006   0.786   1.028  1.00  0.00     0.162 A 
ATOM     21  H5  UNL     1      -5.032   0.951   1.595  1.00  0.00     0.189 HD
BRANCH  20  22
HETATM   22  O1  UNL     1      -2.350   0.504   2.237  1.00  0.00    -0.345 OA
ATOM     23  H1  UNL     1      -2.784   0.421   3.078  1.00  0.00     0.219 HD
ENDBRANCH  20  22
ENDBRANCH  14  15
ENDBRANCH   1  14
TORSDOF 6
