REMARK  4 active torsions:
REMARK  status: ('A' for Active; 'I' for Inactive)
REMARK    1  A    between atoms: N1_2  and  C1_4 
REMARK    2  A    between atoms: C2_5  and  C3_6 
REMARK    3  A    between atoms: C9_16  and  C10_17 
REMARK    4  A    between atoms: C16_23  and  C17_24 
ROOT
HETATM    1  C1  UNL     1      -0.295   1.329  -0.076  1.00  0.00     0.202 C 
HETATM    2  C2  UNL     1      -1.608   0.976  -0.663  1.00  0.00     0.249 C 
HETATM    3  N2  UNL     1      -1.890  -0.421  -0.393  1.00  0.00    -0.056 N 
ATOM      4  H21 UNL     1      -2.528  -0.863  -1.055  1.00  0.00     0.278 HD
ATOM      5  H22 UNL     1      -2.467  -0.588   0.432  1.00  0.00     0.278 HD
HETATM    6  C9  UNL     1      -0.542  -1.024  -0.337  1.00  0.00     0.230 C 
HETATM    7  C16 UNL     1       0.213  -0.033   0.444  1.00  0.00     0.092 C 
ENDROOT
BRANCH   7   8
HETATM    8  C17 UNL     1       1.684  -0.006   0.224  1.00  0.00    -0.007 A 
HETATM    9  C18 UNL     1       2.387  -0.062  -0.952  1.00  0.00     0.027 A 
HETATM   10  C19 UNL     1       3.737  -0.007  -0.862  1.00  0.00    -0.018 A 
HETATM   11  C20 UNL     1       4.641  -0.049  -1.934  1.00  0.00     0.013 A 
HETATM   12  C24 UNL     1       4.280   0.098   0.381  1.00  0.00     0.015 A 
HETATM   13  C21 UNL     1       5.984   0.012  -1.738  1.00  0.00     0.001 A 
HETATM   14  C22 UNL     1       6.548   0.119  -0.478  1.00  0.00     0.001 A 
HETATM   15  C23 UNL     1       5.668   0.160   0.573  1.00  0.00     0.019 A 
HETATM   16  S1  UNL     1       2.909   0.119   1.399  1.00  0.00    -0.093 SA
ENDBRANCH   7   8
BRANCH   1  17
HETATM   17  N1  UNL     1      -0.287   2.294   0.973  1.00  0.00    -0.147 N 
HETATM   18  O1  UNL     1       0.291   3.387   0.823  1.00  0.00    -0.536 OA
HETATM   19  O2  UNL     1      -0.908   2.055   2.167  1.00  0.00    -0.536 OA
ENDBRANCH   1  17
BRANCH   6  20
HETATM   20  C10 UNL     1      -0.752  -2.344   0.272  1.00  0.00    -0.027 A 
HETATM   21  C11 UNL     1       0.030  -2.839   1.257  1.00  0.00     0.009 A 
HETATM   22  C12 UNL     1      -0.179  -4.098   1.829  1.00  0.00     0.001 A 
HETATM   23  C13 UNL     1      -1.222  -4.876   1.380  1.00  0.00     0.000 A 
HETATM   24  C14 UNL     1      -2.035  -4.393   0.375  1.00  0.00     0.001 A 
HETATM   25  C15 UNL     1      -1.809  -3.149  -0.173  1.00  0.00     0.009 A 
ENDBRANCH   6  20
BRANCH   2  26
HETATM   26  C3  UNL     1      -2.731   1.860  -0.364  1.00  0.00    -0.025 A 
HETATM   27  C4  UNL     1      -2.984   2.919  -1.208  1.00  0.00     0.011 A 
HETATM   28  C5  UNL     1      -4.024   3.796  -1.021  1.00  0.00     0.024 A 
HETATM   29  C6  UNL     1      -4.851   3.611   0.058  1.00  0.00     0.034 A 
HETATM   30 CL1  UNL     1      -6.169   4.752   0.265  1.00  0.00    -0.084 Cl
HETATM   31  C7  UNL     1      -4.625   2.569   0.913  1.00  0.00     0.024 A 
HETATM   32  C8  UNL     1      -3.576   1.693   0.714  1.00  0.00     0.011 A 
ENDBRANCH   2  26
TORSDOF 4
