REMARK  2 active torsions:
REMARK  status: ('A' for Active; 'I' for Inactive)
REMARK    1  A    between atoms: N1_2  and  C2_5 
REMARK    2  A    between atoms: C8_11  and  N2_12 
ROOT
HETATM    1  C2  UNL     1      -0.515  -0.229  -0.324  1.00  0.00     0.149 C 
HETATM    2  C3  UNL     1      -1.210   0.352  -1.570  1.00  0.00     0.048 C 
HETATM    3  C4  UNL     1       0.441  -1.274  -0.894  1.00  0.00     0.041 C 
HETATM    4  C5  UNL     1       1.428  -1.604   0.163  1.00  0.00     0.002 C 
HETATM    5  C6  UNL     1       2.345  -0.422   0.345  1.00  0.00     0.002 C 
HETATM    6  C7  UNL     1       1.631   0.889   0.408  1.00  0.00     0.035 C 
HETATM    7  C8  UNL     1       0.152   0.827   0.468  1.00  0.00     0.219 C 
ENDROOT
BRANCH   1   8
HETATM    8  N1  UNL     1      -1.472  -0.960   0.482  1.00  0.00    -0.068 N 
HETATM    9  C1  UNL     1      -2.531  -0.170   0.999  1.00  0.00     0.267 C 
ATOM     10  H12 UNL     1      -0.996  -1.454   1.237  1.00  0.00     0.277 HD
ATOM     11  H11 UNL     1      -1.843  -1.754  -0.040  1.00  0.00     0.277 HD
ENDBRANCH   1   8
BRANCH   7  12
HETATM   12  N2  UNL     1      -0.363   2.123  -0.009  1.00  0.00    -0.073 N 
ATOM     13  H23 UNL     1      -0.254   2.250  -1.015  1.00  0.00     0.274 HD
ATOM     14  H22 UNL     1      -1.381   2.184   0.022  1.00  0.00     0.274 HD
ATOM     15  H21 UNL     1       0.097   2.851   0.537  1.00  0.00     0.274 HD
ENDBRANCH   7  12
TORSDOF 2
