REMARK  1 active torsions:
REMARK  status: ('A' for Active; 'I' for Inactive)
REMARK    1  A    between atoms: N1_2  and  C2_5 
ROOT
HETATM    1  C2  UNL     1      -1.080  -0.409   0.489  1.00  0.00     0.190 C 
HETATM    2  C3  UNL     1      -0.681   0.805   1.231  1.00  0.00     0.077 C 
HETATM    3  C4  UNL     1       0.547   1.505   0.815  1.00  0.00     0.058 C 
HETATM    4  N2  UNL     1       1.429   0.861  -0.055  1.00  0.00    -0.398 N 
ATOM      5  H2  UNL     1       1.864   1.375  -0.821  1.00  0.00     0.159 HD
HETATM    6  C5  UNL     1       1.711  -0.501   0.136  1.00  0.00     0.076 C 
HETATM    7  C6  UNL     1       3.154  -0.759  -0.284  1.00  0.00     0.032 C 
HETATM    8  C7  UNL     1       0.804  -1.298  -0.807  1.00  0.00     0.027 C 
HETATM    9  C8  UNL     1      -0.481  -0.498  -0.906  1.00  0.00     0.035 C 
ENDROOT
BRANCH   1  10
HETATM   10  N1  UNL     1      -2.523  -0.526   0.275  1.00  0.00    -0.074 N 
HETATM   11  C1  UNL     1      -3.060   0.440  -0.620  1.00  0.00     0.267 C 
ATOM     12  H12 UNL     1      -3.019  -0.502   1.166  1.00  0.00     0.277 HD
ATOM     13  H11 UNL     1      -2.763  -1.469  -0.032  1.00  0.00     0.277 HD
ENDBRANCH   1  10
TORSDOF 1
