REMARK  4 active torsions:
REMARK  status: ('A' for Active; 'I' for Inactive)
REMARK    1  A    between atoms: C9_10  and  C10_11 
REMARK    2  A    between atoms: C10_11  and  O2_13 
REMARK    3  A    between atoms: O2_13  and  C11_14 
REMARK       I    between atoms: N2_18  and  C15_19 
REMARK       I    between atoms: C15_19  and  N3_21 
REMARK    4  A    between atoms: N3_21  and  C16_23 
ROOT
HETATM    1  C16 UNL     1      -2.452   3.291   1.745  1.00  0.00     0.248 C 
HETATM    2  C17 UNL     1      -1.270   4.184   1.671  1.00  0.00     0.078 C 
HETATM    3  N4  UNL     1      -0.343   4.875   1.618  1.00  0.00    -0.196 NA
ENDROOT
BRANCH   1   4
HETATM    4  N3  UNL     1      -2.167   2.177   0.840  1.00  0.00    -0.331 N 
HETATM    5  C15 UNL     1      -1.060   1.339   1.015  1.00  0.00     0.320 C 
HETATM    6  N2  UNL     1      -0.695   0.241   0.201  1.00  0.00    -0.314 N 
HETATM    7  O3  UNL     1      -0.309   1.601   2.020  1.00  0.00    -0.247 OA
HETATM    8  C2  UNL     1      -1.496  -0.066  -0.938  1.00  0.00     0.114 C 
HETATM    9  C9  UNL     1       0.492  -0.501   0.632  1.00  0.00     0.191 C 
HETATM   10  C1  UNL     1      -0.779  -0.385  -2.204  1.00  0.00     0.034 C 
HETATM   11  C3  UNL     1      -2.508  -1.162  -0.671  1.00  0.00     0.297 C 
HETATM   12  N1  UNL     1      -1.880  -2.465  -0.520  1.00  0.00     0.095 N 
HETATM   13  C4  UNL     1      -2.916  -3.418  -0.175  1.00  0.00     0.273 C 
HETATM   14  C7  UNL     1      -1.080  -2.409   0.681  1.00  0.00     0.225 C 
HETATM   15  C5  UNL     1      -2.148  -4.500   0.557  1.00  0.00     0.032 C 
HETATM   16  C6  UNL     1      -1.044  -3.788   1.293  1.00  0.00     0.037 C 
HETATM   17  C8  UNL     1       0.302  -1.947   0.274  1.00  0.00     0.071 C 
ATOM     18  H3  UNL     1      -2.796   2.006   0.056  1.00  0.00     0.165 HD
BRANCH   9  19
HETATM   19  C10 UNL     1       1.759   0.079   0.193  1.00  0.00     0.282 C 
HETATM   20  O1  UNL     1       2.807  -0.585   0.437  1.00  0.00    -0.263 OA
BRANCH  19  21
HETATM   21  O2  UNL     1       1.905   1.266  -0.450  1.00  0.00    -0.310 OA
BRANCH  21  22
HETATM   22  C11 UNL     1       3.093   1.856  -0.884  1.00  0.00     0.060 C 
HETATM   23  C12 UNL     1       3.832   0.986  -1.880  1.00  0.00     0.045 C 
HETATM   24  C13 UNL     1       2.710   3.131  -1.637  1.00  0.00     0.045 C 
HETATM   25  C14 UNL     1       4.041   2.232   0.212  1.00  0.00     0.045 C 
ENDBRANCH  21  22
ENDBRANCH  19  21
ENDBRANCH   9  19
ENDBRANCH   1   4
TORSDOF 4
