REMARK  4 active torsions:
REMARK  status: ('A' for Active; 'I' for Inactive)
REMARK    1  A    between atoms: C2_2  and  O1_3 
REMARK    2  A    between atoms: C2_2  and  C3_5 
REMARK    3  A    between atoms: C3_5  and  O2_6 
REMARK    4  A    between atoms: C3_5  and  C4_8 
ROOT
HETATM    1  C4  UNL     1      -1.153   0.179   0.502  1.00  0.00     0.029 C 
HETATM    2  C5  UNL     1      -1.438  -0.439  -0.859  1.00  0.00     0.017 C 
HETATM    3  C6  UNL     1      -1.798  -1.890  -0.629  1.00  0.00    -0.047 C 
HETATM    4  C7  UNL     1      -1.409  -2.745  -1.819  1.00  0.00     0.015 C 
HETATM    5  C8  UNL     1      -3.312  -2.007  -0.481  1.00  0.00     0.015 C 
HETATM    6  C9  UNL     1      -1.221  -2.411   0.657  1.00  0.00     0.015 C 
HETATM    7  C10 UNL     1       0.116  -1.821   1.008  1.00  0.00     0.007 C 
HETATM    8  C11 UNL     1       1.121  -2.331   0.014  1.00  0.00     0.082 C 
HETATM    9  S1  UNL     1       2.763  -1.967   0.736  1.00  0.00    -0.134 SA
HETATM   10  C12 UNL     1       2.568  -0.281   1.429  1.00  0.00     0.216 C 
HETATM   11  O3  UNL     1       3.571   0.478   0.778  1.00  0.00    -0.338 OA
HETATM   12  C13 UNL     1       3.073   0.675  -0.508  1.00  0.00     0.159 C 
HETATM   13  C14 UNL     1       3.299   2.124  -0.931  1.00  0.00     0.078 C 
HETATM   14  C15 UNL     1       3.706  -0.215  -1.532  1.00  0.00     0.078 C 
HETATM   15  O4  UNL     1       1.711   0.419  -0.494  1.00  0.00    -0.346 OA
HETATM   16  C16 UNL     1       1.345   0.369   0.820  1.00  0.00     0.173 C 
HETATM   17  C17 UNL     1       0.081  -0.319   1.156  1.00  0.00    -0.004 C 
HETATM   18  C18 UNL     1      -0.120  -0.068   2.670  1.00  0.00     0.019 C 
ENDROOT
BRANCH   1  19
HETATM   19  C3  UNL     1      -1.474   1.615   0.530  1.00  0.00     0.151 C 
BRANCH  19  20
HETATM   20  C2  UNL     1      -0.820   2.563  -0.378  1.00  0.00     0.143 C 
HETATM   21  C1  UNL     1      -1.620   3.883  -0.277  1.00  0.00     0.042 C 
BRANCH  20  22
HETATM   22  O1  UNL     1      -0.863   2.246  -1.727  1.00  0.00    -0.393 OA
ATOM     23  H1  UNL     1      -0.372   1.435  -1.789  1.00  0.00     0.210 HD
ENDBRANCH  20  22
ENDBRANCH  19  20
BRANCH  19  24
HETATM   24  O2  UNL     1      -1.328   2.101   1.837  1.00  0.00    -0.393 OA
ATOM     25  H2  UNL     1      -1.752   1.487   2.425  1.00  0.00     0.210 HD
ENDBRANCH  19  24
ENDBRANCH   1  19
TORSDOF 4
