REMARK  4 active torsions:
REMARK  status: ('A' for Active; 'I' for Inactive)
REMARK    1  A    between atoms: C2_2  and  O2_4 
REMARK    2  A    between atoms: O2_4  and  C3_5 
REMARK    3  A    between atoms: C6_10  and  C7_11 
REMARK    4  A    between atoms: C17_21  and  O5_22 
ROOT
HETATM    1  C3  UNL     1       2.494  -0.962   0.267  1.00  0.00     0.260 C 
HETATM    2  C4  UNL     1       2.543  -2.449   0.493  1.00  0.00     0.291 C 
HETATM    3  O3  UNL     1       3.586  -3.124   0.322  1.00  0.00    -0.262 OA
HETATM    4  O4  UNL     1       1.327  -3.007   0.907  1.00  0.00    -0.319 OA
HETATM    5  C5  UNL     1       0.109  -2.311   0.581  1.00  0.00     0.186 C 
HETATM    6  C6  UNL     1       0.169  -0.988   1.232  1.00  0.00     0.047 C 
HETATM    7  C17 UNL     1       1.568  -0.427   1.361  1.00  0.00     0.164 C 
ENDROOT
BRANCH   6   8
HETATM    8  C7  UNL     1      -0.786   0.055   0.774  1.00  0.00     0.002 C 
HETATM    9  C8  UNL     1      -2.231  -0.331   0.941  1.00  0.00    -0.009 C 
HETATM   10  C9  UNL     1      -3.008   0.991   1.045  1.00  0.00     0.010 C 
HETATM   11  C13 UNL     1      -2.797  -1.064  -0.238  1.00  0.00     0.010 C 
HETATM   12  C10 UNL     1      -2.780   1.786  -0.206  1.00  0.00    -0.013 C 
HETATM   13  C11 UNL     1      -3.396   1.052  -1.355  1.00  0.00     0.009 C 
HETATM   14  C16 UNL     1      -1.302   2.054  -0.468  1.00  0.00     0.010 C 
HETATM   15  C12 UNL     1      -2.669  -0.290  -1.504  1.00  0.00    -0.013 C 
HETATM   16  C14 UNL     1      -1.200   0.035  -1.727  1.00  0.00     0.010 C 
HETATM   17  C15 UNL     1      -0.585   0.687  -0.534  1.00  0.00    -0.009 C 
ENDBRANCH   6   8
BRANCH   7  18
HETATM   18  O5  UNL     1       1.582   0.966   1.406  1.00  0.00    -0.392 OA
ATOM     19  H5  UNL     1       1.007   1.298   2.085  1.00  0.00     0.210 HD
ENDBRANCH   7  18
BRANCH   1  20
HETATM   20  O2  UNL     1       3.749  -0.378   0.417  1.00  0.00    -0.303 OA
BRANCH  20  21
HETATM   21  C2  UNL     1       4.447   0.304  -0.536  1.00  0.00     0.255 C 
HETATM   22  C1  UNL     1       5.786   0.915  -0.340  1.00  0.00     0.126 C 
HETATM   23  O1  UNL     1       3.926   0.434  -1.676  1.00  0.00    -0.266 OA
ENDBRANCH  20  21
ENDBRANCH   1  20
TORSDOF 4
