REMARK  3 active torsions:
REMARK  status: ('A' for Active; 'I' for Inactive)
REMARK    1  A    between atoms: C2_2  and  N1_4 
REMARK       I    between atoms: N1_4  and  C4_6 
REMARK       I    between atoms: C4_6  and  N2_8 
REMARK    2  A    between atoms: C7_12  and  C8_13 
REMARK       I    between atoms: C8_13  and  N3_15 
REMARK    3  A    between atoms: N3_15  and  C9_17 
ROOT
HETATM    1  C8  UNL     1       0.448  -0.508   1.045  1.00  0.00     0.243 C 
HETATM    2  O3  UNL     1       0.640   0.726   1.060  1.00  0.00    -0.271 OA
HETATM    3  N3  UNL     1      -0.796  -1.009   0.597  1.00  0.00    -0.350 N 
ATOM      4  H3  UNL     1      -0.923  -2.021   0.596  1.00  0.00     0.163 HD
ENDROOT
BRANCH   1   5
HETATM    5  C7  UNL     1       1.547  -1.411   1.504  1.00  0.00     0.207 C 
HETATM    6  N2  UNL     1       2.695  -0.641   1.903  1.00  0.00    -0.297 N 
HETATM    7  C4  UNL     1       3.688  -0.112   1.068  1.00  0.00     0.321 C 
HETATM    8  C5  UNL     1       2.633  -0.513   3.332  1.00  0.00     0.298 C 
HETATM    9  N1  UNL     1       3.630  -0.313  -0.338  1.00  0.00    -0.339 N 
HETATM   10  O1  UNL     1       4.629   0.540   1.580  1.00  0.00    -0.247 OA
ATOM     11  H1  UNL     1       2.854  -0.848  -0.728  1.00  0.00     0.164 HD
HETATM   12  O2  UNL     1       2.168  -1.778   3.715  1.00  0.00    -0.369 OA
HETATM   13  C6  UNL     1       1.173  -2.110   2.806  1.00  0.00     0.205 C 
BRANCH   9  14
HETATM   14  C2  UNL     1       4.632   0.214  -1.230  1.00  0.00     0.078 C 
HETATM   15  C1  UNL     1       5.303  -0.862  -2.022  1.00  0.00     0.032 C 
HETATM   16  C3  UNL     1       4.041   1.210  -2.217  1.00  0.00     0.032 C 
ENDBRANCH   9  14
ENDBRANCH   1   5
BRANCH   3  17
HETATM   17  C9  UNL     1      -1.891  -0.206   0.145  1.00  0.00     0.034 C 
HETATM   18  C10 UNL     1      -2.356   0.711   1.222  1.00  0.00     0.035 C 
HETATM   19  C11 UNL     1      -3.654   1.400   0.839  1.00  0.00    -0.012 C 
HETATM   20  C12 UNL     1      -3.348   2.266  -0.358  1.00  0.00     0.009 C 
HETATM   21  C16 UNL     1      -4.675   0.357   0.520  1.00  0.00     0.009 C 
HETATM   22  C13 UNL     1      -2.813   1.402  -1.474  1.00  0.00    -0.012 C 
HETATM   23  C14 UNL     1      -3.929   0.461  -1.880  1.00  0.00     0.009 C 
HETATM   24  C18 UNL     1      -1.557   0.650  -1.073  1.00  0.00     0.035 C 
HETATM   25  C15 UNL     1      -4.241  -0.418  -0.698  1.00  0.00    -0.012 C 
HETATM   26  C17 UNL     1      -2.978  -1.154  -0.331  1.00  0.00     0.035 C 
ENDBRANCH   3  17
TORSDOF 3
