REMARK  5 active torsions:
REMARK  status: ('A' for Active; 'I' for Inactive)
REMARK       I    between atoms: C2_4  and  N2_5 
REMARK       I    between atoms: C2_4  and  N3_11 
REMARK    1  A    between atoms: N2_5  and  C3_7 
REMARK    2  A    between atoms: C3_7  and  C4_8 
REMARK    3  A    between atoms: N3_11  and  N4_13 
REMARK       I    between atoms: N4_13  and  C5_15 
REMARK    4  A    between atoms: N6_17  and  S1_19 
REMARK    5  A    between atoms: S1_19  and  N7_20 
ROOT
HETATM    1  C1  UNL     1       1.861  -2.810   0.278  1.00  0.00     0.165 C 
HETATM    2  N1  UNL     1       0.996  -1.730  -0.108  1.00  0.00    -0.229 N 
ATOM      3  H1  UNL     1       0.086  -1.960  -0.507  1.00  0.00     0.177 HD
HETATM    4  C2  UNL     1       1.309  -0.478   0.023  1.00  0.00     0.688 C 
HETATM    5  N2  UNL     1       2.567  -0.177   0.575  1.00  0.00    -0.215 N 
ATOM      6  H2  UNL     1       2.731  -0.487   1.533  1.00  0.00     0.178 HD
HETATM    7  N3  UNL     1       0.368   0.479  -0.396  1.00  0.00    -0.130 N 
ATOM      8  H3  UNL     1       0.498   0.892  -1.320  1.00  0.00     0.205 HD
ENDROOT
BRANCH   7   9
HETATM    9  N4  UNL     1      -0.735   0.911   0.355  1.00  0.00    -0.259 N 
HETATM   10  C5  UNL     1      -2.039   0.418   0.244  1.00  0.00     0.216 C 
HETATM   11  N5  UNL     1      -2.982   0.609   1.272  1.00  0.00    -0.061 NA
HETATM   12  N6  UNL     1      -2.427  -0.228  -0.799  1.00  0.00    -0.264 N 
ATOM     13  H6  UNL     1      -1.756  -0.375  -1.553  1.00  0.00     0.180 HD
ATOM     14  H4  UNL     1      -0.572   1.648   1.041  1.00  0.00     0.190 HD
BRANCH  12  15
HETATM   15  S1  UNL     1      -4.012  -0.855  -0.990  1.00  0.00     0.175 S 
HETATM   16  O3  UNL     1      -4.161  -2.000  -0.009  1.00  0.00    -0.216 OA
HETATM   17  S2  UNL     1      -4.236  -1.461  -2.545  1.00  0.00     0.052 SA
BRANCH  15  18
HETATM   18  N7  UNL     1      -5.235   0.276  -0.646  1.00  0.00    -0.336 N 
ATOM     19  H72 UNL     1      -5.029   1.232  -0.355  1.00  0.00     0.168 HD
ATOM     20  H71 UNL     1      -6.178  -0.097  -0.760  1.00  0.00     0.168 HD
ENDBRANCH  15  18
ENDBRANCH  12  15
ENDBRANCH   7   9
BRANCH   5  21
HETATM   21  C3  UNL     1       3.642   0.519  -0.065  1.00  0.00     0.251 C 
BRANCH  21  22
HETATM   22  C4  UNL     1       3.388   1.944  -0.267  1.00  0.00     0.191 C 
HETATM   23  O1  UNL     1       2.373   2.571   0.113  1.00  0.00    -0.647 OA
HETATM   24  O2  UNL     1       4.336   2.742  -0.948  1.00  0.00    -0.647 OA
ENDBRANCH  21  22
ENDBRANCH   5  21
TORSDOF 5
