REMARK  7 active torsions:
REMARK  status: ('A' for Active; 'I' for Inactive)
REMARK    1  A    between atoms: C2_2  and  N1_3 
REMARK    2  A    between atoms: C2_2  and  C7_11 
REMARK    3  A    between atoms: N1_3  and  C3_5 
REMARK    4  A    between atoms: C3_5  and  N2_6 
REMARK    5  A    between atoms: C7_11  and  N3_13 
REMARK    6  A    between atoms: N3_13  and  N4_15 
REMARK       I    between atoms: N4_15  and  C8_17 
REMARK       I    between atoms: C8_17  and  N5_19 
REMARK    7  A    between atoms: N5_19  and  N6_20 
REMARK       I    between atoms: N6_20  and  C9_22 
ROOT
HETATM    1  C7  UNL     1       0.298  -0.376   0.649  1.00  0.00     0.141 C 
HETATM    2  S1  UNL     1       0.601   0.947   1.573  1.00  0.00    -0.057 SA
ENDROOT
BRANCH   1   3
HETATM    3  C2  UNL     1      -1.101  -0.762   0.464  1.00  0.00     0.059 C 
HETATM    4  C1  UNL     1      -1.426  -1.801  -0.212  1.00  0.00     0.046 C 
BRANCH   3   5
HETATM    5  N1  UNL     1      -2.074   0.095   1.048  1.00  0.00    -0.372 N 
ATOM      6  H1  UNL     1      -1.734   0.976   1.434  1.00  0.00     0.161 HD
BRANCH   5   7
HETATM    7  C3  UNL     1      -3.484  -0.151   1.151  1.00  0.00     0.243 C 
BRANCH   7   8
HETATM    8  N2  UNL     1      -4.080  -0.198  -0.148  1.00  0.00    -0.381 N 
HETATM    9  C4  UNL     1      -5.379  -0.158  -0.198  1.00  0.00    -0.025 C 
HETATM   10  C5  UNL     1      -6.120  -0.224  -1.459  1.00  0.00     0.062 C 
HETATM   11  C6  UNL     1      -6.195  -0.004   1.067  1.00  0.00     0.062 C 
ATOM     12  H2  UNL     1      -3.514  -0.260  -0.994  1.00  0.00     0.160 HD
ENDBRANCH   7   8
ENDBRANCH   5   7
ENDBRANCH   3   5
ENDBRANCH   1   3
BRANCH   1  13
HETATM   13  N3  UNL     1       1.311  -1.069   0.009  1.00  0.00    -0.284 N 
ATOM     14  H3  UNL     1       1.027  -1.844  -0.590  1.00  0.00     0.188 HD
BRANCH  13  15
HETATM   15  N4  UNL     1       2.665  -0.820   0.097  1.00  0.00    -0.237 N 
HETATM   16  C8  UNL     1       3.277   0.416  -0.197  1.00  0.00     0.431 C 
HETATM   17  O1  UNL     1       2.475   1.316  -0.556  1.00  0.00    -0.227 OA
HETATM   18  N5  UNL     1       4.623   0.543  -0.067  1.00  0.00    -0.261 NA
ATOM     19  H4  UNL     1       3.268  -1.586   0.397  1.00  0.00     0.193 HD
BRANCH  18  20
HETATM   20  N6  UNL     1       5.934   0.684   0.055  1.00  0.00    -0.198 N 
HETATM   21  C9  UNL     1       6.841   0.140  -0.861  1.00  0.00     0.242 C 
HETATM   22  C10 UNL     1       8.295   0.431  -0.596  1.00  0.00     0.119 C 
HETATM   23  O2  UNL     1       6.538  -0.532  -1.835  1.00  0.00    -0.271 OA
ATOM     24  H6  UNL     1       6.297   1.211   0.849  1.00  0.00     0.205 HD
ENDBRANCH  18  20
ENDBRANCH  13  15
ENDBRANCH   1  13
TORSDOF 7
