REMARK  18 active torsions:
REMARK  status: ('A' for Active; 'I' for Inactive)
REMARK    1  A    between atoms: O1_2  and  C2_3 
REMARK    2  A    between atoms: C3_4  and  O2_5 
REMARK    3  A    between atoms: O2_5  and  C4_6 
REMARK    4  A    between atoms: C5_8  and  O4_9 
REMARK    5  A    between atoms: O4_9  and  C6_10 
REMARK    6  A    between atoms: C7_12  and  C8_13 
REMARK    7  A    between atoms: C8_13  and  N1_14 
REMARK    8  A    between atoms: C9_18  and  O6_19 
REMARK    9  A    between atoms: C11_22  and  N2_23 
REMARK   10  A    between atoms: C12_27  and  N3_28 
REMARK   11  A    between atoms: C14_33  and  N4_34 
REMARK   12  A    between atoms: C15_38  and  N5_39 
REMARK   13  A    between atoms: C17_44  and  N6_45 
REMARK   14  A    between atoms: C18_49  and  O7_50 
REMARK   15  A    between atoms: O7_50  and  C19_51 
REMARK   16  A    between atoms: C20_53  and  C21_54 
REMARK   17  A    between atoms: C21_54  and  N7_55 
REMARK   18  A    between atoms: C23_60  and  O9_61 
ROOT
HETATM    1  C4  UNL     1       0.830  -1.380   0.501  1.00  0.00     0.294 C 
HETATM    2  O3  UNL     1       2.108  -0.818   0.648  1.00  0.00    -0.327 OA
HETATM    3  C5  UNL     1       2.976  -1.437  -0.285  1.00  0.00     0.296 C 
HETATM    4  C12 UNL     1       3.145  -2.903   0.052  1.00  0.00     0.240 C 
HETATM    5  C13 UNL     1       2.236  -3.313   1.188  1.00  0.00     0.075 C 
HETATM    6  C14 UNL     1       0.831  -2.843   0.824  1.00  0.00     0.240 C 
ENDROOT
BRANCH   1   7
HETATM    7  O2  UNL     1      -0.157  -0.731   1.121  1.00  0.00    -0.349 OA
BRANCH   7   8
HETATM    8  C3  UNL     1      -1.107  -0.042   0.443  1.00  0.00     0.186 C 
HETATM    9  C2  UNL     1      -2.408  -0.689   0.734  1.00  0.00     0.183 C 
HETATM   10  C18 UNL     1      -3.502   0.289   1.130  1.00  0.00     0.186 C 
HETATM   11  C17 UNL     1      -2.954   1.145   2.213  1.00  0.00     0.217 C 
HETATM   12  C16 UNL     1      -1.962   2.072   1.565  1.00  0.00     0.071 C 
HETATM   13  C15 UNL     1      -1.057   1.439   0.591  1.00  0.00     0.217 C 
BRANCH   9  14
HETATM   14  O1  UNL     1      -2.380  -1.656   1.735  1.00  0.00    -0.385 OA
HETATM   15  C1  UNL     1      -2.974  -2.851   1.326  1.00  0.00     0.202 C 
ENDBRANCH   9  14
BRANCH  10  16
HETATM   16  O7  UNL     1      -3.943   0.954   0.028  1.00  0.00    -0.349 OA
BRANCH  16  17
HETATM   17  C19 UNL     1      -5.250   0.719  -0.320  1.00  0.00     0.289 C 
HETATM   18  O8  UNL     1      -5.975   1.905  -0.378  1.00  0.00    -0.352 OA
HETATM   19  C20 UNL     1      -7.148   1.621  -1.043  1.00  0.00     0.152 C 
HETATM   20  C22 UNL     1      -6.906   0.459  -1.956  1.00  0.00     0.070 C 
HETATM   21  C23 UNL     1      -5.412   0.193  -1.727  1.00  0.00     0.175 C 
BRANCH  19  22
HETATM   22  C21 UNL     1      -8.195   1.270  -0.007  1.00  0.00     0.261 C 
BRANCH  22  23
HETATM   23  N7  UNL     1      -8.366   2.402   0.871  1.00  0.00    -0.077 N 
ATOM     24  H73 UNL     1      -7.488   2.709   1.290  1.00  0.00     0.274 HD
ATOM     25  H72 UNL     1      -8.587   3.260   0.366  1.00  0.00     0.274 HD
ATOM     26  H71 UNL     1      -9.071   2.166   1.569  1.00  0.00     0.274 HD
ENDBRANCH  22  23
ENDBRANCH  19  22
BRANCH  21  27
HETATM   27  O9  UNL     1      -4.740   0.993  -2.655  1.00  0.00    -0.391 OA
ATOM     28  H9  UNL     1      -4.842   0.662  -3.540  1.00  0.00     0.210 HD
ENDBRANCH  21  27
ENDBRANCH  16  17
ENDBRANCH  10  16
BRANCH  11  29
HETATM   29  N6  UNL     1      -2.383   0.370   3.281  1.00  0.00    -0.072 N 
ATOM     30  H63 UNL     1      -1.561  -0.142   2.960  1.00  0.00     0.274 HD
ATOM     31  H62 UNL     1      -1.942   0.974   3.974  1.00  0.00     0.274 HD
ATOM     32  H61 UNL     1      -3.056  -0.259   3.720  1.00  0.00     0.274 HD
ENDBRANCH  11  29
BRANCH  13  33
HETATM   33  N5  UNL     1      -1.269   2.110  -0.679  1.00  0.00    -0.072 N 
ATOM     34  H53 UNL     1      -0.611   1.784  -1.387  1.00  0.00     0.274 HD
ATOM     35  H52 UNL     1      -2.138   1.809  -1.119  1.00  0.00     0.274 HD
ATOM     36  H51 UNL     1      -1.235   3.124  -0.578  1.00  0.00     0.274 HD
ENDBRANCH  13  33
ENDBRANCH   7   8
ENDBRANCH   1   7
BRANCH   6  37
HETATM   37  N4  UNL     1       0.397  -3.667  -0.309  1.00  0.00    -0.070 N 
ATOM     38  H43 UNL     1      -0.515  -3.367  -0.653  1.00  0.00     0.274 HD
ATOM     39  H42 UNL     1       0.957  -3.474  -1.140  1.00  0.00     0.274 HD
ATOM     40  H41 UNL     1       0.398  -4.663  -0.089  1.00  0.00     0.274 HD
ENDBRANCH   6  37
BRANCH   3  41
HETATM   41  O4  UNL     1       4.197  -0.826  -0.152  1.00  0.00    -0.327 OA
BRANCH  41  42
HETATM   42  C6  UNL     1       4.622  -0.168  -1.303  1.00  0.00     0.294 C 
HETATM   43  O5  UNL     1       4.689   1.170  -1.021  1.00  0.00    -0.350 OA
HETATM   44  C7  UNL     1       5.657   1.536  -0.130  1.00  0.00     0.178 C 
HETATM   45  C9  UNL     1       7.057   1.174  -0.602  1.00  0.00     0.151 C 
HETATM   46  C10 UNL     1       7.074  -0.314  -0.827  1.00  0.00     0.072 C 
HETATM   47  C11 UNL     1       5.965  -0.648  -1.799  1.00  0.00     0.240 C 
BRANCH  44  48
HETATM   48  C8  UNL     1       5.605   3.004   0.231  1.00  0.00     0.264 C 
BRANCH  48  49
HETATM   49  N1  UNL     1       6.640   3.356   1.175  1.00  0.00    -0.077 N 
ATOM     50  H13 UNL     1       6.602   2.766   2.006  1.00  0.00     0.274 HD
ATOM     51  H12 UNL     1       7.563   3.089   0.833  1.00  0.00     0.274 HD
ATOM     52  H11 UNL     1       6.605   4.346   1.418  1.00  0.00     0.274 HD
ENDBRANCH  48  49
ENDBRANCH  44  48
BRANCH  45  53
HETATM   53  O6  UNL     1       8.003   1.444   0.383  1.00  0.00    -0.393 OA
ATOM     54  H6  UNL     1       8.877   1.218   0.088  1.00  0.00     0.210 HD
ENDBRANCH  45  53
BRANCH  47  55
HETATM   55  N2  UNL     1       6.246   0.053  -3.037  1.00  0.00    -0.070 N 
ATOM     56  H23 UNL     1       5.505  -0.051  -3.730  1.00  0.00     0.274 HD
ATOM     57  H22 UNL     1       6.196   1.067  -2.940  1.00  0.00     0.274 HD
ATOM     58  H21 UNL     1       7.153  -0.271  -3.372  1.00  0.00     0.274 HD
ENDBRANCH  47  55
ENDBRANCH  41  42
ENDBRANCH   3  41
BRANCH   4  59
HETATM   59  N3  UNL     1       2.861  -3.757  -1.082  1.00  0.00    -0.070 N 
ATOM     60  H33 UNL     1       1.934  -3.570  -1.463  1.00  0.00     0.274 HD
ATOM     61  H32 UNL     1       3.424  -3.496  -1.892  1.00  0.00     0.274 HD
ATOM     62  H31 UNL     1       2.975  -4.745  -0.855  1.00  0.00     0.274 HD
ENDBRANCH   4  59
TORSDOF 18
