REMARK  18 active torsions:
REMARK  status: ('A' for Active; 'I' for Inactive)
REMARK    1  A    between atoms: O1_2  and  C2_3 
REMARK    2  A    between atoms: C3_4  and  N1_5 
REMARK    3  A    between atoms: C4_9  and  O2_10 
REMARK    4  A    between atoms: O2_10  and  C5_11 
REMARK    5  A    between atoms: C6_12  and  N2_13 
REMARK    6  A    between atoms: C9_19  and  N3_20 
REMARK    7  A    between atoms: C10_24  and  O3_25 
REMARK    8  A    between atoms: C11_27  and  N4_28 
REMARK    9  A    between atoms: N4_28  and  C12_30 
REMARK   10  A    between atoms: C12_30  and  O4_31 
REMARK   11  A    between atoms: C12_30  and  C13_33 
REMARK   12  A    between atoms: C13_33  and  N5_34 
REMARK   13  A    between atoms: C13_33  and  C14_38 
REMARK   14  A    between atoms: N9_45  and  C15_46 
REMARK   15  A    between atoms: C19_51  and  O5_52 
REMARK   16  A    between atoms: C20_54  and  C21_55 
REMARK   17  A    between atoms: C21_55  and  O6_56 
REMARK   18  A    between atoms: O6_56  and  C22_57 
ROOT
HETATM    1  C15 UNL     1       2.756   1.532   4.855  1.00  0.00     0.137 C 
HETATM    2  C16 UNL     1       4.201   1.771   5.366  1.00  0.00     0.057 C 
HETATM    3  C17 UNL     1       2.542   0.060   5.006  1.00  0.00     0.057 C 
HETATM    4  C18 UNL     1       1.930   2.330   5.783  1.00  0.00     0.092 C 
HETATM    5  N10 UNL     1       1.271   2.939   6.515  1.00  0.00    -0.195 NA
ENDROOT
BRANCH   1   6
HETATM    6  N9  UNL     1       2.730   2.023   3.509  1.00  0.00    -0.238 N 
HETATM    7  C14 UNL     1       1.795   1.926   2.583  1.00  0.00     0.152 A 
HETATM    8  N6  UNL     1       2.215   2.565   1.482  1.00  0.00    -0.270 N 
HETATM    9  N7  UNL     1       3.406   3.063   1.708  1.00  0.00    -0.227 N 
ATOM     10  H6  UNL     1       1.693   2.650   0.610  1.00  0.00     0.190 HD
HETATM   11  N8  UNL     1       3.711   2.734   2.927  1.00  0.00    -0.223 N 
ATOM     12  H7  UNL     1       3.978   3.601   1.057  1.00  0.00     0.210 HD
ATOM     13  H8  UNL     1       4.587   2.984   3.386  1.00  0.00     0.210 HD
BRANCH   7  14
HETATM   14  C13 UNL     1       0.448   1.284   2.619  1.00  0.00     0.301 C 
BRANCH  14  15
HETATM   15  C12 UNL     1       0.310   0.225   1.502  1.00  0.00     0.256 C 
BRANCH  15  16
HETATM   16  N4  UNL     1       0.528   0.773   0.228  1.00  0.00    -0.364 N 
ATOM     17  H4  UNL     1       0.750   1.765   0.149  1.00  0.00     0.162 HD
BRANCH  16  18
HETATM   18  C11 UNL     1       0.450  -0.000  -0.941  1.00  0.00     0.045 C 
HETATM   19  C4  UNL     1      -0.834  -0.548  -1.422  1.00  0.00     0.203 C 
HETATM   20  C3  UNL     1      -1.544   0.524  -2.219  1.00  0.00     0.247 C 
HETATM   21  C2  UNL     1      -0.759   0.681  -3.507  1.00  0.00     0.163 C 
HETATM   22  C20 UNL     1       0.651   1.076  -3.254  1.00  0.00     0.076 C 
HETATM   23  C19 UNL     1       1.322   0.555  -2.056  1.00  0.00     0.174 C 
BRANCH  19  24
HETATM   24  O2  UNL     1      -1.578  -1.125  -0.470  1.00  0.00    -0.368 OA
BRANCH  24  25
HETATM   25  C5  UNL     1      -1.833  -2.455  -0.553  1.00  0.00     0.183 C 
HETATM   26  C6  UNL     1      -3.244  -2.832  -0.922  1.00  0.00     0.215 C 
HETATM   27  C7  UNL     1      -3.366  -4.338  -0.781  1.00  0.00     0.037 C 
HETATM   28  C8  UNL     1      -3.308  -4.787   0.645  1.00  0.00     0.037 C 
HETATM   29  C9  UNL     1      -2.660  -3.708   1.450  1.00  0.00     0.214 C 
HETATM   30  C10 UNL     1      -1.456  -3.184   0.677  1.00  0.00     0.179 C 
BRANCH  26  31
HETATM   31  N2  UNL     1      -3.523  -2.590  -2.330  1.00  0.00    -0.072 N 
ATOM     32  H23 UNL     1      -3.319  -1.624  -2.587  1.00  0.00     0.274 HD
ATOM     33  H22 UNL     1      -2.845  -3.063  -2.928  1.00  0.00     0.274 HD
ATOM     34  H21 UNL     1      -4.478  -2.845  -2.580  1.00  0.00     0.274 HD
ENDBRANCH  26  31
BRANCH  29  35
HETATM   35  N3  UNL     1      -2.285  -4.237   2.720  1.00  0.00    -0.072 N 
ATOM     36  H33 UNL     1      -3.070  -4.667   3.208  1.00  0.00     0.274 HD
ATOM     37  H32 UNL     1      -1.697  -5.066   2.637  1.00  0.00     0.274 HD
ATOM     38  H31 UNL     1      -1.843  -3.500   3.270  1.00  0.00     0.274 HD
ENDBRANCH  29  35
BRANCH  30  39
HETATM   39  O3  UNL     1      -0.766  -4.362   0.278  1.00  0.00    -0.391 OA
ATOM     40  H3  UNL     1      -0.524  -4.830   1.068  1.00  0.00     0.210 HD
ENDBRANCH  30  39
ENDBRANCH  24  25
ENDBRANCH  19  24
BRANCH  20  41
HETATM   41  N1  UNL     1      -1.621   1.798  -1.584  1.00  0.00    -0.070 N 
ATOM     42  H13 UNL     1      -0.704   2.219  -1.436  1.00  0.00     0.274 HD
ATOM     43  H12 UNL     1      -2.007   2.518  -2.194  1.00  0.00     0.274 HD
ATOM     44  H11 UNL     1      -2.149   1.692  -0.718  1.00  0.00     0.274 HD
ENDBRANCH  20  41
BRANCH  21  45
HETATM   45  O1  UNL     1      -1.353   1.581  -4.392  1.00  0.00    -0.388 OA
HETATM   46  C1  UNL     1      -1.713   0.980  -5.581  1.00  0.00     0.202 C 
ENDBRANCH  21  45
BRANCH  22  47
HETATM   47  C21 UNL     1       0.829   2.581  -3.441  1.00  0.00     0.190 C 
BRANCH  47  48
HETATM   48  O6  UNL     1       2.163   2.969  -3.204  1.00  0.00    -0.306 OA
BRANCH  48  49
HETATM   49  C22 UNL     1       2.498   4.298  -3.342  1.00  0.00     0.372 C 
HETATM   50  N11 UNL     1       3.798   4.814  -3.128  1.00  0.00    -0.032 NA
HETATM   51  O7  UNL     1       1.604   5.147  -3.684  1.00  0.00    -0.242 OA
ENDBRANCH  48  49
ENDBRANCH  47  48
ENDBRANCH  22  47
BRANCH  23  52
HETATM   52  O5  UNL     1       2.360  -0.326  -2.356  1.00  0.00    -0.389 OA
ATOM     53  H5  UNL     1       2.905   0.021  -3.053  1.00  0.00     0.210 HD
ENDBRANCH  23  52
ENDBRANCH  16  18
ENDBRANCH  15  16
BRANCH  15  54
HETATM   54  O4  UNL     1       1.201  -0.813   1.814  1.00  0.00    -0.374 OA
ATOM     55  H4  UNL     1       1.053  -1.184   2.676  1.00  0.00     0.212 HD
ENDBRANCH  15  54
ENDBRANCH  14  15
BRANCH  14  56
HETATM   56  N5  UNL     1      -0.482   2.387   2.319  1.00  0.00    -0.064 N 
ATOM     57  H53 UNL     1      -0.344   2.777   1.387  1.00  0.00     0.275 HD
ATOM     58  H52 UNL     1      -1.443   2.069   2.193  1.00  0.00     0.275 HD
ATOM     59  H51 UNL     1      -0.391   3.086   3.056  1.00  0.00     0.275 HD
ENDBRANCH  14  56
ENDBRANCH   7  14
ENDBRANCH   1   6
TORSDOF 18
