REMARK  2 active torsions:
REMARK  status: ('A' for Active; 'I' for Inactive)
REMARK    1  A    between atoms: C2_3  and  N2_4 
REMARK    2  A    between atoms: N3_7  and  C5_8 
ROOT
HETATM    1  N1  UNL     1       5.062  -0.693  -1.938  1.00  0.00    -0.195 NA
HETATM    2  C1  UNL     1       4.494  -0.211  -1.034  1.00  0.00     0.089 C 
HETATM    3  C2  UNL     1       3.785   0.372   0.115  1.00  0.00     0.396 C 
ENDROOT
BRANCH   3   4
HETATM    4  N2  UNL     1       2.366   0.234  -0.099  1.00  0.00     0.107 N 
HETATM    5  C3  UNL     1       2.014  -1.194  -0.027  1.00  0.00     0.293 C 
HETATM    6  C4  UNL     1       0.590  -1.247  -0.579  1.00  0.00     0.152 C 
HETATM    7  N3  UNL     1      -0.253  -0.601   0.365  1.00  0.00    -0.385 N 
HETATM    8  C10 UNL     1       0.145   0.664   0.832  1.00  0.00     0.088 C 
HETATM    9  C11 UNL     1       1.612   0.844   0.979  1.00  0.00     0.318 C 
BRANCH   7  10
HETATM   10  C5  UNL     1      -1.600  -0.820   0.063  1.00  0.00     0.083 C 
HETATM   11  C6  UNL     1      -2.610  -0.267   1.024  1.00  0.00     0.025 C 
HETATM   12  C7  UNL     1      -3.237   0.937   0.397  1.00  0.00     0.002 C 
HETATM   13  C8  UNL     1      -2.745   1.039  -1.006  1.00  0.00     0.002 C 
HETATM   14  C9  UNL     1      -2.086  -0.281  -1.256  1.00  0.00     0.025 C 
ENDBRANCH   7  10
ENDBRANCH   3   4
TORSDOF 2
