REMARK  2 active torsions:
REMARK  status: ('A' for Active; 'I' for Inactive)
REMARK    1  A    between atoms: N1_4  and  C4_5 
REMARK    2  A    between atoms: C4_5  and  C5_6 
ROOT
HETATM    1  C4  UNL     1       0.359  -1.176  -0.176  1.00  0.00     0.161 C 
ENDROOT
BRANCH   1   2
HETATM    2  N1  UNL     1      -0.881  -0.482  -0.230  1.00  0.00    -0.371 N 
HETATM    3  C3  UNL     1      -1.963  -1.213  -0.751  1.00  0.00     0.063 C 
HETATM    4  C2  UNL     1      -3.325  -0.695  -0.583  1.00  0.00     0.045 C 
HETATM    5  C1  UNL     1      -3.382   0.782  -0.184  1.00  0.00     0.010 C 
HETATM    6  C10 UNL     1      -2.499   0.862   1.045  1.00  0.00     0.045 C 
HETATM    7  C9  UNL     1      -1.084   0.654   0.530  1.00  0.00     0.063 C 
ENDBRANCH   1   2
BRANCH   1   8
HETATM    8  C5  UNL     1       1.507  -0.281   0.229  1.00  0.00     0.163 C 
HETATM    9  C6  UNL     1       2.781  -1.131   0.030  1.00  0.00     0.201 C 
HETATM   10  O1  UNL     1       3.828  -0.455   0.598  1.00  0.00    -0.386 OA
HETATM   11  C7  UNL     1       3.654   0.915   0.639  1.00  0.00     0.193 C 
HETATM   12  C8  UNL     1       2.881   1.345  -0.602  1.00  0.00     0.194 C 
HETATM   13  O2  UNL     1       1.635   0.788  -0.645  1.00  0.00    -0.380 OA
ENDBRANCH   1   8
TORSDOF 2
