REMARK  9 active torsions:
REMARK  status: ('A' for Active; 'I' for Inactive)
REMARK    1  A    between atoms: C2_2  and  C3_3 
REMARK    2  A    between atoms: C3_3  and  C4_4 
REMARK    3  A    between atoms: C4_4  and  C5_5 
REMARK    4  A    between atoms: C6_6  and  C7_7 
REMARK    5  A    between atoms: C8_8  and  C9_9 
REMARK       I    between atoms: N1_12  and  C10_13 
REMARK       I    between atoms: C10_13  and  N2_15 
REMARK    6  A    between atoms: N2_15  and  C11_17 
REMARK    7  A    between atoms: C11_17  and  C12_18 
REMARK    8  A    between atoms: C12_18  and  C13_19 
REMARK    9  A    between atoms: C20_27  and  O5_29 
ROOT
HETATM    1  C7  UNL     1      -1.588   0.017  -1.581  1.00  0.00     0.052 C 
HETATM    2  C8  UNL     1      -0.559   1.042  -2.107  1.00  0.00     0.198 C 
HETATM    3  N1  UNL     1       0.585   0.802  -1.244  1.00  0.00    -0.313 N 
HETATM    4  C10 UNL     1       1.530   1.831  -0.867  1.00  0.00     0.319 C 
HETATM    5  O3  UNL     1       1.413   2.994  -1.316  1.00  0.00    -0.247 OA
HETATM    6  N2  UNL     1       2.602   1.533   0.021  1.00  0.00    -0.343 N 
ATOM      7  H2  UNL     1       2.732   0.598   0.409  1.00  0.00     0.164 HD
HETATM    8  C16 UNL     1       0.587  -0.539  -0.862  1.00  0.00     0.102 C 
HETATM    9  C17 UNL     1       1.625  -1.479  -1.404  1.00  0.00     0.057 C 
HETATM   10  C18 UNL     1       1.220  -2.849  -0.855  1.00  0.00     0.123 C 
HETATM   11  C19 UNL     1       1.215  -3.898  -1.954  1.00  0.00     0.040 C 
HETATM   12  O4  UNL     1       0.132  -2.868  -0.055  1.00  0.00    -0.350 OA
HETATM   13  C20 UNL     1      -1.032  -2.247  -0.500  1.00  0.00     0.164 C 
HETATM   14  C21 UNL     1      -1.965  -3.209  -1.206  1.00  0.00     0.079 C 
HETATM   15  C22 UNL     1      -0.700  -1.135  -1.397  1.00  0.00     0.081 C 
ENDROOT
BRANCH   2  16
HETATM   16  C9  UNL     1      -0.313   0.960  -3.527  1.00  0.00     0.197 C 
HETATM   17  O1  UNL     1       0.782   0.758  -4.060  1.00  0.00    -0.646 OA
HETATM   18  O2  UNL     1      -1.417   1.124  -4.380  1.00  0.00    -0.646 OA
ENDBRANCH   2  16
BRANCH   1  19
HETATM   19  C6  UNL     1      -2.312   0.502  -0.410  1.00  0.00    -0.023 C 
HETATM   20  C5  UNL     1      -3.628   0.548  -0.335  1.00  0.00    -0.030 C 
BRANCH  20  21
HETATM   21  C4  UNL     1      -4.270   1.059   0.901  1.00  0.00     0.027 C 
BRANCH  21  22
HETATM   22  C3  UNL     1      -5.160   0.016   1.544  1.00  0.00     0.003 C 
BRANCH  22  23
HETATM   23  C2  UNL     1      -5.772   0.607   2.786  1.00  0.00    -0.004 C 
HETATM   24  C1  UNL     1      -6.604   1.824   2.514  1.00  0.00     0.005 C 
ENDBRANCH  22  23
ENDBRANCH  21  22
ENDBRANCH  20  21
ENDBRANCH   1  19
BRANCH   6  25
HETATM   25  C11 UNL     1       3.494   2.616   0.345  1.00  0.00     0.125 C 
BRANCH  25  26
HETATM   26  C12 UNL     1       4.625   2.288   1.233  1.00  0.00     0.023 C 
BRANCH  26  27
HETATM   27  C13 UNL     1       5.637   1.352   0.686  1.00  0.00    -0.021 C 
HETATM   28  C14 UNL     1       5.162  -0.002   0.318  1.00  0.00     0.009 C 
HETATM   29  C15 UNL     1       6.786   1.216   1.716  1.00  0.00     0.009 C 
ENDBRANCH  26  27
ENDBRANCH  25  26
ENDBRANCH   6  25
BRANCH  13  30
HETATM   30  O5  UNL     1      -1.685  -1.847   0.684  1.00  0.00    -0.365 OA
ATOM     31  H5  UNL     1      -2.479  -1.423   0.380  1.00  0.00     0.213 HD
ENDBRANCH  13  30
TORSDOF 9
