REMARK  0 active torsions:
REMARK  status: ('A' for Active; 'I' for Inactive)
ROOT
HETATM    1  C1  UNL     1       3.579  -0.453   1.234  1.00  0.00     0.076 C 
HETATM    2  C2  UNL     1       2.217  -0.116   0.726  1.00  0.00     0.046 C 
HETATM    3  N1  UNL     1       1.478  -1.108   0.485  1.00  0.00    -0.368 N 
ATOM      4  H1  UNL     1       1.943  -1.994   0.683  1.00  0.00     0.161 HD
HETATM    5  C3  UNL     1       0.141  -1.292   0.000  1.00  0.00     0.110 C 
HETATM    6  C4  UNL     1       0.151  -1.349  -1.481  1.00  0.00     0.053 C 
HETATM    7  S1  UNL     1      -0.471  -2.859   0.684  1.00  0.00    -0.108 SA
HETATM    8  C5  UNL     1      -1.993  -2.179   1.428  1.00  0.00     0.309 C 
HETATM    9  N2  UNL     1      -2.068  -0.836   0.898  1.00  0.00    -0.055 N 
ATOM     10  H21 UNL     1      -2.580  -0.219   1.528  1.00  0.00     0.279 HD
ATOM     11  H22 UNL     1      -2.688  -0.793   0.089  1.00  0.00     0.279 HD
HETATM   12  C6  UNL     1      -0.817  -0.318   0.598  1.00  0.00     0.263 C 
HETATM   13  C7  UNL     1      -0.816   0.906  -0.205  1.00  0.00     0.044 A 
HETATM   14  C8  UNL     1      -1.942   1.168  -0.898  1.00  0.00     0.093 A 
HETATM   15 BR1  UNL     1      -3.408  -0.031  -0.819  1.00  0.00    -0.030 Br
HETATM   16  N3  UNL     1      -1.974   2.293  -1.647  1.00  0.00    -0.327 N 
ATOM     17  H3  UNL     1      -2.821   2.503  -2.175  1.00  0.00     0.169 HD
HETATM   18  C9  UNL     1      -0.944   3.144  -1.727  1.00  0.00     0.177 A 
HETATM   19  S2  UNL     1      -1.074   4.492  -2.668  1.00  0.00    -0.040 SA
HETATM   20  N4  UNL     1       0.178   2.883  -1.038  1.00  0.00    -0.327 N 
ATOM     21  H4  UNL     1       0.967   3.527  -1.094  1.00  0.00     0.169 HD
HETATM   22  C10 UNL     1       0.269   1.793  -0.283  1.00  0.00     0.089 A 
HETATM   23  S3  UNL     1       1.850   1.616   0.540  1.00  0.00    -0.059 SA
ENDROOT
TORSDOF 0
