REMARK  4 active torsions:
REMARK  status: ('A' for Active; 'I' for Inactive)
REMARK    1  A    between atoms: C2_2  and  C3_3 
REMARK    2  A    between atoms: C2_2  and  S1_5 
REMARK    3  A    between atoms: S1_5  and  C4_6 
REMARK    4  A    between atoms: C4_6  and  C5_7 
ROOT
HETATM    1  C5  UNL     1       0.724   0.195   0.332  1.00  0.00     0.220 C 
HETATM    2  C6  UNL     1       1.621   1.423   0.214  1.00  0.00     0.266 C 
HETATM    3  N2  UNL     1       2.732   1.178  -0.676  1.00  0.00    -0.072 N 
ATOM      4  H21 UNL     1       3.320   2.003  -0.792  1.00  0.00     0.277 HD
ATOM      5  H22 UNL     1       2.432   1.074  -1.645  1.00  0.00     0.277 HD
HETATM    6  C7  UNL     1       3.485   0.033  -0.214  1.00  0.00     0.259 C 
HETATM    7  C8  UNL     1       2.551  -1.159  -0.097  1.00  0.00     0.260 C 
HETATM    8  N3  UNL     1       1.583  -0.824   0.933  1.00  0.00    -0.067 N 
ATOM      9  H31 UNL     1       1.074  -1.629   1.298  1.00  0.00     0.277 HD
ATOM     10  H32 UNL     1       2.004  -0.539   1.817  1.00  0.00     0.277 HD
ENDROOT
BRANCH   1  11
HETATM   11  C4  UNL     1      -0.403   0.595   1.250  1.00  0.00     0.110 C 
BRANCH  11  12
HETATM   12  S1  UNL     1      -1.784  -0.564   1.218  1.00  0.00    -0.148 SA
BRANCH  12  13
HETATM   13  C2  UNL     1      -3.150   0.019   0.202  1.00  0.00     0.150 C 
HETATM   14  C1  UNL     1      -3.494  -0.953  -0.915  1.00  0.00     0.037 C 
BRANCH  13  15
HETATM   15  C3  UNL     1      -4.359   0.289   0.994  1.00  0.00     0.074 C 
HETATM   16  N1  UNL     1      -5.314   0.293   1.663  1.00  0.00    -0.196 NA
ENDBRANCH  13  15
ENDBRANCH  12  13
ENDBRANCH  11  12
ENDBRANCH   1  11
TORSDOF 4
