REMARK  5 active torsions:
REMARK  status: ('A' for Active; 'I' for Inactive)
REMARK    1  A    between atoms: C7_8  and  C8_9 
REMARK    2  A    between atoms: C8_9  and  C9_10 
REMARK    3  A    between atoms: C13_16  and  S1_17 
REMARK    4  A    between atoms: S1_17  and  N3_20 
REMARK    5  A    between atoms: N3_20  and  C14_22 
ROOT
HETATM    1  N1  UNL     1      -5.870  -3.143   0.280  1.00  0.00    -0.191 NA
HETATM    2  C1  UNL     1      -5.690  -2.006   0.183  1.00  0.00     0.100 C 
HETATM    3  C2  UNL     1      -5.506  -0.590   0.060  1.00  0.00     0.051 A 
HETATM    4  C3  UNL     1      -6.368   0.243   0.766  1.00  0.00     0.023 A 
HETATM    5  C4  UNL     1      -6.262   1.602   0.645  1.00  0.00     0.002 A 
HETATM    6  C5  UNL     1      -5.294   2.138  -0.183  1.00  0.00     0.001 A 
HETATM    7  C6  UNL     1      -4.438   1.336  -0.885  1.00  0.00     0.009 A 
HETATM    8  C7  UNL     1      -4.536  -0.056  -0.767  1.00  0.00    -0.032 A 
ENDROOT
BRANCH   8   9
HETATM    9  C8  UNL     1      -3.584  -0.876  -1.527  1.00  0.00     0.098 C 
BRANCH   9  10
HETATM   10  C9  UNL     1      -2.436  -1.381  -0.751  1.00  0.00     0.024 A 
HETATM   11  N2  UNL     1      -2.306  -2.641  -0.261  1.00  0.00    -0.367 N 
HETATM   12  C10 UNL     1      -1.152  -2.781   0.404  1.00  0.00     0.100 A 
ATOM     13  H2  UNL     1      -2.996  -3.382  -0.383  1.00  0.00     0.165 HD
HETATM   14  C11 UNL     1      -0.469  -1.584   0.369  1.00  0.00    -0.007 A 
HETATM   15  C12 UNL     1       0.769  -1.207   0.889  1.00  0.00     0.039 A 
HETATM   16  C21 UNL     1      -1.272  -0.712  -0.354  1.00  0.00    -0.002 A 
HETATM   17  C13 UNL     1       1.200   0.078   0.671  1.00  0.00     0.080 A 
HETATM   18  C19 UNL     1       0.421   0.954  -0.043  1.00  0.00     0.026 A 
HETATM   19  C20 UNL     1      -0.812   0.560  -0.555  1.00  0.00     0.016 A 
BRANCH  17  20
HETATM   20  S1  UNL     1       2.760   0.595   1.334  1.00  0.00     0.264 S 
HETATM   21  O1  UNL     1       2.805   2.118   1.306  1.00  0.00    -0.200 OA
HETATM   22  O2  UNL     1       2.874   0.137   2.738  1.00  0.00    -0.200 OA
BRANCH  20  23
HETATM   23  N3  UNL     1       3.987   0.035   0.293  1.00  0.00    -0.266 N 
ATOM     24  H3  UNL     1       3.716  -0.678  -0.384  1.00  0.00     0.180 HD
BRANCH  23  25
HETATM   25  C14 UNL     1       5.204   0.407   0.265  1.00  0.00     0.114 A 
HETATM   26  C15 UNL     1       5.801   1.338   1.058  1.00  0.00     0.049 A 
HETATM   27  C16 UNL     1       7.161   1.634   0.927  1.00  0.00     0.005 A 
HETATM   28  C17 UNL     1       7.882   0.963  -0.022  1.00  0.00     0.017 A 
HETATM   29  C18 UNL     1       7.274   0.015  -0.830  1.00  0.00     0.089 A 
HETATM   30  N4  UNL     1       5.979  -0.232  -0.668  1.00  0.00    -0.352 N 
ATOM     31  H4  UNL     1       5.540  -0.931  -1.267  1.00  0.00     0.166 HD
ENDBRANCH  23  25
ENDBRANCH  20  23
ENDBRANCH  17  20
ENDBRANCH   9  10
ENDBRANCH   8   9
TORSDOF 5
