REMARK  3 active torsions:
REMARK  status: ('A' for Active; 'I' for Inactive)
REMARK    1  A    between atoms: N2_4  and  N3_6 
REMARK    2  A    between atoms: C1_8  and  N4_9 
REMARK    3  A    between atoms: N4_9  and  C2_11 
ROOT
HETATM    1  N3  UNL     1       2.138  -1.288   0.425  1.00  0.00    -0.283 N 
ATOM      2  H3  UNL     1       1.696  -2.085   0.883  1.00  0.00     0.189 HD
HETATM    3  C1  UNL     1       1.386  -0.419  -0.198  1.00  0.00     0.196 C 
ENDROOT
BRANCH   3   4
HETATM    4  N4  UNL     1      -0.021  -0.597  -0.228  1.00  0.00    -0.356 N 
ATOM      5  H4  UNL     1      -0.437  -1.356  -0.768  1.00  0.00     0.162 HD
BRANCH   4   6
HETATM    6  C2  UNL     1      -0.855   0.317   0.520  1.00  0.00     0.310 A 
HETATM    7  C3  UNL     1      -2.317   0.177   0.515  1.00  0.00     0.289 A 
HETATM    8  N5  UNL     1      -1.724   1.120  -0.422  1.00  0.00    -0.049 N 
ATOM      9  H52 UNL     1      -1.846   2.111  -0.631  1.00  0.00     0.279 HD
ATOM     10  H51 UNL     1      -1.762   1.263  -1.431  1.00  0.00     0.279 HD
ENDBRANCH   4   6
ENDBRANCH   3   4
BRANCH   1  11
HETATM   11  N2  UNL     1       3.508  -1.161   0.483  1.00  0.00    -0.248 N 
HETATM   12  N1  UNL     1       4.072  -0.077   0.139  1.00  0.00    -0.331 N 
ATOM     13  H12 UNL     1       3.491   0.698  -0.181  1.00  0.00     0.178 HD
ATOM     14  H11 UNL     1       5.087   0.017   0.182  1.00  0.00     0.178 HD
ATOM     15  H2  UNL     1       4.075  -1.945   0.805  1.00  0.00     0.207 HD
ENDBRANCH   1  11
TORSDOF 3
