REMARK  6 active torsions:
REMARK  status: ('A' for Active; 'I' for Inactive)
REMARK    1  A    between atoms: O1_2  and  C2_3 
REMARK       I    between atoms: C2_3  and  N1_5 
REMARK       I    between atoms: C3_7  and  N2_8 
REMARK       I    between atoms: C3_7  and  N4_14 
REMARK    2  A    between atoms: N2_8  and  N3_10 
REMARK    3  A    between atoms: N3_10  and  C4_12 
REMARK       I    between atoms: N4_14  and  C5_16 
REMARK    4  A    between atoms: C5_16  and  C6_18 
REMARK    5  A    between atoms: C6_18  and  O5_19 
REMARK    6  A    between atoms: C6_18  and  C7_21 
ROOT
HETATM    1  C2  UNL     1       2.830   1.361  -0.277  1.00  0.00     0.378 C 
HETATM    2  O2  UNL     1       1.844   2.118  -0.607  1.00  0.00    -0.238 OA
HETATM    3  N1  UNL     1       2.813  -0.021  -0.299  1.00  0.00    -0.134 N 
ATOM      4  H1  UNL     1       3.646  -0.492  -0.651  1.00  0.00     0.189 HD
HETATM    5  C3  UNL     1       1.843  -0.759   0.084  1.00  0.00     0.704 C 
HETATM    6  N2  UNL     1       2.161  -2.173  -0.076  1.00  0.00    -0.130 N 
ATOM      7  H2  UNL     1       2.056  -2.817   0.708  1.00  0.00     0.205 HD
HETATM    8  N4  UNL     1       0.621  -0.308   0.610  1.00  0.00    -0.156 N 
ATOM      9  H4  UNL     1       0.483   0.697   0.714  1.00  0.00     0.187 HD
HETATM   10  C5  UNL     1      -0.419  -1.162   1.000  1.00  0.00     0.269 C 
HETATM   11  O4  UNL     1      -0.271  -2.399   0.878  1.00  0.00    -0.269 OA
ENDROOT
BRANCH   6  12
HETATM   12  N3  UNL     1       2.606  -2.629  -1.300  1.00  0.00    -0.263 N 
ATOM     13  H3  UNL     1       2.744  -1.963  -2.060  1.00  0.00     0.190 HD
BRANCH  12  14
HETATM   14  C4  UNL     1       2.875  -4.004  -1.523  1.00  0.00     0.369 C 
HETATM   15  O3  UNL     1       2.718  -4.845  -0.627  1.00  0.00    -0.282 OA
ENDBRANCH  12  14
ENDBRANCH   6  12
BRANCH   1  16
HETATM   16  O1  UNL     1       3.980   2.083   0.126  1.00  0.00    -0.308 OA
HETATM   17  C1  UNL     1       3.954   3.492   0.128  1.00  0.00     0.215 C 
ENDBRANCH   1  16
BRANCH  10  18
HETATM   18  C6  UNL     1      -1.689  -0.683   1.555  1.00  0.00     0.243 C 
BRANCH  18  19
HETATM   19  O5  UNL     1      -2.497  -1.747   2.008  1.00  0.00    -0.381 OA
ATOM     20  H5  UNL     1      -3.320  -1.437   2.368  1.00  0.00     0.211 HD
ENDBRANCH  18  19
BRANCH  18  21
HETATM   21  C7  UNL     1      -2.528   0.110   0.645  1.00  0.00    -0.021 A 
HETATM   22  C8  UNL     1      -2.170   0.536  -0.606  1.00  0.00     0.010 A 
HETATM   23  C9  UNL     1      -3.089   1.275  -1.316  1.00  0.00     0.001 A 
HETATM   24  C10 UNL     1      -4.339   1.600  -0.824  1.00  0.00     0.000 A 
HETATM   25  C11 UNL     1      -4.707   1.176   0.432  1.00  0.00     0.001 A 
HETATM   26  C12 UNL     1      -3.797   0.435   1.154  1.00  0.00     0.010 A 
ENDBRANCH  18  21
ENDBRANCH  10  18
TORSDOF 6
