REMARK  13 active torsions:
REMARK  status: ('A' for Active; 'I' for Inactive)
REMARK    1  A    between atoms: C2_2  and  C16_32 
REMARK    2  A    between atoms: N1_3  and  C3_5 
REMARK    3  A    between atoms: C3_5  and  O1_6 
REMARK    4  A    between atoms: C4_8  and  C5_9 
REMARK    5  A    between atoms: C4_8  and  N2_16 
REMARK    6  A    between atoms: C5_9  and  C6_10 
REMARK    7  A    between atoms: N2_16  and  C12_17 
REMARK    8  A    between atoms: C12_17  and  O2_18 
REMARK    9  A    between atoms: C13_20  and  N3_21 
REMARK       I    between atoms: N3_21  and  C14_23 
REMARK   10  A    between atoms: C14_23  and  C15_25 
REMARK       I    between atoms: C15_25  and  N4_27 
REMARK   11  A    between atoms: N4_27  and  N5_29 
REMARK   12  A    between atoms: C16_32  and  N6_33 
REMARK   13  A    between atoms: C16_32  and  N7_37 
ROOT
HETATM    1  C3  UNL     1      -0.567   1.238   0.609  1.00  0.00     0.177 C 
HETATM    2  C4  UNL     1       0.053   0.064   0.240  1.00  0.00     0.138 C 
ENDROOT
BRANCH   2   3
HETATM    3  C5  UNL     1      -0.962  -0.990   1.294  1.00  0.00     0.082 C 
BRANCH   3   4
HETATM    4  C6  UNL     1      -2.108  -1.265   0.512  1.00  0.00    -0.008 C 
HETATM    5  C7  UNL     1      -3.133  -0.455  -0.133  1.00  0.00     0.005 C 
HETATM    6  C8  UNL     1      -3.914  -1.333  -1.160  1.00  0.00     0.000 C 
HETATM    7  C9  UNL     1      -3.685  -2.800  -0.912  1.00  0.00     0.000 C 
HETATM    8  C10 UNL     1      -3.926  -3.026   0.605  1.00  0.00     0.000 C 
HETATM    9  C11 UNL     1      -2.907  -2.307   1.416  1.00  0.00     0.005 C 
ENDBRANCH   3   4
ENDBRANCH   2   3
BRANCH   2  10
HETATM   10  N2  UNL     1       0.688  -1.038  -0.136  1.00  0.00    -0.380 NA
BRANCH  10  11
HETATM   11  C12 UNL     1       1.316  -2.174  -0.556  1.00  0.00     0.230 C 
HETATM   12  C13 UNL     1       2.362  -2.864   0.135  1.00  0.00     0.163 C 
BRANCH  11  13
HETATM   13  O2  UNL     1       0.956  -2.782  -1.660  1.00  0.00    -0.335 OA
ATOM     14  H2  UNL     1       1.393  -3.573  -1.952  1.00  0.00     0.220 HD
ENDBRANCH  11  13
BRANCH  12  15
HETATM   15  N3  UNL     1       3.410  -2.167   0.786  1.00  0.00    -0.324 N 
HETATM   16  C14 UNL     1       4.423  -1.536  -0.050  1.00  0.00     0.315 C 
HETATM   17  O3  UNL     1       4.336  -1.618  -1.293  1.00  0.00    -0.262 OA
ATOM     18  H3  UNL     1       3.454  -2.109   1.803  1.00  0.00     0.168 HD
BRANCH  16  19
HETATM   19  C15 UNL     1       5.540  -0.845   0.587  1.00  0.00     0.327 C 
HETATM   20  O4  UNL     1       5.481  -0.522   1.766  1.00  0.00    -0.261 OA
HETATM   21  N4  UNL     1       6.725  -0.535  -0.218  1.00  0.00    -0.268 N 
ATOM     22  H4  UNL     1       6.725  -0.851  -1.188  1.00  0.00     0.190 HD
BRANCH  21  23
HETATM   23  N5  UNL     1       7.831   0.141   0.219  1.00  0.00    -0.342 N 
ATOM     24  H52 UNL     1       7.813   0.449   1.191  1.00  0.00     0.176 HD
ATOM     25  H51 UNL     1       8.656   0.357  -0.341  1.00  0.00     0.176 HD
ENDBRANCH  21  23
ENDBRANCH  16  19
ENDBRANCH  12  15
ENDBRANCH  10  11
ENDBRANCH   2  10
BRANCH   1  26
HETATM   26  N1  UNL     1      -0.439   2.550   0.113  1.00  0.00    -0.338 N 
HETATM   27  C2  UNL     1      -1.178   3.417  -0.282  1.00  0.00     0.042 C 
HETATM   28  C1  UNL     1      -2.645   3.414  -0.426  1.00  0.00     0.067 C 
ATOM     29  H1  UNL     1       0.537   2.845   0.079  1.00  0.00     0.167 HD
BRANCH  27  30
HETATM   30  C16 UNL     1      -0.491   4.810  -0.517  1.00  0.00     0.422 C 
BRANCH  30  31
HETATM   31  N6  UNL     1      -0.317   4.884  -1.935  1.00  0.00    -0.045 N 
ATOM     32  H63 UNL     1       0.191   4.095  -2.335  1.00  0.00     0.277 HD
ATOM     33  H62 UNL     1      -1.175   4.747  -2.469  1.00  0.00     0.277 HD
ATOM     34  H61 UNL     1       0.129   5.789  -2.088  1.00  0.00     0.277 HD
ENDBRANCH  30  31
BRANCH  30  35
HETATM   35  N7  UNL     1       0.769   4.848   0.104  1.00  0.00    -0.045 N 
ATOM     36  H73 UNL     1       0.710   4.616   1.096  1.00  0.00     0.277 HD
ATOM     37  H72 UNL     1       1.364   4.076  -0.197  1.00  0.00     0.277 HD
ATOM     38  H71 UNL     1       1.215   5.753  -0.049  1.00  0.00     0.277 HD
ENDBRANCH  30  35
ENDBRANCH  27  30
ENDBRANCH   1  26
BRANCH   1  39
HETATM   39  O1  UNL     1      -1.472   1.236   1.638  1.00  0.00    -0.344 OA
ATOM     40  H1  UNL     1      -1.558   0.351   1.973  1.00  0.00     0.219 HD
ENDBRANCH   1  39
TORSDOF 13
