REMARK  6 active torsions:
REMARK  status: ('A' for Active; 'I' for Inactive)
REMARK    1  A    between atoms: C6_6  and  C7_7 
REMARK    2  A    between atoms: C11_13  and  N1_14 
REMARK       I    between atoms: N1_14  and  C12_16 
REMARK    3  A    between atoms: C12_16  and  C13_18 
REMARK    4  A    between atoms: C13_18  and  N2_19 
REMARK    5  A    between atoms: N2_19  and  S1_21 
REMARK    6  A    between atoms: S1_21  and  C14_24 
ROOT
HETATM    1  N1  UNL     1      -0.309  -1.204  -0.002  1.00  0.00    -0.354 N 
ATOM      2  H1  UNL     1      -0.394  -1.620   0.926  1.00  0.00     0.162 HD
HETATM    3  C12 UNL     1       0.878  -1.517  -0.814  1.00  0.00     0.236 C 
HETATM    4  O3  UNL     1       0.936  -1.009  -1.920  1.00  0.00    -0.272 OA
ENDROOT
BRANCH   1   5
HETATM    5  C11 UNL     1      -1.328  -0.353  -0.460  1.00  0.00     0.092 C 
HETATM    6  C4  UNL     1      -2.591  -1.149  -0.797  1.00  0.00     0.011 C 
HETATM    7  C3  UNL     1      -3.421  -1.459   0.412  1.00  0.00     0.015 C 
HETATM    8  C5  UNL     1      -3.400  -0.276  -1.721  1.00  0.00     0.027 C 
HETATM    9  C2  UNL     1      -3.816  -0.168   1.102  1.00  0.00    -0.042 C 
HETATM   10  C1  UNL     1      -4.737  -0.480   2.273  1.00  0.00     0.015 C 
HETATM   11  C10 UNL     1      -2.546   0.483   1.574  1.00  0.00     0.015 C 
HETATM   12  C19 UNL     1      -4.605   0.696   0.152  1.00  0.00     0.029 C 
HETATM   13  C9  UNL     1      -1.682   0.818   0.393  1.00  0.00     0.011 C 
HETATM   14  C8  UNL     1      -2.511   1.740  -0.503  1.00  0.00     0.027 C 
HETATM   15  C6  UNL     1      -3.717   1.024  -1.036  1.00  0.00     0.050 C 
BRANCH  15  16
HETATM   16  C7  UNL     1      -4.392   1.894  -2.017  1.00  0.00     0.181 C 
HETATM   17  O1  UNL     1      -4.655   1.527  -3.197  1.00  0.00    -0.647 OA
HETATM   18  O2  UNL     1      -4.757   3.183  -1.659  1.00  0.00    -0.647 OA
ENDBRANCH  15  16
ENDBRANCH   1   5
BRANCH   3  19
HETATM   19  C13 UNL     1       1.862  -2.450  -0.225  1.00  0.00     0.234 C 
BRANCH  19  20
HETATM   20  N2  UNL     1       3.068  -2.070  -0.941  1.00  0.00    -0.310 N 
ATOM     21  H2  UNL     1       3.426  -2.310  -1.865  1.00  0.00     0.172 HD
BRANCH  20  22
HETATM   22  S1  UNL     1       3.709  -1.022   0.386  1.00  0.00     0.231 S 
HETATM   23  O4  UNL     1       3.524  -1.439   1.733  1.00  0.00    -0.206 OA
HETATM   24  O5  UNL     1       2.747   0.211   0.164  1.00  0.00    -0.206 OA
BRANCH  22  25
HETATM   25  C14 UNL     1       5.318  -0.502  -0.023  1.00  0.00     0.129 C 
HETATM   26  C15 UNL     1       5.865   0.323   1.139  1.00  0.00     0.022 C 
HETATM   27  C16 UNL     1       6.892   1.170   0.433  1.00  0.00     0.001 C 
HETATM   28  C17 UNL     1       6.071   1.719  -0.724  1.00  0.00     0.001 C 
HETATM   29  C18 UNL     1       5.356   0.492  -1.211  1.00  0.00     0.022 C 
ENDBRANCH  22  25
ENDBRANCH  20  22
ENDBRANCH  19  20
ENDBRANCH   3  19
TORSDOF 6
