REMARK  5 active torsions:
REMARK  status: ('A' for Active; 'I' for Inactive)
REMARK    1  A    between atoms: O1_2  and  C2_3 
REMARK    2  A    between atoms: C2_3  and  C3_5 
REMARK    3  A    between atoms: C4_6  and  C5_7 
REMARK    4  A    between atoms: C5_7  and  C6_8 
REMARK    5  A    between atoms: C6_8  and  C7_9 
ROOT
HETATM    1  C3  UNL     1      -0.308   0.621   0.677  1.00  0.00     0.117 A 
HETATM    2  C4  UNL     1       0.521   0.617  -0.422  1.00  0.00    -0.023 A 
HETATM    3  C11 UNL     1      -0.333   0.415  -1.514  1.00  0.00     0.038 A 
HETATM    4  C12 UNL     1      -1.635   0.304  -1.058  1.00  0.00     0.047 A 
HETATM    5  N1  UNL     1      -1.579   0.433   0.272  1.00  0.00    -0.339 N 
HETATM    6  C13 UNL     1      -2.788   0.358   1.050  1.00  0.00     0.166 C 
HETATM    7  C14 UNL     1      -3.970  -0.166   0.283  1.00  0.00     0.071 C 
HETATM    8  C15 UNL     1      -3.972  -1.698   0.393  1.00  0.00     0.047 C 
HETATM    9  C16 UNL     1      -5.220   0.312   0.992  1.00  0.00     0.047 C 
HETATM   10  O3  UNL     1      -4.028   0.255  -1.011  1.00  0.00    -0.363 OA
HETATM   11  C17 UNL     1      -2.912   0.092  -1.763  1.00  0.00     0.097 C 
HETATM   12  C18 UNL     1      -2.999   1.134  -2.895  1.00  0.00     0.052 C 
HETATM   13  C19 UNL     1      -2.834  -1.249  -2.466  1.00  0.00     0.052 C 
ENDROOT
BRANCH   2  14
HETATM   14  C5  UNL     1       2.004   0.757  -0.485  1.00  0.00     0.042 C 
BRANCH  14  15
HETATM   15  C6  UNL     1       2.672  -0.529  -0.158  1.00  0.00     0.013 C 
BRANCH  15  16
HETATM   16  C7  UNL     1       4.176  -0.457  -0.194  1.00  0.00    -0.051 C 
HETATM   17  C8  UNL     1       4.744  -1.835   0.158  1.00  0.00     0.014 C 
HETATM   18  C9  UNL     1       4.748   0.505   0.794  1.00  0.00     0.014 C 
HETATM   19  C10 UNL     1       4.645  -0.146  -1.604  1.00  0.00     0.014 C 
ENDBRANCH  15  16
ENDBRANCH  14  15
ENDBRANCH   2  14
BRANCH   1  20
HETATM   20  C2  UNL     1       0.115   0.833   2.068  1.00  0.00     0.310 C 
HETATM   21  O2  UNL     1      -0.760   0.797   2.993  1.00  0.00    -0.258 OA
BRANCH  20  22
HETATM   22  O1  UNL     1       1.398   1.074   2.466  1.00  0.00    -0.321 OA
HETATM   23  C1  UNL     1       1.732   1.271   3.829  1.00  0.00     0.213 C 
ENDBRANCH  20  22
ENDBRANCH   1  20
TORSDOF 5
