REMARK  4 active torsions:
REMARK  status: ('A' for Active; 'I' for Inactive)
REMARK    1  A    between atoms: S1_2  and  C2_3 
REMARK    2  A    between atoms: C2_3  and  O1_7 
REMARK    3  A    between atoms: O1_7  and  C3_8 
REMARK    4  A    between atoms: C5_11  and  C6_12 
ROOT
HETATM    1  C3  UNL     1      -0.303  -1.450   0.874  1.00  0.00     0.159 C 
HETATM    2  C4  UNL     1       0.454  -2.613   1.279  1.00  0.00     0.125 C 
HETATM    3  N2  UNL     1       1.050  -3.549   1.609  1.00  0.00    -0.189 NA
HETATM    4  C5  UNL     1      -1.610  -1.548   0.797  1.00  0.00     0.067 C 
ENDROOT
BRANCH   1   5
HETATM    5  O1  UNL     1       0.293  -0.256   0.570  1.00  0.00    -0.277 OA
BRANCH   5   6
HETATM    6  C2  UNL     1       1.577  -0.170   0.082  1.00  0.00     0.181 C 
HETATM    7  N1  UNL     1       2.015  -1.149  -0.627  1.00  0.00    -0.374 N 
ATOM      8  H12 UNL     1       2.967  -1.085  -0.989  1.00  0.00     0.158 HD
ATOM      9  H11 UNL     1       1.411  -1.951  -0.809  1.00  0.00     0.158 HD
BRANCH   6  10
HETATM   10  S1  UNL     1       2.631   1.229   0.399  1.00  0.00    -0.091 SA
HETATM   11  C1  UNL     1       4.241   1.023  -0.382  1.00  0.00     0.099 C 
ENDBRANCH   6  10
ENDBRANCH   5   6
ENDBRANCH   1   5
BRANCH   4  12
HETATM   12  C6  UNL     1      -2.405  -0.380   0.386  1.00  0.00     0.009 A 
HETATM   13  C7  UNL     1      -2.166   0.567  -0.567  1.00  0.00     0.038 A 
HETATM   14  C8  UNL     1      -3.083   1.543  -0.725  1.00  0.00     0.018 A 
HETATM   15 BR1  UNL     1      -2.902   2.968  -2.030  1.00  0.00    -0.051 Br
HETATM   16  C9  UNL     1      -4.181   1.506   0.084  1.00  0.00     0.069 A 
HETATM   17  S2  UNL     1      -3.911   0.121   1.038  1.00  0.00    -0.101 SA
ENDBRANCH   4  12
TORSDOF 4
