REMARK  8 active torsions:
REMARK  status: ('A' for Active; 'I' for Inactive)
REMARK    1  A    between atoms: C2_2  and  C4_4 
REMARK    2  A    between atoms: C4_4  and  N1_5 
REMARK    3  A    between atoms: C4_4  and  N2_9 
REMARK       I    between atoms: N2_9  and  C5_11 
REMARK    4  A    between atoms: C5_11  and  C6_13 
REMARK    5  A    between atoms: C6_13  and  C7_14 
REMARK    6  A    between atoms: C6_13  and  N3_16 
REMARK    7  A    between atoms: N3_16  and  S2_18 
REMARK    8  A    between atoms: S2_18  and  C8_21 
ROOT
HETATM    1  C6  UNL     1      -0.098  -1.700   1.069  1.00  0.00     0.195 C 
ENDROOT
BRANCH   1   2
HETATM    2  C5  UNL     1       0.549  -1.222  -0.163  1.00  0.00     0.243 C 
HETATM    3  N2  UNL     1       1.765  -0.490  -0.177  1.00  0.00    -0.331 N 
ATOM      4  H2  UNL     1       2.220  -0.281   0.712  1.00  0.00     0.164 HD
HETATM    5  O1  UNL     1       0.009  -1.463  -1.300  1.00  0.00    -0.271 OA
BRANCH   3   6
HETATM    6  C4  UNL     1       2.378  -0.034  -1.383  1.00  0.00     0.287 C 
BRANCH   6   7
HETATM    7  C2  UNL     1       2.541   1.458  -1.465  1.00  0.00     0.027 C 
HETATM    8  C1  UNL     1       3.526   1.934  -0.393  1.00  0.00     0.013 C 
HETATM    9  C3  UNL     1       1.259   2.214  -1.292  1.00  0.00     0.013 C 
ENDBRANCH   6   7
BRANCH   6  10
HETATM   10  N1  UNL     1       3.680  -0.635  -1.599  1.00  0.00    -0.058 N 
ATOM     11  H13 UNL     1       4.116  -0.332  -2.470  1.00  0.00     0.276 HD
ATOM     12  H12 UNL     1       4.391  -0.279  -0.960  1.00  0.00     0.276 HD
ATOM     13  H11 UNL     1       3.569  -1.647  -1.543  1.00  0.00     0.276 HD
ENDBRANCH   6  10
ENDBRANCH   3   6
ENDBRANCH   1   2
BRANCH   1  14
HETATM   14  C7  UNL     1       0.793  -2.633   1.873  1.00  0.00     0.121 C 
HETATM   15  S1  UNL     1       1.214  -4.069   0.884  1.00  0.00    -0.095 SA
ENDBRANCH   1  14
BRANCH   1  16
HETATM   16  N3  UNL     1      -1.304  -2.402   0.755  1.00  0.00    -0.301 N 
ATOM     17  H3  UNL     1      -1.328  -3.216   0.141  1.00  0.00     0.173 HD
BRANCH  16  18
HETATM   18  S2  UNL     1      -2.705  -1.755   1.502  1.00  0.00     0.259 S 
HETATM   19  O2  UNL     1      -2.587  -1.802   2.999  1.00  0.00    -0.201 OA
HETATM   20  O3  UNL     1      -3.876  -2.577   1.039  1.00  0.00    -0.201 OA
BRANCH  18  21
HETATM   21  C8  UNL     1      -3.012  -0.107   1.000  1.00  0.00     0.079 A 
HETATM   22  C9  UNL     1      -2.501   0.981   1.668  1.00  0.00     0.025 A 
HETATM   23  C10 UNL     1      -2.746   2.269   1.267  1.00  0.00     0.002 A 
HETATM   24  C11 UNL     1      -3.540   2.469   0.144  1.00  0.00     0.000 A 
HETATM   25  C12 UNL     1      -4.068   1.402  -0.550  1.00  0.00     0.002 A 
HETATM   26  C13 UNL     1      -3.795   0.123  -0.110  1.00  0.00     0.025 A 
ENDBRANCH  18  21
ENDBRANCH  16  18
ENDBRANCH   1  16
TORSDOF 8
