REMARK  16 active torsions:
REMARK  status: ('A' for Active; 'I' for Inactive)
REMARK    1  A    between atoms: C2_2  and  O1_4 
REMARK    2  A    between atoms: C2_2  and  C4_6 
REMARK    3  A    between atoms: C4_6  and  O2_7 
REMARK    4  A    between atoms: C4_6  and  N1_9 
REMARK    5  A    between atoms: N1_9  and  C5_11 
REMARK    6  A    between atoms: C6_14  and  C7_15 
REMARK    7  A    between atoms: N3_17  and  O3_18 
REMARK    8  A    between atoms: C11_26  and  O4_27 
REMARK    9  A    between atoms: N8_35  and  C13_36 
REMARK   10  A    between atoms: C13_36  and  N9_37 
REMARK   11  A    between atoms: C13_36  and  C14_41 
REMARK   12  A    between atoms: C14_41  and  O5_42 
REMARK   13  A    between atoms: C14_41  and  O6_44 
REMARK   14  A    between atoms: C15_49  and  C16_50 
REMARK   15  A    between atoms: C16_50  and  N11_51 
REMARK   16  A    between atoms: C16_50  and  O8_55 
ROOT
HETATM    1  C7  UNL     1      -0.267  -1.852  -0.517  1.00  0.00     0.180 C 
HETATM    2  C8  UNL     1      -0.480  -2.119  -1.977  1.00  0.00     0.211 C 
HETATM    3  N3  UNL     1      -1.868  -2.555  -2.183  1.00  0.00    -0.185 N 
HETATM    4  N4  UNL     1      -3.020  -2.162  -1.454  1.00  0.00    -0.219 N 
ATOM      5  H4  UNL     1      -3.856  -2.718  -1.634  1.00  0.00     0.210 HD
HETATM    6  N5  UNL     1      -3.169  -1.224  -0.612  1.00  0.00    -0.268 N 
ATOM      7  H5  UNL     1      -4.096  -1.117  -0.200  1.00  0.00     0.190 HD
HETATM    8  C9  UNL     1      -2.173  -0.314  -0.191  1.00  0.00     0.150 C 
HETATM    9  C10 UNL     1      -2.486   1.024   0.251  1.00  0.00     0.150 A 
HETATM   10  C11 UNL     1      -1.535   1.951   0.693  1.00  0.00     0.187 A 
HETATM   11  N6  UNL     1      -2.168   3.069   1.029  1.00  0.00    -0.168 N 
ATOM     12  H6  UNL     1      -1.728   3.917   1.386  1.00  0.00     0.186 HD
HETATM   13  C12 UNL     1      -3.520   2.893   0.815  1.00  0.00     0.682 A 
HETATM   14  N7  UNL     1      -4.339   3.828   1.074  1.00  0.00    -0.234 N 
ATOM     15  H71 UNL     1      -5.338   3.698   0.916  1.00  0.00     0.174 HD
ATOM     16  H72 UNL     1      -4.221   4.776   1.432  1.00  0.00     0.174 HD
HETATM   17  N8  UNL     1      -3.678   1.622   0.335  1.00  0.00    -0.140 N 
HETATM   18  N10 UNL     1      -0.888  -0.617  -0.158  1.00  0.00    -0.359 N 
ATOM     19  H10 UNL     1      -0.262   0.122   0.163  1.00  0.00     0.162 HD
ENDROOT
BRANCH   1  20
HETATM   20  C6  UNL     1       1.144  -1.895  -0.098  1.00  0.00     0.150 A 
HETATM   21  N2  UNL     1       2.066  -0.933  -0.235  1.00  0.00    -0.322 N 
HETATM   22  C5  UNL     1       3.245  -1.299   0.253  1.00  0.00     0.143 A 
ATOM     23  H2  UNL     1       1.884  -0.026  -0.664  1.00  0.00     0.169 HD
HETATM   24  C15 UNL     1       3.030  -2.589   0.728  1.00  0.00     0.154 A 
HETATM   25  O7  UNL     1       1.783  -2.876   0.492  1.00  0.00    -0.291 OA
BRANCH  22  26
HETATM   26  N1  UNL     1       4.481  -0.638   0.330  1.00  0.00    -0.322 N 
ATOM     27  H1  UNL     1       5.221  -1.187   0.768  1.00  0.00     0.169 HD
BRANCH  26  28
HETATM   28  C4  UNL     1       4.878   0.619  -0.079  1.00  0.00     0.151 C 
BRANCH  28  29
HETATM   29  C2  UNL     1       4.211   1.731  -0.731  1.00  0.00     0.115 C 
HETATM   30  C1  UNL     1       5.068   2.090  -1.964  1.00  0.00     0.054 C 
HETATM   31  C3  UNL     1       4.305   2.980   0.181  1.00  0.00     0.054 C 
BRANCH  29  32
HETATM   32  O1  UNL     1       2.905   1.603  -1.050  1.00  0.00    -0.382 OA
ATOM     33  H1  UNL     1       2.378   1.382  -0.291  1.00  0.00     0.211 HD
ENDBRANCH  29  32
ENDBRANCH  28  29
BRANCH  28  34
HETATM   34  O2  UNL     1       6.145   0.888   0.170  1.00  0.00    -0.347 OA
ATOM     35  H2  UNL     1       6.582   0.160   0.597  1.00  0.00     0.219 HD
ENDBRANCH  28  34
ENDBRANCH  26  28
ENDBRANCH  22  26
BRANCH  24  36
HETATM   36  C16 UNL     1       3.969  -3.526   1.385  1.00  0.00     0.378 C 
BRANCH  36  37
HETATM   37  N11 UNL     1       3.806  -4.861   0.795  1.00  0.00    -0.047 N 
ATOM     38 3H11 UNL     1       2.841  -5.188   0.835  1.00  0.00     0.277 HD
ATOM     39 2H11 UNL     1       3.913  -4.853  -0.219  1.00  0.00     0.277 HD
ATOM     40 1H11 UNL     1       4.453  -5.507   1.248  1.00  0.00     0.277 HD
ENDBRANCH  36  37
BRANCH  36  41
HETATM   41  O8  UNL     1       3.759  -3.638   2.744  1.00  0.00    -0.365 OA
ATOM     42  H8  UNL     1       4.362  -4.239   3.166  1.00  0.00     0.212 HD
ENDBRANCH  36  41
ENDBRANCH  24  36
ENDBRANCH   1  20
BRANCH   3  43
HETATM   43  O3  UNL     1      -2.027  -3.433  -3.194  1.00  0.00    -0.271 OA
ATOM     44  H3  UNL     1      -2.924  -3.715  -3.327  1.00  0.00     0.246 HD
ENDBRANCH   3  43
BRANCH  10  45
HETATM   45  O4  UNL     1      -0.171   1.705   0.755  1.00  0.00    -0.344 OA
ATOM     46  H4  UNL     1       0.474   2.334   1.055  1.00  0.00     0.219 HD
ENDBRANCH  10  45
BRANCH  17  47
HETATM   47  C13 UNL     1      -4.961   1.090  -0.013  1.00  0.00     0.359 C 
BRANCH  47  48
HETATM   48  N9  UNL     1      -5.836   2.153  -0.554  1.00  0.00    -0.052 N 
ATOM     49  H93 UNL     1      -5.915   2.942   0.088  1.00  0.00     0.277 HD
ATOM     50  H92 UNL     1      -5.402   2.638  -1.339  1.00  0.00     0.277 HD
ATOM     51  H91 UNL     1      -6.750   1.774  -0.802  1.00  0.00     0.277 HD
ENDBRANCH  47  48
BRANCH  47  52
HETATM   52  C14 UNL     1      -5.687   0.496   1.180  1.00  0.00     0.304 C 
BRANCH  52  53
HETATM   53  O5  UNL     1      -6.915  -0.043   0.811  1.00  0.00    -0.368 OA
ATOM     54  H5  UNL     1      -7.369  -0.415   1.558  1.00  0.00     0.212 HD
ENDBRANCH  52  53
BRANCH  52  55
HETATM   55  O6  UNL     1      -5.869   1.397   2.215  1.00  0.00    -0.368 OA
ATOM     56  H6  UNL     1      -6.323   1.025   2.962  1.00  0.00     0.212 HD
ENDBRANCH  52  55
ENDBRANCH  47  52
ENDBRANCH  17  47
TORSDOF 16
