REMARK  2 active torsions:
REMARK  status: ('A' for Active; 'I' for Inactive)
REMARK    1  A    between atoms: N1_1  and  C1_5 
REMARK    2  A    between atoms: C1_5  and  C2_7 
ROOT
HETATM    1  C2  UNL     1      -0.358  -0.250  -0.056  1.00  0.00     0.086 A 
HETATM    2  C3  UNL     1       0.418  -1.217   0.563  1.00  0.00     0.172 A 
HETATM    3  F2  UNL     1      -0.125  -2.296   1.157  1.00  0.00    -0.202 F 
HETATM    4  C4  UNL     1       1.799  -1.072   0.574  1.00  0.00     0.197 A 
HETATM    5  F3  UNL     1       2.620  -1.977   1.160  1.00  0.00    -0.199 F 
HETATM    6  C5  UNL     1       2.393   0.019  -0.023  1.00  0.00     0.199 A 
HETATM    7  F4  UNL     1       3.738   0.174  -0.021  1.00  0.00    -0.199 F 
HETATM    8  C6  UNL     1       1.606   0.971  -0.635  1.00  0.00     0.197 A 
HETATM    9  F5  UNL     1       2.125   2.068  -1.241  1.00  0.00    -0.199 F 
HETATM   10  C7  UNL     1       0.222   0.839  -0.654  1.00  0.00     0.172 A 
HETATM   11  F6  UNL     1      -0.579   1.755  -1.245  1.00  0.00    -0.202 F 
ENDROOT
BRANCH   1  12
HETATM   12  C1  UNL     1      -1.822  -0.390  -0.075  1.00  0.00     0.405 C 
HETATM   13  F1  UNL     1      -2.204  -1.361   0.830  1.00  0.00    -0.214 F 
BRANCH  12  14
HETATM   14  N1  UNL     1      -2.537   0.801   0.242  1.00  0.00    -0.044 N 
ATOM     15  H13 UNL     1      -3.547   0.661   0.272  1.00  0.00     0.278 HD
ATOM     16  H12 UNL     1      -2.413   1.092   1.212  1.00  0.00     0.278 HD
ATOM     17  H11 UNL     1      -2.255   1.518  -0.426  1.00  0.00     0.278 HD
ENDBRANCH  12  14
ENDBRANCH   1  12
TORSDOF 2
