REMARK  12 active torsions:
REMARK  status: ('A' for Active; 'I' for Inactive)
REMARK    1  A    between atoms: C2_3  and  O1_4 
REMARK    2  A    between atoms: C3_8  and  N3_9 
REMARK    3  A    between atoms: N4_11  and  C4_13 
REMARK    4  A    between atoms: C4_13  and  C5_14 
REMARK    5  A    between atoms: C4_13  and  C10_32 
REMARK    6  A    between atoms: C5_14  and  O2_15 
REMARK    7  A    between atoms: O2_15  and  C6_16 
REMARK    8  A    between atoms: C6_16  and  C7_18 
REMARK    9  A    between atoms: C7_18  and  N5_19 
REMARK   10  A    between atoms: C8_22  and  N7_23 
REMARK   11  A    between atoms: C12_34  and  O4_35 
REMARK   12  A    between atoms: C13_37  and  O5_38 
ROOT
HETATM    1  N1  UNL     1       6.891  -2.644   2.123  1.00  0.00    -0.190 NA
HETATM    2  C1  UNL     1       5.974  -2.497   1.412  1.00  0.00     0.142 C 
HETATM    3  C2  UNL     1       4.825  -2.304   0.548  1.00  0.00     0.324 C 
HETATM    4  N2  UNL     1       4.032  -1.228   1.101  1.00  0.00    -0.300 N 
ATOM      5  H2  UNL     1       4.403  -0.320   1.382  1.00  0.00     0.168 HD
HETATM    6  C3  UNL     1       2.794  -1.572   1.190  1.00  0.00     0.210 C 
HETATM    7  N10 UNL     1       2.669  -2.903   0.703  1.00  0.00    -0.269 N 
ATOM      8  H10 UNL     1       1.788  -3.381   0.515  1.00  0.00     0.185 HD
HETATM    9  N11 UNL     1       3.956  -3.462   0.520  1.00  0.00    -0.062 NA
ENDROOT
BRANCH   3  10
HETATM   10  O1  UNL     1       5.253  -2.055  -0.737  1.00  0.00    -0.344 OA
ATOM     11  H1  UNL     1       4.500  -1.929  -1.303  1.00  0.00     0.215 HD
ENDBRANCH   3  10
BRANCH   6  12
HETATM   12  N3  UNL     1       1.708  -0.794   1.681  1.00  0.00    -0.274 N 
HETATM   13  N4  UNL     1       1.052   0.021   0.965  1.00  0.00    -0.322 N 
ATOM     14  H4  UNL     1       0.289   0.533   1.407  1.00  0.00     0.181 HD
ATOM     15  H3  UNL     1       1.444  -0.898   2.661  1.00  0.00     0.189 HD
BRANCH  13  16
HETATM   16  C4  UNL     1       1.305   0.270  -0.406  1.00  0.00     0.163 C 
BRANCH  16  17
HETATM   17  C5  UNL     1       0.418  -0.357  -1.406  1.00  0.00     0.210 C 
BRANCH  17  18
HETATM   18  O2  UNL     1      -0.921  -0.075  -1.416  1.00  0.00    -0.318 OA
BRANCH  18  19
HETATM   19  C6  UNL     1      -1.922  -0.289  -0.539  1.00  0.00     0.279 C 
HETATM   20  O3  UNL     1      -1.653  -0.871   0.535  1.00  0.00    -0.263 OA
BRANCH  19  21
HETATM   21  C7  UNL     1      -3.347   0.123  -0.757  1.00  0.00     0.279 C 
BRANCH  21  22
HETATM   22  N5  UNL     1      -4.179  -0.243   0.357  1.00  0.00    -0.100 N 
HETATM   23  N6  UNL     1      -4.425   0.503   1.417  1.00  0.00    -0.115 N 
HETATM   24  C8  UNL     1      -5.252  -0.169   2.261  1.00  0.00     0.705 A 
ATOM     25  H6  UNL     1      -4.052   1.439   1.578  1.00  0.00     0.206 HD
HETATM   26  N8  UNL     1      -5.523  -1.352   1.714  1.00  0.00    -0.020 N 
HETATM   27  C9  UNL     1      -4.855  -1.387   0.538  1.00  0.00     0.708 A 
ATOM     28  H8  UNL     1      -6.116  -2.085   2.103  1.00  0.00     0.203 HD
HETATM   29  N9  UNL     1      -4.890  -2.406  -0.274  1.00  0.00    -0.233 N 
ATOM     30  H92 UNL     1      -4.386  -2.432  -1.161  1.00  0.00     0.174 HD
ATOM     31  H91 UNL     1      -5.404  -3.276  -0.136  1.00  0.00     0.174 HD
BRANCH  24  32
HETATM   32  N7  UNL     1      -5.695   0.254   3.384  1.00  0.00    -0.233 N 
ATOM     33  H72 UNL     1      -5.487   1.160   3.803  1.00  0.00     0.174 HD
ATOM     34  H71 UNL     1      -6.316  -0.250   4.017  1.00  0.00     0.174 HD
ENDBRANCH  24  32
ENDBRANCH  21  22
ENDBRANCH  19  21
ENDBRANCH  18  19
ENDBRANCH  17  18
ENDBRANCH  16  17
BRANCH  16  35
HETATM   35  C10 UNL     1       1.510   1.742  -0.680  1.00  0.00     0.014 A 
HETATM   36  C11 UNL     1       0.990   2.501  -1.686  1.00  0.00     0.056 A 
HETATM   37  C12 UNL     1       1.319   3.798  -1.722  1.00  0.00     0.107 A 
HETATM   38  C13 UNL     1       2.155   4.262  -0.740  1.00  0.00     0.141 A 
HETATM   39  S1  UNL     1       2.448   2.866   0.194  1.00  0.00    -0.065 SA
BRANCH  37  40
HETATM   40  O4  UNL     1       0.861   4.715  -2.704  1.00  0.00    -0.357 OA
ATOM     41  H4  UNL     1       1.094   5.636  -2.730  1.00  0.00     0.217 HD
ENDBRANCH  37  40
BRANCH  38  42
HETATM   42  O5  UNL     1       2.656   5.540  -0.530  1.00  0.00    -0.352 OA
ATOM     43  H5  UNL     1       3.235   5.862   0.151  1.00  0.00     0.218 HD
ENDBRANCH  38  42
ENDBRANCH  16  35
ENDBRANCH  13  16
ENDBRANCH   6  12
TORSDOF 12
