REMARK  2 active torsions:
REMARK  status: ('A' for Active; 'I' for Inactive)
REMARK    1  A    between atoms: C2_2  and  S1_3 
REMARK    2  A    between atoms: S1_3  and  C3_4 
ROOT
HETATM    1  C3  UNL     1       0.107   0.408  -0.492  1.00  0.00     0.155 C 
HETATM    2  C4  UNL     1      -1.205   0.509  -1.250  1.00  0.00     0.086 C 
HETATM    3  C5  UNL     1      -1.949  -0.601  -0.525  1.00  0.00     0.151 C 
HETATM    4  C6  UNL     1      -2.638  -0.123   0.715  1.00  0.00     0.044 C 
HETATM    5  C7  UNL     1      -1.736   0.444   1.763  1.00  0.00     0.079 C 
HETATM    6  S2  UNL     1      -0.188   1.111   1.143  1.00  0.00    -0.129 SA
HETATM    7  O1  UNL     1      -0.993  -1.543  -0.200  1.00  0.00    -0.279 OA
HETATM    8  N1  UNL     1       0.219  -1.049  -0.433  1.00  0.00    -0.068 NA
ENDROOT
BRANCH   1   9
HETATM    9  S1  UNL     1       1.486   1.166  -1.359  1.00  0.00    -0.129 SA
BRANCH   9  10
HETATM   10  C2  UNL     1       2.957   0.193  -0.884  1.00  0.00     0.072 C 
HETATM   11  C1  UNL     1       3.036  -0.004   0.603  1.00  0.00     0.016 C 
ENDBRANCH   9  10
ENDBRANCH   1   9
TORSDOF 2
