REMARK  7 active torsions:
REMARK  status: ('A' for Active; 'I' for Inactive)
REMARK    1  A    between atoms: C4_8  and  N3_9 
REMARK    2  A    between atoms: C5_12  and  N4_13 
REMARK    3  A    between atoms: N5_16  and  N6_17 
REMARK    4  A    between atoms: N7_19  and  N8_21 
REMARK    5  A    between atoms: C8_23  and  C9_24 
REMARK       I    between atoms: C9_24  and  N9_26 
REMARK    6  A    between atoms: N9_26  and  N10_28 
REMARK    7  A    between atoms: N11_32  and  N12_34 
ROOT
HETATM    1  N4  UNL     1      -1.927   0.143   0.057  1.00  0.00    -0.369 N 
HETATM    2  C6  UNL     1      -1.464  -0.725   1.109  1.00  0.00     0.145 C 
HETATM    3  C7  UNL     1       0.041  -0.426   1.459  1.00  0.00     0.172 C 
HETATM    4  N5  UNL     1       0.779  -0.883   0.325  1.00  0.00    -0.260 N 
HETATM    5  C10 UNL     1       0.135  -0.639  -0.914  1.00  0.00     0.131 C 
HETATM    6  N11 UNL     1       0.408  -1.316  -1.971  1.00  0.00    -0.293 N 
ATOM      7  H11 UNL     1      -0.068  -1.123  -2.852  1.00  0.00     0.187 HD
HETATM    8  C11 UNL     1      -0.888   0.477  -0.878  1.00  0.00     0.202 C 
ENDROOT
BRANCH   4   9
HETATM    9  N6  UNL     1       2.017  -1.520   0.359  1.00  0.00    -0.225 N 
HETATM   10  N7  UNL     1       2.917  -1.085   1.118  1.00  0.00    -0.228 N 
ATOM     11  H7  UNL     1       2.692  -0.268   1.686  1.00  0.00     0.210 HD
ATOM     12  H6  UNL     1       2.191  -2.335  -0.229  1.00  0.00     0.210 HD
BRANCH  10  13
HETATM   13  N8  UNL     1       4.182  -1.614   1.252  1.00  0.00    -0.291 N 
HETATM   14  C8  UNL     1       5.263  -1.037   0.880  1.00  0.00     0.184 C 
ATOM     15  H8  UNL     1       4.264  -2.536   1.680  1.00  0.00     0.187 HD
BRANCH  14  16
HETATM   16  C9  UNL     1       5.213   0.278   0.261  1.00  0.00     0.276 C 
HETATM   17  O1  UNL     1       4.102   0.837   0.099  1.00  0.00    -0.265 OA
HETATM   18  N9  UNL     1       6.398   0.940  -0.161  1.00  0.00    -0.272 N 
ATOM     19  H9  UNL     1       7.305   0.492  -0.031  1.00  0.00     0.189 HD
BRANCH  18  20
HETATM   20  N10 UNL     1       6.322   2.199  -0.751  1.00  0.00    -0.342 N 
ATOM     21 2H10 UNL     1       5.407   2.633  -0.873  1.00  0.00     0.176 HD
ATOM     22 1H10 UNL     1       7.172   2.674  -1.054  1.00  0.00     0.176 HD
ENDBRANCH  18  20
ENDBRANCH  14  16
ENDBRANCH  10  13
ENDBRANCH   4   9
BRANCH   6  23
HETATM   23  N12 UNL     1       1.365  -2.315  -1.886  1.00  0.00    -0.344 N 
ATOM     24 2H12 UNL     1       1.832  -2.496  -0.998  1.00  0.00     0.176 HD
ATOM     25 1H12 UNL     1       1.582  -2.853  -2.725  1.00  0.00     0.176 HD
ENDBRANCH   6  23
BRANCH   1  26
HETATM   26  C5  UNL     1      -3.290   0.529  -0.031  1.00  0.00     0.083 A 
HETATM   27  C2  UNL     1      -4.330  -0.077   0.637  1.00  0.00    -0.015 A 
HETATM   28  C1  UNL     1      -4.168  -1.323   1.366  1.00  0.00     0.052 C 
HETATM   29  C3  UNL     1      -5.594   0.527   0.529  1.00  0.00     0.116 A 
HETATM   30  N1  UNL     1      -5.780   1.639  -0.191  1.00  0.00    -0.310 N 
HETATM   31  N2  UNL     1      -4.769   2.199  -0.821  1.00  0.00    -0.284 N 
ATOM     32  H1  UNL     1      -6.709   2.055  -0.252  1.00  0.00     0.186 HD
HETATM   33  C4  UNL     1      -3.530   1.702  -0.779  1.00  0.00     0.141 A 
ATOM     34  H2  UNL     1      -4.939   3.046  -1.363  1.00  0.00     0.188 HD
BRANCH  33  35
HETATM   35  N3  UNL     1      -2.607   2.297  -1.373  1.00  0.00    -0.383 N 
ATOM     36  H32 UNL     1      -2.780   3.145  -1.913  1.00  0.00     0.157 HD
ATOM     37  H31 UNL     1      -1.661   1.917  -1.341  1.00  0.00     0.157 HD
ENDBRANCH  33  35
ENDBRANCH   1  26
TORSDOF 7
