REMARK  8 active torsions:
REMARK  status: ('A' for Active; 'I' for Inactive)
REMARK    1  A    between atoms: N1_1  and  N2_4 
REMARK    2  A    between atoms: N2_4  and  C1_6 
REMARK    3  A    between atoms: C2_9  and  C3_10 
REMARK       I    between atoms: C3_10  and  N4_12 
REMARK    4  A    between atoms: N4_12  and  C4_14 
REMARK    5  A    between atoms: C4_14  and  O2_15 
REMARK    6  A    between atoms: O2_15  and  N5_16 
REMARK    7  A    between atoms: C7_23  and  O3_24 
REMARK    8  A    between atoms: O3_24  and  S1_25 
ROOT
HETATM    1  C1  UNL     1      -0.499  -1.679   1.488  1.00  0.00     0.706 A 
HETATM    2  N3  UNL     1       0.774  -1.581   1.071  1.00  0.00    -0.169 N 
ATOM      3  H3  UNL     1       1.444  -2.294   1.358  1.00  0.00     0.186 HD
HETATM    4  C2  UNL     1       1.192  -0.572   0.287  1.00  0.00     0.191 A 
HETATM    5  N6  UNL     1       0.269   0.340  -0.061  1.00  0.00    -0.323 N 
ATOM      6  H6  UNL     1       0.555   1.118  -0.655  1.00  0.00     0.169 HD
HETATM    7  C5  UNL     1      -1.030   0.274   0.342  1.00  0.00     0.132 A 
HETATM    8  C6  UNL     1      -1.907   1.279  -0.081  1.00  0.00     0.088 A 
HETATM    9  C7  UNL     1      -3.221   1.212   0.327  1.00  0.00     0.097 A 
HETATM   10  C8  UNL     1      -3.573   0.151   1.128  1.00  0.00     0.056 A 
HETATM   11  C9  UNL     1      -2.694  -0.822   1.528  1.00  0.00     0.119 A 
HETATM   12  N7  UNL     1      -1.424  -0.745   1.126  1.00  0.00    -0.141 N 
ENDROOT
BRANCH   4  13
HETATM   13  C3  UNL     1       2.586  -0.470  -0.166  1.00  0.00     0.287 C 
HETATM   14  O1  UNL     1       3.379  -1.371   0.210  1.00  0.00    -0.264 OA
HETATM   15  N4  UNL     1       2.996   0.606  -0.993  1.00  0.00    -0.331 N 
ATOM     16  H4  UNL     1       2.299   1.301  -1.262  1.00  0.00     0.165 HD
BRANCH  15  17
HETATM   17  C4  UNL     1       4.342   0.770  -1.473  1.00  0.00     0.326 C 
BRANCH  17  18
HETATM   18  O2  UNL     1       5.269   0.893  -0.422  1.00  0.00    -0.268 OA
BRANCH  18  19
HETATM   19  N5  UNL     1       6.487   1.040  -0.998  1.00  0.00    -0.309 N 
ATOM     20  H52 UNL     1       6.678   1.056  -2.000  1.00  0.00     0.184 HD
ATOM     21  H51 UNL     1       7.159   1.129  -0.236  1.00  0.00     0.184 HD
ENDBRANCH  18  19
ENDBRANCH  17  18
ENDBRANCH  15  17
ENDBRANCH   4  13
BRANCH   1  22
HETATM   22  N2  UNL     1      -0.914  -2.637   2.238  1.00  0.00    -0.138 N 
ATOM     23  H2  UNL     1      -1.898  -2.629   2.506  1.00  0.00     0.205 HD
BRANCH  22  24
HETATM   24  N1  UNL     1      -0.140  -3.672   2.709  1.00  0.00    -0.331 N 
ATOM     25  H12 UNL     1       0.841  -3.664   2.431  1.00  0.00     0.177 HD
ATOM     26  H11 UNL     1      -0.469  -4.432   3.304  1.00  0.00     0.177 HD
ENDBRANCH  22  24
ENDBRANCH   1  22
BRANCH   9  27
HETATM   27  O3  UNL     1      -4.156   2.182  -0.056  1.00  0.00    -0.214 OA
BRANCH  27  28
HETATM   28  S1  UNL     1      -5.056   1.970  -1.495  1.00  0.00     0.256 S 
HETATM   29  O4  UNL     1      -5.461   0.509  -1.620  1.00  0.00    -0.572 OA
HETATM   30  O5  UNL     1      -6.337   2.752  -1.446  1.00  0.00    -0.572 OA
HETATM   31  O6  UNL     1      -4.162   2.375  -2.841  1.00  0.00    -0.572 OA
ENDBRANCH  27  28
ENDBRANCH   9  27
TORSDOF 8
