REMARK  6 active torsions:
REMARK  status: ('A' for Active; 'I' for Inactive)
REMARK    1  A    between atoms: N2_5  and  C3_6 
REMARK    2  A    between atoms: C3_6  and  C4_7 
REMARK    3  A    between atoms: N4_9  and  N5_11 
REMARK       I    between atoms: N5_11  and  C5_13 
REMARK    4  A    between atoms: C5_13  and  C6_15 
REMARK    5  A    between atoms: C7_18  and  N7_19 
REMARK    6  A    between atoms: N9_24  and  N10_25 
ROOT
HETATM    1  N5  UNL     1       1.548  -0.927  -0.939  1.00  0.00    -0.262 N 
ATOM      2  H5  UNL     1       1.595  -1.734  -0.317  1.00  0.00     0.190 HD
HETATM    3  C5  UNL     1       2.450   0.144  -0.777  1.00  0.00     0.308 C 
HETATM    4  O1  UNL     1       2.410   1.146  -1.530  1.00  0.00    -0.262 OA
ENDROOT
BRANCH   1   5
HETATM    5  N4  UNL     1       0.600  -0.881  -1.943  1.00  0.00    -0.287 N 
HETATM    6  C4  UNL     1      -0.509  -0.263  -1.748  1.00  0.00     0.127 C 
HETATM    7  N3  UNL     1      -1.477  -0.205  -2.784  1.00  0.00    -0.084 NA
ATOM      8  H4  UNL     1       0.780  -1.337  -2.837  1.00  0.00     0.188 HD
BRANCH   6   9
HETATM    9  C3  UNL     1      -0.787   0.405  -0.454  1.00  0.00     0.228 C 
BRANCH   9  10
HETATM   10  N2  UNL     1      -2.062  -0.138   0.038  1.00  0.00    -0.235 N 
HETATM   11  N1  UNL     1      -3.151   0.508  -0.363  1.00  0.00    -0.293 N 
HETATM   12  C2  UNL     1      -4.378   0.136  -0.007  1.00  0.00     0.090 A 
ATOM     13  H1  UNL     1      -3.042   1.322  -0.968  1.00  0.00     0.187 HD
HETATM   14  C1  UNL     1      -5.535   0.908  -0.495  1.00  0.00     0.076 C 
HETATM   15  C9  UNL     1      -4.497  -0.967   0.809  1.00  0.00     0.273 A 
HETATM   16  N11 UNL     1      -3.389  -1.615   1.210  1.00  0.00    -0.273 N 
HETATM   17  O3  UNL     1      -5.637  -1.359   1.174  1.00  0.00    -0.266 OA
HETATM   18  C8  UNL     1      -2.166  -1.199   0.823  1.00  0.00     0.344 A 
ATOM     19  H11 UNL     1      -3.475  -2.432   1.815  1.00  0.00     0.173 HD
HETATM   20  O2  UNL     1      -1.122  -1.796   1.190  1.00  0.00    -0.245 OA
ENDBRANCH   9  10
ENDBRANCH   6   9
ENDBRANCH   1   5
BRANCH   3  21
HETATM   21  C6  UNL     1       3.451   0.103   0.278  1.00  0.00     0.229 A 
HETATM   22  N6  UNL     1       3.629  -0.898   1.172  1.00  0.00    -0.167 N 
HETATM   23  C7  UNL     1       4.654  -0.520   1.953  1.00  0.00     0.694 A 
ATOM     24  H6  UNL     1       3.093  -1.763   1.239  1.00  0.00     0.186 HD
HETATM   25  N8  UNL     1       5.077   0.682   1.532  1.00  0.00    -0.110 N 
HETATM   26  N9  UNL     1       4.351   1.081   0.504  1.00  0.00    -0.166 N 
ATOM     27  H8  UNL     1       5.846   1.210   1.945  1.00  0.00     0.208 HD
BRANCH  23  28
HETATM   28  N7  UNL     1       5.091  -1.256   2.923  1.00  0.00    -0.233 N 
ATOM     29  H72 UNL     1       4.769  -2.170   3.243  1.00  0.00     0.174 HD
ATOM     30  H71 UNL     1       5.870  -0.969   3.516  1.00  0.00     0.174 HD
ENDBRANCH  23  28
BRANCH  26  31
HETATM   31  N10 UNL     1       4.501   2.287  -0.200  1.00  0.00    -0.322 N 
ATOM     32 2H10 UNL     1       3.940   2.595  -0.994  1.00  0.00     0.179 HD
ATOM     33 1H10 UNL     1       5.182   3.027  -0.029  1.00  0.00     0.179 HD
ENDBRANCH  26  31
ENDBRANCH   3  21
TORSDOF 6
