REMARK  8 active torsions:
REMARK  status: ('A' for Active; 'I' for Inactive)
REMARK    1  A    between atoms: C4_6  and  N2_7 
REMARK    2  A    between atoms: N2_7  and  C5_9 
REMARK    3  A    between atoms: C5_9  and  C6_10 
REMARK    4  A    between atoms: C5_9  and  C10_21 
REMARK    5  A    between atoms: C8_14  and  N4_15 
REMARK    6  A    between atoms: C10_21  and  O1_22 
REMARK    7  A    between atoms: C10_21  and  C11_24 
REMARK    8  A    between atoms: C12_27  and  N7_28 
ROOT
HETATM    1  C5  UNL     1       0.861   1.290  -0.691  1.00  0.00     0.156 C 
ENDROOT
BRANCH   1   2
HETATM    2  N2  UNL     1      -0.018   0.484  -1.496  1.00  0.00    -0.364 N 
ATOM      3  H2  UNL     1       0.173   0.419  -2.496  1.00  0.00     0.161 HD
BRANCH   2   4
HETATM    4  C4  UNL     1      -1.144  -0.232  -0.980  1.00  0.00     0.135 C 
HETATM    5  N1  UNL     1      -1.999   0.318  -0.191  1.00  0.00    -0.349 N 
HETATM    6  C2  UNL     1      -3.098  -0.523   0.262  1.00  0.00     0.117 C 
ATOM      7  H1  UNL     1      -1.912   1.291   0.101  1.00  0.00     0.163 HD
HETATM    8  C1  UNL     1      -4.266   0.422   0.547  1.00  0.00     0.064 C 
HETATM    9  C3  UNL     1      -2.728  -1.192   1.560  1.00  0.00     0.064 C 
HETATM   10  N8  UNL     1      -3.529  -1.443  -0.738  1.00  0.00    -0.271 N 
HETATM   11  O3  UNL     1      -2.596  -2.106  -1.392  1.00  0.00    -0.241 OA
ATOM     12  H8  UNL     1      -4.519  -1.583  -0.939  1.00  0.00     0.190 HD
HETATM   13  C12 UNL     1      -1.319  -1.635  -1.358  1.00  0.00     0.413 C 
BRANCH  13  14
HETATM   14  N7  UNL     1      -0.592  -1.865  -2.597  1.00  0.00    -0.043 N 
ATOM     15  H73 UNL     1      -0.865  -1.221  -3.339  1.00  0.00     0.278 HD
ATOM     16  H72 UNL     1       0.389  -1.594  -2.534  1.00  0.00     0.278 HD
ATOM     17  H71 UNL     1      -0.714  -2.843  -2.860  1.00  0.00     0.278 HD
ENDBRANCH  13  14
ENDBRANCH   2   4
ENDBRANCH   1   2
BRANCH   1  18
HETATM   18  C6  UNL     1       1.495   0.396   0.318  1.00  0.00    -0.001 A 
HETATM   19  C7  UNL     1       1.590   0.795   1.631  1.00  0.00     0.116 A 
HETATM   20  N3  UNL     1       2.167  -0.024   2.544  1.00  0.00    -0.202 N 
HETATM   21  C8  UNL     1       2.656  -1.220   2.222  1.00  0.00     0.675 A 
ATOM     22  H3  UNL     1       2.229   0.287   3.513  1.00  0.00     0.183 HD
HETATM   23  N5  UNL     1       2.567  -1.618   0.941  1.00  0.00    -0.202 N 
HETATM   24  C9  UNL     1       2.001  -0.842  -0.015  1.00  0.00     0.116 A 
ATOM     25  H5  UNL     1       2.937  -2.532   0.681  1.00  0.00     0.183 HD
BRANCH  21  26
HETATM   26  N4  UNL     1       3.190  -1.948   3.127  1.00  0.00    -0.234 N 
ATOM     27  H42 UNL     1       3.258  -1.646   4.099  1.00  0.00     0.174 HD
ATOM     28  H41 UNL     1       3.565  -2.864   2.880  1.00  0.00     0.174 HD
ENDBRANCH  21  26
ENDBRANCH   1  18
BRANCH   1  29
HETATM   29  C10 UNL     1       1.925   1.881  -1.560  1.00  0.00     0.234 C 
BRANCH  29  30
HETATM   30  O1  UNL     1       2.661   0.844  -2.169  1.00  0.00    -0.384 OA
ATOM     31  H1  UNL     1       3.337   1.219  -2.721  1.00  0.00     0.210 HD
ENDBRANCH  29  30
BRANCH  29  32
HETATM   32  C11 UNL     1       2.804   2.735  -0.748  1.00  0.00     0.262 C 
HETATM   33  N6  UNL     1       2.270   3.835  -0.052  1.00  0.00    -0.060 NA
HETATM   34  O2  UNL     1       4.025   2.477  -0.680  1.00  0.00    -0.274 OA
ENDBRANCH  29  32
ENDBRANCH   1  29
TORSDOF 8
