REMARK  10 active torsions:
REMARK  status: ('A' for Active; 'I' for Inactive)
REMARK    1  A    between atoms: O1_2  and  C2_3 
REMARK    2  A    between atoms: C2_3  and  C3_5 
REMARK    3  A    between atoms: C3_5  and  O3_6 
REMARK    4  A    between atoms: C4_9  and  O4_10 
REMARK    5  A    between atoms: C4_9  and  C5_12 
REMARK    6  A    between atoms: C5_12  and  O5_13 
REMARK    7  A    between atoms: C6_15  and  N1_16 
REMARK    8  A    between atoms: C9_25  and  N5_26 
REMARK    9  A    between atoms: C11_32  and  N7_33 
REMARK   10  A    between atoms: N8_38  and  N9_40 
ROOT
HETATM    1  C3  UNL     1      -2.724  -0.449   0.761  1.00  0.00     0.241 C 
HETATM    2  S1  UNL     1      -2.271  -1.417  -0.731  1.00  0.00    -0.072 SA
HETATM    3  C4  UNL     1      -0.513  -1.844  -0.613  1.00  0.00     0.155 C 
HETATM    4  C6  UNL     1       0.266  -0.634  -0.226  1.00  0.00     0.191 C 
HETATM    5  C11 UNL     1      -0.183  -0.046   1.120  1.00  0.00     0.263 C 
HETATM    6  C12 UNL     1      -1.559   0.412   1.063  1.00  0.00     0.090 C 
HETATM    7  N8  UNL     1      -1.812   1.650   1.287  1.00  0.00    -0.309 N 
ATOM      8  H8  UNL     1      -2.790   1.937   1.239  1.00  0.00     0.186 HD
ENDROOT
BRANCH   4   9
HETATM    9  N1  UNL     1       1.683  -0.947  -0.103  1.00  0.00    -0.247 N 
HETATM   10  N2  UNL     1       2.221  -2.111   0.211  1.00  0.00    -0.017 NA
HETATM   11  N3  UNL     1       3.556  -1.997   0.223  1.00  0.00    -0.276 N 
HETATM   12  C7  UNL     1       3.890  -0.727  -0.091  1.00  0.00     0.161 A 
ATOM     13  H3  UNL     1       4.213  -2.748   0.435  1.00  0.00     0.184 HD
HETATM   14  C8  UNL     1       5.106  -0.089  -0.217  1.00  0.00     0.291 A 
HETATM   15  C10 UNL     1       2.688  -0.077  -0.294  1.00  0.00     0.170 A 
HETATM   16  O6  UNL     1       6.206  -0.670  -0.035  1.00  0.00    -0.265 OA
HETATM   17  N4  UNL     1       5.148   1.213  -0.548  1.00  0.00    -0.154 N 
HETATM   18  C9  UNL     1       3.970   1.857  -0.748  1.00  0.00     0.680 A 
ATOM     19  H4  UNL     1       6.038   1.702  -0.646  1.00  0.00     0.187 HD
HETATM   20  N6  UNL     1       2.781   1.237  -0.626  1.00  0.00    -0.173 N 
ATOM     21  H6  UNL     1       1.926   1.769  -0.787  1.00  0.00     0.186 HD
BRANCH  18  22
HETATM   22  N5  UNL     1       4.042   3.110  -1.066  1.00  0.00    -0.234 N 
ATOM     23  H52 UNL     1       4.943   3.580  -1.158  1.00  0.00     0.174 HD
ATOM     24  H51 UNL     1       3.157   3.594  -1.216  1.00  0.00     0.174 HD
ENDBRANCH  18  22
ENDBRANCH   4   9
BRANCH   3  25
HETATM   25  O4  UNL     1      -0.387  -2.907   0.269  1.00  0.00    -0.375 OA
ATOM     26  H4  UNL     1       0.534  -3.131   0.331  1.00  0.00     0.211 HD
ENDBRANCH   3  25
BRANCH   3  27
HETATM   27  C5  UNL     1      -0.064  -2.242  -2.006  1.00  0.00     0.216 C 
BRANCH  27  28
HETATM   28  O5  UNL     1      -0.854  -3.288  -2.434  1.00  0.00    -0.397 OA
ATOM     29  H5  UNL     1      -0.573  -3.537  -3.307  1.00  0.00     0.209 HD
ENDBRANCH  27  28
ENDBRANCH   3  27
BRANCH   5  30
HETATM   30  N7  UNL     1       0.126  -0.969   2.167  1.00  0.00    -0.068 N 
ATOM     31  H73 UNL     1      -0.272  -1.893   1.997  1.00  0.00     0.275 HD
ATOM     32  H72 UNL     1       1.111  -1.233   2.170  1.00  0.00     0.275 HD
ATOM     33  H71 UNL     1      -0.172  -0.579   3.061  1.00  0.00     0.275 HD
ENDBRANCH   5  30
BRANCH   1  34
HETATM   34  C2  UNL     1      -3.941   0.342   0.466  1.00  0.00     0.310 C 
HETATM   35  O2  UNL     1      -4.999   0.177   1.116  1.00  0.00    -0.260 OA
BRANCH  34  36
HETATM   36  O1  UNL     1      -3.944   1.292  -0.541  1.00  0.00    -0.323 OA
HETATM   37  C1  UNL     1      -5.130   2.047  -0.810  1.00  0.00     0.213 C 
ENDBRANCH  34  36
ENDBRANCH   1  34
BRANCH   1  38
HETATM   38  O3  UNL     1      -3.041  -1.305   1.811  1.00  0.00    -0.366 OA
ATOM     39  H3  UNL     1      -2.260  -1.812   2.000  1.00  0.00     0.212 HD
ENDBRANCH   1  38
BRANCH   7  40
HETATM   40  N9  UNL     1      -0.894   2.624   1.585  1.00  0.00    -0.345 N 
ATOM     41  H92 UNL     1       0.078   2.318   1.629  1.00  0.00     0.176 HD
ATOM     42  H91 UNL     1      -1.095   3.608   1.763  1.00  0.00     0.176 HD
ENDBRANCH   7  40
TORSDOF 10
