REMARK  7 active torsions:
REMARK  status: ('A' for Active; 'I' for Inactive)
REMARK    1  A    between atoms: C2_2  and  C3_7 
REMARK    2  A    between atoms: N1_3  and  O1_5 
REMARK    3  A    between atoms: N2_10  and  O2_11 
REMARK    4  A    between atoms: C6_13  and  O3_14 
REMARK    5  A    between atoms: C7_16  and  O4_18 
REMARK    6  A    between atoms: O4_18  and  C9_19 
REMARK    7  A    between atoms: C9_19  and  C10_20 
ROOT
HETATM    1  C3  UNL     1       3.056   0.147  -0.029  1.00  0.00     0.050 A 
HETATM    2  C4  UNL     1       1.912  -0.562   0.292  1.00  0.00    -0.007 A 
HETATM    3  C5  UNL     1       0.877   0.348   0.262  1.00  0.00     0.090 A 
HETATM    4  N2  UNL     1       1.399   1.560  -0.068  1.00  0.00    -0.201 N 
HETATM    5  C6  UNL     1       2.726   1.472  -0.253  1.00  0.00     0.180 A 
HETATM    6  C7  UNL     1      -0.404  -0.322   0.598  1.00  0.00     0.168 C 
HETATM    7  C8  UNL     1      -0.626  -0.153   2.084  1.00  0.00     0.060 C 
HETATM    8  C14 UNL     1      -0.091  -1.789   0.375  1.00  0.00     0.283 C 
HETATM    9  F1  UNL     1      -0.739  -2.588   1.296  1.00  0.00    -0.202 F 
HETATM   10  F2  UNL     1      -0.419  -2.225  -0.877  1.00  0.00    -0.202 F 
HETATM   11  C15 UNL     1       1.404  -1.918   0.649  1.00  0.00     0.124 C 
ENDROOT
BRANCH   6  12
HETATM   12  O4  UNL     1      -1.415   0.159  -0.174  1.00  0.00    -0.367 OA
BRANCH  12  13
HETATM   13  C9  UNL     1      -2.652  -0.405   0.070  1.00  0.00     0.177 C 
BRANCH  13  14
HETATM   14  C10 UNL     1      -3.736   0.152  -0.801  1.00  0.00    -0.030 C 
HETATM   15  C11 UNL     1      -3.492  -0.051  -2.265  1.00  0.00     0.016 C 
HETATM   16  C12 UNL     1      -3.897   1.662  -0.585  1.00  0.00     0.016 C 
HETATM   17  C13 UNL     1      -5.049  -0.468  -0.346  1.00  0.00     0.016 C 
ENDBRANCH  13  14
ENDBRANCH  12  13
ENDBRANCH   6  12
BRANCH   4  18
HETATM   18  O2  UNL     1       0.696   2.729  -0.203  1.00  0.00    -0.281 OA
ATOM     19  H2  UNL     1       1.061   3.575  -0.433  1.00  0.00     0.245 HD
ENDBRANCH   4  18
BRANCH   1  20
HETATM   20  C2  UNL     1       4.403  -0.424  -0.117  1.00  0.00     0.043 C 
HETATM   21  C1  UNL     1       5.550   0.443  -0.472  1.00  0.00     0.071 C 
HETATM   22  N1  UNL     1       4.599  -1.668   0.111  1.00  0.00    -0.273 N 
ATOM     23  H1  UNL     1       3.818  -2.276   0.357  1.00  0.00     0.194 HD
BRANCH  22  24
HETATM   24  O1  UNL     1       5.865  -2.174   0.022  1.00  0.00    -0.290 OA
ATOM     25  H1  UNL     1       6.010  -3.097   0.191  1.00  0.00     0.244 HD
ENDBRANCH  22  24
ENDBRANCH   1  20
BRANCH   5  26
HETATM   26  O3  UNL     1       3.604   2.500  -0.600  1.00  0.00    -0.344 OA
ATOM     27  H3  UNL     1       3.377   3.410  -0.754  1.00  0.00     0.219 HD
ENDBRANCH   5  26
TORSDOF 7
