REMARK  5 active torsions:
REMARK  status: ('A' for Active; 'I' for Inactive)
REMARK    1  A    between atoms: C2_3  and  C7_20 
REMARK    2  A    between atoms: N2_4  and  N3_6 
REMARK    3  A    between atoms: N3_6  and  C3_8 
REMARK    4  A    between atoms: C6_14  and  N6_15 
REMARK    5  A    between atoms: C9_24  and  N9_25 
ROOT
HETATM    1  N1  UNL     1       1.631  -3.943  -0.754  1.00  0.00    -0.190 NA
HETATM    2  C1  UNL     1       1.590  -2.801  -0.530  1.00  0.00     0.122 C 
HETATM    3  C2  UNL     1       1.553  -1.419  -0.274  1.00  0.00     0.162 C 
HETATM    4  N2  UNL     1       0.448  -0.774  -0.259  1.00  0.00    -0.287 N 
ATOM      5  H2  UNL     1       0.432   0.229  -0.072  1.00  0.00     0.188 HD
ENDROOT
BRANCH   3   6
HETATM    6  C7  UNL     1       2.797  -0.678  -0.014  1.00  0.00     0.115 A 
HETATM    7  N8  UNL     1       4.042  -1.079   0.031  1.00  0.00    -0.355 N 
HETATM    8  C8  UNL     1       5.000  -0.246   0.280  1.00  0.00     0.132 A 
ATOM      9  H8  UNL     1       4.260  -2.062  -0.133  1.00  0.00     0.166 HD
HETATM   10  C9  UNL     1       4.667   1.066   0.494  1.00  0.00     0.161 A 
HETATM   11  S1  UNL     1       2.962   1.008   0.319  1.00  0.00    -0.044 SA
BRANCH  10  12
HETATM   12  N9  UNL     1       5.510   2.172   0.783  1.00  0.00    -0.107 N 
HETATM   13  O1  UNL     1       6.732   1.983   0.866  1.00  0.00    -0.531 OA
HETATM   14  O2  UNL     1       5.027   3.435   0.974  1.00  0.00    -0.531 OA
ENDBRANCH  10  12
ENDBRANCH   3   6
BRANCH   4  15
HETATM   15  N3  UNL     1      -0.734  -1.473  -0.504  1.00  0.00    -0.284 N 
ATOM     16  H3  UNL     1      -0.720  -2.455  -0.779  1.00  0.00     0.188 HD
BRANCH  15  17
HETATM   17  C3  UNL     1      -1.853  -0.827  -0.369  1.00  0.00     0.138 A 
HETATM   18  C4  UNL     1      -1.891   0.502   0.003  1.00  0.00     0.096 A 
HETATM   19  C5  UNL     1      -3.075   1.172   0.143  1.00  0.00     0.135 A 
HETATM   20  N4  UNL     1      -3.083   2.539   0.527  1.00  0.00    -0.082 NA
HETATM   21  N5  UNL     1      -4.216   0.486  -0.097  1.00  0.00    -0.179 N 
HETATM   22  C6  UNL     1      -4.203  -0.807  -0.461  1.00  0.00     0.678 A 
ATOM     23  H5  UNL     1      -5.112   0.964   0.001  1.00  0.00     0.185 HD
HETATM   24  N7  UNL     1      -3.037  -1.464  -0.597  1.00  0.00    -0.175 N 
ATOM     25  H7  UNL     1      -3.039  -2.446  -0.873  1.00  0.00     0.186 HD
BRANCH  22  26
HETATM   26  N6  UNL     1      -5.337  -1.423  -0.681  1.00  0.00    -0.234 N 
ATOM     27  H62 UNL     1      -6.221  -0.925  -0.578  1.00  0.00     0.174 HD
ATOM     28  H61 UNL     1      -5.327  -2.405  -0.957  1.00  0.00     0.174 HD
ENDBRANCH  22  26
ENDBRANCH  15  17
ENDBRANCH   4  15
TORSDOF 5
