REMARK  7 active torsions:
REMARK  status: ('A' for Active; 'I' for Inactive)
REMARK    1  A    between atoms: N1_2  and  N2_4 
REMARK    2  A    between atoms: N2_4  and  C3_6 
REMARK    3  A    between atoms: C6_15  and  N5_16 
REMARK    4  A    between atoms: N5_16  and  N6_18 
REMARK    5  A    between atoms: N6_18  and  C7_20 
REMARK    6  A    between atoms: C8_21  and  O3_22 
REMARK    7  A    between atoms: N8_27  and  O4_28 
ROOT
HETATM    1  C3  UNL     1      -1.754  -0.888   0.384  1.00  0.00     0.154 A 
HETATM    2  N3  UNL     1      -2.801  -1.717   0.451  1.00  0.00    -0.292 N 
ATOM      3  H3  UNL     1      -3.745  -1.375   0.270  1.00  0.00     0.172 HD
HETATM    4  C4  UNL     1      -2.591  -3.006   0.760  1.00  0.00     0.328 A 
HETATM    5  O1  UNL     1      -3.572  -3.801   0.827  1.00  0.00    -0.247 OA
HETATM    6  N4  UNL     1      -1.369  -3.508   1.007  1.00  0.00    -0.273 N 
ATOM      7  H4  UNL     1      -1.255  -4.495   1.239  1.00  0.00     0.173 HD
HETATM    8  C5  UNL     1      -0.297  -2.697   0.946  1.00  0.00     0.281 A 
HETATM    9  O2  UNL     1       0.865  -3.124   1.170  1.00  0.00    -0.265 OA
HETATM   10  C6  UNL     1      -0.493  -1.373   0.632  1.00  0.00     0.162 A 
ENDROOT
BRANCH  10  11
HETATM   11  N5  UNL     1       0.660  -0.493   0.565  1.00  0.00    -0.291 N 
ATOM     12  H5  UNL     1       1.058  -0.049   1.393  1.00  0.00     0.187 HD
BRANCH  11  13
HETATM   13  N6  UNL     1       1.141  -0.314  -0.605  1.00  0.00    -0.279 N 
ATOM     14  H6  UNL     1       0.745  -0.756  -1.435  1.00  0.00     0.189 HD
BRANCH  13  15
HETATM   15  C7  UNL     1       2.285   0.560  -0.663  1.00  0.00     0.200 A 
HETATM   16  C8  UNL     1       3.542   0.335  -0.140  1.00  0.00     0.192 A 
HETATM   17  N7  UNL     1       4.357   1.376  -0.389  1.00  0.00    -0.323 N 
HETATM   18  C9  UNL     1       5.755   1.548  -0.017  1.00  0.00     0.159 C 
HETATM   19  C10 UNL     1       3.607   2.265  -1.076  1.00  0.00     0.220 A 
HETATM   20  N8  UNL     1       2.360   1.773  -1.241  1.00  0.00    -0.198 N 
BRANCH  16  21
HETATM   21  O3  UNL     1       3.920  -0.803   0.549  1.00  0.00    -0.343 OA
ATOM     22  H3  UNL     1       4.785  -0.958   0.909  1.00  0.00     0.219 HD
ENDBRANCH  16  21
BRANCH  20  23
HETATM   23  O4  UNL     1       1.284   2.369  -1.889  1.00  0.00    -0.280 OA
ATOM     24  H4  UNL     1       1.337   3.225  -2.297  1.00  0.00     0.245 HD
ENDBRANCH  20  23
ENDBRANCH  13  15
ENDBRANCH  11  13
ENDBRANCH  10  11
BRANCH   1  25
HETATM   25  N2  UNL     1      -1.933   0.477   0.062  1.00  0.00    -0.303 N 
ATOM     26  H2  UNL     1      -1.086   1.044   0.031  1.00  0.00     0.182 HD
BRANCH  25  27
HETATM   27  N1  UNL     1      -3.105   1.131  -0.213  1.00  0.00    -0.238 NA
HETATM   28  C1  UNL     1      -3.911   1.175   0.978  1.00  0.00     0.135 C 
HETATM   29  C2  UNL     1      -3.837   0.721  -1.353  1.00  0.00     0.135 C 
ENDBRANCH  25  27
ENDBRANCH   1  25
TORSDOF 7
