REMARK  8 active torsions:
REMARK  status: ('A' for Active; 'I' for Inactive)
REMARK       I    between atoms: N1_2  and  C2_4 
REMARK    1  A    between atoms: C2_4  and  C3_6 
REMARK    2  A    between atoms: C4_7  and  N2_8 
REMARK    3  A    between atoms: N2_8  and  N3_10 
REMARK    4  A    between atoms: N3_10  and  C5_12 
REMARK    5  A    between atoms: C8_15  and  S1_16 
REMARK    6  A    between atoms: S1_16  and  N4_19 
REMARK    7  A    between atoms: C12_24  and  O4_25 
REMARK    8  A    between atoms: C14_29  and  O6_30 
ROOT
HETATM    1  N3  UNL     1      -0.629   1.534   0.537  1.00  0.00    -0.298 N 
ATOM      2  H3  UNL     1      -0.621   2.513   0.824  1.00  0.00     0.187 HD
ENDROOT
BRANCH   1   3
HETATM    3  N2  UNL     1      -1.702   0.827   0.587  1.00  0.00    -0.297 N 
ATOM      4  H2  UNL     1      -1.707  -0.152   0.300  1.00  0.00     0.187 HD
BRANCH   3   5
HETATM    5  C4  UNL     1      -2.879   1.465   1.058  1.00  0.00     0.091 A 
HETATM    6  C3  UNL     1      -4.189   1.004   0.847  1.00  0.00     0.119 A 
HETATM    7  C14 UNL     1      -5.028   1.902   1.461  1.00  0.00     0.201 A 
HETATM    8  O5  UNL     1      -4.288   2.845   2.010  1.00  0.00    -0.297 OA
HETATM    9  C13 UNL     1      -3.019   2.616   1.790  1.00  0.00     0.177 A 
BRANCH   6  10
HETATM   10  C2  UNL     1      -4.507  -0.196   0.111  1.00  0.00     0.258 C 
HETATM   11  N1  UNL     1      -5.817  -0.654  -0.098  1.00  0.00    -0.361 N 
HETATM   12  C1  UNL     1      -6.085  -1.862  -0.841  1.00  0.00     0.149 C 
ATOM     13  H1  UNL     1      -6.598  -0.121   0.284  1.00  0.00     0.162 HD
HETATM   14  O1  UNL     1      -3.574  -0.894  -0.383  1.00  0.00    -0.267 OA
ENDBRANCH   6  10
BRANCH   7  15
HETATM   15  O6  UNL     1      -6.423   1.870   1.525  1.00  0.00    -0.340 OA
ATOM     16  H6  UNL     1      -7.003   2.491   1.950  1.00  0.00     0.220 HD
ENDBRANCH   7  15
ENDBRANCH   3   5
ENDBRANCH   1   3
BRANCH   1  17
HETATM   17  C5  UNL     1       0.559   0.881   0.058  1.00  0.00     0.082 A 
HETATM   18  C6  UNL     1       1.738   0.937   0.763  1.00  0.00     0.035 A 
HETATM   19  C7  UNL     1       2.889   0.296   0.285  1.00  0.00     0.028 A 
HETATM   20  C8  UNL     1       2.872  -0.405  -0.899  1.00  0.00     0.095 A 
HETATM   21  C11 UNL     1       1.676  -0.444  -1.583  1.00  0.00     0.069 A 
HETATM   22 BR1  UNL     1       1.624  -1.413  -3.233  1.00  0.00    -0.046 Br
HETATM   23  C12 UNL     1       0.536   0.179  -1.131  1.00  0.00     0.112 A 
BRANCH  20  24
HETATM   24  S1  UNL     1       4.283  -1.213  -1.515  1.00  0.00     0.244 S 
HETATM   25  O2  UNL     1       3.967  -2.695  -1.615  1.00  0.00    -0.206 OA
HETATM   26  O3  UNL     1       4.600  -0.762  -2.912  1.00  0.00    -0.206 OA
BRANCH  24  27
HETATM   27  N4  UNL     1       5.670  -1.049  -0.560  1.00  0.00    -0.215 NA
HETATM   28  C9  UNL     1       6.159   0.277  -0.377  1.00  0.00     0.129 C 
HETATM   29  C10 UNL     1       5.639  -1.827   0.657  1.00  0.00     0.129 C 
ENDBRANCH  24  27
ENDBRANCH  20  24
BRANCH  23  30
HETATM   30  O4  UNL     1      -0.667   0.141  -1.816  1.00  0.00    -0.357 OA
ATOM     31  H4  UNL     1      -0.683  -0.342  -2.634  1.00  0.00     0.217 HD
ENDBRANCH  23  30
ENDBRANCH   1  17
TORSDOF 8
