REMARK  5 active torsions:
REMARK  status: ('A' for Active; 'I' for Inactive)
REMARK    1  A    between atoms: C2_2  and  N1_3 
REMARK    2  A    between atoms: N1_3  and  C3_5 
REMARK    3  A    between atoms: C4_7  and  C5_8 
REMARK    4  A    between atoms: C5_8  and  S2_9 
REMARK    5  A    between atoms: S2_9  and  C6_10 
ROOT
HETATM    1  C3  UNL     1       3.616   0.301   0.806  1.00  0.00     0.105 A 
HETATM    2  S1  UNL     1       2.034   0.927   0.831  1.00  0.00    -0.072 SA
HETATM    3  C4  UNL     1       1.165  -0.507   0.530  1.00  0.00     0.018 A 
HETATM    4  C9  UNL     1       2.143  -1.449   0.416  1.00  0.00     0.072 A 
HETATM    5 CL1  UNL     1       1.704  -3.155   0.089  1.00  0.00    -0.081 Cl
HETATM    6  C10 UNL     1       3.421  -1.030   0.560  1.00  0.00     0.091 A 
HETATM    7 CL2  UNL     1       4.844  -2.118   0.444  1.00  0.00    -0.079 Cl
ENDROOT
BRANCH   3   8
HETATM    8  C5  UNL     1      -0.331  -0.704   0.413  1.00  0.00     0.130 C 
BRANCH   8   9
HETATM    9  S2  UNL     1      -1.122   0.907   0.656  1.00  0.00    -0.089 SA
BRANCH   9  10
HETATM   10  C6  UNL     1      -2.912   0.711   0.524  1.00  0.00     0.136 C 
HETATM   11  N2  UNL     1      -3.765   1.668   0.648  1.00  0.00    -0.369 N 
HETATM   12  C7  UNL     1      -5.088   1.157   0.485  1.00  0.00     0.141 C 
ATOM     13  H2  UNL     1      -3.531   2.643   0.834  1.00  0.00     0.161 HD
HETATM   14  C8  UNL     1      -4.933  -0.338   0.592  1.00  0.00     0.141 C 
HETATM   15  N3  UNL     1      -3.553  -0.529   0.272  1.00  0.00    -0.369 N 
ATOM     16  H3  UNL     1      -3.117  -1.385  -0.069  1.00  0.00     0.161 HD
ENDBRANCH   9  10
ENDBRANCH   8   9
ENDBRANCH   3   8
BRANCH   1  17
HETATM   17  N1  UNL     1       4.881   0.988   0.997  1.00  0.00    -0.319 N 
ATOM     18  H1  UNL     1       5.184   1.243   1.937  1.00  0.00     0.176 HD
BRANCH  17  19
HETATM   19  C2  UNL     1       5.623   1.277  -0.018  1.00  0.00    -0.074 C 
HETATM   20  C1  UNL     1       6.059   1.418  -1.243  1.00  0.00     0.123 C 
ENDBRANCH  17  19
ENDBRANCH   1  17
TORSDOF 5
