REMARK  6 active torsions:
REMARK  status: ('A' for Active; 'I' for Inactive)
REMARK    1  A    between atoms: C2_2  and  C4_5 
REMARK    2  A    between atoms: N3_10  and  C5_11 
REMARK    3  A    between atoms: C5_11  and  C6_12 
REMARK    4  A    between atoms: C9_16  and  O1_17 
REMARK    5  A    between atoms: O1_17  and  C10_18 
REMARK       I    between atoms: C10_18  and  N4_20 
REMARK    6  A    between atoms: N4_20  and  C11_22 
ROOT
HETATM    1  C5  UNL     1       2.864  -0.944  -0.027  1.00  0.00     0.085 C 
HETATM    2  C7  UNL     1       2.329  -2.193   0.642  1.00  0.00     0.038 C 
HETATM    3  C8  UNL     1       1.018  -2.521  -0.091  1.00  0.00     0.035 C 
HETATM    4  C9  UNL     1       0.502  -1.097  -0.311  1.00  0.00     0.136 C 
HETATM    5  C17 UNL     1       1.720  -0.454  -0.832  1.00  0.00     0.068 C 
ENDROOT
BRANCH   1   6
HETATM    6  N3  UNL     1       3.285   0.029   0.963  1.00  0.00    -0.250 N 
HETATM    7  C4  UNL     1       4.109   1.054   1.134  1.00  0.00     0.139 A 
HETATM    8  N1  UNL     1       3.673   1.192   2.406  1.00  0.00    -0.271 N 
HETATM    9  N2  UNL     1       2.878   0.191   2.213  1.00  0.00    -0.237 N 
ATOM     10  H1  UNL     1       3.882   1.818   3.184  1.00  0.00     0.190 HD
ATOM     11  H2  UNL     1       2.197  -0.291   2.800  1.00  0.00     0.208 HD
BRANCH   7  12
HETATM   12  C2  UNL     1       5.091   1.799   0.357  1.00  0.00     0.091 C 
HETATM   13  C1  UNL     1       6.419   1.084   0.178  1.00  0.00     0.041 C 
HETATM   14  C3  UNL     1       4.564   2.312  -0.968  1.00  0.00     0.041 C 
HETATM   15 CL1  UNL     1       5.517   3.307   1.265  1.00  0.00    -0.112 Cl
ENDBRANCH   7  12
ENDBRANCH   1   6
BRANCH   1  16
HETATM   16  C6  UNL     1       4.025  -1.486  -0.841  1.00  0.00     0.255 C 
HETATM   17  F1  UNL     1       3.461  -2.426  -1.731  1.00  0.00    -0.253 F 
ENDBRANCH   1  16
BRANCH   4  18
HETATM   18  O1  UNL     1      -0.653  -1.003  -1.059  1.00  0.00    -0.299 OA
BRANCH  18  19
HETATM   19  C10 UNL     1      -1.853  -0.660  -0.533  1.00  0.00     0.361 C 
HETATM   20  O2  UNL     1      -1.907  -0.453   0.723  1.00  0.00    -0.238 OA
HETATM   21  N4  UNL     1      -3.020  -0.536  -1.347  1.00  0.00    -0.332 N 
ATOM     22  H4  UNL     1      -2.968  -0.682  -2.355  1.00  0.00     0.165 HD
BRANCH  21  23
HETATM   23  C11 UNL     1      -4.281  -0.199  -0.713  1.00  0.00     0.086 C 
HETATM   24  C12 UNL     1      -4.355   1.312  -0.417  1.00  0.00     0.025 C 
HETATM   25  C13 UNL     1      -5.484   1.444   0.584  1.00  0.00     0.002 C 
HETATM   26  C14 UNL     1      -6.786   0.937   0.025  1.00  0.00     0.000 C 
HETATM   27  C15 UNL     1      -6.714  -0.345  -0.733  1.00  0.00     0.002 C 
HETATM   28  C16 UNL     1      -5.443  -0.524  -1.555  1.00  0.00     0.025 C 
ENDBRANCH  21  23
ENDBRANCH  18  19
ENDBRANCH   4  18
TORSDOF 6
