REMARK  6 active torsions:
REMARK  status: ('A' for Active; 'I' for Inactive)
REMARK    1  A    between atoms: C5_5  and  O1_6 
REMARK    2  A    between atoms: C6_8  and  N1_9 
REMARK       I    between atoms: N1_9  and  C7_11 
REMARK    3  A    between atoms: C7_11  and  C8_13 
REMARK    4  A    between atoms: C8_13  and  C9_14 
REMARK    5  A    between atoms: C9_14  and  N2_15 
REMARK    6  A    between atoms: C10_16  and  C11_17 
ROOT
HETATM    1  N2  UNL     1      -1.637  -1.155   0.223  1.00  0.00    -0.362 N 
HETATM    2  C10 UNL     1      -2.155  -0.766   1.471  1.00  0.00     0.194 C 
HETATM    3  C12 UNL     1      -2.750   0.592   1.588  1.00  0.00     0.054 C 
HETATM    4  C13 UNL     1      -3.152   1.282   0.341  1.00  0.00     0.005 C 
HETATM    5  C14 UNL     1      -4.296   2.240   0.661  1.00  0.00     0.026 C 
HETATM    6  C15 UNL     1      -2.033   2.067  -0.306  1.00  0.00     0.026 C 
HETATM    7  S1  UNL     1      -3.855   0.031  -0.765  1.00  0.00    -0.129 SA
HETATM    8  C16 UNL     1      -2.532  -1.249  -0.882  1.00  0.00     0.074 C 
HETATM    9  C17 UNL     1      -1.833  -0.865  -2.183  1.00  0.00     0.050 C 
HETATM   10  C18 UNL     1      -3.150  -2.589  -1.137  1.00  0.00     0.050 C 
ENDROOT
BRANCH   1  11
HETATM   11  C9  UNL     1      -0.641  -2.158   0.223  1.00  0.00     0.070 C 
BRANCH  11  12
HETATM   12  C8  UNL     1       0.653  -1.954   0.842  1.00  0.00     0.147 C 
BRANCH  12  13
HETATM   13  C7  UNL     1       1.493  -0.856   0.345  1.00  0.00     0.222 C 
HETATM   14  N1  UNL     1       2.799  -0.613   0.916  1.00  0.00    -0.353 N 
ATOM     15  H1  UNL     1       3.124  -1.219   1.670  1.00  0.00     0.163 HD
HETATM   16  O2  UNL     1       1.176  -0.073  -0.569  1.00  0.00    -0.273 OA
BRANCH  14  17
HETATM   17  C6  UNL     1       3.663   0.455   0.461  1.00  0.00     0.116 C 
HETATM   18  C2  UNL     1       4.005   0.203  -0.987  1.00  0.00     0.007 C 
HETATM   19  C1  UNL     1       5.461  -0.196  -1.086  1.00  0.00     0.012 C 
HETATM   20  C3  UNL     1       3.703   1.454  -1.743  1.00  0.00     0.009 C 
HETATM   21  C4  UNL     1       3.261   2.487  -0.740  1.00  0.00     0.034 C 
HETATM   22  C5  UNL     1       3.029   1.807   0.568  1.00  0.00     0.141 C 
BRANCH  22  23
HETATM   23  O1  UNL     1       3.712   2.572   1.537  1.00  0.00    -0.394 OA
ATOM     24  H1  UNL     1       3.564   2.139   2.370  1.00  0.00     0.210 HD
ENDBRANCH  22  23
ENDBRANCH  14  17
ENDBRANCH  12  13
ENDBRANCH  11  12
ENDBRANCH   1  11
BRANCH   2  25
HETATM   25  C11 UNL     1      -3.069  -1.709   2.211  1.00  0.00     0.407 C 
HETATM   26  F1  UNL     1      -3.447  -1.095   3.445  1.00  0.00    -0.169 F 
HETATM   27  F2  UNL     1      -4.299  -1.898   1.617  1.00  0.00    -0.169 F 
HETATM   28  F3  UNL     1      -2.537  -2.939   2.472  1.00  0.00    -0.169 F 
ENDBRANCH   2  25
TORSDOF 6
