REMARK  3 active torsions:
REMARK  status: ('A' for Active; 'I' for Inactive)
REMARK    1  A    between atoms: C4_4  and  N1_5 
REMARK    2  A    between atoms: N2_8  and  C7_9 
REMARK    3  A    between atoms: C16_18  and  O1_19 
ROOT
HETATM    1  N1  UNL     1       1.247  -0.139  -0.103  1.00  0.00    -0.368 N 
HETATM    2  C5  UNL     1       0.471  -0.116   1.119  1.00  0.00     0.168 C 
HETATM    3  C6  UNL     1      -0.747  -0.979   0.863  1.00  0.00     0.083 C 
HETATM    4  N2  UNL     1      -1.519  -0.373  -0.144  1.00  0.00    -0.366 N 
HETATM    5  C14 UNL     1      -0.883   0.090  -1.296  1.00  0.00     0.083 C 
HETATM    6  C15 UNL     1       0.551  -0.394  -1.333  1.00  0.00     0.168 C 
ENDROOT
BRANCH   1   7
HETATM    7  C4  UNL     1       2.645   0.085  -0.065  1.00  0.00     0.083 A 
HETATM    8  C3  UNL     1       3.137   1.180  -0.770  1.00  0.00     0.043 A 
HETATM    9  C2  UNL     1       4.494   1.447  -0.766  1.00  0.00    -0.021 A 
HETATM   10  C1  UNL     1       5.057   2.614  -1.510  1.00  0.00     0.051 C 
HETATM   11  C18 UNL     1       5.314   0.602  -0.052  1.00  0.00     0.110 A 
HETATM   12  N3  UNL     1       4.805  -0.462   0.628  1.00  0.00    -0.321 N 
HETATM   13  S1  UNL     1       6.942   0.874  -0.014  1.00  0.00    -0.060 SA
HETATM   14  C16 UNL     1       3.490  -0.740   0.639  1.00  0.00     0.170 A 
HETATM   15  C17 UNL     1       5.682  -1.344   1.378  1.00  0.00     0.159 C 
BRANCH  14  16
HETATM   16  O1  UNL     1       3.013  -1.813   1.331  1.00  0.00    -0.344 OA
ATOM     17  H1  UNL     1       3.597  -2.383   1.817  1.00  0.00     0.219 HD
ENDBRANCH  14  16
ENDBRANCH   1   7
BRANCH   4  18
HETATM   18  C7  UNL     1      -2.894  -0.218   0.048  1.00  0.00     0.091 C 
HETATM   19  C8  UNL     1      -3.555  -1.596   0.182  1.00  0.00     0.052 C 
HETATM   20  C9  UNL     1      -4.984  -1.549  -0.201  1.00  0.00    -0.029 C 
HETATM   21  C10 UNL     1      -5.836  -0.539  -0.041  1.00  0.00    -0.031 C 
HETATM   22  C11 UNL     1      -5.575   0.784   0.557  1.00  0.00     0.027 C 
HETATM   23  C12 UNL     1      -4.611   1.565  -0.281  1.00  0.00     0.006 C 
HETATM   24  C13 UNL     1      -3.618   0.626  -0.944  1.00  0.00     0.026 C 
ENDBRANCH   4  18
TORSDOF 3
