REMARK  3 active torsions:
REMARK  status: ('A' for Active; 'I' for Inactive)
REMARK    1  A    between atoms: C1_4  and  C2_5 
REMARK    2  A    between atoms: C2_5  and  C3_6 
REMARK    3  A    between atoms: C3_6  and  N2_7 
ROOT
HETATM    1  N2  UNL     1      -0.351   0.080  -0.171  1.00  0.00    -0.066 N 
HETATM    2  C4  UNL     1      -1.493   0.960  -0.025  1.00  0.00     0.238 C 
HETATM    3  C5  UNL     1      -2.199   0.532   1.267  1.00  0.00     0.034 C 
HETATM    4  C6  UNL     1      -1.464  -0.762   1.541  1.00  0.00     0.015 C 
HETATM    5  C7  UNL     1      -1.717  -1.675   0.373  1.00  0.00     0.034 C 
HETATM    6  C8  UNL     1      -0.729  -1.200  -0.683  1.00  0.00     0.238 C 
HETATM    7  C9  UNL     1      -0.042  -0.277   1.214  1.00  0.00     0.242 C 
ENDROOT
BRANCH   1   8
HETATM    8  C3  UNL     1       0.690   0.743  -0.847  1.00  0.00     0.242 C 
BRANCH   8   9
HETATM    9  C2  UNL     1       2.054   0.117  -0.675  1.00  0.00     0.072 C 
BRANCH   9  10
HETATM   10  C1  UNL     1       3.000   0.949  -1.452  1.00  0.00     0.054 C 
HETATM   11  N1  UNL     1       4.171   1.163  -1.015  1.00  0.00    -0.411 N 
ATOM     12  H12 UNL     1       4.446   0.753  -0.123  1.00  0.00     0.155 HD
ATOM     13  H11 UNL     1       4.823   1.736  -1.550  1.00  0.00     0.155 HD
ENDBRANCH   9  10
ENDBRANCH   8   9
ENDBRANCH   1   8
TORSDOF 3
