REMARK  4 active torsions:
REMARK  status: ('A' for Active; 'I' for Inactive)
REMARK    1  A    between atoms: N1_1  and  C1_4 
REMARK    2  A    between atoms: C2_9  and  S1_10 
REMARK    3  A    between atoms: S1_10  and  C3_11 
REMARK    4  A    between atoms: C3_11  and  C4_12 
ROOT
HETATM    1  C1  UNL     1       3.780  -0.733  -0.030  1.00  0.00     0.159 A 
HETATM    2  N2  UNL     1       3.807   0.568  -0.338  1.00  0.00    -0.279 N 
ATOM      3  H2  UNL     1       4.614   1.144  -0.097  1.00  0.00     0.189 HD
HETATM    4  N3  UNL     1       2.809   1.070  -0.936  1.00  0.00    -0.286 N 
ATOM      5  H3  UNL     1       2.810   2.061  -1.179  1.00  0.00     0.188 HD
HETATM    6  C2  UNL     1       1.764   0.318  -1.248  1.00  0.00     0.130 A 
HETATM    7  S2  UNL     1       2.255  -1.205  -0.639  1.00  0.00    -0.027 SA
ENDROOT
BRANCH   6   8
HETATM    8  S1  UNL     1       0.241   0.793  -2.089  1.00  0.00    -0.103 SA
BRANCH   8   9
HETATM    9  C3  UNL     1      -1.000   1.338  -0.882  1.00  0.00     0.086 C 
BRANCH   9  10
HETATM   10  C4  UNL     1      -1.372   0.137  -0.049  1.00  0.00    -0.005 C 
HETATM   11  C5  UNL     1      -2.391   0.371   1.016  1.00  0.00     0.005 C 
HETATM   12  C6  UNL     1      -3.039  -0.941   0.622  1.00  0.00     0.001 C 
HETATM   13  C7  UNL     1      -2.344  -0.813  -0.718  1.00  0.00     0.005 C 
ENDBRANCH   9  10
ENDBRANCH   8   9
ENDBRANCH   6   8
BRANCH   1  14
HETATM   14  N1  UNL     1       4.704  -1.437   0.583  1.00  0.00    -0.379 N 
ATOM     15  H12 UNL     1       5.614  -1.155   0.947  1.00  0.00     0.158 HD
ATOM     16  H11 UNL     1       4.683  -2.429   0.818  1.00  0.00     0.158 HD
ENDBRANCH   1  14
TORSDOF 4
