REMARK  4 active torsions:
REMARK  status: ('A' for Active; 'I' for Inactive)
REMARK    1  A    between atoms: O1_1  and  C1_3 
REMARK    2  A    between atoms: C6_8  and  O2_9 
REMARK    3  A    between atoms: C11_19  and  O3_20 
REMARK    4  A    between atoms: C12_22  and  C13_23 
ROOT
HETATM    1  C1  UNL     1      -4.180   1.286  -0.621  1.00  0.00     0.140 A 
HETATM    2  C2  UNL     1      -4.865   0.128  -0.993  1.00  0.00     0.057 A 
HETATM    3  C3  UNL     1      -4.204  -1.075  -1.057  1.00  0.00     0.018 A 
HETATM    4  C4  UNL     1      -2.868  -1.104  -0.749  1.00  0.00    -0.006 A 
HETATM    5  C5  UNL     1      -2.214  -2.320  -0.818  1.00  0.00     0.052 A 
HETATM    6  C6  UNL     1      -0.874  -2.379  -0.514  1.00  0.00     0.093 A 
HETATM    7  C7  UNL     1      -0.189  -1.241  -0.146  1.00  0.00     0.072 A 
HETATM    8  C8  UNL     1      -0.821  -0.000  -0.068  1.00  0.00     0.024 A 
HETATM    9  C9  UNL     1      -2.167   0.041  -0.376  1.00  0.00     0.055 A 
HETATM   10  N1  UNL     1      -2.877   1.186  -0.334  1.00  0.00    -0.336 N 
ATOM     11  H1  UNL     1      -2.385   2.038  -0.064  1.00  0.00     0.168 HD
HETATM   12  C10 UNL     1      -0.153   1.238   0.315  1.00  0.00     0.187 A 
HETATM   13  N2  UNL     1      -0.569   1.640   1.657  1.00  0.00    -0.131 NA
HETATM   14  N3  UNL     1       0.783   1.641   2.014  1.00  0.00    -0.104 NA
HETATM   15  C11 UNL     1       1.243   1.151   0.727  1.00  0.00     0.194 A 
HETATM   16  C12 UNL     1       1.871  -0.174   0.834  1.00  0.00     0.194 C 
HETATM   17  N4  UNL     1       1.191  -1.243   0.177  1.00  0.00    -0.372 N 
ATOM     18  H4  UNL     1       1.736  -2.066  -0.078  1.00  0.00     0.160 HD
ENDROOT
BRANCH  16  19
HETATM   19  C13 UNL     1       3.250  -0.095   0.227  1.00  0.00     0.079 A 
HETATM   20  C14 UNL     1       3.555  -0.154  -1.118  1.00  0.00     0.037 A 
HETATM   21  C15 UNL     1       4.921  -0.045  -1.226  1.00  0.00     0.027 A 
HETATM   22  C16 UNL     1       5.399   0.076   0.048  1.00  0.00     0.142 A 
HETATM   23  O4  UNL     1       4.389   0.042   0.868  1.00  0.00    -0.325 OA
ENDBRANCH  16  19
BRANCH  15  24
HETATM   24  O3  UNL     1       2.028   2.157   0.122  1.00  0.00    -0.369 OA
ATOM     25  H3  UNL     1       2.938   2.100   0.390  1.00  0.00     0.212 HD
ENDBRANCH  15  24
BRANCH   6  26
HETATM   26  O2  UNL     1      -0.232  -3.601  -0.587  1.00  0.00    -0.358 OA
ATOM     27  H2  UNL     1       0.694  -3.642  -0.377  1.00  0.00     0.217 HD
ENDBRANCH   6  26
BRANCH   1  28
HETATM   28  O1  UNL     1      -4.844   2.499  -0.555  1.00  0.00    -0.346 OA
ATOM     29  H1  UNL     1      -4.378   3.287  -0.302  1.00  0.00     0.219 HD
ENDBRANCH   1  28
TORSDOF 4
