REMARK  14 active torsions:
REMARK  status: ('A' for Active; 'I' for Inactive)
REMARK    1  A    between atoms: C2_2  and  C3_3 
REMARK    2  A    between atoms: C3_3  and  C4_4 
REMARK    3  A    between atoms: C4_4  and  C5_5 
REMARK    4  A    between atoms: C5_5  and  C6_6 
REMARK    5  A    between atoms: C6_6  and  C7_7 
REMARK    6  A    between atoms: C15_17  and  O3_18 
REMARK    7  A    between atoms: C16_22  and  C17_23 
REMARK    8  A    between atoms: C17_23  and  O4_24 
REMARK    9  A    between atoms: C19_27  and  C20_28 
REMARK   10  A    between atoms: C23_35  and  C24_36 
REMARK   11  A    between atoms: C24_36  and  C25_37 
REMARK   12  A    between atoms: C25_37  and  C26_38 
REMARK   13  A    between atoms: C26_38  and  N3_39 
REMARK   14  A    between atoms: C28_44  and  O6_45 
ROOT
HETATM    1  C7  UNL     1      -3.543   0.820   1.174  1.00  0.00     0.166 A 
HETATM    2  O1  UNL     1      -3.090   2.101   1.360  1.00  0.00    -0.307 OA
HETATM    3  C8  UNL     1      -1.738   2.070   1.780  1.00  0.00     0.295 A 
HETATM    4  O2  UNL     1      -1.077   3.083   2.103  1.00  0.00    -0.259 OA
HETATM    5  C9  UNL     1      -1.256   0.686   1.767  1.00  0.00     0.060 A 
HETATM    6  C10 UNL     1       0.008   0.070   2.031  1.00  0.00    -0.003 A 
HETATM    7  C11 UNL     1       0.176  -1.289   1.856  1.00  0.00     0.029 A 
HETATM    8  C12 UNL     1      -0.894  -2.026   1.429  1.00  0.00     0.016 A 
HETATM    9  C13 UNL     1      -2.137  -1.387   1.181  1.00  0.00     0.026 A 
HETATM   10  C14 UNL     1      -2.339  -0.043   1.342  1.00  0.00    -0.011 A 
HETATM   11  C15 UNL     1      -1.032  -3.475   1.134  1.00  0.00     0.146 C 
HETATM   12  N1  UNL     1      -0.230  -4.329   0.319  1.00  0.00    -0.364 N 
ATOM     13  H1  UNL     1       0.173  -5.143   0.783  1.00  0.00     0.162 HD
HETATM   14  C16 UNL     1       0.076  -4.181  -1.068  1.00  0.00     0.107 C 
HETATM   15  C18 UNL     1       0.857  -2.948  -1.440  1.00  0.00     0.035 C 
HETATM   16  C19 UNL     1       2.285  -2.964  -0.995  1.00  0.00     0.025 C 
HETATM   17  C21 UNL     1       2.834  -1.529  -0.923  1.00  0.00     0.110 C 
HETATM   18  C22 UNL     1       3.915  -1.448   0.088  1.00  0.00     0.222 C 
HETATM   19  O5  UNL     1       4.900  -2.243  -0.173  1.00  0.00    -0.273 OA
HETATM   20  N2  UNL     1       4.010  -0.670   1.226  1.00  0.00    -0.327 N 
ATOM     21  H2  UNL     1       4.095  -1.216   2.083  1.00  0.00     0.168 HD
HETATM   22  C23 UNL     1       4.014   0.749   1.453  1.00  0.00     0.063 C 
HETATM   23  C28 UNL     1       3.412   1.144   2.755  1.00  0.00     0.165 C 
HETATM   24  N6  UNL     1       2.112   0.896   3.238  1.00  0.00    -0.340 N 
HETATM   25  C29 UNL     1       2.036   0.362   4.648  1.00  0.00     0.158 C 
HETATM   26  C30 UNL     1       0.945   1.122   2.493  1.00  0.00     0.105 C 
ENDROOT
BRANCH  22  27
HETATM   27  C24 UNL     1       3.803   1.653   0.315  1.00  0.00     0.063 C 
BRANCH  27  28
HETATM   28  C25 UNL     1       4.840   1.585  -0.781  1.00  0.00     0.026 C 
BRANCH  28  29
HETATM   29  C26 UNL     1       4.531   2.572  -1.893  1.00  0.00     0.122 C 
BRANCH  29  30
HETATM   30  N3  UNL     1       4.547   3.874  -1.268  1.00  0.00    -0.367 N 
HETATM   31  C27 UNL     1       5.588   4.602  -1.100  1.00  0.00     0.196 C 
HETATM   32  N4  UNL     1       6.864   4.163  -1.541  1.00  0.00    -0.067 NA
HETATM   33  N5  UNL     1       5.521   5.885  -0.460  1.00  0.00    -0.067 NA
ATOM     34  H3  UNL     1       3.657   4.244  -0.933  1.00  0.00     0.161 HD
ENDBRANCH  29  30
ENDBRANCH  28  29
ENDBRANCH  27  28
ENDBRANCH  22  27
BRANCH  23  35
HETATM   35  O6  UNL     1       4.168   1.813   3.593  1.00  0.00    -0.344 OA
ATOM     36  H6  UNL     1       3.784   2.065   4.424  1.00  0.00     0.219 HD
ENDBRANCH  23  35
BRANCH  16  37
HETATM   37  C20 UNL     1       3.092  -3.802  -1.941  1.00  0.00     0.227 C 
HETATM   38  F1  UNL     1       3.035  -3.291  -3.237  1.00  0.00    -0.255 F 
ENDBRANCH  16  37
BRANCH  14  39
HETATM   39  C17 UNL     1      -1.117  -4.322  -2.003  1.00  0.00     0.189 C 
BRANCH  39  40
HETATM   40  O4  UNL     1      -0.710  -4.164  -3.330  1.00  0.00    -0.399 OA
ATOM     41  H4  UNL     1      -1.455  -4.252  -3.913  1.00  0.00     0.209 HD
ENDBRANCH  39  40
ENDBRANCH  14  39
BRANCH   1  42
HETATM   42  C6  UNL     1      -4.243   0.528  -0.114  1.00  0.00     0.037 C 
BRANCH  42  43
HETATM   43  C5  UNL     1      -5.475   1.366  -0.310  1.00  0.00     0.003 C 
BRANCH  43  44
HETATM   44  C4  UNL     1      -6.121   0.979  -1.606  1.00  0.00     0.000 C 
BRANCH  44  45
HETATM   45  C3  UNL     1      -7.374   1.763  -1.912  1.00  0.00    -0.000 C 
BRANCH  45  46
HETATM   46  C2  UNL     1      -8.380   1.526  -0.779  1.00  0.00    -0.005 C 
HETATM   47  C1  UNL     1      -8.699   0.054  -0.650  1.00  0.00     0.005 C 
ENDBRANCH  45  46
ENDBRANCH  44  45
ENDBRANCH  43  44
ENDBRANCH  42  43
ENDBRANCH   1  42
BRANCH  11  48
HETATM   48  O3  UNL     1      -2.036  -4.135   1.680  1.00  0.00    -0.346 OA
ATOM     49  H3  UNL     1      -2.124  -5.062   1.491  1.00  0.00     0.219 HD
ENDBRANCH  11  48
TORSDOF 14
