REMARK  12 active torsions:
REMARK  status: ('A' for Active; 'I' for Inactive)
REMARK    1  A    between atoms: C2_2  and  C3_3 
REMARK    2  A    between atoms: C3_3  and  C5_5 
REMARK    3  A    between atoms: C7_10  and  C8_11 
REMARK    4  A    between atoms: C8_11  and  C9_12 
REMARK    5  A    between atoms: C9_12  and  S1_13 
REMARK    6  A    between atoms: C11_17  and  O2_18 
REMARK    7  A    between atoms: C12_20  and  C13_21 
REMARK    8  A    between atoms: C13_21  and  C14_22 
REMARK    9  A    between atoms: C14_22  and  C15_23 
REMARK   10  A    between atoms: C15_23  and  N3_24 
REMARK   11  A    between atoms: C21_36  and  C22_37 
REMARK   12  A    between atoms: C22_37  and  C25_40 
ROOT
HETATM    1  C5  UNL     1      -2.746   1.398   0.211  1.00  0.00     0.188 C 
HETATM    2  N1  UNL     1      -1.635   1.285   1.095  1.00  0.00    -0.345 N 
ATOM      3  H1  UNL     1      -1.883   1.268   2.084  1.00  0.00     0.163 HD
HETATM    4  C6  UNL     1      -0.268   1.194   0.843  1.00  0.00     0.241 C 
HETATM    5  O1  UNL     1       0.465   0.638   1.701  1.00  0.00    -0.271 OA
HETATM    6  C7  UNL     1       0.468   1.696  -0.364  1.00  0.00     0.176 C 
HETATM    7  N2  UNL     1       1.013   0.681  -1.196  1.00  0.00    -0.356 N 
ATOM      8  H2  UNL     1       0.273   0.243  -1.745  1.00  0.00     0.162 HD
HETATM    9  C11 UNL     1       2.230   0.101  -1.495  1.00  0.00     0.159 C 
HETATM   10  C12 UNL     1       3.087  -0.906  -0.867  1.00  0.00     0.062 C 
HETATM   11  N6  UNL     1       2.639  -2.287  -1.049  1.00  0.00    -0.327 N 
ATOM     12  H6  UNL     1       3.315  -2.914  -1.485  1.00  0.00     0.168 HD
HETATM   13  C17 UNL     1       1.422  -2.863  -0.711  1.00  0.00     0.222 C 
HETATM   14  O3  UNL     1       0.789  -3.442  -1.671  1.00  0.00    -0.273 OA
HETATM   15  C18 UNL     1       0.743  -2.910   0.597  1.00  0.00     0.103 C 
HETATM   16  C19 UNL     1      -0.720  -3.169   0.560  1.00  0.00     0.012 C 
HETATM   17  C20 UNL     1      -1.489  -2.630  -0.591  1.00  0.00     0.034 C 
HETATM   18  C21 UNL     1      -2.815  -2.027  -0.199  1.00  0.00     0.141 C 
HETATM   19  O4  UNL     1      -3.139  -0.856  -0.802  1.00  0.00    -0.314 OA
HETATM   20  C26 UNL     1      -2.832   0.424  -0.889  1.00  0.00     0.282 C 
HETATM   21  O5  UNL     1      -2.577   0.892  -2.061  1.00  0.00    -0.263 OA
ENDROOT
BRANCH  10  22
HETATM   22  C13 UNL     1       3.636  -0.683   0.488  1.00  0.00     0.063 C 
BRANCH  22  23
HETATM   23  C14 UNL     1       4.559   0.502   0.633  1.00  0.00     0.026 C 
BRANCH  23  24
HETATM   24  C15 UNL     1       5.792   0.374  -0.233  1.00  0.00     0.122 C 
BRANCH  24  25
HETATM   25  N3  UNL     1       6.572  -0.786   0.085  1.00  0.00    -0.367 N 
HETATM   26  C16 UNL     1       7.875  -0.689  -0.047  1.00  0.00     0.196 C 
HETATM   27  N4  UNL     1       8.649  -1.839   0.269  1.00  0.00    -0.067 NA
HETATM   28  N5  UNL     1       8.476   0.514  -0.486  1.00  0.00    -0.067 NA
ATOM     29  H3  UNL     1       6.133  -1.651   0.401  1.00  0.00     0.161 HD
ENDBRANCH  24  25
ENDBRANCH  23  24
ENDBRANCH  22  23
ENDBRANCH  10  22
BRANCH   9  30
HETATM   30  O2  UNL     1       2.757   0.544  -2.612  1.00  0.00    -0.345 OA
ATOM     31  H2  UNL     1       3.594   0.145  -2.818  1.00  0.00     0.219 HD
ENDBRANCH   9  30
BRANCH   6  32
HETATM   32  C8  UNL     1       1.384   2.840   0.025  1.00  0.00     0.045 C 
BRANCH  32  33
HETATM   33  C9  UNL     1       0.568   3.983   0.609  1.00  0.00     0.076 C 
BRANCH  33  34
HETATM   34  S1  UNL     1       1.698   5.338   1.060  1.00  0.00    -0.173 SA
HETATM   35  C10 UNL     1       2.468   6.061  -0.396  1.00  0.00     0.089 C 
ENDBRANCH  33  34
ENDBRANCH  32  33
ENDBRANCH   6  32
BRANCH   1  36
HETATM   36  C3  UNL     1      -4.082   1.395   0.937  1.00  0.00     0.014 C 
HETATM   37  C4  UNL     1      -5.157   1.583  -0.109  1.00  0.00     0.012 C 
BRANCH  36  38
HETATM   38  C2  UNL     1      -4.187   2.539   1.910  1.00  0.00     0.002 C 
HETATM   39  C1  UNL     1      -5.552   2.545   2.566  1.00  0.00     0.005 C 
ENDBRANCH  36  38
ENDBRANCH   1  36
BRANCH  18  40
HETATM   40  C22 UNL     1      -3.902  -3.027  -0.629  1.00  0.00    -0.008 C 
HETATM   41  C23 UNL     1      -5.240  -2.440  -0.233  1.00  0.00     0.018 C 
HETATM   42  C24 UNL     1      -3.928  -3.111  -2.162  1.00  0.00     0.018 C 
BRANCH  40  43
HETATM   43  C25 UNL     1      -3.759  -4.375  -0.024  1.00  0.00     0.126 C 
HETATM   44 CL1  UNL     1      -5.105  -5.433  -0.601  1.00  0.00    -0.130 Cl
ENDBRANCH  40  43
ENDBRANCH  18  40
TORSDOF 12
