REMARK  7 active torsions:
REMARK  status: ('A' for Active; 'I' for Inactive)
REMARK    1  A    between atoms: C2_2  and  C3_3 
REMARK    2  A    between atoms: C3_3  and  C4_4 
REMARK    3  A    between atoms: C4_4  and  O1_5 
REMARK    4  A    between atoms: O1_5  and  C5_6 
REMARK       I    between atoms: C5_6  and  N1_8 
REMARK    5  A    between atoms: C8_11  and  C9_12 
REMARK    6  A    between atoms: C9_12  and  N2_13 
REMARK       I    between atoms: N2_13  and  C10_15 
REMARK       I    between atoms: C10_15  and  N3_17 
REMARK    7  A    between atoms: N3_17  and  C11_19 
ROOT
HETATM    1  C5  UNL     1       3.380  -1.133  -0.191  1.00  0.00     0.362 C 
HETATM    2  O2  UNL     1       3.555  -1.391  -1.405  1.00  0.00    -0.238 OA
HETATM    3  N1  UNL     1       2.070  -0.890   0.296  1.00  0.00    -0.328 N 
HETATM    4  C6  UNL     1       1.854  -0.592   1.690  1.00  0.00     0.128 C 
HETATM    5  C7  UNL     1       0.460  -0.206   2.035  1.00  0.00     0.026 C 
HETATM    6  C8  UNL     1      -0.297   0.534   0.979  1.00  0.00     0.006 C 
HETATM    7  C15 UNL     1       0.232   0.396  -0.401  1.00  0.00     0.026 C 
HETATM    8  C16 UNL     1       0.931  -0.937  -0.605  1.00  0.00     0.128 C 
ENDROOT
BRANCH   6   9
HETATM    9  C9  UNL     1      -1.757   0.138   1.116  1.00  0.00     0.129 C 
BRANCH   9  10
HETATM   10  N2  UNL     1      -2.614   0.761   0.182  1.00  0.00    -0.343 N 
HETATM   11  C10 UNL     1      -3.995   0.473   0.205  1.00  0.00     0.316 C 
HETATM   12  O3  UNL     1      -4.492  -0.341   1.054  1.00  0.00    -0.247 OA
HETATM   13  N3  UNL     1      -4.915   1.064  -0.705  1.00  0.00    -0.335 N 
ATOM     14  H3  UNL     1      -4.550   1.719  -1.396  1.00  0.00     0.165 HD
ATOM     15  H2  UNL     1      -2.237   1.415  -0.504  1.00  0.00     0.164 HD
BRANCH  13  16
HETATM   16  C11 UNL     1      -6.317   0.796  -0.710  1.00  0.00     0.023 C 
HETATM   17  C12 UNL     1      -6.905   1.194   0.638  1.00  0.00     0.037 C 
HETATM   18  C13 UNL     1      -6.633  -0.674  -0.885  1.00  0.00     0.037 C 
HETATM   19  C14 UNL     1      -6.979   1.535  -1.833  1.00  0.00     0.037 C 
ENDBRANCH  13  16
ENDBRANCH   9  10
ENDBRANCH   6   9
BRANCH   1  20
HETATM   20  O1  UNL     1       4.490  -1.097   0.631  1.00  0.00    -0.304 OA
BRANCH  20  21
HETATM   21  C4  UNL     1       5.807  -1.321   0.240  1.00  0.00     0.180 C 
BRANCH  21  22
HETATM   22  C3  UNL     1       6.319  -0.360  -0.800  1.00  0.00     0.026 C 
BRANCH  22  23
HETATM   23  C2  UNL     1       7.767  -0.761  -1.096  1.00  0.00    -0.002 C 
HETATM   24  C1  UNL     1       8.364   0.167  -2.144  1.00  0.00     0.005 C 
ENDBRANCH  22  23
ENDBRANCH  21  22
ENDBRANCH  20  21
ENDBRANCH   1  20
TORSDOF 7
