REMARK  9 active torsions:
REMARK  status: ('A' for Active; 'I' for Inactive)
REMARK    1  A    between atoms: N1_1  and  C1_5 
REMARK    2  A    between atoms: C1_5  and  N2_6 
REMARK    3  A    between atoms: C1_5  and  C2_10 
REMARK    4  A    between atoms: C2_10  and  C3_11 
REMARK    5  A    between atoms: C3_11  and  C4_12 
REMARK    6  A    between atoms: C4_12  and  C5_13 
REMARK    7  A    between atoms: C5_13  and  C6_14 
REMARK    8  A    between atoms: C6_14  and  N3_15 
REMARK    9  A    between atoms: C8_17  and  O1_18 
ROOT
HETATM    1  N3  UNL     1      -1.013   0.785   0.926  1.00  0.00    -0.363 N 
HETATM    2  C7  UNL     1      -1.496   1.015   2.157  1.00  0.00     0.127 A 
HETATM    3  C8  UNL     1      -2.826   0.811   2.457  1.00  0.00     0.088 A 
HETATM    4  C9  UNL     1      -3.699   0.357   1.476  1.00  0.00    -0.007 A 
HETATM    5  C10 UNL     1      -3.206   0.125   0.227  1.00  0.00     0.001 A 
HETATM    6  C11 UNL     1      -1.867   0.347  -0.013  1.00  0.00     0.103 A 
HETATM    7  C12 UNL     1      -4.306  -0.343  -0.627  1.00  0.00    -0.001 A 
HETATM    8  C13 UNL     1      -4.671  -0.766  -1.900  1.00  0.00     0.100 A 
HETATM    9  N4  UNL     1      -5.989  -1.053  -1.912  1.00  0.00    -0.374 N 
ATOM     10  H4  UNL     1      -6.513  -1.386  -2.721  1.00  0.00     0.164 HD
HETATM   11  C14 UNL     1      -6.502  -0.832  -0.691  1.00  0.00     0.096 A 
HETATM   12  C15 UNL     1      -5.457  -0.387   0.126  1.00  0.00    -0.026 A 
HETATM   13  C16 UNL     1      -5.137   0.051   1.489  1.00  0.00     0.083 A 
ENDROOT
BRANCH   1  14
HETATM   14  C6  UNL     1       0.408   1.006   0.614  1.00  0.00     0.128 C 
BRANCH  14  15
HETATM   15  C5  UNL     1       1.148  -0.262   0.877  1.00  0.00     0.020 C 
BRANCH  15  16
HETATM   16  C4  UNL     1       2.641  -0.147   0.588  1.00  0.00     0.002 C 
BRANCH  16  17
HETATM   17  C3  UNL     1       2.906   0.205  -0.830  1.00  0.00     0.004 C 
BRANCH  17  18
HETATM   18  C2  UNL     1       4.319   0.387  -1.247  1.00  0.00     0.062 C 
BRANCH  18  19
HETATM   19  C1  UNL     1       5.247  -0.762  -1.108  1.00  0.00     0.378 C 
BRANCH  19  20
HETATM   20  N1  UNL     1       5.469  -1.284   0.190  1.00  0.00    -0.051 N 
ATOM     21  H13 UNL     1       6.168  -2.026   0.214  1.00  0.00     0.276 HD
ATOM     22  H12 UNL     1       5.954  -0.635   0.810  1.00  0.00     0.276 HD
ATOM     23  H11 UNL     1       4.557  -1.575   0.541  1.00  0.00     0.276 HD
ENDBRANCH  19  20
BRANCH  19  24
HETATM   24  N2  UNL     1       6.569  -0.340  -1.617  1.00  0.00    -0.051 N 
ATOM     25  H23 UNL     1       7.054   0.309  -0.997  1.00  0.00     0.276 HD
ATOM     26  H22 UNL     1       7.268  -1.082  -1.593  1.00  0.00     0.276 HD
ATOM     27  H21 UNL     1       6.409   0.036  -2.552  1.00  0.00     0.276 HD
ENDBRANCH  19  24
ENDBRANCH  18  19
ENDBRANCH  17  18
ENDBRANCH  16  17
ENDBRANCH  15  16
ENDBRANCH  14  15
ENDBRANCH   1  14
BRANCH   3  28
HETATM   28  O1  UNL     1      -3.329   1.044   3.718  1.00  0.00    -0.359 OA
ATOM     29  H1  UNL     1      -4.246   0.903   3.925  1.00  0.00     0.217 HD
ENDBRANCH   3  28
TORSDOF 9
