REMARK  6 active torsions:
REMARK  status: ('A' for Active; 'I' for Inactive)
REMARK    1  A    between atoms: C2_2  and  C4_4 
REMARK    2  A    between atoms: C15_17  and  C16_18 
REMARK    3  A    between atoms: C16_18  and  O3_19 
REMARK    4  A    between atoms: C16_18  and  C17_21 
REMARK    5  A    between atoms: C17_21  and  O4_23 
REMARK    6  A    between atoms: C20_28  and  C21_29 
ROOT
HETATM    1  C4  UNL     1      -2.943  -1.337   0.822  1.00  0.00     0.049 C 
HETATM    2  C5  UNL     1      -3.012   0.087   1.181  1.00  0.00     0.031 C 
HETATM    3  C6  UNL     1      -1.649   0.713   0.968  1.00  0.00     0.066 C 
HETATM    4  C7  UNL     1      -1.262   1.271   2.278  1.00  0.00     0.026 C 
HETATM    5  C8  UNL     1      -1.733   1.816  -0.092  1.00  0.00     0.279 C 
HETATM    6  O1  UNL     1      -0.489   2.324  -0.278  1.00  0.00    -0.360 OA
HETATM    7  C9  UNL     1      -0.329   3.665  -0.030  1.00  0.00     0.171 C 
HETATM    8  C10 UNL     1       1.068   3.976   0.528  1.00  0.00     0.029 C 
HETATM    9  C11 UNL     1       2.104   3.065  -0.029  1.00  0.00     0.034 C 
HETATM   10  C12 UNL     1       2.898   2.299   0.956  1.00  0.00     0.124 A 
HETATM   11  C13 UNL     1       3.584   1.083   0.348  1.00  0.00     0.066 A 
HETATM   12  C14 UNL     1       2.689   0.216   1.250  1.00  0.00     0.156 A 
HETATM   13  O2  UNL     1       2.243   1.416   1.760  1.00  0.00    -0.378 OA
HETATM   14  C15 UNL     1       1.630  -0.531   0.471  1.00  0.00     0.185 C 
HETATM   15  O5  UNL     1       0.397  -0.598   1.057  1.00  0.00    -0.341 OA
HETATM   16  C19 UNL     1      -0.736  -0.337   0.377  1.00  0.00     0.209 C 
HETATM   17  O6  UNL     1      -0.347   0.072  -0.934  1.00  0.00    -0.291 OA
HETATM   18  C20 UNL     1      -1.537   0.079  -1.601  1.00  0.00     0.290 C 
HETATM   19  O7  UNL     1      -2.285   1.167  -1.217  1.00  0.00    -0.301 OA
HETATM   20  O8  UNL     1      -2.041  -1.157  -1.305  1.00  0.00    -0.321 OA
HETATM   21  C24 UNL     1      -1.660  -1.434   0.032  1.00  0.00     0.199 C 
ENDROOT
BRANCH  14  22
HETATM   22  C16 UNL     1       2.038  -1.893   0.022  1.00  0.00     0.178 C 
BRANCH  22  23
HETATM   23  O3  UNL     1       1.173  -2.351  -1.008  1.00  0.00    -0.390 OA
ATOM     24  H3  UNL     1       1.433  -3.219  -1.294  1.00  0.00     0.210 HD
ENDBRANCH  22  23
BRANCH  22  25
HETATM   25  C17 UNL     1       3.412  -2.126  -0.447  1.00  0.00     0.145 C 
HETATM   26  C18 UNL     1       3.574  -3.636  -0.701  1.00  0.00     0.042 C 
BRANCH  25  27
HETATM   27  O4  UNL     1       4.416  -1.809   0.457  1.00  0.00    -0.393 OA
ATOM     28  H4  UNL     1       5.304  -1.960   0.154  1.00  0.00     0.210 HD
ENDBRANCH  25  27
ENDBRANCH  22  25
ENDBRANCH  14  22
BRANCH  18  29
HETATM   29  C21 UNL     1      -1.245   0.099  -3.106  1.00  0.00     0.071 C 
HETATM   30  C22 UNL     1      -2.555   0.107  -3.830  1.00  0.00     0.017 C 
HETATM   31  C23 UNL     1      -0.357   1.259  -3.466  1.00  0.00     0.017 C 
ENDBRANCH  18  29
BRANCH   1  32
HETATM   32  C2  UNL     1      -3.040  -2.297   1.921  1.00  0.00    -0.086 C 
HETATM   33  C1  UNL     1      -4.039  -3.169   1.917  1.00  0.00     0.014 C 
HETATM   34  C3  UNL     1      -2.073  -2.349   3.050  1.00  0.00     0.043 C 
ENDBRANCH   1  32
TORSDOF 6
