REMARK  8 active torsions:
REMARK  status: ('A' for Active; 'I' for Inactive)
REMARK    1  A    between atoms: C2_2  and  O2_4 
REMARK    2  A    between atoms: O2_4  and  C3_5 
REMARK    3  A    between atoms: C11_13  and  O3_14 
REMARK    4  A    between atoms: C12_16  and  S1_17 
REMARK    5  A    between atoms: C13_21  and  C14_22 
REMARK    6  A    between atoms: C14_22  and  O7_25 
REMARK    7  A    between atoms: C17_27  and  O8_28 
REMARK    8  A    between atoms: O8_28  and  C18_29 
ROOT
HETATM    1  C3  UNL     1      -1.466   0.774  -0.980  1.00  0.00     0.147 C 
HETATM    2  C4  UNL     1      -2.938   0.426  -1.109  1.00  0.00     0.034 C 
HETATM    3  C5  UNL     1      -3.378  -0.845  -0.528  1.00  0.00     0.012 C 
HETATM    4  C6  UNL     1      -2.320  -1.804  -0.089  1.00  0.00    -0.036 C 
HETATM    5  C7  UNL     1      -3.018  -2.646   1.011  1.00  0.00     0.015 C 
HETATM    6  C8  UNL     1      -2.212  -2.827  -1.232  1.00  0.00     0.015 C 
HETATM    7  C9  UNL     1      -1.014  -1.255   0.363  1.00  0.00     0.010 C 
HETATM    8  C10 UNL     1      -0.954  -1.518   1.872  1.00  0.00     0.020 C 
HETATM    9  C11 UNL     1       0.110  -2.030  -0.220  1.00  0.00     0.176 C 
HETATM   10  C12 UNL     1       1.442  -1.569   0.403  1.00  0.00     0.099 C 
HETATM   11  C13 UNL     1       1.754  -0.172   0.131  1.00  0.00     0.029 C 
HETATM   12  C17 UNL     1       0.594   0.704   0.505  1.00  0.00     0.079 C 
HETATM   13  C20 UNL     1      -0.822   0.244   0.267  1.00  0.00     0.044 C 
HETATM   14  C21 UNL     1      -1.649   0.929   1.377  1.00  0.00     0.026 C 
ENDROOT
BRANCH  11  15
HETATM   15  C14 UNL     1       2.668   0.254  -0.945  1.00  0.00     0.081 C 
HETATM   16  C15 UNL     1       2.851   1.748  -1.122  1.00  0.00     0.051 C 
HETATM   17  C16 UNL     1       4.147  -0.140  -0.666  1.00  0.00     0.051 C 
BRANCH  15  18
HETATM   18  O7  UNL     1       2.433  -0.238  -2.217  1.00  0.00    -0.386 OA
ATOM     19  H7  UNL     1       3.022   0.036  -2.910  1.00  0.00     0.211 HD
ENDBRANCH  15  18
ENDBRANCH  11  15
BRANCH  10  20
HETATM   20  S1  UNL     1       2.571  -2.873   0.222  1.00  0.00     0.137 S 
HETATM   21  O4  UNL     1       3.515  -3.112   1.345  1.00  0.00    -0.591 OA
HETATM   22  O5  UNL     1       1.727  -4.193   0.281  1.00  0.00    -0.591 OA
HETATM   23  O6  UNL     1       3.245  -3.039  -1.305  1.00  0.00    -0.591 OA
ENDBRANCH  10  20
BRANCH  12  24
HETATM   24  O8  UNL     1       0.740   1.334   1.752  1.00  0.00    -0.282 OA
BRANCH  24  25
HETATM   25  C18 UNL     1       0.910   2.576   2.163  1.00  0.00     0.259 C 
HETATM   26  C19 UNL     1       1.043   2.923   3.599  1.00  0.00     0.126 C 
HETATM   27  O9  UNL     1       0.954   3.452   1.291  1.00  0.00    -0.265 OA
ENDBRANCH  24  25
ENDBRANCH  12  24
BRANCH   9  28
HETATM   28  O3  UNL     1       0.299  -2.162  -1.520  1.00  0.00    -0.389 OA
ATOM     29  H3  UNL     1       1.018  -2.658  -1.893  1.00  0.00     0.210 HD
ENDBRANCH   9  28
BRANCH   1  30
HETATM   30  O2  UNL     1      -1.381   2.219  -0.837  1.00  0.00    -0.315 OA
BRANCH  30  31
HETATM   31  C2  UNL     1      -0.899   3.044  -1.806  1.00  0.00     0.255 C 
HETATM   32  C1  UNL     1      -0.790   4.516  -1.708  1.00  0.00     0.126 C 
HETATM   33  O1  UNL     1      -0.514   2.502  -2.876  1.00  0.00    -0.266 OA
ENDBRANCH  30  31
ENDBRANCH   1  30
TORSDOF 8
