REMARK  7 active torsions:
REMARK  status: ('A' for Active; 'I' for Inactive)
REMARK    1  A    between atoms: C2_2  and  N2_7 
REMARK    2  A    between atoms: N1_3  and  O1_5 
REMARK    3  A    between atoms: N2_7  and  C3_8 
REMARK    4  A    between atoms: N2_7  and  C5_12 
REMARK    5  A    between atoms: C3_8  and  O2_10 
REMARK    6  A    between atoms: C8_16  and  C9_17 
REMARK    7  A    between atoms: C9_17  and  O4_18 
ROOT
HETATM    1  C5  UNL     1       0.122  -0.004  -0.018  1.00  0.00     0.255 C 
HETATM    2  O3  UNL     1      -0.611  -0.633  -0.977  1.00  0.00    -0.356 OA
HETATM    3  C6  UNL     1      -1.954  -0.411  -0.934  1.00  0.00     0.151 C 
HETATM    4  C7  UNL     1      -2.258   0.805  -1.785  1.00  0.00     0.042 C 
HETATM    5  C8  UNL     1      -2.554  -0.346   0.424  1.00  0.00     0.174 C 
HETATM    6  O5  UNL     1      -1.705   0.178   1.407  1.00  0.00    -0.372 OA
HETATM    7  C10 UNL     1      -0.467  -0.437   1.336  1.00  0.00     0.167 C 
HETATM    8  C11 UNL     1      -0.589  -1.935   1.416  1.00  0.00     0.044 C 
ENDROOT
BRANCH   1   9
HETATM    9  N2  UNL     1       1.518  -0.213  -0.082  1.00  0.00    -0.314 N 
BRANCH   9  10
HETATM   10  C2  UNL     1       2.409   0.448   0.844  1.00  0.00     0.099 C 
HETATM   11  C1  UNL     1       2.303   1.893   1.145  1.00  0.00     0.091 C 
HETATM   12  N1  UNL     1       3.317  -0.242   1.419  1.00  0.00    -0.257 N 
ATOM     13  H1  UNL     1       3.380  -1.237   1.203  1.00  0.00     0.195 HD
BRANCH  12  14
HETATM   14  O1  UNL     1       4.203   0.285   2.304  1.00  0.00    -0.288 OA
ATOM     15  H1  UNL     1       4.878  -0.228   2.732  1.00  0.00     0.244 HD
ENDBRANCH  12  14
ENDBRANCH   9  10
BRANCH   9  16
HETATM   16  C3  UNL     1       2.106  -1.086  -1.066  1.00  0.00     0.219 C 
HETATM   17  C4  UNL     1       3.071  -0.343  -1.969  1.00  0.00     0.063 C 
BRANCH  16  18
HETATM   18  O2  UNL     1       1.198  -1.733  -1.885  1.00  0.00    -0.377 OA
ATOM     19  H2  UNL     1       1.586  -2.309  -2.534  1.00  0.00     0.212 HD
ENDBRANCH  16  18
ENDBRANCH   9  16
ENDBRANCH   1   9
BRANCH   5  20
HETATM   20  C9  UNL     1      -3.842   0.420   0.505  1.00  0.00     0.198 C 
BRANCH  20  21
HETATM   21  O4  UNL     1      -3.663   1.785   0.287  1.00  0.00    -0.398 OA
ATOM     22  H4  UNL     1      -4.478   2.270   0.338  1.00  0.00     0.209 HD
ENDBRANCH  20  21
ENDBRANCH   5  20
TORSDOF 7
