REMARK  7 active torsions:
REMARK  status: ('A' for Active; 'I' for Inactive)
REMARK    1  A    between atoms: N1_1  and  C1_4 
REMARK    2  A    between atoms: C3_8  and  C4_9 
REMARK    3  A    between atoms: C4_9  and  C5_10 
REMARK    4  A    between atoms: C5_10  and  C6_11 
REMARK    5  A    between atoms: C6_11  and  O1_12 
REMARK    6  A    between atoms: O1_12  and  C7_13 
REMARK    7  A    between atoms: C7_13  and  C8_14 
ROOT
HETATM    1  C1  UNL     1      -4.941  -1.037  -0.576  1.00  0.00     0.677 A 
HETATM    2  N2  UNL     1      -4.105  -1.079  -1.604  1.00  0.00    -0.202 N 
ATOM      3  H2  UNL     1      -4.386  -1.560  -2.458  1.00  0.00     0.183 HD
HETATM    4  C2  UNL     1      -2.881  -0.493  -1.541  1.00  0.00     0.117 A 
HETATM    5  C3  UNL     1      -2.503   0.151  -0.397  1.00  0.00     0.002 A 
HETATM    6  C12 UNL     1      -3.358   0.198   0.664  1.00  0.00     0.122 A 
HETATM    7  N5  UNL     1      -3.054   0.796   1.763  1.00  0.00    -0.385 N 
ATOM      8  H51 UNL     1      -3.694   0.831   2.557  1.00  0.00     0.157 HD
ATOM      9  H52 UNL     1      -2.143   1.247   1.845  1.00  0.00     0.157 HD
HETATM   10  N6  UNL     1      -4.581  -0.407   0.554  1.00  0.00    -0.177 N 
ATOM     11  H6  UNL     1      -5.228  -0.379   1.342  1.00  0.00     0.185 HD
ENDROOT
BRANCH   5  12
HETATM   12  C4  UNL     1      -1.176   0.777  -0.304  1.00  0.00     0.046 C 
BRANCH  12  13
HETATM   13  C5  UNL     1      -0.303  -0.148   0.500  1.00  0.00     0.031 C 
BRANCH  13  14
HETATM   14  C6  UNL     1       1.112   0.358   0.686  1.00  0.00     0.168 C 
BRANCH  14  15
HETATM   15  O1  UNL     1       1.755  -0.619   1.437  1.00  0.00    -0.385 OA
BRANCH  15  16
HETATM   16  C7  UNL     1       3.061  -0.360   1.739  1.00  0.00     0.226 C 
BRANCH  16  17
HETATM   17  C8  UNL     1       3.896  -0.201   0.535  1.00  0.00     0.049 A 
HETATM   18  C9  UNL     1       4.178   1.070   0.087  1.00  0.00     0.030 A 
HETATM   19  C10 UNL     1       4.960   1.238  -1.040  1.00  0.00     0.021 A 
HETATM   20  C11 UNL     1       5.460   0.151  -1.721  1.00  0.00     0.107 A 
HETATM   21  N3  UNL     1       5.152  -1.055  -1.237  1.00  0.00    -0.312 N 
HETATM   22  N4  UNL     1       4.396  -1.227  -0.148  1.00  0.00    -0.303 N 
ATOM     23  H3  UNL     1       5.509  -1.880  -1.719  1.00  0.00     0.186 HD
ATOM     24  H4  UNL     1       4.196  -2.176   0.169  1.00  0.00     0.186 HD
ENDBRANCH  16  17
ENDBRANCH  15  16
ENDBRANCH  14  15
ENDBRANCH  13  14
ENDBRANCH  12  13
ENDBRANCH   5  12
BRANCH   1  25
HETATM   25  N1  UNL     1      -6.107  -1.618  -0.685  1.00  0.00    -0.234 N 
ATOM     26  H12 UNL     1      -6.380  -2.097  -1.543  1.00  0.00     0.174 HD
ATOM     27  H11 UNL     1      -6.750  -1.586   0.106  1.00  0.00     0.174 HD
ENDBRANCH   1  25
TORSDOF 7
