REMARK  5 active torsions:
REMARK  status: ('A' for Active; 'I' for Inactive)
REMARK    1  A    between atoms: C2_2  and  C3_3 
REMARK    2  A    between atoms: C3_3  and  C4_4 
REMARK    3  A    between atoms: C5_5  and  C6_6 
REMARK    4  A    between atoms: C6_6  and  C7_7 
REMARK    5  A    between atoms: C7_7  and  C8_8 
ROOT
HETATM    1  C8  UNL     1      -2.451  -0.439   0.074  1.00  0.00     0.051 C 
HETATM    2  C9  UNL     1      -2.847   0.379  -1.117  1.00  0.00     0.195 C 
HETATM    3  C10 UNL     1      -4.335   0.170  -1.246  1.00  0.00     0.072 C 
HETATM    4  C11 UNL     1      -4.704   0.313   0.245  1.00  0.00     0.203 C 
HETATM    5  F1  UNL     1      -5.255  -0.842   0.713  1.00  0.00    -0.247 F 
HETATM    6  C12 UNL     1      -3.332   0.596   0.776  1.00  0.00     0.226 C 
HETATM    7  N1  UNL     1      -2.814   1.537  -0.208  1.00  0.00    -0.063 N 
ATOM      8  H11 UNL     1      -3.282   2.417  -0.424  1.00  0.00     0.278 HD
ATOM      9  H12 UNL     1      -1.969   2.086  -0.050  1.00  0.00     0.278 HD
ENDROOT
BRANCH   1  10
HETATM   10  C7  UNL     1      -1.044  -0.289   0.543  1.00  0.00     0.021 C 
BRANCH  10  11
HETATM   11  C6  UNL     1      -0.023  -0.666  -0.505  1.00  0.00     0.094 C 
BRANCH  11  12
HETATM   12  C5  UNL     1       1.334  -0.498   0.013  1.00  0.00    -0.107 C 
HETATM   13  C4  UNL     1       2.451  -0.360   0.434  1.00  0.00    -0.107 C 
BRANCH  13  14
HETATM   14  C3  UNL     1       3.805  -0.209   0.963  1.00  0.00     0.093 C 
BRANCH  14  15
HETATM   15  C2  UNL     1       4.749  -0.049  -0.209  1.00  0.00     0.007 C 
HETATM   16  C1  UNL     1       6.181   0.114   0.253  1.00  0.00     0.006 C 
ENDBRANCH  14  15
ENDBRANCH  13  14
ENDBRANCH  11  12
ENDBRANCH  10  11
ENDBRANCH   1  10
TORSDOF 5
