REMARK  4 active torsions:
REMARK  status: ('A' for Active; 'I' for Inactive)
REMARK    1  A    between atoms: O1_2  and  C2_3 
REMARK       I    between atoms: C2_3  and  N1_5 
REMARK    2  A    between atoms: N1_5  and  C3_7 
REMARK       I    between atoms: N2_10  and  C6_11 
REMARK       I    between atoms: C6_11  and  N3_13 
REMARK    3  A    between atoms: N3_13  and  C7_15 
REMARK    4  A    between atoms: N5_19  and  C9_20 
ROOT
HETATM    1  C3  UNL     1       3.638   0.186   1.330  1.00  0.00     0.089 C 
HETATM    2  C4  UNL     1       2.577   1.241   1.460  1.00  0.00     0.045 C 
HETATM    3  C5  UNL     1       1.901   1.572   0.150  1.00  0.00     0.129 C 
HETATM    4  N2  UNL     1       1.350   0.296  -0.348  1.00  0.00    -0.334 N 
HETATM    5  C6  UNL     1      -0.031   0.182  -0.531  1.00  0.00     0.323 C 
HETATM    6  O3  UNL     1      -0.748   1.205  -0.223  1.00  0.00    -0.247 OA
HETATM    7  N3  UNL     1      -0.664  -0.967  -1.024  1.00  0.00    -0.306 N 
ATOM      8  H3  UNL     1      -0.092  -1.774  -1.273  1.00  0.00     0.171 HD
HETATM    9  C14 UNL     1       2.278  -0.744  -0.593  1.00  0.00     0.129 C 
HETATM   10  C15 UNL     1       3.238  -1.010   0.547  1.00  0.00     0.045 C 
ENDROOT
BRANCH   7  11
HETATM   11  C7  UNL     1      -2.063  -1.050  -1.189  1.00  0.00     0.070 A 
HETATM   12  C8  UNL     1      -2.672  -2.131  -1.843  1.00  0.00     0.138 A 
HETATM   13  N4  UNL     1      -3.993  -1.954  -1.839  1.00  0.00    -0.307 N 
HETATM   14  N5  UNL     1      -4.278  -0.830  -1.224  1.00  0.00    -0.293 N 
ATOM     15  H4  UNL     1      -4.675  -2.592  -2.249  1.00  0.00     0.186 HD
HETATM   16  C13 UNL     1      -3.105  -0.251  -0.813  1.00  0.00     0.142 A 
BRANCH  14  17
HETATM   17  C9  UNL     1      -5.612  -0.317  -1.028  1.00  0.00     0.042 C 
HETATM   18  C10 UNL     1      -6.120   0.327  -2.293  1.00  0.00     0.039 C 
HETATM   19  C11 UNL     1      -6.512  -1.468  -0.650  1.00  0.00     0.039 C 
HETATM   20  C12 UNL     1      -5.622   0.657   0.133  1.00  0.00     0.039 C 
ENDBRANCH  14  17
ENDBRANCH   7  11
BRANCH   1  21
HETATM   21  N1  UNL     1       4.878   0.733   0.822  1.00  0.00    -0.332 N 
HETATM   22  C2  UNL     1       6.020   0.704   1.695  1.00  0.00     0.360 C 
HETATM   23  O2  UNL     1       5.965   0.225   2.845  1.00  0.00    -0.239 OA
ATOM     24  H1  UNL     1       4.939   1.124  -0.118  1.00  0.00     0.165 HD
BRANCH  22  25
HETATM   25  O1  UNL     1       7.250   1.220   1.275  1.00  0.00    -0.309 OA
HETATM   26  C1  UNL     1       8.389   1.202   2.124  1.00  0.00     0.215 C 
ENDBRANCH  22  25
ENDBRANCH   1  21
TORSDOF 4
