REMARK  14 active torsions:
REMARK  status: ('A' for Active; 'I' for Inactive)
REMARK    1  A    between atoms: C2_2  and  C3_3 
REMARK    2  A    between atoms: C3_3  and  C4_4 
REMARK    3  A    between atoms: C3_3  and  N2_14 
REMARK       I    between atoms: C4_4  and  N1_6 
REMARK    4  A    between atoms: N1_6  and  C5_8 
REMARK    5  A    between atoms: N2_14  and  C11_15 
REMARK    6  A    between atoms: N2_14  and  C13_17 
REMARK    7  A    between atoms: C13_17  and  O2_18 
REMARK    8  A    between atoms: C13_17  and  C14_20 
REMARK    9  A    between atoms: C14_20  and  N3_21 
REMARK   10  A    between atoms: N4_24  and  C16_25 
REMARK   11  A    between atoms: C16_25  and  C17_26 
REMARK   12  A    between atoms: C17_26  and  C18_27 
REMARK       I    between atoms: C18_27  and  N5_29 
REMARK   13  A    between atoms: N5_29  and  C19_31 
REMARK   14  A    between atoms: N7_44  and  C29_45 
ROOT
HETATM    1  N3  UNL     1       0.616  -0.016  -1.366  1.00  0.00    -0.253 N 
HETATM    2  C15 UNL     1       1.109   0.785  -0.355  1.00  0.00     0.337 A 
HETATM    3  O3  UNL     1       0.639   0.673   0.815  1.00  0.00    -0.246 OA
HETATM    4  N4  UNL     1       2.083   1.713  -0.501  1.00  0.00    -0.260 N 
HETATM    5  C25 UNL     1       2.636   1.907  -1.680  1.00  0.00     0.282 A 
HETATM    6  O5  UNL     1       3.524   2.738  -1.925  1.00  0.00    -0.265 OA
HETATM    7  C26 UNL     1       2.183   1.121  -2.749  1.00  0.00     0.148 A 
HETATM    8  N6  UNL     1       2.628   1.087  -4.009  1.00  0.00    -0.339 N 
ATOM      9  H6  UNL     1       3.355   1.668  -4.427  1.00  0.00     0.167 HD
HETATM   10  C27 UNL     1       1.897   0.103  -4.616  1.00  0.00     0.082 A 
HETATM   11  C28 UNL     1       2.153  -0.255  -6.027  1.00  0.00     0.089 C 
HETATM   12  N7  UNL     1       1.028  -0.447  -3.755  1.00  0.00    -0.316 N 
HETATM   13  C32 UNL     1       1.188   0.182  -2.564  1.00  0.00     0.152 A 
ENDROOT
BRANCH   1  14
HETATM   14  C14 UNL     1      -0.336  -0.927  -0.990  1.00  0.00     0.159 C 
BRANCH  14  15
HETATM   15  C13 UNL     1      -1.738  -0.608  -0.811  1.00  0.00     0.155 C 
BRANCH  15  16
HETATM   16  N2  UNL     1      -2.529   0.517  -0.985  1.00  0.00    -0.348 N 
BRANCH  16  17
HETATM   17  C3  UNL     1      -3.963   0.445  -0.613  1.00  0.00     0.178 C 
BRANCH  17  18
HETATM   18  C2  UNL     1      -4.810  -0.577  -1.198  1.00  0.00     0.030 C 
HETATM   19  C1  UNL     1      -4.876  -0.566  -2.693  1.00  0.00     0.007 C 
ENDBRANCH  17  18
BRANCH  17  20
HETATM   20  C4  UNL     1      -3.938   0.391   0.896  1.00  0.00     0.240 C 
HETATM   21  O1  UNL     1      -2.862   0.462   1.532  1.00  0.00    -0.271 OA
HETATM   22  N1  UNL     1      -5.155   0.257   1.615  1.00  0.00    -0.355 N 
ATOM     23  H1  UNL     1      -6.045   0.197   1.121  1.00  0.00     0.162 HD
BRANCH  22  24
HETATM   24  C5  UNL     1      -5.112   0.207   3.059  1.00  0.00     0.084 C 
HETATM   25  C6  UNL     1      -5.626  -1.141   3.495  1.00  0.00     0.025 C 
HETATM   26  C7  UNL     1      -7.070  -1.342   3.107  1.00  0.00     0.002 C 
HETATM   27  C8  UNL     1      -7.862  -0.126   3.474  1.00  0.00     0.000 C 
HETATM   28  C9  UNL     1      -7.092   0.741   4.446  1.00  0.00     0.002 C 
HETATM   29  C10 UNL     1      -5.925   1.336   3.673  1.00  0.00     0.025 C 
ENDBRANCH  22  24
ENDBRANCH  17  20
ENDBRANCH  16  17
BRANCH  16  30
HETATM   30  C11 UNL     1      -2.142   1.836  -1.429  1.00  0.00     0.121 C 
HETATM   31  C12 UNL     1      -2.142   2.116  -2.878  1.00  0.00     0.026 C 
ENDBRANCH  16  30
ENDBRANCH  15  16
BRANCH  15  32
HETATM   32  O2  UNL     1      -2.478  -1.637  -0.364  1.00  0.00    -0.345 OA
ATOM     33  H2  UNL     1      -1.936  -2.408  -0.245  1.00  0.00     0.219 HD
ENDBRANCH  15  32
ENDBRANCH  14  15
ENDBRANCH   1  14
BRANCH   4  34
HETATM   34  C16 UNL     1       2.440   2.540   0.641  1.00  0.00     0.170 C 
BRANCH  34  35
HETATM   35  C17 UNL     1       3.260   1.829   1.640  1.00  0.00     0.067 C 
BRANCH  35  36
HETATM   36  C18 UNL     1       4.554   1.264   1.328  1.00  0.00     0.239 C 
HETATM   37  O4  UNL     1       5.165   1.269   0.251  1.00  0.00    -0.269 OA
HETATM   38  N5  UNL     1       5.274   0.583   2.409  1.00  0.00    -0.353 N 
ATOM     39  H5  UNL     1       4.867   0.516   3.342  1.00  0.00     0.163 HD
BRANCH  38  40
HETATM   40  C19 UNL     1       6.547   0.019   2.134  1.00  0.00     0.084 C 
HETATM   41  C20 UNL     1       7.642   0.641   3.001  1.00  0.00     0.025 C 
HETATM   42  C21 UNL     1       8.957   0.306   2.330  1.00  0.00     0.002 C 
HETATM   43  C22 UNL     1       8.989  -1.104   1.815  1.00  0.00     0.000 C 
HETATM   44  C23 UNL     1       7.989  -1.996   2.513  1.00  0.00     0.002 C 
HETATM   45  C24 UNL     1       6.581  -1.468   2.413  1.00  0.00     0.025 C 
ENDBRANCH  38  40
ENDBRANCH  35  36
ENDBRANCH  34  35
ENDBRANCH   4  34
BRANCH  12  46
HETATM   46  C29 UNL     1       0.139  -1.544  -3.988  1.00  0.00     0.093 A 
HETATM   47  C30 UNL     1      -0.271  -1.847  -5.431  1.00  0.00     0.028 A 
HETATM   48  C31 UNL     1      -1.257  -1.504  -4.381  1.00  0.00     0.028 A 
ENDBRANCH  12  46
TORSDOF 14
