REMARK  14 active torsions:
REMARK  status: ('A' for Active; 'I' for Inactive)
REMARK    1  A    between atoms: C2_2  and  O1_3 
REMARK    2  A    between atoms: O1_3  and  C3_4 
REMARK       I    between atoms: C3_4  and  N1_6 
REMARK    3  A    between atoms: N1_6  and  C4_7 
REMARK    4  A    between atoms: N1_6  and  C8_12 
REMARK    5  A    between atoms: C4_7  and  C5_8 
REMARK    6  A    between atoms: C5_8  and  N2_9 
REMARK    7  A    between atoms: C8_12  and  C9_13 
REMARK    8  A    between atoms: C9_13  and  N3_14 
REMARK    9  A    between atoms: N3_14  and  C10_15 
REMARK   10  A    between atoms: N3_14  and  N4_20 
REMARK   11  A    between atoms: C10_15  and  C11_16 
REMARK   12  A    between atoms: C15_22  and  C16_23 
REMARK   13  A    between atoms: C17_24  and  C18_25 
REMARK   14  A    between atoms: C26_38  and  C27_39 
REMARK       I    between atoms: C27_39  and  N7_41 
ROOT
HETATM    1  C16 UNL     1      -2.779   0.619   0.421  1.00  0.00     0.043 A 
HETATM    2  C17 UNL     1      -3.819  -0.249   0.672  1.00  0.00     0.072 A 
HETATM    3  N5  UNL     1      -4.951   0.494   0.542  1.00  0.00    -0.298 N 
ATOM      4  H5  UNL     1      -5.895   0.128   0.667  1.00  0.00     0.187 HD
HETATM    5  N6  UNL     1      -4.682   1.716   0.241  1.00  0.00    -0.294 N 
ATOM      6  H6  UNL     1      -5.374   2.451   0.095  1.00  0.00     0.187 HD
HETATM    7  C26 UNL     1      -3.353   1.875   0.149  1.00  0.00     0.132 A 
ENDROOT
BRANCH   1   8
HETATM    8  C15 UNL     1      -1.358   0.284   0.363  1.00  0.00     0.123 C 
HETATM    9  N4  UNL     1      -0.915  -0.913   0.535  1.00  0.00    -0.309 N 
ATOM     10  H4  UNL     1      -1.566  -1.676   0.721  1.00  0.00     0.186 HD
BRANCH   9  11
HETATM   11  N3  UNL     1       0.517  -1.179   0.464  1.00  0.00    -0.305 N 
BRANCH  11  12
HETATM   12  C9  UNL     1       1.227  -0.761   1.596  1.00  0.00     0.103 C 
BRANCH  12  13
HETATM   13  C8  UNL     1       2.088   0.423   1.635  1.00  0.00     0.174 C 
BRANCH  13  14
HETATM   14  N1  UNL     1       3.189   0.443   0.745  1.00  0.00    -0.322 N 
HETATM   15  C3  UNL     1       4.420  -0.170   1.182  1.00  0.00     0.363 C 
HETATM   16  O2  UNL     1       5.469  -0.153   0.491  1.00  0.00    -0.238 OA
BRANCH  15  17
HETATM   17  O1  UNL     1       4.500  -0.817   2.406  1.00  0.00    -0.304 OA
BRANCH  17  18
HETATM   18  C2  UNL     1       5.706  -1.420   2.836  1.00  0.00     0.176 C 
HETATM   19  C1  UNL     1       6.199  -2.494   1.918  1.00  0.00     0.034 C 
ENDBRANCH  17  18
ENDBRANCH  15  17
BRANCH  14  20
HETATM   20  C4  UNL     1       3.218   1.095  -0.568  1.00  0.00     0.158 C 
BRANCH  20  21
HETATM   21  C5  UNL     1       3.630   2.540  -0.380  1.00  0.00     0.291 C 
BRANCH  21  22
HETATM   22  N2  UNL     1       3.680   3.262  -1.610  1.00  0.00     0.081 N 
HETATM   23  C6  UNL     1       4.098   4.623  -1.338  1.00  0.00     0.309 C 
HETATM   24  C7  UNL     1       4.515   2.713  -2.628  1.00  0.00     0.309 C 
ENDBRANCH  21  22
ENDBRANCH  20  21
ENDBRANCH  14  20
ENDBRANCH  13  14
ENDBRANCH  12  13
ENDBRANCH  11  12
BRANCH  11  25
HETATM   25  C10 UNL     1       0.893  -1.816  -0.737  1.00  0.00     0.156 C 
BRANCH  25  26
HETATM   26  C11 UNL     1       1.275  -3.270  -0.655  1.00  0.00    -0.033 C 
HETATM   27  C12 UNL     1       2.441  -3.591   0.223  1.00  0.00     0.016 C 
HETATM   28  C13 UNL     1       0.126  -4.164  -0.287  1.00  0.00     0.016 C 
HETATM   29  C14 UNL     1       1.683  -3.667  -2.083  1.00  0.00     0.016 C 
ENDBRANCH  25  26
ENDBRANCH  11  25
ENDBRANCH   9  11
ENDBRANCH   1   8
BRANCH   2  30
HETATM   30  C18 UNL     1      -3.824  -1.655   0.983  1.00  0.00    -0.006 A 
HETATM   31  C19 UNL     1      -3.205  -2.211   2.059  1.00  0.00     0.016 A 
HETATM   32  C20 UNL     1      -3.245  -3.577   2.262  1.00  0.00     0.038 A 
HETATM   33  C21 UNL     1      -3.917  -4.435   1.383  1.00  0.00     0.075 A 
HETATM   34  C22 UNL     1      -4.543  -3.867   0.298  1.00  0.00    -0.022 A 
HETATM   35  O3  UNL     1      -4.117  -5.802   1.338  1.00  0.00    -0.350 OA
HETATM   36  C23 UNL     1      -4.497  -2.495   0.101  1.00  0.00     0.023 A 
HETATM   37  C24 UNL     1      -5.188  -4.949  -0.491  1.00  0.00     0.068 C 
HETATM   38  C25 UNL     1      -5.145  -6.129   0.447  1.00  0.00     0.180 C 
ENDBRANCH   2  30
BRANCH   7  39
HETATM   39  C27 UNL     1      -2.625   3.105  -0.137  1.00  0.00     0.291 C 
HETATM   40  O4  UNL     1      -1.354   3.009  -0.252  1.00  0.00    -0.264 OA
HETATM   41  N7  UNL     1      -3.133   4.393  -0.307  1.00  0.00    -0.253 N 
HETATM   42  C28 UNL     1      -2.169   5.474  -0.668  1.00  0.00     0.153 C 
HETATM   43  N8  UNL     1      -4.463   4.766  -0.117  1.00  0.00    -0.265 N 
HETATM   44  C29 UNL     1      -2.904   6.643  -1.266  1.00  0.00     0.031 C 
HETATM   45  C30 UNL     1      -4.100   6.236  -2.067  1.00  0.00     0.106 C 
HETATM   46  C31 UNL     1      -5.079   5.579  -1.137  1.00  0.00     0.236 C 
HETATM   47  O5  UNL     1      -6.294   5.747  -1.267  1.00  0.00    -0.272 OA
ATOM     48  H8  UNL     1      -4.981   4.475   0.712  1.00  0.00     0.190 HD
ENDBRANCH   7  39
TORSDOF 14
