REMARK  13 active torsions:
REMARK  status: ('A' for Active; 'I' for Inactive)
REMARK    1  A    between atoms: C2_2  and  O1_3 
REMARK    2  A    between atoms: O1_3  and  C3_4 
REMARK    3  A    between atoms: C3_4  and  C4_5 
REMARK    4  A    between atoms: C4_5  and  C5_6 
REMARK    5  A    between atoms: C4_5  and  N7_42 
REMARK       I    between atoms: C5_6  and  N1_8 
REMARK    6  A    between atoms: N1_8  and  C6_10 
REMARK    7  A    between atoms: N2_12  and  C8_13 
REMARK    8  A    between atoms: C8_13  and  C9_14 
REMARK    9  A    between atoms: C9_14  and  N3_15 
REMARK       I    between atoms: N3_15  and  C10_17 
REMARK   10  A    between atoms: C10_17  and  C11_19 
REMARK       I    between atoms: N4_22  and  C14_23 
REMARK   11  A    between atoms: C14_23  and  C15_25 
REMARK   12  A    between atoms: C16_26  and  C17_27 
REMARK   13  A    between atoms: C17_27  and  C18_28 
ROOT
HETATM    1  C9  UNL     1       0.600   1.915  -2.174  1.00  0.00     0.051 C 
HETATM    2  C24 UNL     1       0.726   1.675  -3.632  1.00  0.00     0.033 C 
HETATM    3  C25 UNL     1       1.185   3.016  -4.167  1.00  0.00     0.002 C 
HETATM    4  C26 UNL     1       1.952   3.627  -3.035  1.00  0.00     0.002 C 
HETATM    5  C27 UNL     1       1.911   2.656  -1.875  1.00  0.00     0.033 C 
ENDROOT
BRANCH   1   6
HETATM    6  C8  UNL     1      -0.484   2.942  -1.860  1.00  0.00     0.180 C 
BRANCH   6   7
HETATM    7  N2  UNL     1      -1.820   2.389  -2.003  1.00  0.00    -0.283 N 
HETATM    8  C7  UNL     1      -2.621   1.810  -1.105  1.00  0.00     0.161 A 
HETATM    9  C6  UNL     1      -3.773   1.418  -1.725  1.00  0.00     0.141 A 
HETATM   10  N6  UNL     1      -3.624   1.792  -3.036  1.00  0.00    -0.270 N 
HETATM   11  N5  UNL     1      -2.454   2.363  -3.158  1.00  0.00    -0.239 N 
ATOM     12  H6  UNL     1      -4.304   1.650  -3.783  1.00  0.00     0.190 HD
ATOM     13  H5  UNL     1      -2.082   2.738  -4.030  1.00  0.00     0.208 HD
BRANCH   9  14
HETATM   14  N1  UNL     1      -4.944   0.761  -1.214  1.00  0.00    -0.306 N 
HETATM   15  C5  UNL     1      -5.141   0.414   0.128  1.00  0.00     0.271 C 
HETATM   16  O2  UNL     1      -4.236   0.723   0.960  1.00  0.00    -0.266 OA
ATOM     17  H1  UNL     1      -5.685   0.531  -1.876  1.00  0.00     0.170 HD
BRANCH  15  18
HETATM   18  C4  UNL     1      -6.348  -0.294   0.619  1.00  0.00     0.100 C 
BRANCH  18  19
HETATM   19  C3  UNL     1      -7.610  -0.021  -0.117  1.00  0.00     0.230 C 
BRANCH  19  20
HETATM   20  O1  UNL     1      -8.602  -0.957  -0.048  1.00  0.00    -0.385 OA
BRANCH  20  21
HETATM   21  C2  UNL     1      -8.331  -2.188  -0.589  1.00  0.00     0.163 C 
HETATM   22  C1  UNL     1      -9.582  -3.055  -0.389  1.00  0.00     0.033 C 
ENDBRANCH  20  21
ENDBRANCH  19  20
ENDBRANCH  18  19
BRANCH  18  23
HETATM   23  N7  UNL     1      -6.464  -0.358   2.025  1.00  0.00    -0.374 N 
HETATM   24  C28 UNL     1      -7.230  -1.391   2.615  1.00  0.00     0.149 C 
HETATM   25  C29 UNL     1      -7.209  -1.329   4.129  1.00  0.00     0.187 C 
HETATM   26  O5  UNL     1      -6.170  -0.502   4.515  1.00  0.00    -0.388 OA
HETATM   27  C30 UNL     1      -6.518   0.806   4.164  1.00  0.00     0.187 C 
HETATM   28  C31 UNL     1      -6.678   0.925   2.665  1.00  0.00     0.149 C 
ENDBRANCH  18  23
ENDBRANCH  15  18
ENDBRANCH   9  14
ENDBRANCH   6   7
ENDBRANCH   1   6
BRANCH   1  29
HETATM   29  N3  UNL     1       0.531   0.792  -1.315  1.00  0.00    -0.350 N 
HETATM   30  C10 UNL     1       1.370  -0.339  -1.343  1.00  0.00     0.222 C 
HETATM   31  O3  UNL     1       2.296  -0.463  -2.166  1.00  0.00    -0.273 OA
ATOM     32  H3  UNL     1      -0.200   0.803  -0.604  1.00  0.00     0.163 HD
BRANCH  30  33
HETATM   33  C11 UNL     1       1.179  -1.465  -0.360  1.00  0.00     0.081 C 
HETATM   34  C12 UNL     1       2.021  -2.611  -0.777  1.00  0.00     0.034 C 
HETATM   35  C13 UNL     1       3.206  -2.806   0.107  1.00  0.00     0.127 C 
HETATM   36  N4  UNL     1       3.777  -1.533   0.505  1.00  0.00    -0.349 N 
HETATM   37  C14 UNL     1       5.147  -1.251   0.200  1.00  0.00     0.243 C 
HETATM   38  C22 UNL     1       2.935  -0.596   1.190  1.00  0.00     0.127 C 
HETATM   39  O4  UNL     1       5.776  -2.143  -0.411  1.00  0.00    -0.268 OA
HETATM   40  C23 UNL     1       1.470  -0.986   1.046  1.00  0.00     0.034 C 
BRANCH  37  41
HETATM   41  C15 UNL     1       5.767  -0.007   0.576  1.00  0.00     0.070 C 
HETATM   42  C16 UNL     1       6.976   0.418   0.384  1.00  0.00    -0.020 C 
BRANCH  42  43
HETATM   43  C17 UNL     1       8.105  -0.236  -0.283  1.00  0.00     0.035 C 
BRANCH  43  44
HETATM   44  C18 UNL     1       9.272  -0.418   0.678  1.00  0.00    -0.048 C 
HETATM   45  C19 UNL     1       9.761   0.900   1.216  1.00  0.00     0.014 C 
HETATM   46  C20 UNL     1      10.365  -1.099  -0.121  1.00  0.00     0.014 C 
HETATM   47  C21 UNL     1       8.851  -1.341   1.783  1.00  0.00     0.014 C 
ENDBRANCH  43  44
ENDBRANCH  42  43
ENDBRANCH  37  41
ENDBRANCH  30  33
ENDBRANCH   1  29
TORSDOF 13
