REMARK  14 active torsions:
REMARK  status: ('A' for Active; 'I' for Inactive)
REMARK    1  A    between atoms: C2_2  and  N1_3 
REMARK    2  A    between atoms: N1_3  and  C3_6 
REMARK    3  A    between atoms: C3_6  and  C4_7 
REMARK    4  A    between atoms: C4_7  and  C5_8 
REMARK    5  A    between atoms: C5_8  and  C6_9 
REMARK    6  A    between atoms: C6_9  and  C7_10 
REMARK    7  A    between atoms: C9_13  and  N2_14 
REMARK    8  A    between atoms: C12_21  and  C14_23 
REMARK       I    between atoms: C14_23  and  N4_25 
REMARK       I    between atoms: N5_28  and  C17_29 
REMARK    9  A    between atoms: C17_29  and  C18_31 
REMARK   10  A    between atoms: C21_34  and  O3_35 
REMARK   11  A    between atoms: O3_35  and  C22_36 
REMARK   12  A    between atoms: C24_38  and  C25_39 
REMARK   13  A    between atoms: C25_39  and  O5_41 
REMARK   14  A    between atoms: O5_41  and  C26_42 
ROOT
HETATM    1  C7  UNL     1      -1.854   0.734   0.804  1.00  0.00     0.042 C 
HETATM    2  C8  UNL     1      -1.442   2.173   0.804  1.00  0.00     0.014 A 
HETATM    3  S1  UNL     1      -1.976   3.722   0.359  1.00  0.00    -0.057 SA
HETATM    4  C9  UNL     1      -0.597   4.616   0.807  1.00  0.00     0.142 A 
HETATM    5  N3  UNL     1       0.214   3.677   1.281  1.00  0.00    -0.340 N 
ATOM      6  H3  UNL     1       1.139   3.927   1.632  1.00  0.00     0.168 HD
HETATM    7  C10 UNL     1      -0.179   2.429   1.296  1.00  0.00     0.026 A 
HETATM    8  C11 UNL     1       0.538   1.178   1.793  1.00  0.00     0.078 C 
HETATM    9  C12 UNL     1       0.541   0.160   0.693  1.00  0.00     0.056 C 
HETATM   10  C13 UNL     1       0.718  -1.188   1.407  1.00  0.00     0.027 C 
HETATM   11  C24 UNL     1      -0.779   0.028  -0.035  1.00  0.00     0.112 C 
ENDROOT
BRANCH   9  12
HETATM   12  C14 UNL     1       1.613   0.464  -0.258  1.00  0.00     0.231 C 
HETATM   13  O1  UNL     1       1.221   1.036  -1.353  1.00  0.00    -0.272 OA
HETATM   14  N4  UNL     1       2.984   0.243  -0.174  1.00  0.00    -0.322 N 
HETATM   15  C15 UNL     1       3.616  -0.432   0.940  1.00  0.00     0.148 C 
HETATM   16  C21 UNL     1       3.923   0.681  -1.223  1.00  0.00     0.243 C 
HETATM   17  C16 UNL     1       5.143  -0.501   0.800  1.00  0.00     0.146 C 
HETATM   18  N5  UNL     1       5.440  -1.094  -0.485  1.00  0.00    -0.346 N 
HETATM   19  C17 UNL     1       6.424  -2.083  -0.714  1.00  0.00     0.219 C 
HETATM   20  C20 UNL     1       4.655  -0.619  -1.615  1.00  0.00     0.179 C 
HETATM   21  O2  UNL     1       6.573  -2.507  -1.903  1.00  0.00    -0.273 OA
BRANCH  19  22
HETATM   22  C18 UNL     1       7.267  -2.624   0.367  1.00  0.00     0.098 C 
HETATM   23  C19 UNL     1       8.577  -1.882   0.519  1.00  0.00     0.014 C 
ENDBRANCH  19  22
BRANCH  16  24
HETATM   24  O3  UNL     1       3.355   1.161  -2.347  1.00  0.00    -0.365 OA
BRANCH  24  25
HETATM   25  C22 UNL     1       3.821   2.361  -2.817  1.00  0.00     0.166 C 
HETATM   26  C23 UNL     1       3.727   3.540  -1.937  1.00  0.00     0.033 C 
ENDBRANCH  24  25
ENDBRANCH  16  24
ENDBRANCH   9  12
BRANCH  11  27
HETATM   27  C25 UNL     1      -1.141  -1.281  -0.511  1.00  0.00     0.265 C 
HETATM   28  O4  UNL     1      -1.063  -1.529  -1.773  1.00  0.00    -0.265 OA
BRANCH  27  29
HETATM   29  O5  UNL     1      -1.585  -2.370   0.229  1.00  0.00    -0.322 OA
BRANCH  29  30
HETATM   30  C26 UNL     1      -1.916  -3.612  -0.326  1.00  0.00     0.174 C 
HETATM   31  C27 UNL     1      -3.025  -3.561  -1.332  1.00  0.00     0.034 C 
ENDBRANCH  29  30
ENDBRANCH  27  29
ENDBRANCH  11  27
BRANCH   1  32
HETATM   32  C6  UNL     1      -3.221   0.582   0.276  1.00  0.00     0.011 C 
BRANCH  32  33
HETATM   33  C5  UNL     1      -4.208   1.311   1.143  1.00  0.00     0.002 C 
BRANCH  33  34
HETATM   34  C4  UNL     1      -5.633   1.191   0.640  1.00  0.00     0.027 C 
BRANCH  34  35
HETATM   35  C3  UNL     1      -6.133  -0.222   0.571  1.00  0.00     0.232 C 
BRANCH  35  36
HETATM   36  N1  UNL     1      -7.498  -0.156   0.080  1.00  0.00    -0.075 N 
ATOM     37  H12 UNL     1      -7.542   0.352  -0.803  1.00  0.00     0.277 HD
ATOM     38  H11 UNL     1      -8.063   0.465   0.659  1.00  0.00     0.277 HD
BRANCH  36  39
HETATM   39  C2  UNL     1      -8.115  -1.442  -0.040  1.00  0.00     0.228 C 
HETATM   40  C1  UNL     1      -9.535  -1.197  -0.565  1.00  0.00     0.034 C 
ENDBRANCH  36  39
ENDBRANCH  35  36
ENDBRANCH  34  35
ENDBRANCH  33  34
ENDBRANCH  32  33
ENDBRANCH   1  32
BRANCH   4  41
HETATM   41  N2  UNL     1      -0.367   5.912   0.716  1.00  0.00    -0.380 N 
ATOM     42  H22 UNL     1      -0.990   6.633   0.352  1.00  0.00     0.158 HD
ATOM     43  H21 UNL     1       0.459   6.447   0.984  1.00  0.00     0.158 HD
ENDBRANCH   4  41
TORSDOF 14
