REMARK  17 active torsions:
REMARK  status: ('A' for Active; 'I' for Inactive)
REMARK    1  A    between atoms: N1_1  and  C1_4 
REMARK    2  A    between atoms: C2_7  and  C3_8 
REMARK    3  A    between atoms: C3_8  and  C4_9 
REMARK    4  A    between atoms: C4_9  and  N4_11 
REMARK    5  A    between atoms: N4_11  and  C5_13 
REMARK    6  A    between atoms: C5_13  and  O1_14 
REMARK    7  A    between atoms: C5_13  and  C6_16 
REMARK    8  A    between atoms: C6_16  and  N5_17 
REMARK    9  A    between atoms: C6_16  and  C12_34 
REMARK       I    between atoms: N5_17  and  C7_19 
REMARK   10  A    between atoms: C7_19  and  C8_21 
REMARK   11  A    between atoms: N6_26  and  C11_27 
REMARK   12  A    between atoms: C11_27  and  N7_28 
REMARK   13  A    between atoms: C11_27  and  O5_32 
REMARK   14  A    between atoms: C12_34  and  O6_35 
REMARK   15  A    between atoms: C12_34  and  O7_37 
REMARK   16  A    between atoms: O7_37  and  C13_38 
REMARK   17  A    between atoms: C16_44  and  N9_45 
ROOT
HETATM    1  C6  UNL     1      -0.004   0.147   0.546  1.00  0.00     0.214 C 
ENDROOT
BRANCH   1   2
HETATM    2  C5  UNL     1       1.345  -0.544   0.652  1.00  0.00     0.144 C 
BRANCH   2   3
HETATM    3  N4  UNL     1       1.909  -1.510   1.442  1.00  0.00    -0.330 N 
ATOM      4  H4  UNL     1       1.378  -1.980   2.175  1.00  0.00     0.168 HD
BRANCH   3   5
HETATM    5  C4  UNL     1       3.314  -1.833   1.180  1.00  0.00     0.101 C 
HETATM    6  N3  UNL     1       4.165  -1.425   2.234  1.00  0.00    -0.087 NA
BRANCH   5   7
HETATM    7  C3  UNL     1       3.573  -3.186   0.600  1.00  0.00     0.150 C 
BRANCH   7   8
HETATM    8  C2  UNL     1       4.995  -3.145  -0.004  1.00  0.00     0.096 A 
HETATM    9  N2  UNL     1       6.026  -3.605   0.598  1.00  0.00    -0.325 N 
HETATM   10  C1  UNL     1       7.252  -3.423   0.013  1.00  0.00     0.160 A 
ATOM     11  H2  UNL     1       5.938  -4.094   1.489  1.00  0.00     0.169 HD
HETATM   12  S1  UNL     1       6.802  -2.586  -1.403  1.00  0.00     0.023 SA
HETATM   13  N12 UNL     1       5.135  -2.519  -1.174  1.00  0.00    -0.313 N 
ATOM     14  H12 UNL     1       4.419  -2.107  -1.773  1.00  0.00     0.175 HD
BRANCH  10  15
HETATM   15  N1  UNL     1       8.350  -3.877   0.485  1.00  0.00    -0.379 N 
ATOM     16  H12 UNL     1       8.619  -4.378   1.332  1.00  0.00     0.158 HD
ATOM     17  H11 UNL     1       9.262  -3.742   0.050  1.00  0.00     0.158 HD
ENDBRANCH  10  15
ENDBRANCH   7   8
ENDBRANCH   5   7
ENDBRANCH   3   5
ENDBRANCH   2   3
BRANCH   2  18
HETATM   18  O1  UNL     1       2.183  -0.057  -0.269  1.00  0.00    -0.348 OA
ATOM     19  H1  UNL     1       1.792   0.613  -0.817  1.00  0.00     0.219 HD
ENDBRANCH   2  18
ENDBRANCH   1   2
BRANCH   1  20
HETATM   20  N5  UNL     1       0.449   1.451   0.065  1.00  0.00    -0.339 N 
HETATM   21  C7  UNL     1      -0.039   2.663   0.675  1.00  0.00     0.267 C 
HETATM   22  O2  UNL     1      -0.937   2.530   1.551  1.00  0.00    -0.266 OA
ATOM     23  H5  UNL     1       1.114   1.504  -0.707  1.00  0.00     0.163 HD
BRANCH  21  24
HETATM   24  C8  UNL     1       0.540   3.897   0.254  1.00  0.00     0.113 C 
HETATM   25  C9  UNL     1       1.043   4.108  -1.114  1.00  0.00     0.243 C 
HETATM   26  O3  UNL     1       1.660   5.424  -0.938  1.00  0.00    -0.297 OA
HETATM   27  C10 UNL     1       0.998   6.079   0.120  1.00  0.00     0.371 C 
HETATM   28  O4  UNL     1       1.259   7.223   0.548  1.00  0.00    -0.238 OA
HETATM   29  N6  UNL     1      -0.035   5.151   0.593  1.00  0.00    -0.239 N 
BRANCH  29  30
HETATM   30  C11 UNL     1      -1.205   5.557   1.293  1.00  0.00     0.435 C 
BRANCH  30  31
HETATM   31  N7  UNL     1      -1.682   6.847   1.023  1.00  0.00    -0.034 N 
ATOM     32  H73 UNL     1      -0.937   7.527   1.177  1.00  0.00     0.279 HD
ATOM     33  H72 UNL     1      -1.828   6.955   0.019  1.00  0.00     0.279 HD
ATOM     34  H71 UNL     1      -2.521   7.138   1.525  1.00  0.00     0.279 HD
ENDBRANCH  30  31
BRANCH  30  35
HETATM   35  O5  UNL     1      -0.756   5.640   2.709  1.00  0.00    -0.354 OA
ATOM     36  H5  UNL     1      -1.537   5.911   3.176  1.00  0.00     0.214 HD
ENDBRANCH  30  35
ENDBRANCH  29  30
ENDBRANCH  21  24
ENDBRANCH   1  20
BRANCH   1  37
HETATM   37  C12 UNL     1      -0.756  -0.676  -0.399  1.00  0.00     0.288 C 
BRANCH  37  38
HETATM   38  O6  UNL     1      -0.128  -1.646  -1.007  1.00  0.00    -0.369 OA
ATOM     39  H6  UNL     1      -0.617  -2.181  -1.621  1.00  0.00     0.212 HD
ENDBRANCH  37  38
BRANCH  37  40
HETATM   40  O7  UNL     1      -2.086  -0.576  -0.762  1.00  0.00    -0.342 OA
BRANCH  40  41
HETATM   41  C13 UNL     1      -2.746  -1.444  -1.597  1.00  0.00     0.240 C 
HETATM   42  C14 UNL     1      -2.844  -1.076  -3.042  1.00  0.00     0.248 C 
HETATM   43  O8  UNL     1      -2.120  -0.278  -3.669  1.00  0.00    -0.271 OA
HETATM   44  N8  UNL     1      -3.937  -1.818  -3.561  1.00  0.00    -0.357 N 
HETATM   45  C15 UNL     1      -4.650  -2.495  -2.444  1.00  0.00     0.151 C 
ATOM     46  H8  UNL     1      -4.194  -1.878  -4.546  1.00  0.00     0.162 HD
HETATM   47  C16 UNL     1      -4.192  -1.643  -1.294  1.00  0.00     0.139 C 
BRANCH  47  48
HETATM   48  N9  UNL     1      -4.481  -2.054   0.011  1.00  0.00    -0.358 N 
HETATM   49  C17 UNL     1      -5.099  -3.018   0.518  1.00  0.00     0.197 C 
HETATM   50  N10 UNL     1      -5.688  -4.019  -0.273  1.00  0.00    -0.067 NA
HETATM   51  N11 UNL     1      -5.221  -3.088   1.914  1.00  0.00    -0.067 NA
ATOM     52  H9  UNL     1      -4.099  -1.421   0.714  1.00  0.00     0.162 HD
ENDBRANCH  47  48
ENDBRANCH  40  41
ENDBRANCH  37  40
ENDBRANCH   1  37
TORSDOF 17
