REMARK  5 active torsions:
REMARK  status: ('A' for Active; 'I' for Inactive)
REMARK    1  A    between atoms: O1_1  and  C1_3 
REMARK    2  A    between atoms: C1_3  and  C2_4 
REMARK    3  A    between atoms: C4_11  and  C5_12 
REMARK    4  A    between atoms: N2_19  and  C11_20 
REMARK    5  A    between atoms: C11_20  and  N3_21 
ROOT
HETATM    1  C1  UNL     1       0.840   2.731   0.400  1.00  0.00     0.256 C 
HETATM    2  C3  UNL     1       1.667   2.865  -0.892  1.00  0.00     0.192 C 
HETATM    3  N1  UNL     1       2.221   1.543  -0.971  1.00  0.00    -0.370 N 
ATOM      4  H1  UNL     1       3.057   1.305  -1.506  1.00  0.00     0.161 HD
HETATM    5  C4  UNL     1       1.525   0.677  -0.274  1.00  0.00     0.117 C 
HETATM    6  N2  UNL     1       0.423   1.323   0.328  1.00  0.00    -0.291 N 
ENDROOT
BRANCH   5   7
HETATM    7  C5  UNL     1       1.904  -0.734  -0.204  1.00  0.00     0.009 A 
HETATM    8  C6  UNL     1       2.404  -1.353  -1.320  1.00  0.00     0.015 A 
HETATM    9  C7  UNL     1       2.810  -2.690  -1.301  1.00  0.00     0.003 A 
HETATM   10  C8  UNL     1       2.712  -3.406  -0.155  1.00  0.00     0.024 A 
HETATM   11  C9  UNL     1       2.213  -2.810   0.985  1.00  0.00     0.035 A 
HETATM   12 CL1  UNL     1       2.100  -3.758   2.445  1.00  0.00    -0.084 Cl
HETATM   13  C10 UNL     1       1.813  -1.475   0.946  1.00  0.00     0.039 A 
ENDBRANCH   5   7
BRANCH   6  14
HETATM   14  C11 UNL     1      -0.817   0.836   0.799  1.00  0.00     0.159 C 
BRANCH  14  15
HETATM   15  N3  UNL     1      -1.168  -0.512   0.422  1.00  0.00    -0.275 NA
HETATM   16  C12 UNL     1      -2.446  -0.782   1.080  1.00  0.00     0.122 C 
HETATM   17  C13 UNL     1      -3.103  -2.023   0.506  1.00  0.00     0.182 C 
HETATM   18  O2  UNL     1      -3.458  -1.839  -0.829  1.00  0.00    -0.389 OA
HETATM   19  C14 UNL     1      -2.851  -0.711  -1.373  1.00  0.00     0.182 C 
HETATM   20  C15 UNL     1      -1.396  -0.613  -1.016  1.00  0.00     0.122 C 
ENDBRANCH  14  15
ENDBRANCH   6  14
BRANCH   1  21
HETATM   21  O1  UNL     1       1.638   2.994   1.477  1.00  0.00    -0.362 OA
ATOM     22  H1  UNL     1       2.359   2.380   1.552  1.00  0.00     0.213 HD
ENDBRANCH   1  21
BRANCH   1  23
HETATM   23  C2  UNL     1      -0.290   3.694   0.283  1.00  0.00     0.440 C 
HETATM   24  F1  UNL     1      -1.120   3.485  -0.777  1.00  0.00    -0.166 F 
HETATM   25  F2  UNL     1      -1.010   3.773   1.481  1.00  0.00    -0.166 F 
HETATM   26  F3  UNL     1       0.291   4.962   0.139  1.00  0.00    -0.166 F 
ENDBRANCH   1  23
TORSDOF 5
