REMARK  6 active torsions:
REMARK  status: ('A' for Active; 'I' for Inactive)
REMARK    1  A    between atoms: C2_2  and  O1_3 
REMARK    2  A    between atoms: O1_3  and  C3_4 
REMARK    3  A    between atoms: C3_4  and  N1_5 
REMARK    4  A    between atoms: C3_4  and  C5_9 
REMARK       I    between atoms: C5_9  and  N2_11 
REMARK    5  A    between atoms: C8_15  and  N3_16 
REMARK    6  A    between atoms: C8_15  and  C11_21 
REMARK       I    between atoms: N3_16  and  C9_18 
ROOT
HETATM    1  C5  UNL     1      -0.289   0.112   0.755  1.00  0.00     0.280 C 
HETATM    2  O2  UNL     1       0.212   1.035   1.475  1.00  0.00    -0.268 OA
HETATM    3  N2  UNL     1       0.556  -0.717  -0.035  1.00  0.00    -0.289 N 
HETATM    4  C6  UNL     1      -0.008  -1.843  -0.799  1.00  0.00     0.157 C 
HETATM    5  C7  UNL     1       1.100  -2.830  -0.625  1.00  0.00     0.193 C 
HETATM    6  O3  UNL     1       2.172  -2.174  -0.081  1.00  0.00    -0.335 OA
HETATM    7  C8  UNL     1       1.940  -0.744  -0.303  1.00  0.00     0.325 C 
ENDROOT
BRANCH   1   8
HETATM    8  C3  UNL     1      -1.754  -0.012   0.810  1.00  0.00     0.414 C 
BRANCH   8   9
HETATM    9  O1  UNL     1      -2.330   0.386  -0.427  1.00  0.00    -0.353 OA
BRANCH   9  10
HETATM   10  C2  UNL     1      -3.379  -0.431  -0.752  1.00  0.00     0.166 C 
HETATM   11  C1  UNL     1      -4.024  -0.028  -2.073  1.00  0.00     0.033 C 
ENDBRANCH   9  10
ENDBRANCH   8   9
BRANCH   8  12
HETATM   12  N1  UNL     1      -2.221   1.010   1.805  1.00  0.00    -0.044 N 
HETATM   13  C4  UNL     1      -1.954   2.340   1.360  1.00  0.00     0.270 C 
ATOM     14  H12 UNL     1      -3.207   0.885   2.032  1.00  0.00     0.280 HD
ATOM     15  H11 UNL     1      -1.822   0.840   2.728  1.00  0.00     0.280 HD
ENDBRANCH   8  12
ENDBRANCH   1   8
BRANCH   7  16
HETATM   16  N3  UNL     1       2.767  -0.039   0.597  1.00  0.00    -0.304 N 
HETATM   17  C9  UNL     1       3.146   1.301   0.711  1.00  0.00     0.217 C 
HETATM   18  C10 UNL     1       4.072   1.735   1.842  1.00  0.00     0.117 C 
HETATM   19  O4  UNL     1       2.823   2.268  -0.015  1.00  0.00    -0.274 OA
ATOM     20  H3  UNL     1       3.175  -0.634   1.318  1.00  0.00     0.167 HD
ENDBRANCH   7  16
BRANCH   7  21
HETATM   21  C11 UNL     1       2.375  -0.490  -1.727  1.00  0.00     0.460 C 
HETATM   22  F1  UNL     1       1.915  -1.419  -2.637  1.00  0.00    -0.164 F 
HETATM   23  F2  UNL     1       3.734  -0.445  -1.805  1.00  0.00    -0.164 F 
HETATM   24  F3  UNL     1       1.887   0.778  -2.101  1.00  0.00    -0.164 F 
ENDBRANCH   7  21
TORSDOF 6
