REMARK  6 active torsions:
REMARK  status: ('A' for Active; 'I' for Inactive)
REMARK    1  A    between atoms: C4_5  and  N1_6 
REMARK    2  A    between atoms: N1_6  and  C5_8 
REMARK    3  A    between atoms: N2_11  and  C8_12 
REMARK    4  A    between atoms: C8_12  and  C9_13 
REMARK    5  A    between atoms: C9_13  and  C10_14 
REMARK    6  A    between atoms: C10_14  and  C11_15 
ROOT
HETATM    1  C5  UNL     1      -3.467  -0.842  -0.220  1.00  0.00     0.085 C 
HETATM    2  C6  UNL     1      -2.707   0.396   0.147  1.00  0.00     0.055 C 
HETATM    3  C7  UNL     1      -1.388  -0.016   0.774  1.00  0.00     0.274 C 
HETATM    4  N2  UNL     1      -0.586  -0.711  -0.185  1.00  0.00     0.088 N 
HETATM    5  C19 UNL     1      -1.288  -1.160  -1.343  1.00  0.00     0.274 C 
HETATM    6  C20 UNL     1      -2.599  -1.851  -0.960  1.00  0.00     0.055 C 
ENDROOT
BRANCH   4   7
HETATM    7  C8  UNL     1       0.218  -1.755   0.413  1.00  0.00     0.272 C 
BRANCH   7   8
HETATM    8  C9  UNL     1       1.303  -1.120   1.276  1.00  0.00     0.033 C 
BRANCH   8   9
HETATM    9  C10 UNL     1       2.151  -0.264   0.324  1.00  0.00     0.042 C 
BRANCH   9  10
HETATM   10  C11 UNL     1       3.236   0.386   1.103  1.00  0.00     0.087 A 
HETATM   11  C12 UNL     1       4.231  -0.448   1.844  1.00  0.00     0.041 C 
HETATM   12  C13 UNL     1       5.633  -0.400   1.331  1.00  0.00     0.003 C 
HETATM   13  C14 UNL     1       5.757  -0.447  -0.172  1.00  0.00     0.000 C 
HETATM   14  C15 UNL     1       6.284   0.848  -0.748  1.00  0.00     0.000 C 
HETATM   15  C16 UNL     1       5.281   1.640  -1.512  1.00  0.00     0.002 C 
HETATM   16  C17 UNL     1       3.871   1.584  -0.909  1.00  0.00     0.035 C 
HETATM   17  C18 UNL     1       3.981   1.573   0.557  1.00  0.00     0.157 A 
HETATM   18  O1  UNL     1       2.959   1.688   1.448  1.00  0.00    -0.369 OA
ENDBRANCH   9  10
ENDBRANCH   8   9
ENDBRANCH   7   8
ENDBRANCH   4   7
BRANCH   1  19
HETATM   19  N1  UNL     1      -4.657  -0.562  -0.985  1.00  0.00    -0.385 N 
ATOM     20  H1  UNL     1      -4.664  -0.879  -1.954  1.00  0.00     0.160 HD
BRANCH  19  21
HETATM   21  C4  UNL     1      -5.808   0.104  -0.529  1.00  0.00     0.028 A 
HETATM   22  C3  UNL     1      -6.803   0.500  -1.430  1.00  0.00     0.031 A 
HETATM   23  C2  UNL     1      -7.904   1.124  -0.949  1.00  0.00     0.026 A 
HETATM   24  C1  UNL     1      -8.107   1.394   0.384  1.00  0.00     0.034 A 
HETATM   25 CL1  UNL     1      -9.559   2.207   0.940  1.00  0.00    -0.084 Cl
HETATM   26  C22 UNL     1      -7.123   1.001   1.259  1.00  0.00     0.026 A 
HETATM   27  C21 UNL     1      -5.990   0.363   0.798  1.00  0.00     0.031 A 
ENDBRANCH  19  21
ENDBRANCH   1  19
TORSDOF 6
