REMARK  8 active torsions:
REMARK  status: ('A' for Active; 'I' for Inactive)
REMARK    1  A    between atoms: N1_1  and  C1_4 
REMARK    2  A    between atoms: N3_7  and  C2_8 
REMARK    3  A    between atoms: C4_10  and  O1_11 
REMARK    4  A    between atoms: C5_13  and  C6_14 
REMARK    5  A    between atoms: C6_14  and  O2_15 
REMARK    6  A    between atoms: C7_18  and  C8_19 
REMARK    7  A    between atoms: C8_19  and  N4_20 
REMARK    8  A    between atoms: N5_23  and  C11_24 
ROOT
HETATM    1  C1  UNL     1       1.445  -2.802  -0.432  1.00  0.00     0.133 A 
HETATM    2  N2  UNL     1       2.284  -1.879  -0.891  1.00  0.00    -0.280 N 
ATOM      3  H2  UNL     1       3.094  -2.072  -1.480  1.00  0.00     0.189 HD
HETATM    4  N3  UNL     1       1.917  -0.656  -0.472  1.00  0.00    -0.262 N 
HETATM    5  C7  UNL     1       0.833  -0.763   0.231  1.00  0.00     0.081 A 
HETATM    6  C17 UNL     1       0.501  -2.155   0.291  1.00  0.00     0.081 A 
HETATM    7 BR1  UNL     1      -0.968  -2.950   1.242  1.00  0.00    -0.045 Br
ENDROOT
BRANCH   5   8
HETATM    8  C8  UNL     1      -0.068   0.168   0.931  1.00  0.00     0.332 C 
BRANCH   8   9
HETATM    9  N4  UNL     1      -0.689   1.209   0.098  1.00  0.00     0.097 N 
HETATM   10  C9  UNL     1      -1.269   0.567  -1.089  1.00  0.00     0.303 C 
HETATM   11  C10 UNL     1      -2.728   0.942  -1.178  1.00  0.00     0.303 C 
HETATM   12  N5  UNL     1      -3.365   0.130  -0.148  1.00  0.00     0.096 N 
HETATM   13  C15 UNL     1      -2.885   0.659   1.138  1.00  0.00     0.303 C 
HETATM   14  C16 UNL     1      -1.854   1.707   0.887  1.00  0.00     0.303 C 
BRANCH  12  15
HETATM   15  C11 UNL     1      -4.743  -0.024  -0.182  1.00  0.00     0.223 C 
HETATM   16  C12 UNL     1      -5.744   0.912   0.379  1.00  0.00     0.036 C 
HETATM   17  C13 UNL     1      -6.122  -0.201   1.395  1.00  0.00     0.004 C 
HETATM   18  C14 UNL     1      -5.492  -1.181   0.390  1.00  0.00     0.036 C 
ENDBRANCH  12  15
ENDBRANCH   8   9
ENDBRANCH   5   8
BRANCH   4  19
HETATM   19  C2  UNL     1       2.817   0.521  -0.640  1.00  0.00     0.247 C 
HETATM   20  C3  UNL     1       4.071   0.153  -1.366  1.00  0.00     0.089 C 
HETATM   21  C4  UNL     1       5.016  -0.284  -0.287  1.00  0.00     0.153 C 
HETATM   22  C5  UNL     1       4.513   0.537   0.867  1.00  0.00     0.176 C 
HETATM   23  O3  UNL     1       3.229   0.938   0.636  1.00  0.00    -0.355 OA
BRANCH  21  24
HETATM   24  O1  UNL     1       5.048  -1.598   0.078  1.00  0.00    -0.393 OA
ATOM     25  H1  UNL     1       5.647  -1.875   0.762  1.00  0.00     0.210 HD
ENDBRANCH  21  24
BRANCH  22  26
HETATM   26  C6  UNL     1       5.429   1.735   1.020  1.00  0.00     0.198 C 
BRANCH  26  27
HETATM   27  O2  UNL     1       6.780   1.371   1.114  1.00  0.00    -0.398 OA
ATOM     28  H2  UNL     1       7.354   2.122   1.210  1.00  0.00     0.209 HD
ENDBRANCH  26  27
ENDBRANCH  22  26
ENDBRANCH   4  19
BRANCH   1  29
HETATM   29  N1  UNL     1       1.435  -4.098  -0.656  1.00  0.00    -0.383 N 
ATOM     30  H12 UNL     1       2.146  -4.586  -1.201  1.00  0.00     0.157 HD
ATOM     31  H11 UNL     1       0.791  -4.806  -0.304  1.00  0.00     0.157 HD
ENDBRANCH   1  29
TORSDOF 8
