REMARK  7 active torsions:
REMARK  status: ('A' for Active; 'I' for Inactive)
REMARK    1  A    between atoms: N1_1  and  S1_4 
REMARK    2  A    between atoms: S1_4  and  C1_7 
REMARK    3  A    between atoms: C5_11  and  C6_12 
REMARK    4  A    between atoms: C6_12  and  N2_13 
REMARK    5  A    between atoms: N2_13  and  N3_15 
REMARK    6  A    between atoms: N3_15  and  C7_17 
REMARK    7  A    between atoms: N5_22  and  C9_24 
ROOT
HETATM    1  N3  UNL     1      -0.589   0.657  -1.972  1.00  0.00    -0.273 N 
ATOM      2  H3  UNL     1      -0.805   1.637  -2.152  1.00  0.00     0.189 HD
ENDROOT
BRANCH   1   3
HETATM    3  N2  UNL     1      -1.529  -0.263  -2.109  1.00  0.00    -0.309 N 
ATOM      4  H2  UNL     1      -1.366  -0.824  -2.945  1.00  0.00     0.186 HD
BRANCH   3   5
HETATM    5  C6  UNL     1      -2.532  -0.635  -1.528  1.00  0.00     0.118 C 
BRANCH   5   6
HETATM    6  C5  UNL     1      -3.152  -0.140  -0.316  1.00  0.00    -0.018 A 
HETATM    7  C4  UNL     1      -2.656   0.955   0.350  1.00  0.00     0.013 A 
HETATM    8  C3  UNL     1      -3.312   1.393   1.493  1.00  0.00     0.002 A 
HETATM    9  C2  UNL     1      -4.437   0.745   1.956  1.00  0.00     0.025 A 
HETATM   10  C1  UNL     1      -4.956  -0.362   1.306  1.00  0.00     0.080 A 
HETATM   11  C15 UNL     1      -4.306  -0.788   0.181  1.00  0.00     0.038 A 
BRANCH  10  12
HETATM   12  S1  UNL     1      -6.405  -1.120   1.933  1.00  0.00     0.256 S 
HETATM   13  O1  UNL     1      -6.283  -2.600   2.043  1.00  0.00    -0.201 OA
HETATM   14  O2  UNL     1      -6.685  -0.578   3.328  1.00  0.00    -0.201 OA
BRANCH  12  15
HETATM   15  N1  UNL     1      -7.771  -0.739   0.947  1.00  0.00    -0.324 N 
ATOM     16  H12 UNL     1      -8.386  -1.429   0.516  1.00  0.00     0.169 HD
ATOM     17  H11 UNL     1      -7.855   0.275   0.872  1.00  0.00     0.169 HD
ENDBRANCH  12  15
ENDBRANCH  10  12
ENDBRANCH   5   6
ENDBRANCH   3   5
ENDBRANCH   1   3
BRANCH   1  18
HETATM   18  C7  UNL     1       0.631   0.307  -1.602  1.00  0.00     0.230 A 
HETATM   19  O3  UNL     1       1.654   1.076  -1.428  1.00  0.00    -0.208 OA
HETATM   20  N4  UNL     1       2.757   0.611  -1.076  1.00  0.00    -0.236 N 
HETATM   21  C8  UNL     1       2.880  -0.701  -0.879  1.00  0.00     0.173 A 
ATOM     22  H4  UNL     1       3.557   1.229  -0.940  1.00  0.00     0.197 HD
HETATM   23  N5  UNL     1       3.933  -1.389  -0.507  1.00  0.00    -0.335 N 
HETATM   24  S2  UNL     1       1.286  -1.225  -1.237  1.00  0.00    -0.005 SA
ATOM     25  H5  UNL     1       3.893  -2.401  -0.386  1.00  0.00     0.168 HD
BRANCH  23  26
HETATM   26  C9  UNL     1       5.114  -0.671  -0.283  1.00  0.00     0.034 A 
HETATM   27  C10 UNL     1       6.180  -0.620  -1.152  1.00  0.00     0.031 A 
HETATM   28  C11 UNL     1       7.312   0.112  -0.858  1.00  0.00     0.021 A 
HETATM   29  C12 UNL     1       7.419   0.824   0.325  1.00  0.00     0.011 A 
HETATM   30 BR1  UNL     1       8.995   1.844   0.744  1.00  0.00    -0.051 Br
HETATM   31  C13 UNL     1       6.365   0.788   1.208  1.00  0.00     0.021 A 
HETATM   32  C14 UNL     1       5.219   0.045   0.909  1.00  0.00     0.031 A 
ENDBRANCH  23  26
ENDBRANCH   1  18
TORSDOF 7
