REMARK  7 active torsions:
REMARK  status: ('A' for Active; 'I' for Inactive)
REMARK    1  A    between atoms: C3_6  and  C4_7 
REMARK    2  A    between atoms: C5_8  and  C6_9 
REMARK    3  A    between atoms: C6_9  and  C7_10 
REMARK    4  A    between atoms: C7_10  and  C8_11 
REMARK    5  A    between atoms: C8_11  and  C9_12 
REMARK    6  A    between atoms: C9_12  and  N2_13 
REMARK    7  A    between atoms: N2_13  and  C10_15 
ROOT
HETATM    1  C6  UNL     1      -0.397   1.616   1.263  1.00  0.00     0.027 C 
ENDROOT
BRANCH   1   2
HETATM    2  C5  UNL     1      -1.745   1.314   0.793  1.00  0.00    -0.026 C 
HETATM    3  C4  UNL     1      -2.324   0.138   0.702  1.00  0.00     0.014 C 
BRANCH   3   4
HETATM    4  C3  UNL     1      -3.676  -0.055   0.215  1.00  0.00     0.047 A 
HETATM    5  C2  UNL     1      -4.510   0.944  -0.206  1.00  0.00     0.110 A 
HETATM    6  N1  UNL     1      -5.773   0.671  -0.651  1.00  0.00    -0.318 N 
HETATM    7  C1  UNL     1      -6.252  -0.579  -0.697  1.00  0.00     0.327 A 
ATOM      8  H1  UNL     1      -6.368   1.441  -0.957  1.00  0.00     0.170 HD
HETATM    9  O1  UNL     1      -7.435  -0.819  -1.115  1.00  0.00    -0.247 OA
HETATM   10  N5  UNL     1      -5.453  -1.579  -0.289  1.00  0.00    -0.275 N 
HETATM   11  C14 UNL     1      -4.207  -1.353   0.155  1.00  0.00     0.260 A 
ATOM     12  H5  UNL     1      -5.803  -2.537  -0.318  1.00  0.00     0.173 HD
HETATM   13  O2  UNL     1      -3.451  -2.290   0.540  1.00  0.00    -0.267 OA
ENDBRANCH   3   4
ENDBRANCH   1   2
BRANCH   1  14
HETATM   14  C7  UNL     1       0.541   0.467   1.420  1.00  0.00     0.005 C 
BRANCH  14  15
HETATM   15  C8  UNL     1       0.861  -0.165   0.115  1.00  0.00     0.020 C 
BRANCH  15  16
HETATM   16  C9  UNL     1       1.804  -1.348   0.257  1.00  0.00     0.121 C 
BRANCH  16  17
HETATM   17  N2  UNL     1       3.060  -1.026   0.836  1.00  0.00    -0.375 N 
ATOM     18  H2  UNL     1       3.181  -1.191   1.835  1.00  0.00     0.161 HD
BRANCH  17  19
HETATM   19  C10 UNL     1       4.075  -0.530   0.170  1.00  0.00     0.115 A 
HETATM   20  C11 UNL     1       5.259  -0.253   0.843  1.00  0.00     0.051 A 
HETATM   21  C12 UNL     1       6.338   0.265   0.182  1.00  0.00     0.022 A 
HETATM   22  C13 UNL     1       6.258   0.519  -1.173  1.00  0.00     0.107 A 
HETATM   23  N3  UNL     1       5.087   0.229  -1.763  1.00  0.00    -0.310 N 
HETATM   24  N4  UNL     1       4.033  -0.271  -1.145  1.00  0.00    -0.286 N 
ATOM     25  H3  UNL     1       5.006   0.409  -2.764  1.00  0.00     0.186 HD
ATOM     26  H4  UNL     1       3.181  -0.462  -1.672  1.00  0.00     0.188 HD
ENDBRANCH  17  19
ENDBRANCH  16  17
ENDBRANCH  15  16
ENDBRANCH  14  15
ENDBRANCH   1  14
TORSDOF 7
