REMARK  11 active torsions:
REMARK  status: ('A' for Active; 'I' for Inactive)
REMARK    1  A    between atoms: N1_1  and  C1_4 
REMARK    2  A    between atoms: C2_7  and  C3_8 
REMARK    3  A    between atoms: C6_16  and  N5_17 
REMARK    4  A    between atoms: N6_21  and  C7_22 
REMARK    5  A    between atoms: N10_29  and  C8_30 
REMARK    6  A    between atoms: C8_30  and  O1_31 
REMARK    7  A    between atoms: O1_31  and  C9_32 
REMARK    8  A    between atoms: C9_32  and  O2_33 
REMARK    9  A    between atoms: C9_32  and  C10_35 
REMARK   10  A    between atoms: C10_35  and  O3_36 
REMARK   11  A    between atoms: C12_41  and  N12_42 
ROOT
HETATM    1  C3  UNL     1       3.102  -0.069  -0.174  1.00  0.00     0.122 A 
HETATM    2  N3  UNL     1       1.891   0.297   0.176  1.00  0.00    -0.344 N 
ATOM      3  H3  UNL     1       1.755   1.164   0.695  1.00  0.00     0.167 HD
HETATM    4  C4  UNL     1       0.859  -0.440  -0.135  1.00  0.00     0.083 A 
HETATM    5  C5  UNL     1       1.104  -1.598  -0.836  1.00  0.00     0.103 A 
HETATM    6  S1  UNL     1       2.801  -1.548  -1.000  1.00  0.00    -0.049 SA
HETATM    7  N4  UNL     1       0.046  -2.496  -1.242  1.00  0.00    -0.338 N 
ATOM      8  H4  UNL     1       0.088  -2.991  -2.133  1.00  0.00     0.164 HD
HETATM    9  C6  UNL     1      -1.062  -2.668  -0.353  1.00  0.00     0.409 C 
HETATM   10  N6  UNL     1      -1.337  -1.394   0.301  1.00  0.00    -0.141 N 
HETATM   11  C11 UNL     1      -0.621  -0.206   0.168  1.00  0.00     0.145 C 
ENDROOT
BRANCH  10  12
HETATM   12  C7  UNL     1      -2.469  -1.467   1.183  1.00  0.00     0.723 A 
HETATM   13  N7  UNL     1      -2.196  -1.852   2.486  1.00  0.00    -0.114 N 
HETATM   14  N8  UNL     1      -3.348  -1.922   3.077  1.00  0.00    -0.213 N 
ATOM     15  H7  UNL     1      -1.281  -2.041   2.895  1.00  0.00     0.207 HD
HETATM   16  N9  UNL     1      -4.305  -1.608   2.233  1.00  0.00    -0.209 N 
ATOM     17  H8  UNL     1      -3.490  -2.182   4.053  1.00  0.00     0.210 HD
HETATM   18  N10 UNL     1      -3.761  -1.311   1.019  1.00  0.00    -0.082 N 
ATOM     19  H9  UNL     1      -5.301  -1.589   2.452  1.00  0.00     0.210 HD
BRANCH  18  20
HETATM   20  C8  UNL     1      -4.504  -0.858  -0.114  1.00  0.00     0.340 C 
BRANCH  20  21
HETATM   21  O1  UNL     1      -4.940   0.413   0.006  1.00  0.00    -0.338 OA
BRANCH  21  22
HETATM   22  C9  UNL     1      -4.165   1.486   0.171  1.00  0.00     0.282 C 
BRANCH  22  23
HETATM   23  O2  UNL     1      -4.591   2.174   1.344  1.00  0.00    -0.369 OA
ATOM     24  H2  UNL     1      -4.039   2.938   1.462  1.00  0.00     0.212 HD
ENDBRANCH  22  23
BRANCH  22  25
HETATM   25  C10 UNL     1      -4.437   2.426  -1.028  1.00  0.00     0.224 C 
BRANCH  25  26
HETATM   26  O3  UNL     1      -3.673   3.571  -0.942  1.00  0.00    -0.396 OA
ATOM     27  H3  UNL     1      -3.840   4.148  -1.678  1.00  0.00     0.209 HD
ENDBRANCH  25  26
ENDBRANCH  22  25
ENDBRANCH  21  22
ENDBRANCH  20  21
ENDBRANCH  18  20
ENDBRANCH  10  12
BRANCH   9  28
HETATM   28  N5  UNL     1      -2.178  -3.360  -0.864  1.00  0.00    -0.040 N 
ATOM     29  H53 UNL     1      -2.495  -2.912  -1.724  1.00  0.00     0.279 HD
ATOM     30  H52 UNL     1      -1.883  -4.268  -1.224  1.00  0.00     0.279 HD
ATOM     31  H51 UNL     1      -2.968  -3.483  -0.230  1.00  0.00     0.279 HD
ENDBRANCH   9  28
BRANCH   1  32
HETATM   32  C2  UNL     1       4.392   0.578   0.055  1.00  0.00     0.170 A 
HETATM   33  N2  UNL     1       4.477   1.727   0.711  1.00  0.00    -0.173 N 
HETATM   34  C1  UNL     1       5.679   2.332   0.925  1.00  0.00     0.692 A 
ATOM     35  H2  UNL     1       3.626   2.167   1.062  1.00  0.00     0.186 HD
HETATM   36  N13 UNL     1       6.809   1.770   0.470  1.00  0.00    -0.023 N 
HETATM   37  C12 UNL     1       6.720   0.593  -0.203  1.00  0.00     0.692 A 
ATOM     38  H13 UNL     1       7.713   2.216   0.626  1.00  0.00     0.203 HD
HETATM   39  N11 UNL     1       5.518   0.010  -0.403  1.00  0.00    -0.173 N 
ATOM     40  H11 UNL     1       5.466  -0.874  -0.909  1.00  0.00     0.186 HD
BRANCH  34  41
HETATM   41  N1  UNL     1       5.769   3.447   1.561  1.00  0.00    -0.234 N 
ATOM     42  H12 UNL     1       4.910   3.874   1.907  1.00  0.00     0.174 HD
ATOM     43  H11 UNL     1       6.669   3.900   1.721  1.00  0.00     0.174 HD
ENDBRANCH  34  41
BRANCH  37  44
HETATM   44  N12 UNL     1       7.810   0.068  -0.631  1.00  0.00    -0.234 N 
ATOM     45 2H12 UNL     1       7.743  -0.816  -1.136  1.00  0.00     0.174 HD
ATOM     46 1H12 UNL     1       8.718   0.508  -0.480  1.00  0.00     0.174 HD
ENDBRANCH  37  44
ENDBRANCH   1  32
TORSDOF 11
