REMARK  7 active torsions:
REMARK  status: ('A' for Active; 'I' for Inactive)
REMARK    1  A    between atoms: C4_6  and  C5_7 
REMARK    2  A    between atoms: C5_7  and  O1_8 
REMARK    3  A    between atoms: C6_10  and  C7_11 
REMARK    4  A    between atoms: C7_11  and  C8_12 
REMARK    5  A    between atoms: N2_14  and  C10_15 
REMARK    6  A    between atoms: C10_15  and  C11_16 
REMARK    7  A    between atoms: C12_18  and  N3_19 
ROOT
HETATM    1  C8  UNL     1       0.240  -0.853   0.053  1.00  0.00     0.016 A 
HETATM    2  C9  UNL     1       1.158   0.055  -0.450  1.00  0.00     0.123 A 
HETATM    3  N2  UNL     1       2.355   0.200   0.191  1.00  0.00    -0.192 N 
HETATM    4  C12 UNL     1       2.645  -0.516   1.285  1.00  0.00     0.678 A 
HETATM    5  N4  UNL     1       1.760  -1.420   1.806  1.00  0.00    -0.184 N 
ATOM      6  H4  UNL     1       1.987  -1.962   2.639  1.00  0.00     0.185 HD
HETATM    7  C13 UNL     1       0.585  -1.566   1.181  1.00  0.00     0.107 A 
HETATM    8 BR2  UNL     1      -0.681  -2.810   1.866  1.00  0.00    -0.030 Br
ENDROOT
BRANCH   1   9
HETATM    9  C7  UNL     1      -1.033  -1.097  -0.568  1.00  0.00     0.030 C 
BRANCH   9  10
HETATM   10  C6  UNL     1      -2.174  -0.516  -0.422  1.00  0.00     0.000 A 
HETATM   11  C2  UNL     1      -3.336  -0.883  -1.115  1.00  0.00     0.033 A 
HETATM   12  C1  UNL     1      -3.475  -1.858  -2.016  1.00  0.00     0.044 C 
HETATM   13  N1  UNL     1      -4.336  -0.072  -0.721  1.00  0.00    -0.365 N 
HETATM   14  C3  UNL     1      -3.873   0.786   0.182  1.00  0.00     0.098 A 
ATOM     15  H1  UNL     1      -5.297  -0.110  -1.062  1.00  0.00     0.165 HD
HETATM   16  C4  UNL     1      -2.512   0.534   0.393  1.00  0.00    -0.007 A 
BRANCH  16  17
HETATM   17  C5  UNL     1      -1.676   1.321   1.345  1.00  0.00     0.205 C 
BRANCH  17  18
HETATM   18  O1  UNL     1      -2.505   2.297   1.949  1.00  0.00    -0.396 OA
ATOM     19  H1  UNL     1      -1.973   2.798   2.555  1.00  0.00     0.209 HD
ENDBRANCH  17  18
ENDBRANCH  16  17
ENDBRANCH   9  10
ENDBRANCH   1   9
BRANCH   3  20
HETATM   20  C10 UNL     1       3.292   1.139  -0.329  1.00  0.00     0.157 C 
BRANCH  20  21
HETATM   21  C11 UNL     1       4.246   0.539  -1.334  1.00  0.00     0.106 C 
HETATM   22 BR1  UNL     1       5.426   1.986  -1.907  1.00  0.00    -0.095 Br
ENDBRANCH  20  21
ENDBRANCH   3  20
BRANCH   4  23
HETATM   23  N3  UNL     1       3.778  -0.356   1.852  1.00  0.00    -0.234 N 
ATOM     24  H32 UNL     1       4.438   0.318   1.464  1.00  0.00     0.174 HD
ATOM     25  H31 UNL     1       3.999  -0.901   2.685  1.00  0.00     0.174 HD
ENDBRANCH   4  23
TORSDOF 7
