REMARK  6 active torsions:
REMARK  status: ('A' for Active; 'I' for Inactive)
REMARK    1  A    between atoms: C2_2  and  N1_3 
REMARK       I    between atoms: N1_3  and  C3_5 
REMARK       I    between atoms: C3_5  and  N3_9 
REMARK    2  A    between atoms: N3_9  and  C4_11 
REMARK    3  A    between atoms: C5_15  and  O1_16 
REMARK    4  A    between atoms: C5_15  and  C6_18 
REMARK    5  A    between atoms: C6_18  and  C7_19 
REMARK    6  A    between atoms: C6_18  and  N5_21 
ROOT
HETATM    1  C4  UNL     1       1.055  -1.059  -0.219  1.00  0.00     0.322 C 
HETATM    2  N4  UNL     1      -0.264  -1.398   0.303  1.00  0.00    -0.017 N 
ATOM      3  H41 UNL     1      -0.347  -1.697   1.275  1.00  0.00     0.283 HD
ATOM      4  H42 UNL     1      -0.718  -2.251  -0.022  1.00  0.00     0.283 HD
HETATM    5  C5  UNL     1      -0.821  -0.115  -0.086  1.00  0.00     0.273 C 
HETATM    6  C11 UNL     1       0.318  -0.060  -1.114  1.00  0.00     0.174 C 
HETATM    7 BR2  UNL     1      -0.061  -0.958  -2.782  1.00  0.00    -0.082 Br
ENDROOT
BRANCH   1   8
HETATM    8  N3  UNL     1       1.969  -0.461   0.705  1.00  0.00    -0.196 N 
HETATM    9  C3  UNL     1       3.038   0.295   0.180  1.00  0.00     0.669 C 
HETATM   10  N1  UNL     1       4.054  -0.352  -0.563  1.00  0.00    -0.227 N 
HETATM   11  N2  UNL     1       3.072   1.558   0.383  1.00  0.00    -0.235 N 
ATOM     12  H1  UNL     1       3.805  -0.790  -1.450  1.00  0.00     0.177 HD
ATOM     13  H22 UNL     1       3.845   2.105   0.003  1.00  0.00     0.174 HD
ATOM     14  H21 UNL     1       2.340   2.024   0.918  1.00  0.00     0.174 HD
ATOM     15  H3  UNL     1       1.851  -0.578   1.711  1.00  0.00     0.180 HD
BRANCH  10  16
HETATM   16  C2  UNL     1       5.423  -0.420  -0.124  1.00  0.00     0.133 C 
HETATM   17  C1  UNL     1       6.086   0.965  -0.154  1.00  0.00     0.027 C 
ENDBRANCH  10  16
ENDBRANCH   1   8
BRANCH   5  18
HETATM   18  O1  UNL     1      -0.673   0.878   0.870  1.00  0.00    -0.362 OA
ATOM     19  H1  UNL     1      -1.037   1.718   0.615  1.00  0.00     0.212 HD
ENDBRANCH   5  18
BRANCH   5  20
HETATM   20  C6  UNL     1      -2.152  -0.104  -0.748  1.00  0.00     0.263 C 
BRANCH  20  21
HETATM   21  C7  UNL     1      -2.256   1.246  -1.462  1.00  0.00     0.123 C 
HETATM   22 BR1  UNL     1      -3.899   1.474  -2.410  1.00  0.00    -0.094 Br
ENDBRANCH  20  21
BRANCH  20  23
HETATM   23  N5  UNL     1      -3.262  -0.309   0.143  1.00  0.00    -0.069 N 
HETATM   24  C8  UNL     1      -3.762   0.891   0.775  1.00  0.00     0.272 C 
HETATM   25  C9  UNL     1      -4.385  -0.887  -0.581  1.00  0.00     0.272 C 
HETATM   26  C10 UNL     1      -2.943  -1.241   1.215  1.00  0.00     0.272 C 
ENDBRANCH  20  23
ENDBRANCH   5  20
TORSDOF 6
