REMARK  6 active torsions:
REMARK  status: ('A' for Active; 'I' for Inactive)
REMARK    1  A    between atoms: C2_2  and  O2_4 
REMARK    2  A    between atoms: O2_4  and  C3_5 
REMARK    3  A    between atoms: C9_13  and  O5_14 
REMARK    4  A    between atoms: O5_14  and  C10_15 
REMARK    5  A    between atoms: C10_15  and  C11_17 
REMARK    6  A    between atoms: C17_23  and  C18_24 
ROOT
HETATM    1  C3  UNL     1       4.252   0.607   0.288  1.00  0.00     0.305 C 
HETATM    2  O3  UNL     1       3.362   1.529  -0.316  1.00  0.00    -0.341 OA
HETATM    3  C4  UNL     1       2.423   0.545  -0.364  1.00  0.00     0.226 C 
HETATM    4  C5  UNL     1       3.005   0.056   0.948  1.00  0.00     0.031 C 
HETATM    5  C6  UNL     1       2.014  -0.465   1.630  1.00  0.00     0.149 C 
HETATM    6  O4  UNL     1       0.774  -0.324   0.978  1.00  0.00    -0.320 OA
HETATM    7  C7  UNL     1       1.019   0.768   0.052  1.00  0.00     0.234 C 
HETATM    8  C8  UNL     1       0.044   0.510  -1.107  1.00  0.00     0.110 C 
HETATM    9  C9  UNL     1      -1.335   0.552  -0.471  1.00  0.00     0.174 C 
HETATM   10  C17 UNL     1      -1.507   1.703   0.436  1.00  0.00     0.223 C 
HETATM   11  O7  UNL     1      -0.400   1.900   1.276  1.00  0.00    -0.225 OA
HETATM   12  O8  UNL     1       0.714   1.987   0.582  1.00  0.00    -0.196 OA
ENDROOT
BRANCH   9  13
HETATM   13  O5  UNL     1      -1.502  -0.686   0.259  1.00  0.00    -0.309 OA
BRANCH  13  14
HETATM   14  C10 UNL     1      -2.463  -1.603  -0.095  1.00  0.00     0.293 C 
HETATM   15  O6  UNL     1      -3.202  -1.338  -1.078  1.00  0.00    -0.259 OA
BRANCH  14  16
HETATM   16  C11 UNL     1      -2.649  -2.869   0.636  1.00  0.00     0.039 A 
HETATM   17  C12 UNL     1      -1.884  -3.215   1.707  1.00  0.00     0.017 A 
HETATM   18  C13 UNL     1      -2.090  -4.419   2.371  1.00  0.00     0.001 A 
HETATM   19  C14 UNL     1      -3.068  -5.295   1.970  1.00  0.00     0.000 A 
HETATM   20  C15 UNL     1      -3.837  -4.944   0.890  1.00  0.00     0.001 A 
HETATM   21  C16 UNL     1      -3.630  -3.745   0.231  1.00  0.00     0.017 A 
ENDBRANCH  14  16
ENDBRANCH  13  14
ENDBRANCH   9  13
BRANCH   1  22
HETATM   22  O2  UNL     1       4.768  -0.369  -0.591  1.00  0.00    -0.286 OA
BRANCH  22  23
HETATM   23  C2  UNL     1       6.074  -0.799  -0.542  1.00  0.00     0.257 C 
HETATM   24  C1  UNL     1       6.645  -1.823  -1.452  1.00  0.00     0.126 C 
HETATM   25  O1  UNL     1       6.841  -0.302   0.322  1.00  0.00    -0.266 OA
ENDBRANCH  22  23
ENDBRANCH   1  22
BRANCH  10  26
HETATM   26  C18 UNL     1      -1.901   2.972  -0.223  1.00  0.00    -0.024 A 
HETATM   27  C19 UNL     1      -2.104   3.034  -1.563  1.00  0.00     0.010 A 
HETATM   28  C20 UNL     1      -2.482   4.247  -2.155  1.00  0.00     0.001 A 
HETATM   29  C21 UNL     1      -2.658   5.390  -1.418  1.00  0.00     0.000 A 
HETATM   30  C22 UNL     1      -2.445   5.296  -0.068  1.00  0.00     0.001 A 
HETATM   31  C23 UNL     1      -2.075   4.127   0.540  1.00  0.00     0.010 A 
ENDBRANCH  10  26
TORSDOF 6
