REMARK  3 active torsions:
REMARK  status: ('A' for Active; 'I' for Inactive)
REMARK    1  A    between atoms: C1_2  and  C2_4 
REMARK    2  A    between atoms: C2_4  and  N2_5 
REMARK    3  A    between atoms: C2_4  and  C3_9 
ROOT
HETATM    1  C3  UNL     1      -1.698  -0.596  -0.432  1.00  0.00     0.117 C 
HETATM    2  C4  UNL     1      -0.984  -1.953  -0.512  1.00  0.00     0.055 C 
HETATM    3  C5  UNL     1       0.041  -2.108   0.566  1.00  0.00     0.234 C 
HETATM    4  N3  UNL     1       1.177  -2.850   0.061  1.00  0.00    -0.073 N 
ATOM      5  H31 UNL     1       1.171  -2.910  -0.957  1.00  0.00     0.277 HD
ATOM      6  H32 UNL     1       1.106  -3.846   0.270  1.00  0.00     0.277 HD
HETATM    7  C6  UNL     1       2.426  -2.271   0.569  1.00  0.00     0.259 C 
HETATM    8  C7  UNL     1       2.821  -1.034  -0.175  1.00  0.00     0.259 C 
HETATM    9  N4  UNL     1       2.908   0.098   0.735  1.00  0.00    -0.072 N 
ATOM     10  H41 UNL     1       3.422  -0.144   1.582  1.00  0.00     0.277 HD
ATOM     11  H42 UNL     1       2.002   0.309   1.154  1.00  0.00     0.277 HD
HETATM   12  C8  UNL     1       3.472   1.257   0.092  1.00  0.00     0.259 C 
HETATM   13  C9  UNL     1       2.313   2.025  -0.537  1.00  0.00     0.259 C 
HETATM   14  N5  UNL     1       1.266   2.231   0.439  1.00  0.00    -0.072 N 
ATOM     15  H51 UNL     1       1.542   2.875   1.181  1.00  0.00     0.277 HD
ATOM     16  H52 UNL     1       1.105   1.409   1.021  1.00  0.00     0.277 HD
HETATM   17  C10 UNL     1       0.074   2.662  -0.255  1.00  0.00     0.251 C 
HETATM   18  C11 UNL     1      -0.662   1.532  -0.914  1.00  0.00     0.142 C 
HETATM   19  N6  UNL     1      -0.801   0.432  -0.012  1.00  0.00    -0.413 N 
ATOM     20  H6  UNL     1      -0.294   0.385   0.872  1.00  0.00     0.153 HD
ENDROOT
BRANCH   1  21
HETATM   21  C2  UNL     1      -2.878  -0.807   0.486  1.00  0.00     0.293 C 
BRANCH  21  22
HETATM   22  C1  UNL     1      -3.705   0.368   0.705  1.00  0.00     0.263 C 
HETATM   23  N1  UNL     1      -3.245   1.603   1.259  1.00  0.00    -0.060 NA
HETATM   24  O1  UNL     1      -4.923   0.344   0.399  1.00  0.00    -0.274 OA
ENDBRANCH  21  22
BRANCH  21  25
HETATM   25  N2  UNL     1      -3.695  -1.859  -0.081  1.00  0.00    -0.065 N 
ATOM     26  H23 UNL     1      -4.516  -2.063   0.489  1.00  0.00     0.275 HD
ATOM     27  H22 UNL     1      -4.179  -1.561  -0.928  1.00  0.00     0.275 HD
ATOM     28  H21 UNL     1      -3.115  -2.684  -0.235  1.00  0.00     0.275 HD
ENDBRANCH  21  25
ENDBRANCH   1  21
TORSDOF 3
