REMARK  0 active torsions:
REMARK  status: ('A' for Active; 'I' for Inactive)
ROOT
HETATM    1  C1  UNL     1       2.216  -0.785  -0.279  1.00  0.00     0.040 C 
HETATM    2  C2  UNL     1       0.742  -0.453  -0.307  1.00  0.00     0.181 C 
HETATM    3  C3  UNL     1       0.577   1.060  -0.196  1.00  0.00     0.032 C 
HETATM    4  C4  UNL     1      -0.821   1.406   0.318  1.00  0.00     0.004 C 
HETATM    5  C5  UNL     1      -1.725   0.303  -0.213  1.00  0.00     0.027 C 
HETATM    6  C6  UNL     1      -1.399  -1.036   0.406  1.00  0.00     0.232 C 
HETATM    7  N1  UNL     1       0.014  -1.124   0.764  1.00  0.00    -0.071 N 
ATOM      8  H11 UNL     1       0.223  -0.755   1.692  1.00  0.00     0.277 HD
ATOM      9  H12 UNL     1       0.332  -2.078   0.937  1.00  0.00     0.277 HD
ENDROOT
TORSDOF 0
