REMARK  0 active torsions:
REMARK  status: ('A' for Active; 'I' for Inactive)
ROOT
HETATM    1  C1  UNL     1      -0.825  -1.087  -0.259  1.00  0.00     0.004 C 
HETATM    2  C2  UNL     1       0.560  -1.146   0.333  1.00  0.00     0.022 C 
HETATM    3  C3  UNL     1       1.487  -0.121  -0.305  1.00  0.00     0.146 C 
HETATM    4  N1  UNL     1       1.455   1.121   0.398  1.00  0.00    -0.303 N 
ATOM      5  H1  UNL     1       2.301   1.539   0.786  1.00  0.00     0.187 HD
HETATM    6  O1  UNL     1       0.282   1.697   0.520  1.00  0.00    -0.285 OA
HETATM    7  C4  UNL     1      -0.691   1.338  -0.357  1.00  0.00     0.201 C 
HETATM    8  C5  UNL     1      -1.520   0.186   0.226  1.00  0.00     0.029 C 
ENDROOT
TORSDOF 0
