REMARK  3 active torsions:
REMARK  status: ('A' for Active; 'I' for Inactive)
REMARK    1  A    between atoms: C2_2  and  C3_3 
REMARK    2  A    between atoms: C3_3  and  N1_4 
REMARK    3  A    between atoms: C3_3  and  C4_8 
ROOT
HETATM    1  C3  UNL     1      -1.350  -0.273  -0.321  1.00  0.00     0.209 C 
ENDROOT
BRANCH   1   2
HETATM    2  C2  UNL     1      -2.392   0.411   0.506  1.00  0.00    -0.004 C 
HETATM    3  C1  UNL     1      -2.948   1.554   0.123  1.00  0.00     0.009 C 
ENDBRANCH   1   2
BRANCH   1   4
HETATM    4  N1  UNL     1      -1.926  -1.576  -0.661  1.00  0.00    -0.071 N 
ATOM      5  H13 UNL     1      -2.230  -2.116   0.149  1.00  0.00     0.275 HD
ATOM      6  H12 UNL     1      -2.839  -1.518  -1.113  1.00  0.00     0.275 HD
ATOM      7  H11 UNL     1      -1.215  -2.042  -1.225  1.00  0.00     0.275 HD
ENDBRANCH   1   4
BRANCH   1   8
HETATM    8  C4  UNL     1      -0.101  -0.498   0.543  1.00  0.00     0.020 C 
HETATM    9  C5  UNL     1       0.445   0.785   1.039  1.00  0.00     0.007 C 
HETATM   10  C6  UNL     1       1.616   1.339   0.339  1.00  0.00     0.000 C 
HETATM   11  C7  UNL     1       2.513   0.369  -0.326  1.00  0.00     0.000 C 
HETATM   12  C8  UNL     1       2.300  -1.064   0.067  1.00  0.00     0.000 C 
HETATM   13  C9  UNL     1       0.849  -1.395  -0.160  1.00  0.00     0.007 C 
ENDBRANCH   1   8
TORSDOF 3
