REMARK  14 active torsions:
REMARK  status: ('A' for Active; 'I' for Inactive)
REMARK    1  A    between atoms: N2_5  and  C4_6 
REMARK    2  A    between atoms: C4_6  and  C5_7 
REMARK    3  A    between atoms: C5_7  and  C6_8 
REMARK       I    between atoms: C6_8  and  N3_10 
REMARK    4  A    between atoms: N3_10  and  C7_12 
REMARK    5  A    between atoms: C9_14  and  O2_15 
REMARK    6  A    between atoms: O2_15  and  C10_16 
REMARK    7  A    between atoms: C10_16  and  C11_17 
REMARK    8  A    between atoms: C11_17  and  C12_18 
REMARK    9  A    between atoms: C12_18  and  N4_19 
REMARK   10  A    between atoms: C21_32  and  N7_33 
REMARK   11  A    between atoms: N7_33  and  C22_35 
REMARK   12  A    between atoms: C22_35  and  C23_36 
REMARK   13  A    between atoms: C23_36  and  N8_37 
REMARK   14  A    between atoms: N8_37  and  C24_39 
ROOT
HETATM    1  C7  UNL     1      -0.241   0.533  -0.009  1.00  0.00     0.053 A 
HETATM    2  C8  UNL     1       0.721  -0.385  -0.369  1.00  0.00     0.067 A 
HETATM    3  C9  UNL     1       2.084  -0.052  -0.520  1.00  0.00     0.073 A 
HETATM    4  C18 UNL     1       2.464   1.237  -0.301  1.00  0.00     0.067 A 
HETATM    5  C19 UNL     1       1.511   2.188   0.066  1.00  0.00     0.052 A 
HETATM    6  N5  UNL     1       1.982   3.424   0.289  1.00  0.00    -0.351 N 
ATOM      7  H5  UNL     1       2.972   3.636   0.167  1.00  0.00     0.166 HD
HETATM    8  C20 UNL     1       1.124   4.369   0.674  1.00  0.00     0.182 A 
HETATM    9  N6  UNL     1      -0.174   4.114   0.841  1.00  0.00    -0.338 N 
ATOM     10  H6  UNL     1      -0.801   4.862   1.138  1.00  0.00     0.168 HD
HETATM   11  C21 UNL     1      -0.673   2.862   0.618  1.00  0.00     0.117 A 
HETATM   12  C29 UNL     1       0.175   1.844   0.213  1.00  0.00     0.061 A 
ENDROOT
BRANCH   1  13
HETATM   13  N3  UNL     1      -1.612   0.209  -0.000  1.00  0.00    -0.326 N 
HETATM   14  C6  UNL     1      -2.125  -1.101   0.276  1.00  0.00     0.223 C 
HETATM   15  O1  UNL     1      -1.415  -2.066   0.541  1.00  0.00    -0.273 OA
ATOM     16  H3  UNL     1      -2.281   0.952  -0.202  1.00  0.00     0.169 HD
BRANCH  14  17
HETATM   17  C5  UNL     1      -3.604  -1.282   0.235  1.00  0.00     0.133 C 
BRANCH  17  18
HETATM   18  C4  UNL     1      -4.023  -2.670   0.556  1.00  0.00     0.281 C 
BRANCH  18  19
HETATM   19  N2  UNL     1      -3.528  -3.699  -0.296  1.00  0.00     0.092 N 
HETATM   20  C3  UNL     1      -4.047  -4.964   0.192  1.00  0.00     0.302 C 
HETATM   21  C2  UNL     1      -4.144  -6.017  -0.869  1.00  0.00     0.302 C 
HETATM   22  N1  UNL     1      -5.079  -5.655  -1.916  1.00  0.00     0.087 N 
HETATM   23  C1  UNL     1      -6.401  -6.181  -1.659  1.00  0.00     0.310 C 
HETATM   24  C31 UNL     1      -5.174  -4.214  -2.057  1.00  0.00     0.302 C 
HETATM   25  C30 UNL     1      -3.858  -3.572  -1.678  1.00  0.00     0.302 C 
ENDBRANCH  18  19
ENDBRANCH  17  18
ENDBRANCH  14  17
ENDBRANCH   1  13
BRANCH   3  26
HETATM   26  O2  UNL     1       2.943  -1.032  -0.879  1.00  0.00    -0.351 OA
BRANCH  26  27
HETATM   27  C10 UNL     1       4.280  -1.091  -1.083  1.00  0.00     0.177 C 
BRANCH  27  28
HETATM   28  C11 UNL     1       5.186  -0.842   0.099  1.00  0.00     0.046 C 
BRANCH  28  29
HETATM   29  C12 UNL     1       6.607  -0.938  -0.340  1.00  0.00     0.119 C 
BRANCH  29  30
HETATM   30  N4  UNL     1       7.586  -0.732   0.661  1.00  0.00    -0.412 N 
HETATM   31  C13 UNL     1       8.933  -0.825   0.208  1.00  0.00     0.117 C 
HETATM   32  C14 UNL     1       9.306  -2.267  -0.010  1.00  0.00     0.019 C 
HETATM   33  C15 UNL     1       9.192  -2.995   1.291  1.00  0.00     0.003 C 
HETATM   34  C16 UNL     1       7.845  -2.829   1.907  1.00  0.00     0.019 C 
HETATM   35  C17 UNL     1       7.376  -1.389   1.911  1.00  0.00     0.117 C 
ENDBRANCH  29  30
ENDBRANCH  28  29
ENDBRANCH  27  28
ENDBRANCH  26  27
ENDBRANCH   3  26
BRANCH  11  36
HETATM   36  N7  UNL     1      -1.900   2.657   0.845  1.00  0.00    -0.374 N 
ATOM     37  H7  UNL     1      -2.210   1.703   0.659  1.00  0.00     0.161 HD
BRANCH  36  38
HETATM   38  C22 UNL     1      -2.916   3.523   1.312  1.00  0.00     0.141 C 
BRANCH  38  39
HETATM   39  C23 UNL     1      -3.532   4.266   0.138  1.00  0.00     0.141 C 
BRANCH  39  40
HETATM   40  N8  UNL     1      -4.577   5.148   0.555  1.00  0.00    -0.375 N 
ATOM     41  H8  UNL     1      -5.174   4.834   1.320  1.00  0.00     0.161 HD
BRANCH  40  42
HETATM   42  C24 UNL     1      -4.824   6.274   0.062  1.00  0.00     0.100 A 
HETATM   43  C25 UNL     1      -5.881   7.002   0.588  1.00  0.00     0.048 A 
HETATM   44  C26 UNL     1      -6.236   8.256   0.105  1.00  0.00     0.005 A 
HETATM   45  C27 UNL     1      -5.448   8.717  -0.944  1.00  0.00     0.017 A 
HETATM   46  C28 UNL     1      -4.407   8.014  -1.472  1.00  0.00     0.089 A 
HETATM   47  N9  UNL     1      -4.118   6.789  -0.946  1.00  0.00    -0.353 N 
ATOM     48  H9  UNL     1      -3.342   6.253  -1.334  1.00  0.00     0.166 HD
ENDBRANCH  40  42
ENDBRANCH  39  40
ENDBRANCH  38  39
ENDBRANCH  36  38
ENDBRANCH  11  36
TORSDOF 14
