REMARK  13 active torsions:
REMARK  status: ('A' for Active; 'I' for Inactive)
REMARK    1  A    between atoms: C2_2  and  C3_3 
REMARK    2  A    between atoms: C3_3  and  C4_4 
REMARK    3  A    between atoms: C4_4  and  C5_5 
REMARK    4  A    between atoms: C5_5  and  O1_6 
REMARK    5  A    between atoms: O1_6  and  C6_7 
REMARK       I    between atoms: C6_7  and  N1_9 
REMARK       I    between atoms: N2_12  and  C9_13 
REMARK    6  A    between atoms: C9_13  and  C10_15 
REMARK    7  A    between atoms: N3_22  and  C17_23 
REMARK    8  A    between atoms: C17_23  and  C18_24 
REMARK       I    between atoms: C18_24  and  N4_26 
REMARK    9  A    between atoms: N4_26  and  C19_28 
REMARK   10  A    between atoms: C19_28  and  C27_36 
REMARK   11  A    between atoms: C20_29  and  C21_30 
REMARK   12  A    between atoms: C27_36  and  C28_38 
REMARK   13  A    between atoms: C28_38  and  O6_40 
ROOT
HETATM    1  C10 UNL     1       0.679   0.456  -0.780  1.00  0.00     0.314 C 
HETATM    2  C11 UNL     1       0.756   1.973  -0.594  1.00  0.00     0.046 C 
HETATM    3  C12 UNL     1      -0.034   2.752  -1.565  1.00  0.00     0.014 C 
HETATM    4  C13 UNL     1      -1.324   2.157  -1.978  1.00  0.00    -0.014 A 
HETATM    5  C14 UNL     1      -2.621   2.933  -1.673  1.00  0.00     0.012 A 
HETATM    6  C15 UNL     1      -2.129   2.841  -3.050  1.00  0.00     0.012 A 
HETATM    7  C16 UNL     1      -1.442   0.689  -1.819  1.00  0.00     0.283 C 
HETATM    8  N3  UNL     1      -0.712   0.066  -0.762  1.00  0.00     0.111 N 
ENDROOT
BRANCH   8   9
HETATM    9  C17 UNL     1      -1.245   0.561   0.476  1.00  0.00     0.376 C 
BRANCH   9  10
HETATM   10  C18 UNL     1      -2.550  -0.068   0.881  1.00  0.00     0.250 C 
HETATM   11  O4  UNL     1      -2.981  -0.950   0.166  1.00  0.00    -0.271 OA
HETATM   12  N4  UNL     1      -3.172   0.407   2.059  1.00  0.00    -0.322 N 
ATOM     13  H4  UNL     1      -2.635   1.149   2.508  1.00  0.00     0.169 HD
BRANCH  12  14
HETATM   14  C19 UNL     1      -4.350   0.103   2.760  1.00  0.00     0.086 C 
HETATM   15  C20 UNL     1      -5.202  -1.006   2.445  1.00  0.00     0.012 C 
BRANCH  15  16
HETATM   16  C21 UNL     1      -6.026  -1.436   1.338  1.00  0.00     0.010 C 
HETATM   17  C22 UNL     1      -7.211  -0.628   0.922  1.00  0.00     0.008 C 
HETATM   18  C23 UNL     1      -7.574  -1.088  -0.493  1.00  0.00     0.001 C 
HETATM   19  C24 UNL     1      -8.054  -2.505  -0.349  1.00  0.00     0.000 C 
HETATM   20  C25 UNL     1      -7.900  -3.074   1.031  1.00  0.00     0.001 C 
HETATM   21  C26 UNL     1      -6.608  -2.847   1.713  1.00  0.00     0.008 C 
ENDBRANCH  15  16
BRANCH  14  22
HETATM   22  C27 UNL     1      -4.865   1.296   3.494  1.00  0.00     0.245 C 
HETATM   23  O5  UNL     1      -4.883   1.260   4.747  1.00  0.00    -0.282 OA
BRANCH  22  24
HETATM   24  C28 UNL     1      -5.359   2.558   2.938  1.00  0.00     0.203 C 
HETATM   25  N5  UNL     1      -5.724   2.697   1.608  1.00  0.00    -0.071 NA
BRANCH  24  26
HETATM   26  O6  UNL     1      -6.250   3.189   3.804  1.00  0.00    -0.345 OA
ATOM     27  H6  UNL     1      -6.570   4.007   3.443  1.00  0.00     0.219 HD
ENDBRANCH  24  26
ENDBRANCH  22  24
ENDBRANCH  14  22
ENDBRANCH  12  14
ENDBRANCH   9  10
ENDBRANCH   8   9
BRANCH   1  28
HETATM   28  C9  UNL     1       1.452   0.049  -1.951  1.00  0.00     0.253 C 
HETATM   29  N2  UNL     1       2.540  -0.833  -1.904  1.00  0.00    -0.347 N 
HETATM   30  C8  UNL     1       3.315  -1.111  -3.089  1.00  0.00     0.145 C 
HETATM   31  C29 UNL     1       2.887  -1.517  -0.694  1.00  0.00     0.145 C 
HETATM   32  C7  UNL     1       4.815  -0.848  -2.769  1.00  0.00     0.148 C 
HETATM   33  N1  UNL     1       5.189  -1.661  -1.625  1.00  0.00    -0.325 N 
HETATM   34  C6  UNL     1       6.546  -1.902  -1.335  1.00  0.00     0.362 C 
HETATM   35  C30 UNL     1       4.194  -2.253  -0.760  1.00  0.00     0.148 C 
HETATM   36  O2  UNL     1       6.811  -2.662  -0.323  1.00  0.00    -0.238 OA
HETATM   37  O3  UNL     1       1.133   0.516  -3.083  1.00  0.00    -0.271 OA
BRANCH  34  38
HETATM   38  O1  UNL     1       7.649  -1.433  -1.991  1.00  0.00    -0.304 OA
BRANCH  38  39
HETATM   39  C5  UNL     1       8.944  -1.752  -1.614  1.00  0.00     0.180 C 
BRANCH  39  40
HETATM   40  C4  UNL     1       9.387  -1.354  -0.254  1.00  0.00     0.027 C 
BRANCH  40  41
HETATM   41  C3  UNL     1       9.375   0.125   0.021  1.00  0.00     0.002 C 
BRANCH  41  42
HETATM   42  C2  UNL     1       9.827   0.408   1.443  1.00  0.00    -0.004 C 
HETATM   43  C1  UNL     1       9.847   1.899   1.684  1.00  0.00     0.005 C 
ENDBRANCH  41  42
ENDBRANCH  40  41
ENDBRANCH  39  40
ENDBRANCH  38  39
ENDBRANCH  34  38
ENDBRANCH   1  28
TORSDOF 13
