REMARK  8 active torsions:
REMARK  status: ('A' for Active; 'I' for Inactive)
REMARK    1  A    between atoms: C2_2  and  C3_3 
REMARK    2  A    between atoms: C3_3  and  C6_6 
REMARK    3  A    between atoms: C6_6  and  O2_8 
REMARK    4  A    between atoms: O2_8  and  C7_9 
REMARK    5  A    between atoms: C16_19  and  C17_20 
REMARK    6  A    between atoms: C24_27  and  C26_29 
REMARK    7  A    between atoms: C26_29  and  O4_30 
REMARK    8  A    between atoms: C28_33  and  O5_34 
ROOT
HETATM    1  C7  UNL     1       1.712   0.488   2.084  1.00  0.00     0.189 C 
HETATM    2  C8  UNL     1       1.970   1.939   2.053  1.00  0.00     0.051 C 
HETATM    3  C9  UNL     1       1.892   2.704   0.800  1.00  0.00    -0.015 C 
HETATM    4  C10 UNL     1       2.851   3.915   0.934  1.00  0.00     0.018 C 
HETATM    5  C11 UNL     1       2.336   2.037  -0.453  1.00  0.00     0.018 C 
HETATM    6  C12 UNL     1       0.535   3.342   0.653  1.00  0.00     0.153 C 
HETATM    7  C13 UNL     1       0.040   3.464  -0.708  1.00  0.00     0.004 C 
HETATM    8  C14 UNL     1      -0.998   2.673  -0.831  1.00  0.00     0.008 C 
HETATM    9  C15 UNL     1      -1.225   1.990   0.470  1.00  0.00     0.178 C 
HETATM   10  O3  UNL     1      -0.358   2.569   1.300  1.00  0.00    -0.367 OA
HETATM   11  C16 UNL     1      -1.164   0.508   0.301  1.00  0.00    -0.019 C 
HETATM   12  C27 UNL     1      -0.557  -0.354   1.283  1.00  0.00     0.045 C 
HETATM   13  C28 UNL     1       0.295   0.053   2.393  1.00  0.00     0.073 C 
ENDROOT
BRANCH  11  14
HETATM   14  C17 UNL     1      -2.530   0.056  -0.227  1.00  0.00    -0.052 C 
HETATM   15  C18 UNL     1      -3.735   0.261   0.566  1.00  0.00    -0.023 C 
HETATM   16  C19 UNL     1      -4.607   1.458   0.115  1.00  0.00     0.019 C 
HETATM   17  C20 UNL     1      -3.671   0.359   2.049  1.00  0.00     0.019 C 
HETATM   18  C21 UNL     1      -4.701  -0.934   0.409  1.00  0.00     0.013 C 
HETATM   19  C22 UNL     1      -4.951  -1.328  -0.986  1.00  0.00     0.002 C 
HETATM   20  C23 UNL     1      -3.839  -1.022  -1.935  1.00  0.00     0.016 C 
HETATM   21  C24 UNL     1      -2.474  -1.065  -1.205  1.00  0.00     0.002 C 
HETATM   22  C25 UNL     1      -1.495  -0.711  -2.349  1.00  0.00     0.022 C 
BRANCH  21  23
HETATM   23  C26 UNL     1      -2.191  -2.435  -0.839  1.00  0.00     0.177 C 
BRANCH  23  24
HETATM   24  O4  UNL     1      -2.206  -3.272  -2.002  1.00  0.00    -0.400 OA
ATOM     25  H4  UNL     1      -2.020  -4.172  -1.762  1.00  0.00     0.209 HD
ENDBRANCH  23  24
ENDBRANCH  21  23
ENDBRANCH  11  14
BRANCH  13  26
HETATM   26  O5  UNL     1      -0.284   0.748   3.450  1.00  0.00    -0.362 OA
ATOM     27  H5  UNL     1      -1.173   0.475   3.644  1.00  0.00     0.217 HD
ENDBRANCH  13  26
BRANCH   1  28
HETATM   28  O2  UNL     1       2.200  -0.292   1.027  1.00  0.00    -0.309 OA
BRANCH  28  29
HETATM   29  C6  UNL     1       3.198  -1.254   1.153  1.00  0.00     0.267 C 
HETATM   30  O1  UNL     1       3.664  -1.391   2.313  1.00  0.00    -0.264 OA
BRANCH  29  31
HETATM   31  C3  UNL     1       3.732  -2.098   0.066  1.00  0.00     0.040 C 
HETATM   32  C4  UNL     1       2.711  -3.064  -0.474  1.00  0.00     0.025 C 
HETATM   33  C5  UNL     1       4.863  -2.955   0.635  1.00  0.00     0.025 C 
BRANCH  31  34
HETATM   34  C2  UNL     1       4.340  -1.233  -0.982  1.00  0.00     0.014 C 
HETATM   35  C1  UNL     1       5.059  -2.014  -2.057  1.00  0.00     0.006 C 
ENDBRANCH  31  34
ENDBRANCH  29  31
ENDBRANCH  28  29
ENDBRANCH   1  28
TORSDOF 8
