REMARK  8 active torsions:
REMARK  status: ('A' for Active; 'I' for Inactive)
REMARK    1  A    between atoms: C4_4  and  N1_5 
REMARK       I    between atoms: N1_5  and  C5_7 
REMARK    2  A    between atoms: C5_7  and  C6_9 
REMARK    3  A    between atoms: C11_14  and  N2_15 
REMARK    4  A    between atoms: C13_20  and  C14_21 
REMARK    5  A    between atoms: C14_21  and  O2_22 
REMARK    6  A    between atoms: O2_22  and  C15_23 
REMARK    7  A    between atoms: C19_28  and  O3_29 
REMARK    8  A    between atoms: O3_29  and  C20_30 
ROOT
HETATM    1  C1  UNL     1      -2.773  -2.786  -1.602  1.00  0.00     0.010 C 
HETATM    2  C2  UNL     1      -2.782  -1.680  -0.567  1.00  0.00    -0.010 C 
HETATM    3  C3  UNL     1      -3.804  -0.677  -0.952  1.00  0.00     0.029 C 
HETATM    4  C4  UNL     1      -4.090   0.318   0.168  1.00  0.00     0.086 C 
HETATM    5  C10 UNL     1      -3.356   1.582  -0.214  1.00  0.00     0.058 C 
HETATM    6  C11 UNL     1      -1.865   1.382  -0.361  1.00  0.00     0.186 C 
HETATM    7  C12 UNL     1      -1.317   0.182   0.279  1.00  0.00     0.040 C 
HETATM    8  C13 UNL     1      -1.387  -1.125  -0.423  1.00  0.00     0.016 C 
ENDROOT
BRANCH   8   9
HETATM    9  C14 UNL     1      -0.618  -1.186  -1.718  1.00  0.00     0.180 C 
BRANCH   9  10
HETATM   10  O2  UNL     1       0.638  -0.694  -1.655  1.00  0.00    -0.351 OA
BRANCH  10  11
HETATM   11  C15 UNL     1       1.784  -1.002  -1.002  1.00  0.00     0.074 A 
HETATM   12  C16 UNL     1       1.961  -2.057  -0.140  1.00  0.00     0.079 A 
HETATM   13  C17 UNL     1       3.163  -2.300   0.488  1.00  0.00     0.121 A 
HETATM   14  F1  UNL     1       3.348  -3.335   1.338  1.00  0.00    -0.206 F 
HETATM   15  C18 UNL     1       4.253  -1.459   0.257  1.00  0.00     0.079 A 
HETATM   16  C19 UNL     1       4.131  -0.392  -0.595  1.00  0.00     0.074 A 
HETATM   17  C26 UNL     1       2.886  -0.184  -1.212  1.00  0.00     0.073 A 
BRANCH  16  18
HETATM   18  O3  UNL     1       5.165   0.468  -0.862  1.00  0.00    -0.346 OA
BRANCH  18  19
HETATM   19  C20 UNL     1       6.423   0.389  -0.337  1.00  0.00     0.132 C 
HETATM   20  C21 UNL     1       7.513   0.259  -1.395  1.00  0.00     0.062 C 
HETATM   21  C22 UNL     1       8.845   0.543  -0.764  1.00  0.00     0.274 C 
HETATM   22  N3  UNL     1       8.841   0.346   0.668  1.00  0.00     0.084 N 
HETATM   23  C23 UNL     1      10.188   0.567   1.146  1.00  0.00     0.309 C 
HETATM   24  C24 UNL     1       7.969   1.257   1.349  1.00  0.00     0.274 C 
HETATM   25  C25 UNL     1       6.806   1.646   0.464  1.00  0.00     0.062 C 
ENDBRANCH  18  19
ENDBRANCH  16  18
ENDBRANCH  10  11
ENDBRANCH   9  10
ENDBRANCH   8   9
BRANCH   6  26
HETATM   26  N2  UNL     1      -1.451   1.577  -1.739  1.00  0.00    -0.075 N 
ATOM     27  H23 UNL     1      -1.976   0.981  -2.379  1.00  0.00     0.274 HD
ATOM     28  H22 UNL     1      -1.747   2.485  -2.097  1.00  0.00     0.274 HD
ATOM     29  H21 UNL     1      -0.445   1.442  -1.838  1.00  0.00     0.274 HD
ENDBRANCH   6  26
BRANCH   4  30
HETATM   30  N1  UNL     1      -5.501   0.642   0.195  1.00  0.00    -0.356 N 
HETATM   31  C5  UNL     1      -6.260   0.438   1.373  1.00  0.00     0.225 C 
HETATM   32  O1  UNL     1      -5.708  -0.027   2.402  1.00  0.00    -0.273 OA
ATOM     33  H1  UNL     1      -5.951   1.019  -0.639  1.00  0.00     0.162 HD
BRANCH  31  34
HETATM   34  C6  UNL     1      -7.700   0.774   1.386  1.00  0.00     0.030 C 
HETATM   35  C7  UNL     1      -7.857   2.248   1.079  1.00  0.00     0.024 C 
HETATM   36  C8  UNL     1      -8.247   0.500   2.767  1.00  0.00     0.024 C 
HETATM   37  C9  UNL     1      -8.486  -0.074   0.410  1.00  0.00     0.024 C 
ENDBRANCH  31  34
ENDBRANCH   4  30
TORSDOF 8
