REMARK  5 active torsions:
REMARK  status: ('A' for Active; 'I' for Inactive)
REMARK    1  A    between atoms: C2_2  and  C3_3 
REMARK    2  A    between atoms: N1_7  and  C7_8 
REMARK       I    between atoms: N2_11  and  C10_12 
REMARK    3  A    between atoms: C10_12  and  C11_14 
REMARK    4  A    between atoms: C15_18  and  N3_19 
REMARK    5  A    between atoms: C18_23  and  C19_24 
ROOT
HETATM    1  C11 UNL     1       0.670  -0.366   0.785  1.00  0.00     0.080 C 
HETATM    2  C12 UNL     1       0.373  -1.512   1.674  1.00  0.00     0.014 C 
HETATM    3  C13 UNL     1       1.341  -2.636   1.666  1.00  0.00     0.003 C 
HETATM    4  C14 UNL     1       2.783  -2.203   1.501  1.00  0.00     0.027 C 
HETATM    5  C15 UNL     1       2.835  -1.469   0.178  1.00  0.00     0.108 C 
HETATM    6  C24 UNL     1       2.098  -0.172   0.412  1.00  0.00     0.041 C 
ENDROOT
BRANCH   5   7
HETATM    7  N3  UNL     1       4.176  -1.140  -0.244  1.00  0.00    -0.296 N 
HETATM    8  C16 UNL     1       4.634  -1.415  -1.503  1.00  0.00     0.137 A 
HETATM    9  C17 UNL     1       5.939  -0.990  -1.642  1.00  0.00     0.080 A 
HETATM   10 CL1  UNL     1       6.979  -1.109  -3.058  1.00  0.00    -0.080 Cl
HETATM   11  C18 UNL     1       6.258  -0.437  -0.399  1.00  0.00     0.083 A 
HETATM   12  N6  UNL     1       5.161  -0.560   0.385  1.00  0.00    -0.296 N 
ATOM     13  H6  UNL     1       5.111  -0.238   1.351  1.00  0.00     0.187 HD
BRANCH  11  14
HETATM   14  C19 UNL     1       7.543   0.147  -0.058  1.00  0.00     0.011 A 
HETATM   15  C20 UNL     1       8.700  -0.504  -0.411  1.00  0.00     0.103 A 
HETATM   16  N4  UNL     1       9.904   0.017  -0.102  1.00  0.00    -0.350 N 
HETATM   17  C21 UNL     1      10.040   1.188   0.561  1.00  0.00     0.120 A 
ATOM     18  H4  UNL     1      10.744  -0.491  -0.379  1.00  0.00     0.166 HD
HETATM   19  N5  UNL     1      11.228   1.656   0.846  1.00  0.00    -0.384 N 
HETATM   20  C22 UNL     1       8.894   1.858   0.924  1.00  0.00     0.078 A 
ATOM     21  H52 UNL     1      12.077   1.159   0.577  1.00  0.00     0.157 HD
ATOM     22  H51 UNL     1      11.331   2.539   1.346  1.00  0.00     0.157 HD
HETATM   23 CL2  UNL     1       9.051   3.374   1.786  1.00  0.00    -0.080 Cl
HETATM   24  C23 UNL     1       7.653   1.346   0.619  1.00  0.00     0.043 A 
ENDBRANCH  11  14
ENDBRANCH   5   7
BRANCH   1  25
HETATM   25  C10 UNL     1      -0.154  -0.344  -0.442  1.00  0.00     0.224 C 
HETATM   26  N2  UNL     1      -1.523   0.006  -0.468  1.00  0.00    -0.352 N 
HETATM   27  C9  UNL     1      -2.291   0.412   0.680  1.00  0.00     0.127 C 
HETATM   28  C25 UNL     1      -2.241  -0.030  -1.760  1.00  0.00     0.127 C 
HETATM   29  C8  UNL     1      -3.727  -0.124   0.614  1.00  0.00     0.045 C 
HETATM   30  C7  UNL     1      -4.421   0.265  -0.615  1.00  0.00     0.082 C 
HETATM   31  C26 UNL     1      -3.391   0.966  -1.534  1.00  0.00     0.045 C 
HETATM   32  O1  UNL     1       0.394  -0.658  -1.542  1.00  0.00    -0.273 OA
BRANCH  30  33
HETATM   33  N1  UNL     1      -5.612   0.937  -0.677  1.00  0.00    -0.404 N 
HETATM   34  C3  UNL     1      -6.873   0.538  -0.330  1.00  0.00     0.079 C 
HETATM   35  C4  UNL     1      -7.689   1.865  -0.232  1.00  0.00     0.026 C 
HETATM   36  C5  UNL     1      -6.610   2.876  -0.019  1.00  0.00     0.021 C 
HETATM   37  C6  UNL     1      -5.522   2.349  -0.943  1.00  0.00     0.118 C 
BRANCH  34  38
HETATM   38  C2  UNL     1      -7.221  -0.258   0.865  1.00  0.00     0.020 C 
HETATM   39  C1  UNL     1      -6.629  -1.610   0.953  1.00  0.00     0.007 C 
ENDBRANCH  34  38
ENDBRANCH  30  33
ENDBRANCH   1  25
TORSDOF 5
