REMARK  7 active torsions:
REMARK  status: ('A' for Active; 'I' for Inactive)
REMARK    1  A    between atoms: C2_2  and  C3_3 
REMARK    2  A    between atoms: C3_3  and  C4_4 
REMARK    3  A    between atoms: C5_5  and  C6_6 
REMARK    4  A    between atoms: C9_9  and  C10_10 
REMARK    5  A    between atoms: C14_18  and  C15_19 
REMARK    6  A    between atoms: N4_27  and  C21_29 
REMARK    7  A    between atoms: N6_33  and  C23_34 
ROOT
HETATM    1  C6  UNL     1      -1.834   1.100   0.239  1.00  0.00     0.105 A 
HETATM    2  C7  UNL     1      -2.553  -0.021   0.580  1.00  0.00     0.072 A 
HETATM    3  C8  UNL     1      -1.983  -1.294   0.425  1.00  0.00     0.088 A 
HETATM    4  C9  UNL     1      -2.472  -2.554   0.685  1.00  0.00     0.073 A 
HETATM    5  N2  UNL     1      -1.534  -3.424   0.364  1.00  0.00    -0.342 N 
ATOM      6  H2  UNL     1      -1.622  -4.436   0.453  1.00  0.00     0.167 HD
HETATM    7  C14 UNL     1      -0.445  -2.783  -0.097  1.00  0.00     0.110 A 
HETATM    8  N3  UNL     1      -0.736  -1.471  -0.054  1.00  0.00    -0.133 N 
HETATM    9  C20 UNL     1      -0.057  -0.354  -0.379  1.00  0.00     0.692 A 
HETATM   10  N4  UNL     1       1.120  -0.442  -0.834  1.00  0.00    -0.188 N 
ATOM     11  H4  UNL     1       1.494  -1.386  -0.929  1.00  0.00     0.184 HD
HETATM   12  N7  UNL     1      -0.599   0.893  -0.234  1.00  0.00    -0.183 N 
ATOM     13  H7  UNL     1      -0.037   1.702  -0.498  1.00  0.00     0.185 HD
ENDROOT
BRANCH  10  14
HETATM   14  C21 UNL     1       1.966   0.591  -1.220  1.00  0.00     0.083 A 
HETATM   15  C22 UNL     1       1.968   1.215  -2.446  1.00  0.00     0.138 A 
HETATM   16  N5  UNL     1       2.936   2.170  -2.440  1.00  0.00    -0.307 N 
HETATM   17  N6  UNL     1       3.539   2.163  -1.250  1.00  0.00    -0.294 N 
ATOM     18  H5  UNL     1       3.164   2.790  -3.217  1.00  0.00     0.186 HD
HETATM   19  C28 UNL     1       2.959   1.207  -0.496  1.00  0.00     0.142 A 
BRANCH  17  20
HETATM   20  C23 UNL     1       4.610   3.064  -0.936  1.00  0.00     0.147 C 
HETATM   21  C24 UNL     1       5.907   2.586  -1.561  1.00  0.00     0.036 C 
HETATM   22  C25 UNL     1       6.642   1.856  -0.456  1.00  0.00     0.084 C 
HETATM   23  C26 UNL     1       6.230   2.585   0.783  1.00  0.00     0.276 C 
HETATM   24  F1  UNL     1       7.189   3.563   1.055  1.00  0.00    -0.203 F 
HETATM   25  F2  UNL     1       6.202   1.694   1.856  1.00  0.00    -0.203 F 
HETATM   26  C27 UNL     1       4.870   3.186   0.537  1.00  0.00     0.266 C 
HETATM   27  F3  UNL     1       4.960   4.536   0.862  1.00  0.00    -0.241 F 
ENDBRANCH  17  20
ENDBRANCH  10  14
BRANCH   7  28
HETATM   28  C15 UNL     1       0.806  -3.446  -0.550  1.00  0.00     0.058 C 
HETATM   29  C16 UNL     1       0.416  -4.407  -1.667  1.00  0.00     0.038 C 
HETATM   30  C17 UNL     1       0.348  -5.837  -1.244  1.00  0.00     0.168 C 
HETATM   31  O1  UNL     1      -0.136  -6.060   0.016  1.00  0.00    -0.391 OA
HETATM   32  C18 UNL     1       0.578  -5.419   1.014  1.00  0.00     0.168 C 
HETATM   33  C19 UNL     1       1.422  -4.283   0.550  1.00  0.00     0.038 C 
ENDBRANCH   7  28
BRANCH   1  34
HETATM   34  C5  UNL     1      -2.360   2.424   0.374  1.00  0.00    -0.048 C 
HETATM   35  C4  UNL     1      -2.818   3.534   0.495  1.00  0.00    -0.100 C 
BRANCH  35  36
HETATM   36  C3  UNL     1      -3.393   4.871   0.656  1.00  0.00     0.094 C 
BRANCH  36  37
HETATM   37  C2  UNL     1      -4.689   5.028  -0.119  1.00  0.00     0.007 C 
HETATM   38  C1  UNL     1      -5.179   6.442   0.127  1.00  0.00     0.006 C 
ENDBRANCH  36  37
ENDBRANCH  35  36
ENDBRANCH   1  34
BRANCH   4  39
HETATM   39  C10 UNL     1      -3.807  -2.832   1.223  1.00  0.00     0.010 A 
HETATM   40  C11 UNL     1      -4.433  -2.208   2.250  1.00  0.00     0.032 A 
HETATM   41  C12 UNL     1      -5.677  -2.788   2.422  1.00  0.00     0.088 A 
HETATM   42  N1  UNL     1      -5.766  -3.756   1.484  1.00  0.00    -0.374 N 
HETATM   43  C13 UNL     1      -4.662  -3.810   0.747  1.00  0.00     0.101 A 
ATOM     44  H1  UNL     1      -6.574  -4.365   1.358  1.00  0.00     0.164 HD
ENDBRANCH   4  39
TORSDOF 7
