REMARK  10 active torsions:
REMARK  status: ('A' for Active; 'I' for Inactive)
REMARK    1  A    between atoms: S1_2  and  C2_3 
REMARK    2  A    between atoms: C2_3  and  N2_7 
REMARK    3  A    between atoms: N2_7  and  C3_9 
REMARK    4  A    between atoms: C3_9  and  C4_10 
REMARK    5  A    between atoms: C4_10  and  C5_11 
REMARK    6  A    between atoms: C9_16  and  C10_17 
REMARK    7  A    between atoms: C10_17  and  N4_18 
REMARK    8  A    between atoms: C18_27  and  C19_28 
REMARK    9  A    between atoms: C19_28  and  C20_30 
REMARK   10  A    between atoms: C20_30  and  C21_32 
ROOT
HETATM    1  C5  UNL     1       0.761   0.460  -0.002  1.00  0.00    -0.017 A 
HETATM    2  C6  UNL     1       1.754  -0.471  -0.131  1.00  0.00     0.035 A 
HETATM    3  C7  UNL     1       1.160  -1.705  -0.097  1.00  0.00     0.061 A 
HETATM    4  N3  UNL     1      -0.188  -1.568   0.050  1.00  0.00    -0.351 N 
HETATM    5  C8  UNL     1      -1.080  -2.718   0.079  1.00  0.00     0.156 C 
HETATM    6  C9  UNL     1      -0.435  -0.262   0.109  1.00  0.00     0.047 A 
HETATM    7  C16 UNL     1       2.490  -2.297  -0.254  1.00  0.00     0.029 A 
HETATM    8  C17 UNL     1       3.531  -3.198  -0.387  1.00  0.00     0.057 A 
HETATM    9  C18 UNL     1       4.693  -2.484  -0.491  1.00  0.00     0.117 A 
HETATM   10  O2  UNL     1       4.393  -1.186  -0.427  1.00  0.00    -0.306 OA
HETATM   11  C22 UNL     1       3.084  -1.051  -0.286  1.00  0.00     0.102 A 
ENDROOT
BRANCH   1  12
HETATM   12  C4  UNL     1       0.927   1.940   0.012  1.00  0.00     0.061 C 
BRANCH  12  13
HETATM   13  C3  UNL     1       1.201   2.473  -1.379  1.00  0.00     0.126 C 
BRANCH  13  14
HETATM   14  N2  UNL     1       1.354   3.904  -1.325  1.00  0.00    -0.371 N 
ATOM     15  H2  UNL     1       2.277   4.301  -1.501  1.00  0.00     0.161 HD
BRANCH  14  16
HETATM   16  C2  UNL     1       0.285   4.784  -1.039  1.00  0.00     0.133 C 
HETATM   17  N1  UNL     1      -0.633   4.929  -1.935  1.00  0.00    -0.380 N 
ATOM     18  H12 UNL     1      -1.404   5.564  -1.729  1.00  0.00     0.158 HD
ATOM     19  H11 UNL     1      -0.585   4.424  -2.820  1.00  0.00     0.158 HD
BRANCH  16  20
HETATM   20  S1  UNL     1       0.201   5.669   0.511  1.00  0.00    -0.099 SA
HETATM   21  C1  UNL     1      -1.201   6.786   0.570  1.00  0.00     0.099 C 
ENDBRANCH  16  20
ENDBRANCH  14  16
ENDBRANCH  13  14
ENDBRANCH  12  13
ENDBRANCH   1  12
BRANCH   6  22
HETATM   22  C10 UNL     1      -1.703   0.443   0.221  1.00  0.00     0.330 C 
BRANCH  22  23
HETATM   23  N4  UNL     1      -2.893  -0.305   0.426  1.00  0.00     0.096 N 
HETATM   24  C11 UNL     1      -3.988   0.678   0.161  1.00  0.00     0.275 C 
HETATM   25  C12 UNL     1      -5.188  -0.033  -0.432  1.00  0.00     0.056 C 
HETATM   26  C13 UNL     1      -5.915  -0.887   0.541  1.00  0.00     0.169 C 
HETATM   27  O1  UNL     1      -5.400  -0.880   1.825  1.00  0.00    -0.389 OA
HETATM   28  C14 UNL     1      -4.222  -1.594   1.949  1.00  0.00     0.198 C 
HETATM   29  C15 UNL     1      -3.079  -0.617   1.860  1.00  0.00     0.299 C 
ENDBRANCH  22  23
ENDBRANCH   6  22
BRANCH   9  30
HETATM   30  C19 UNL     1       6.063  -2.975  -0.646  1.00  0.00     0.172 C 
HETATM   31  F1  UNL     1       6.862  -2.285  -1.521  1.00  0.00    -0.202 F 
BRANCH  30  32
HETATM   32  C20 UNL     1       6.511  -4.019   0.012  1.00  0.00     0.107 C 
HETATM   33 CL1  UNL     1       5.400  -4.845   1.121  1.00  0.00    -0.081 Cl
BRANCH  32  34
HETATM   34  C21 UNL     1       7.867  -4.597  -0.067  1.00  0.00     0.229 C 
HETATM   35 CL2  UNL     1       8.603  -4.666   1.576  1.00  0.00    -0.077 Cl
HETATM   36 CL3  UNL     1       7.781  -6.293  -0.636  1.00  0.00    -0.077 Cl
HETATM   37 CL4  UNL     1       8.907  -3.700  -1.164  1.00  0.00    -0.077 Cl
ENDBRANCH  32  34
ENDBRANCH  30  32
ENDBRANCH   9  30
TORSDOF 10
