REMARK  6 active torsions:
REMARK  status: ('A' for Active; 'I' for Inactive)
REMARK    1  A    between atoms: C2_2  and  N1_3 
REMARK    2  A    between atoms: C7_9  and  N2_10 
REMARK       I    between atoms: N2_10  and  C8_12 
REMARK    3  A    between atoms: C8_12  and  C9_14 
REMARK    4  A    between atoms: C10_18  and  C11_19 
REMARK    5  A    between atoms: C11_19  and  C12_20 
REMARK    6  A    between atoms: C11_19  and  C19_28 
ROOT
HETATM    1  N1  UNL     1       3.007  -1.695   0.044  1.00  0.00     0.092 N 
HETATM    2  C3  UNL     1       1.835  -1.410   0.850  1.00  0.00     0.277 C 
HETATM    3  C4  UNL     1       0.552  -1.181   0.154  1.00  0.00     0.070 C 
HETATM    4  C5  UNL     1       0.488   0.288  -0.240  1.00  0.00    -0.033 A 
HETATM    5  C6  UNL     1       1.528   0.780  -1.002  1.00  0.00    -0.006 A 
HETATM    6  S1  UNL     1       1.095   2.407  -1.271  1.00  0.00    -0.076 SA
HETATM    7  C7  UNL     1      -0.377   2.431  -0.421  1.00  0.00     0.085 A 
HETATM    8  C10 UNL     1      -0.504   1.150   0.063  1.00  0.00    -0.001 A 
HETATM    9  C20 UNL     1       2.796   0.165  -1.537  1.00  0.00     0.082 C 
HETATM   10  C21 UNL     1       2.871  -1.302  -1.310  1.00  0.00     0.223 C 
HETATM   11  C22 UNL     1       3.943  -1.902  -2.181  1.00  0.00     0.043 C 
ENDROOT
BRANCH   8  12
HETATM   12  C11 UNL     1      -1.722   0.838   0.921  1.00  0.00     0.125 C 
BRANCH  12  13
HETATM   13  C12 UNL     1      -2.536  -0.260   0.366  1.00  0.00    -0.039 A 
HETATM   14  C13 UNL     1      -2.521  -0.580  -0.974  1.00  0.00     0.009 A 
HETATM   15  C14 UNL     1      -3.316  -1.589  -1.440  1.00  0.00     0.010 A 
HETATM   16  C15 UNL     1      -4.154  -2.326  -0.631  1.00  0.00    -0.023 A 
HETATM   17  C16 UNL     1      -5.010  -3.420  -1.160  1.00  0.00     0.051 C 
HETATM   18  C17 UNL     1      -4.162  -2.000   0.701  1.00  0.00     0.122 A 
HETATM   19  F1  UNL     1      -4.977  -2.696   1.563  1.00  0.00    -0.206 F 
HETATM   20  C18 UNL     1      -3.356  -0.969   1.198  1.00  0.00     0.051 A 
ENDBRANCH  12  13
BRANCH  12  21
HETATM   21  C19 UNL     1      -1.435   0.818   2.347  1.00  0.00     0.126 A 
HETATM   22  N3  UNL     1      -1.297   1.937   3.107  1.00  0.00    -0.271 N 
HETATM   23  N4  UNL     1      -1.046   1.561   4.332  1.00  0.00    -0.227 N 
ATOM     24  H3  UNL     1      -1.376   2.899   2.778  1.00  0.00     0.190 HD
HETATM   25  N5  UNL     1      -1.014   0.244   4.399  1.00  0.00    -0.227 N 
ATOM     26  H4  UNL     1      -0.897   2.192   5.120  1.00  0.00     0.210 HD
HETATM   27  N6  UNL     1      -1.252  -0.200   3.186  1.00  0.00    -0.271 N 
ATOM     28  H5  UNL     1      -0.839  -0.320   5.231  1.00  0.00     0.210 HD
ATOM     29  H6  UNL     1      -1.291  -1.185   2.924  1.00  0.00     0.190 HD
ENDBRANCH  12  21
ENDBRANCH   8  12
BRANCH   7  30
HETATM   30  N2  UNL     1      -1.214   3.567  -0.301  1.00  0.00    -0.317 N 
HETATM   31  C8  UNL     1      -0.860   4.802  -0.907  1.00  0.00     0.277 C 
HETATM   32  O1  UNL     1       0.222   4.841  -1.545  1.00  0.00    -0.268 OA
ATOM     33  H2  UNL     1      -2.083   3.497   0.228  1.00  0.00     0.169 HD
BRANCH  31  34
HETATM   34  C9  UNL     1      -1.691   6.003  -0.817  1.00  0.00     0.269 C 
HETATM   35 CL1  UNL     1      -2.032   6.524   0.835  1.00  0.00    -0.073 Cl
HETATM   36 CL2  UNL     1      -0.859   7.372  -1.626  1.00  0.00    -0.073 Cl
HETATM   37 CL3  UNL     1      -3.249   5.806  -1.671  1.00  0.00    -0.073 Cl
ENDBRANCH  31  34
ENDBRANCH   7  30
BRANCH   1  38
HETATM   38  C2  UNL     1       4.104  -1.093   0.761  1.00  0.00     0.268 C 
HETATM   39  C1  UNL     1       5.479  -1.331   0.229  1.00  0.00     0.037 C 
ENDBRANCH   1  38
TORSDOF 6
