REMARK  5 active torsions:
REMARK  status: ('A' for Active; 'I' for Inactive)
REMARK    1  A    between atoms: O1_2  and  N1_3 
REMARK    2  A    between atoms: C2_5  and  C4_7 
REMARK    3  A    between atoms: C7_10  and  N2_11 
REMARK    4  A    between atoms: N2_11  and  S1_13 
REMARK    5  A    between atoms: S1_13  and  C8_16 
ROOT
HETATM    1  N2  UNL     1      -1.343  -2.260  -0.898  1.00  0.00    -0.279 N 
ATOM      2  H2  UNL     1      -1.404  -3.253  -0.673  1.00  0.00     0.179 HD
ENDROOT
BRANCH   1   3
HETATM    3  C7  UNL     1      -0.142  -1.638  -0.543  1.00  0.00     0.060 A 
HETATM    4  C6  UNL     1       0.441  -0.621  -1.226  1.00  0.00     0.032 A 
HETATM    5  C5  UNL     1       1.660  -0.063  -0.817  1.00  0.00     0.016 A 
HETATM    6  C4  UNL     1       2.329  -0.520   0.299  1.00  0.00    -0.011 A 
HETATM    7  C15 UNL     1       1.726  -1.566   0.997  1.00  0.00     0.034 A 
HETATM    8  C14 UNL     1       0.546  -2.090   0.583  1.00  0.00     0.039 A 
HETATM    9 BR1  UNL     1      -0.231  -3.517   1.576  1.00  0.00    -0.049 Br
BRANCH   6  10
HETATM   10  C2  UNL     1       3.582  -0.012   0.797  1.00  0.00     0.038 C 
HETATM   11  N1  UNL     1       4.236   0.918   0.286  1.00  0.00    -0.271 N 
ATOM     12  H1  UNL     1       5.091   1.107   0.810  1.00  0.00     0.194 HD
HETATM   13  C3  UNL     1       4.183  -0.635   2.041  1.00  0.00     0.071 C 
BRANCH  11  14
HETATM   14  O1  UNL     1       4.117   1.724  -0.753  1.00  0.00    -0.285 OA
HETATM   15  C1  UNL     1       4.410   3.085  -0.831  1.00  0.00     0.237 C 
ENDBRANCH  11  14
ENDBRANCH   6  10
ENDBRANCH   1   3
BRANCH   1  16
HETATM   16  S1  UNL     1      -2.711  -1.599  -1.648  1.00  0.00     0.268 S 
HETATM   17  O2  UNL     1      -3.747  -2.647  -1.927  1.00  0.00    -0.200 OA
HETATM   18  O3  UNL     1      -2.369  -0.945  -2.982  1.00  0.00    -0.200 OA
BRANCH  16  19
HETATM   19  C8  UNL     1      -3.442  -0.344  -0.687  1.00  0.00     0.143 A 
HETATM   20  C9  UNL     1      -3.227   0.988  -0.899  1.00  0.00     0.164 A 
HETATM   21  F1  UNL     1      -2.439   1.386  -1.949  1.00  0.00    -0.203 F 
HETATM   22  C10 UNL     1      -3.813   1.965  -0.084  1.00  0.00     0.097 A 
HETATM   23 CL1  UNL     1      -3.506   3.647  -0.396  1.00  0.00    -0.079 Cl
HETATM   24  C11 UNL     1      -4.631   1.610   0.961  1.00  0.00     0.082 A 
HETATM   25 CL2  UNL     1      -5.377   2.837   1.997  1.00  0.00    -0.081 Cl
HETATM   26  C12 UNL     1      -4.857   0.269   1.185  1.00  0.00     0.081 A 
HETATM   27 CL3  UNL     1      -5.911  -0.152   2.532  1.00  0.00    -0.081 Cl
HETATM   28  C13 UNL     1      -4.282  -0.667   0.388  1.00  0.00     0.084 A 
HETATM   29 CL4  UNL     1      -4.571  -2.366   0.675  1.00  0.00    -0.081 Cl
ENDBRANCH  16  19
ENDBRANCH   1  16
TORSDOF 5
