REMARK  3 active torsions:
REMARK  status: ('A' for Active; 'I' for Inactive)
REMARK    1  A    between atoms: N1_2  and  C2_5 
REMARK    2  A    between atoms: C4_7  and  N2_8 
REMARK    3  A    between atoms: C6_14  and  C7_15 
ROOT
HETATM    1  C2  UNL     1       0.638  -0.077   0.937  1.00  0.00     0.196 C 
HETATM    2  C3  UNL     1       1.476  -1.263   0.425  1.00  0.00     0.088 C 
HETATM    3  C4  UNL     1       0.435  -1.350  -0.695  1.00  0.00     0.218 C 
HETATM    4  C5  UNL     1       0.156  -2.749  -0.992  1.00  0.00     0.099 C 
HETATM    5  N3  UNL     1      -0.054  -3.868  -1.235  1.00  0.00    -0.195 NA
HETATM    6  C6  UNL     1      -0.522  -0.729   0.328  1.00  0.00     0.070 C 
ENDROOT
BRANCH   3   7
HETATM    7  N2  UNL     1       0.713  -0.585  -1.853  1.00  0.00    -0.057 N 
ATOM      8  H23 UNL     1       0.868   0.390  -1.597  1.00  0.00     0.276 HD
ATOM      9  H22 UNL     1       1.635  -0.826  -2.216  1.00  0.00     0.276 HD
ATOM     10  H21 UNL     1       0.020  -0.643  -2.599  1.00  0.00     0.276 HD
ENDBRANCH   3   7
BRANCH   6  11
HETATM   11  C7  UNL     1      -1.695  -0.046  -0.185  1.00  0.00    -0.013 C 
HETATM   12  C8  UNL     1      -1.587   0.941  -1.276  1.00  0.00     0.010 C 
HETATM   13  C9  UNL     1      -2.441   0.654   0.966  1.00  0.00     0.010 C 
ENDBRANCH   6  11
BRANCH   1  14
HETATM   14  N1  UNL     1       1.091   1.191   0.511  1.00  0.00    -0.074 N 
HETATM   15  C1  UNL     1       2.422   1.535   0.971  1.00  0.00     0.267 C 
ATOM     16  H12 UNL     1       0.424   1.915   0.777  1.00  0.00     0.277 HD
ATOM     17  H11 UNL     1       1.035   1.267  -0.505  1.00  0.00     0.277 HD
ENDBRANCH   1  14
TORSDOF 3
