REMARK  1 active torsions:
REMARK  status: ('A' for Active; 'I' for Inactive)
REMARK    1  A    between atoms: C5_6  and  C6_7 
ROOT
HETATM    1  C6  UNL     1      -0.073   0.029  -0.138  1.00  0.00    -0.008 C 
HETATM    2  C7  UNL     1      -0.483  -1.298  -0.711  1.00  0.00     0.016 C 
HETATM    3  C8  UNL     1      -1.998  -1.383  -0.698  1.00  0.00    -0.013 C 
HETATM    4  C9  UNL     1      -2.619  -0.298  -1.534  1.00  0.00     0.009 C 
HETATM    5  C10 UNL     1      -2.208   1.038  -1.001  1.00  0.00    -0.013 C 
HETATM    6  C11 UNL     1      -2.694   1.217   0.418  1.00  0.00     0.009 C 
HETATM    7  C12 UNL     1      -2.147   0.088   1.242  1.00  0.00    -0.013 C 
HETATM    8  C13 UNL     1      -2.507  -1.262   0.721  1.00  0.00     0.009 C 
HETATM    9  C14 UNL     1      -0.630   0.216   1.234  1.00  0.00     0.016 C 
HETATM   10  C15 UNL     1      -0.697   1.112  -1.024  1.00  0.00     0.016 C 
ENDROOT
BRANCH   1  11
HETATM   11  C5  UNL     1       1.406   0.245  -0.163  1.00  0.00     0.231 C 
HETATM   12  N1  UNL     1       2.170  -0.714   0.569  1.00  0.00     0.089 N 
HETATM   13  C1  UNL     1       2.531  -1.823  -0.299  1.00  0.00     0.310 C 
HETATM   14  C2  UNL     1       3.410  -0.082   0.976  1.00  0.00     0.272 C 
HETATM   15  C3  UNL     1       3.359   1.348   0.448  1.00  0.00     0.032 C 
HETATM   16  C4  UNL     1       1.836   1.562   0.443  1.00  0.00     0.038 C 
ENDBRANCH   1  11
TORSDOF 1
