REMARK  5 active torsions:
REMARK  status: ('A' for Active; 'I' for Inactive)
REMARK    1  A    between atoms: N1_1  and  C1_5 
REMARK    2  A    between atoms: C1_5  and  O1_6 
REMARK    3  A    between atoms: C1_5  and  N2_8 
REMARK    4  A    between atoms: C2_13  and  N6_14 
REMARK    5  A    between atoms: N6_14  and  C3_16 
ROOT
HETATM    1  N2  UNL     1      -0.575   0.173   0.146  1.00  0.00    -0.053 N 
HETATM    2  N3  UNL     1      -0.754   1.485   0.170  1.00  0.00     0.013 NA
HETATM    3  N4  UNL     1       0.399   2.110  -0.009  1.00  0.00     0.007 NA
HETATM    4  N5  UNL     1       1.308   1.153  -0.146  1.00  0.00    -0.116 N 
ATOM      5  H5  UNL     1       2.304   1.313  -0.299  1.00  0.00     0.202 HD
HETATM    6  C2  UNL     1       0.733  -0.053  -0.055  1.00  0.00     0.716 A 
ENDROOT
BRANCH   1   7
HETATM    7  C1  UNL     1      -1.646  -0.783   0.313  1.00  0.00     0.460 C 
BRANCH   7   8
HETATM    8  N1  UNL     1      -2.819  -0.224  -0.337  1.00  0.00    -0.033 N 
ATOM      9  H13 UNL     1      -3.668  -0.766  -0.175  1.00  0.00     0.279 HD
ATOM     10  H12 UNL     1      -3.141   0.645   0.088  1.00  0.00     0.279 HD
ATOM     11  H11 UNL     1      -2.583  -0.128  -1.325  1.00  0.00     0.279 HD
ENDBRANCH   7   8
BRANCH   7  12
HETATM   12  O1  UNL     1      -1.972  -0.916   1.678  1.00  0.00    -0.353 OA
ATOM     13  H1  UNL     1      -1.205  -1.282   2.103  1.00  0.00     0.214 HD
ENDBRANCH   7  12
ENDBRANCH   1   7
BRANCH   6  14
HETATM   14  N6  UNL     1       1.256  -1.235  -0.132  1.00  0.00    -0.165 N 
ATOM     15  H6  UNL     1       0.654  -2.053  -0.037  1.00  0.00     0.186 HD
BRANCH  14  16
HETATM   16  C3  UNL     1       2.649  -1.421  -0.345  1.00  0.00     0.368 C 
HETATM   17  O2  UNL     1       3.429  -1.403   0.661  1.00  0.00    -0.283 OA
ENDBRANCH  14  16
ENDBRANCH   6  14
TORSDOF 5
