REMARK  5 active torsions:
REMARK  status: ('A' for Active; 'I' for Inactive)
REMARK    1  A    between atoms: N1_1  and  N2_4 
REMARK    2  A    between atoms: N2_4  and  C1_6 
REMARK    3  A    between atoms: C1_6  and  O1_7 
REMARK    4  A    between atoms: C1_6  and  N3_9 
REMARK       I    between atoms: N3_9  and  C2_11 
REMARK    5  A    between atoms: C2_11  and  C3_13 
ROOT
HETATM    1  C1  UNL     1       1.354  -0.835  -0.040  1.00  0.00     0.238 C 
ENDROOT
BRANCH   1   2
HETATM    2  N2  UNL     1       2.123   0.287   0.311  1.00  0.00    -0.272 N 
ATOM      3  H2  UNL     1       1.643   1.160   0.532  1.00  0.00     0.190 HD
BRANCH   2   4
HETATM    4  N1  UNL     1       3.508   0.256   0.369  1.00  0.00    -0.342 N 
ATOM      5  H12 UNL     1       3.971  -0.625   0.145  1.00  0.00     0.176 HD
ATOM      6  H11 UNL     1       4.066   1.071   0.624  1.00  0.00     0.176 HD
ENDBRANCH   2   4
ENDBRANCH   1   2
BRANCH   1   7
HETATM    7  O1  UNL     1       2.078  -1.884  -0.298  1.00  0.00    -0.331 OA
ATOM      8  H1  UNL     1       1.558  -2.643  -0.535  1.00  0.00     0.221 HD
ENDBRANCH   1   7
BRANCH   1   9
HETATM    9  N3  UNL     1      -0.041  -0.930  -0.133  1.00  0.00    -0.284 N 
HETATM   10  C2  UNL     1      -1.008   0.055   0.095  1.00  0.00     0.313 C 
HETATM   11  O2  UNL     1      -0.692   1.210   0.433  1.00  0.00    -0.262 OA
ATOM     12  H3  UNL     1      -0.402  -1.845  -0.405  1.00  0.00     0.172 HD
BRANCH  10  13
HETATM   13  C3  UNL     1      -2.442  -0.263  -0.063  1.00  0.00     0.322 C 
HETATM   14  N4  UNL     1      -3.446   0.714   0.162  1.00  0.00    -0.053 NA
HETATM   15  O3  UNL     1      -2.811  -1.412  -0.402  1.00  0.00    -0.266 OA
ENDBRANCH  10  13
ENDBRANCH   1   9
TORSDOF 5
