REMARK  0 active torsions:
REMARK  status: ('A' for Active; 'I' for Inactive)
ROOT
HETATM    1  N1  UNL     1       2.624   0.765   0.392  1.00  0.00    -0.114 NA
HETATM    2  C1  UNL     1       1.875  -0.315  -0.135  1.00  0.00     0.122 C 
HETATM    3  C2  UNL     1       0.549  -0.240  -0.109  1.00  0.00     0.113 A 
HETATM    4  C3  UNL     1      -0.142   0.919   0.446  1.00  0.00     0.266 A 
HETATM    5  O1  UNL     1       0.574   1.849   0.901  1.00  0.00    -0.267 OA
HETATM    6  N2  UNL     1      -1.557   0.954   0.453  1.00  0.00    -0.275 N 
ATOM      7  H2  UNL     1      -2.014   1.776   0.848  1.00  0.00     0.173 HD
HETATM    8  C4  UNL     1      -2.379  -0.088  -0.057  1.00  0.00     0.329 A 
HETATM    9  O2  UNL     1      -3.646  -0.012  -0.030  1.00  0.00    -0.246 OA
HETATM   10  N3  UNL     1      -1.714  -1.221  -0.600  1.00  0.00    -0.275 N 
ATOM     11  H3  UNL     1      -2.270  -1.990  -0.975  1.00  0.00     0.173 HD
HETATM   12  C5  UNL     1      -0.295  -1.312  -0.634  1.00  0.00     0.266 A 
HETATM   13  O3  UNL     1       0.260  -2.328  -1.121  1.00  0.00    -0.267 OA
ENDROOT
TORSDOF 0
