REMARK  1 active torsions:
REMARK  status: ('A' for Active; 'I' for Inactive)
REMARK    1  A    between atoms: N1_1  and  N2_4 
REMARK       I    between atoms: C1_6  and  N4_8 
ROOT
HETATM    1  N2  UNL     1      -2.353  -0.713   0.517  1.00  0.00    -0.280 N 
ATOM      2  H2  UNL     1      -2.266  -1.660   0.887  1.00  0.00     0.189 HD
HETATM    3  C1  UNL     1      -1.474  -0.275  -0.290  1.00  0.00     0.208 C 
HETATM    4  N3  UNL     1      -1.584   1.028  -0.806  1.00  0.00    -0.062 NA
HETATM    5  N4  UNL     1      -0.389  -1.083  -0.673  1.00  0.00    -0.311 N 
ATOM      6  H4  UNL     1      -0.578  -2.003  -1.071  1.00  0.00     0.170 HD
HETATM    7  C2  UNL     1       0.823  -0.709  -0.541  1.00  0.00     0.181 A 
HETATM    8  N5  UNL     1       1.265   0.538  -0.005  1.00  0.00    -0.290 N 
ATOM      9  H5  UNL     1       0.682   1.298   0.344  1.00  0.00     0.172 HD
HETATM   10  C3  UNL     1       2.681   0.502  -0.058  1.00  0.00     0.328 A 
HETATM   11  O1  UNL     1       3.472   1.426   0.327  1.00  0.00    -0.247 OA
HETATM   12  N6  UNL     1       3.136  -0.723  -0.608  1.00  0.00    -0.272 N 
ATOM     13  H6  UNL     1       4.109  -0.993  -0.752  1.00  0.00     0.174 HD
HETATM   14  C4  UNL     1       1.992  -1.507  -0.922  1.00  0.00     0.293 A 
HETATM   15  O2  UNL     1       1.979  -2.674  -1.434  1.00  0.00    -0.264 OA
ENDROOT
BRANCH   1  16
HETATM   16  N1  UNL     1      -3.435   0.078   0.906  1.00  0.00    -0.343 N 
ATOM     17  H12 UNL     1      -3.507   1.022   0.527  1.00  0.00     0.176 HD
ATOM     18  H11 UNL     1      -4.140  -0.273   1.554  1.00  0.00     0.176 HD
ENDBRANCH   1  16
TORSDOF 1
