REMARK  3 active torsions:
REMARK  status: ('A' for Active; 'I' for Inactive)
REMARK    1  A    between atoms: N1_1  and  N2_4 
REMARK       I    between atoms: N2_4  and  C1_6 
REMARK    2  A    between atoms: C1_6  and  C2_8 
REMARK       I    between atoms: C2_8  and  N3_10 
REMARK    3  A    between atoms: N3_10  and  C3_12 
ROOT
HETATM    1  C2  UNL     1      -0.611  -0.404   0.939  1.00  0.00     0.329 C 
HETATM    2  O2  UNL     1      -0.494   0.370   1.914  1.00  0.00    -0.261 OA
HETATM    3  N3  UNL     1       0.520  -1.053   0.394  1.00  0.00    -0.150 N 
ATOM      4  H3  UNL     1       0.488  -2.065   0.272  1.00  0.00     0.188 HD
ENDROOT
BRANCH   3   5
HETATM    5  C3  UNL     1       1.594  -0.424   0.043  1.00  0.00     0.704 A 
HETATM    6  N4  UNL     1       2.688  -0.997  -0.477  1.00  0.00    -0.128 N 
HETATM    7  N5  UNL     1       3.537  -0.007  -0.688  1.00  0.00    -0.237 N 
ATOM      8  H4  UNL     1       2.834  -1.988  -0.669  1.00  0.00     0.205 HD
HETATM    9  C4  UNL     1       2.997   1.172  -0.311  1.00  0.00     0.353 A 
ATOM     10  H5  UNL     1       4.472  -0.118  -1.081  1.00  0.00     0.192 HD
HETATM   11  O3  UNL     1       3.516   2.314  -0.369  1.00  0.00    -0.245 OA
HETATM   12  N6  UNL     1       1.752   0.896   0.156  1.00  0.00    -0.139 N 
ATOM     13  H6  UNL     1       1.073   1.564   0.520  1.00  0.00     0.189 HD
ENDBRANCH   3   5
BRANCH   1  14
HETATM   14  C1  UNL     1      -1.900  -0.648   0.357  1.00  0.00     0.328 C 
HETATM   15  N2  UNL     1      -3.048  -0.015   0.880  1.00  0.00    -0.268 N 
ATOM     16  H2  UNL     1      -2.940   0.614   1.675  1.00  0.00     0.190 HD
HETATM   17  O1  UNL     1      -2.031  -1.417  -0.614  1.00  0.00    -0.261 OA
BRANCH  15  18
HETATM   18  N1  UNL     1      -4.328  -0.215   0.353  1.00  0.00    -0.342 N 
ATOM     19  H12 UNL     1      -4.418  -0.848  -0.442  1.00  0.00     0.176 HD
ATOM     20  H11 UNL     1      -5.158   0.242   0.731  1.00  0.00     0.176 HD
ENDBRANCH  15  18
ENDBRANCH   1  14
TORSDOF 3
