REMARK  2 active torsions:
REMARK  status: ('A' for Active; 'I' for Inactive)
REMARK    1  A    between atoms: C3_9  and  O2_10 
REMARK    2  A    between atoms: C4_14  and  O3_15 
ROOT
HETATM    1  N1  UNL     1      -2.157   1.000   1.332  1.00  0.00    -0.381 N 
ATOM      2  H11 UNL     1      -1.905   1.838   1.857  1.00  0.00     0.157 HD
ATOM      3  H12 UNL     1      -2.888   0.338   1.592  1.00  0.00     0.157 HD
HETATM    4  C1  UNL     1      -1.447   0.800   0.241  1.00  0.00     0.172 C 
HETATM    5  N2  UNL     1      -1.802  -0.382  -0.500  1.00  0.00    -0.302 N 
ATOM      6  H2  UNL     1      -2.785  -0.518  -0.738  1.00  0.00     0.171 HD
HETATM    7  C2  UNL     1      -0.874  -1.372  -0.922  1.00  0.00     0.298 C 
HETATM    8  O1  UNL     1      -0.933  -1.712  -2.156  1.00  0.00    -0.263 OA
HETATM    9  C3  UNL     1       0.135  -2.040  -0.102  1.00  0.00     0.213 C 
HETATM   10  N3  UNL     1       0.929  -1.395   0.883  1.00  0.00    -0.297 N 
ATOM     11  H3  UNL     1       0.864  -1.772   1.829  1.00  0.00     0.171 HD
HETATM   12  C4  UNL     1       1.800  -0.291   0.711  1.00  0.00     0.238 C 
HETATM   13  N4  UNL     1       1.807   0.587  -0.405  1.00  0.00    -0.262 N 
ATOM     14  H4  UNL     1       2.656   0.584  -0.970  1.00  0.00     0.190 HD
HETATM   15  N5  UNL     1       0.800   1.451  -0.823  1.00  0.00    -0.260 N 
ATOM     16  H5  UNL     1       0.941   1.922  -1.717  1.00  0.00     0.190 HD
HETATM   17  C5  UNL     1      -0.405   1.743  -0.129  1.00  0.00     0.303 C 
HETATM   18  O4  UNL     1      -0.589   2.983   0.204  1.00  0.00    -0.263 OA
ENDROOT
BRANCH   9  19
HETATM   19  O2  UNL     1       0.325  -3.322  -0.282  1.00  0.00    -0.342 OA
ATOM     20  H2  UNL     1       0.981  -3.756   0.251  1.00  0.00     0.219 HD
ENDBRANCH   9  19
BRANCH  12  21
HETATM   21  O3  UNL     1       2.666  -0.074   1.666  1.00  0.00    -0.331 OA
ATOM     22  H3  UNL     1       3.250   0.666   1.551  1.00  0.00     0.221 HD
ENDBRANCH  12  21
TORSDOF 2
