REMARK  5 active torsions:
REMARK  status: ('A' for Active; 'I' for Inactive)
REMARK    1  A    between atoms: C2_2  and  C4_4 
REMARK    2  A    between atoms: C4_4  and  C5_5 
REMARK    3  A    between atoms: C7_10  and  C8_11 
REMARK    4  A    between atoms: C8_11  and  C9_12 
REMARK    5  A    between atoms: C15_21  and  C16_22 
ROOT
HETATM    1  C5  UNL     1       1.342   2.059   0.873  1.00  0.00     0.177 C 
HETATM    2  N1  UNL     1       1.912   1.344   1.994  1.00  0.00    -0.346 N 
ATOM      3  H1  UNL     1       2.632   1.844   2.516  1.00  0.00     0.163 HD
HETATM    4  C6  UNL     1       1.609   0.058   2.460  1.00  0.00     0.241 C 
HETATM    5  O1  UNL     1       1.215  -0.044   3.681  1.00  0.00    -0.271 OA
HETATM    6  C7  UNL     1       1.681  -1.231   1.732  1.00  0.00     0.177 C 
HETATM    7  N2  UNL     1       0.396  -1.802   1.416  1.00  0.00    -0.346 N 
ATOM      8  H2  UNL     1      -0.313  -1.706   2.143  1.00  0.00     0.163 HD
HETATM    9  C14 UNL     1      -0.023  -2.471   0.254  1.00  0.00     0.249 C 
HETATM   10  O2  UNL     1      -0.438  -3.681   0.390  1.00  0.00    -0.271 OA
HETATM   11  C15 UNL     1      -0.059  -1.972  -1.133  1.00  0.00     0.280 C 
HETATM   12  N3  UNL     1      -1.457  -2.046  -1.615  1.00  0.00    -0.062 N 
ATOM     13  H31 UNL     1      -1.746  -3.012  -1.768  1.00  0.00     0.278 HD
ATOM     14  H32 UNL     1      -1.539  -1.701  -2.571  1.00  0.00     0.278 HD
HETATM   15  C19 UNL     1      -2.370  -1.357  -0.726  1.00  0.00     0.233 C 
HETATM   16  C20 UNL     1      -3.724  -2.053  -0.933  1.00  0.00     0.027 C 
HETATM   17  C21 UNL     1      -4.661  -1.631   0.167  1.00  0.00     0.002 C 
HETATM   18  C22 UNL     1      -5.602  -0.594  -0.443  1.00  0.00     0.000 C 
HETATM   19  C23 UNL     1      -6.389   0.154   0.586  1.00  0.00     0.000 C 
HETATM   20  C24 UNL     1      -5.950   1.600   0.572  1.00  0.00     0.000 C 
HETATM   21  C25 UNL     1      -4.965   1.817   1.671  1.00  0.00     0.000 C 
HETATM   22  C26 UNL     1      -3.564   1.868   1.162  1.00  0.00     0.002 C 
HETATM   23  C27 UNL     1      -2.999   3.271   1.215  1.00  0.00     0.020 C 
HETATM   24  C28 UNL     1      -1.652   3.231   0.530  1.00  0.00     0.122 C 
HETATM   25  N4  UNL     1      -0.646   3.581   1.505  1.00  0.00    -0.359 N 
ATOM     26  H4  UNL     1      -0.968   4.060   2.346  1.00  0.00     0.162 HD
HETATM   27  C29 UNL     1       0.725   3.328   1.409  1.00  0.00     0.240 C 
HETATM   28  O3  UNL     1       1.552   4.197   1.787  1.00  0.00    -0.271 OA
ENDROOT
BRANCH   6  29
HETATM   29  C8  UNL     1       2.661  -1.233   0.603  1.00  0.00     0.039 C 
BRANCH  29  30
HETATM   30  C9  UNL     1       4.083  -0.942   1.097  1.00  0.00    -0.012 C 
HETATM   31  C10 UNL     1       4.442  -2.013   2.074  1.00  0.00     0.005 C 
HETATM   32  C11 UNL     1       5.934  -2.205   1.939  1.00  0.00     0.000 C 
HETATM   33  C12 UNL     1       6.157  -2.024   0.469  1.00  0.00     0.000 C 
HETATM   34  C13 UNL     1       5.002  -1.250  -0.081  1.00  0.00     0.005 C 
ENDBRANCH  29  30
ENDBRANCH   6  29
BRANCH   1  35
HETATM   35  C4  UNL     1       2.458   2.571  -0.048  1.00  0.00     0.038 C 
BRANCH  35  36
HETATM   36  C2  UNL     1       1.896   3.316  -1.221  1.00  0.00    -0.020 C 
HETATM   37  C1  UNL     1       3.105   3.771  -2.048  1.00  0.00     0.009 C 
HETATM   38  C3  UNL     1       1.081   2.430  -2.130  1.00  0.00     0.009 C 
ENDBRANCH  35  36
ENDBRANCH   1  35
BRANCH  11  39
HETATM   39  C16 UNL     1       0.731  -2.744  -2.127  1.00  0.00     0.017 C 
HETATM   40  C17 UNL     1       0.535  -2.036  -3.476  1.00  0.00     0.012 C 
HETATM   41  C18 UNL     1       0.324  -4.163  -2.342  1.00  0.00     0.012 C 
ENDBRANCH  11  39
TORSDOF 5
