REMARK  10 active torsions:
REMARK  status: ('A' for Active; 'I' for Inactive)
REMARK       I    between atoms: C2_5  and  N3_6 
REMARK       I    between atoms: C2_5  and  N6_23 
REMARK    1  A    between atoms: N3_6  and  C3_8 
REMARK    2  A    between atoms: C3_8  and  C4_9 
REMARK    3  A    between atoms: C4_9  and  C5_10 
REMARK    4  A    between atoms: C5_10  and  N4_11 
REMARK    5  A    between atoms: N4_11  and  C6_13 
REMARK    6  A    between atoms: C6_13  and  N5_15 
REMARK    7  A    between atoms: C9_18  and  O1_19 
REMARK    8  A    between atoms: N6_23  and  C12_25 
REMARK    9  A    between atoms: C12_25  and  N7_27 
REMARK   10  A    between atoms: N7_27  and  C13_29 
ROOT
HETATM    1  N1  UNL     1      -1.056  -4.893   0.293  1.00  0.00    -0.171 NA
HETATM    2  C1  UNL     1      -0.273  -4.071   0.015  1.00  0.00     0.196 C 
HETATM    3  N2  UNL     1       0.677  -3.111  -0.322  1.00  0.00    -0.126 N 
ATOM      4  H2  UNL     1       1.260  -3.270  -1.144  1.00  0.00     0.197 HD
HETATM    5  C2  UNL     1       0.854  -2.022   0.364  1.00  0.00     0.689 C 
HETATM    6  N3  UNL     1       1.829  -1.070  -0.008  1.00  0.00    -0.225 N 
ATOM      7  H3  UNL     1       1.852  -0.170   0.471  1.00  0.00     0.177 HD
HETATM    8  N6  UNL     1       0.024  -1.836   1.512  1.00  0.00    -0.166 N 
ATOM      9  H6  UNL     1       0.399  -2.048   2.436  1.00  0.00     0.186 HD
ENDROOT
BRANCH   6  10
HETATM   10  C3  UNL     1       2.790  -1.335  -1.043  1.00  0.00     0.139 C 
BRANCH  10  11
HETATM   11  C4  UNL     1       3.772  -2.419  -0.637  1.00  0.00     0.040 C 
BRANCH  11  12
HETATM   12  C5  UNL     1       4.537  -2.064   0.588  1.00  0.00     0.123 C 
BRANCH  12  13
HETATM   13  N4  UNL     1       5.332  -0.885   0.463  1.00  0.00    -0.367 N 
ATOM     14  H4  UNL     1       5.049  -0.040   0.960  1.00  0.00     0.161 HD
BRANCH  13  15
HETATM   15  C6  UNL     1       6.497  -0.857  -0.328  1.00  0.00     0.169 C 
HETATM   16  S1  UNL     1       6.999  -2.227  -1.111  1.00  0.00    -0.041 SA
BRANCH  15  17
HETATM   17  N5  UNL     1       7.271   0.325  -0.448  1.00  0.00    -0.358 N 
HETATM   18  C7  UNL     1       6.952   1.563   0.204  1.00  0.00     0.127 C 
HETATM   19  C8  UNL     1       8.083   1.830   1.189  1.00  0.00     0.051 C 
HETATM   20  C9  UNL     1       9.436   1.806   0.565  1.00  0.00     0.121 C 
HETATM   21  C10 UNL     1       9.687   0.702  -0.403  1.00  0.00     0.051 C 
HETATM   22  C11 UNL     1       8.489   0.345  -1.263  1.00  0.00     0.127 C 
BRANCH  20  23
HETATM   23  O1  UNL     1       9.749   3.073   0.072  1.00  0.00    -0.395 OA
ATOM     24  H1  UNL     1      10.612   3.058  -0.326  1.00  0.00     0.210 HD
ENDBRANCH  20  23
ENDBRANCH  15  17
ENDBRANCH  13  15
ENDBRANCH  12  13
ENDBRANCH  11  12
ENDBRANCH  10  11
ENDBRANCH   6  10
BRANCH   8  25
HETATM   25  C12 UNL     1      -1.305  -1.365   1.399  1.00  0.00     0.186 C 
HETATM   26  S2  UNL     1      -2.158  -1.195   2.804  1.00  0.00    -0.040 SA
BRANCH  25  27
HETATM   27  N7  UNL     1      -1.875  -1.057   0.160  1.00  0.00    -0.362 N 
ATOM     28  H7  UNL     1      -1.279  -1.187  -0.657  1.00  0.00     0.162 HD
BRANCH  27  29
HETATM   29  C13 UNL     1      -3.200  -0.580  -0.091  1.00  0.00     0.083 C 
HETATM   30  C14 UNL     1      -4.231  -1.566   0.420  1.00  0.00     0.025 C 
HETATM   31  C15 UNL     1      -5.551  -1.431  -0.328  1.00  0.00     0.002 C 
HETATM   32  C16 UNL     1      -6.723  -1.413   0.594  1.00  0.00     0.000 C 
HETATM   33  C17 UNL     1      -7.966  -0.825   0.073  1.00  0.00     0.000 C 
HETATM   34  C18 UNL     1      -7.861   0.503  -0.592  1.00  0.00     0.000 C 
HETATM   35  C19 UNL     1      -7.592   1.641   0.363  1.00  0.00     0.000 C 
HETATM   36  C20 UNL     1      -7.034   2.858  -0.279  1.00  0.00     0.000 C 
HETATM   37  C21 UNL     1      -5.747   2.719  -0.987  1.00  0.00     0.000 C 
HETATM   38  C22 UNL     1      -4.514   2.882  -0.088  1.00  0.00     0.000 C 
HETATM   39  C23 UNL     1      -3.429   1.901  -0.476  1.00  0.00     0.002 C 
HETATM   40  C24 UNL     1      -3.532   0.750   0.498  1.00  0.00     0.025 C 
ENDBRANCH  27  29
ENDBRANCH  25  27
ENDBRANCH   8  25
TORSDOF 10
