REMARK  4 active torsions:
REMARK  status: ('A' for Active; 'I' for Inactive)
REMARK    1  A    between atoms: C2_2  and  O1_3 
REMARK    2  A    between atoms: O1_3  and  C3_4 
REMARK    3  A    between atoms: C3_4  and  C4_6 
REMARK    4  A    between atoms: C11_17  and  O3_18 
ROOT
HETATM    1  C4  UNL     1       1.546  -0.565  -0.184  1.00  0.00     0.151 C 
HETATM    2  C5  UNL     1       1.337  -1.064   1.195  1.00  0.00     0.055 C 
HETATM    3  N1  UNL     1       2.038  -1.030   2.244  1.00  0.00    -0.396 N 
ATOM      4  H11 UNL     1       1.894  -1.374   3.194  1.00  0.00     0.156 HD
ATOM      5  H12 UNL     1       2.962  -0.600   2.291  1.00  0.00     0.156 HD
HETATM    6  S1  UNL     1      -0.291  -1.822   1.113  1.00  0.00    -0.110 SA
HETATM    7  C6  UNL     1      -0.818  -0.985  -0.449  1.00  0.00     0.074 C 
HETATM    8  C7  UNL     1       0.229   0.072  -0.622  1.00  0.00    -0.012 C 
HETATM    9  C8  UNL     1       0.377   0.209  -2.144  1.00  0.00     0.018 C 
HETATM   10  C9  UNL     1      -0.027   1.355   0.046  1.00  0.00     0.014 C 
HETATM   11  C10 UNL     1      -1.373   1.641   0.563  1.00  0.00     0.039 C 
HETATM   12  C11 UNL     1      -2.281   0.494   0.815  1.00  0.00     0.066 C 
HETATM   13  C12 UNL     1      -3.746   0.910   0.686  1.00  0.00     0.038 C 
HETATM   14  C13 UNL     1      -4.234   0.432  -0.648  1.00  0.00     0.004 C 
HETATM   15  C14 UNL     1      -2.922   0.086  -1.382  1.00  0.00     0.013 C 
HETATM   16  C15 UNL     1      -2.198  -0.572  -0.259  1.00  0.00     0.001 C 
HETATM   17  C16 UNL     1      -3.018  -1.778   0.156  1.00  0.00     0.019 C 
ENDROOT
BRANCH   1  18
HETATM   18  C3  UNL     1       2.677   0.334  -0.188  1.00  0.00     0.270 C 
HETATM   19  O2  UNL     1       2.694   1.553  -0.500  1.00  0.00    -0.264 OA
BRANCH  18  20
HETATM   20  O1  UNL     1       3.914  -0.180   0.195  1.00  0.00    -0.321 OA
BRANCH  20  21
HETATM   21  C2  UNL     1       5.083   0.619   0.223  1.00  0.00     0.174 C 
HETATM   22  C1  UNL     1       6.216  -0.282   0.685  1.00  0.00     0.034 C 
ENDBRANCH  20  21
ENDBRANCH  18  20
ENDBRANCH   1  18
BRANCH  12  23
HETATM   23  O3  UNL     1      -2.085  -0.022   2.074  1.00  0.00    -0.389 OA
ATOM     24  H3  UNL     1      -2.666  -0.756   2.235  1.00  0.00     0.210 HD
ENDBRANCH  12  23
TORSDOF 4
