REMARK  5 active torsions:
REMARK  status: ('A' for Active; 'I' for Inactive)
REMARK    1  A    between atoms: O1_2  and  C2_3 
REMARK    2  A    between atoms: C7_8  and  O2_9 
REMARK    3  A    between atoms: C10_13  and  O3_14 
REMARK    4  A    between atoms: C13_17  and  O4_18 
REMARK    5  A    between atoms: C14_20  and  C16_22 
ROOT
HETATM    1  C2  UNL     1       2.312   1.645   0.199  1.00  0.00     0.102 A 
HETATM    2  C3  UNL     1       1.205   2.279   0.647  1.00  0.00     0.047 A 
HETATM    3  C4  UNL     1       0.003   1.630   0.571  1.00  0.00    -0.043 A 
HETATM    4  C5  UNL     1      -0.157   0.343   0.057  1.00  0.00    -0.004 A 
HETATM    5  C6  UNL     1      -1.388  -0.255  -0.032  1.00  0.00     0.003 A 
HETATM    6  C7  UNL     1      -1.485  -1.531  -0.608  1.00  0.00     0.082 A 
HETATM    7  C8  UNL     1      -0.372  -2.191  -1.072  1.00  0.00     0.006 A 
HETATM    8  C9  UNL     1      -0.441  -3.555  -1.695  1.00  0.00     0.054 C 
HETATM    9  C10 UNL     1       0.852  -1.545  -0.952  1.00  0.00     0.090 A 
HETATM   10  C12 UNL     1       0.993  -0.296  -0.402  1.00  0.00     0.045 A 
HETATM   11  C13 UNL     1       2.206   0.365  -0.324  1.00  0.00     0.113 A 
HETATM   12  C14 UNL     1      -2.587   0.384   0.514  1.00  0.00     0.040 C 
HETATM   13  C15 UNL     1      -3.385   0.972  -0.600  1.00  0.00     0.028 C 
HETATM   14  C17 UNL     1      -2.170   1.450   1.554  1.00  0.00     0.026 C 
HETATM   15  C18 UNL     1      -1.195   2.389   1.005  1.00  0.00     0.041 C 
ENDROOT
BRANCH  12  16
HETATM   16  C16 UNL     1      -3.408  -0.537   1.393  1.00  0.00     0.245 C 
HETATM   17  O5  UNL     1      -2.939  -1.542   1.810  1.00  0.00    -0.306 OA
ENDBRANCH  12  16
BRANCH   6  18
HETATM   18  O2  UNL     1      -2.717  -2.187  -0.742  1.00  0.00    -0.359 OA
ATOM     19  H2  UNL     1      -2.783  -3.051  -1.132  1.00  0.00     0.217 HD
ENDBRANCH   6  18
BRANCH   9  20
HETATM   20  O3  UNL     1       1.966  -2.229  -1.422  1.00  0.00    -0.354 OA
HETATM   21  C11 UNL     1       2.599  -3.129  -0.489  1.00  0.00     0.210 C 
ENDBRANCH   9  20
BRANCH  11  22
HETATM   22  O4  UNL     1       3.347  -0.283  -0.788  1.00  0.00    -0.357 OA
ATOM     23  H4  UNL     1       3.274  -1.160  -1.146  1.00  0.00     0.217 HD
ENDBRANCH  11  22
BRANCH   1  24
HETATM   24  O1  UNL     1       3.584   2.210   0.229  1.00  0.00    -0.353 OA
HETATM   25  C1  UNL     1       3.869   3.483   0.720  1.00  0.00     0.210 C 
ENDBRANCH   1  24
TORSDOF 5
