REMARK  4 active torsions:
REMARK  status: ('A' for Active; 'I' for Inactive)
REMARK    1  A    between atoms: C4_4  and  O1_5 
REMARK    2  A    between atoms: C5_7  and  C6_8 
REMARK    3  A    between atoms: N1_9  and  N2_11 
REMARK       I    between atoms: N2_11  and  C7_13 
REMARK    4  A    between atoms: C7_13  and  C8_15 
ROOT
HETATM    1  N2  UNL     1      -1.247   0.190   0.182  1.00  0.00    -0.265 N 
ATOM      2  H2  UNL     1      -0.959   1.016  -0.342  1.00  0.00     0.190 HD
HETATM    3  C7  UNL     1      -0.270  -0.712   0.676  1.00  0.00     0.293 C 
HETATM    4  O2  UNL     1      -0.616  -1.716   1.313  1.00  0.00    -0.264 OA
ENDROOT
BRANCH   1   5
HETATM    5  N1  UNL     1      -2.582  -0.048   0.408  1.00  0.00    -0.308 N 
HETATM    6  C6  UNL     1      -3.495   0.298  -0.402  1.00  0.00     0.129 C 
ATOM      7  H1  UNL     1      -2.851  -0.526   1.268  1.00  0.00     0.186 HD
BRANCH   6   8
HETATM    8  C5  UNL     1      -4.898   0.015  -0.104  1.00  0.00     0.055 A 
HETATM    9  C4  UNL     1      -5.534  -0.587   0.930  1.00  0.00     0.085 A 
HETATM   10  C3  UNL     1      -6.884  -0.676   0.869  1.00  0.00     0.052 A 
HETATM   11  C2  UNL     1      -7.508  -0.156  -0.221  1.00  0.00    -0.018 A 
HETATM   12  C1  UNL     1      -8.995  -0.138  -0.507  1.00  0.00     0.056 C 
HETATM   13  S1  UNL     1      -6.222   0.448  -1.149  1.00  0.00    -0.091 SA
BRANCH   9  14
HETATM   14  O1  UNL     1      -4.840  -1.113   2.044  1.00  0.00    -0.359 OA
ATOM     15  H1  UNL     1      -3.893  -1.051   2.087  1.00  0.00     0.217 HD
ENDBRANCH   9  14
ENDBRANCH   6   8
ENDBRANCH   1   5
BRANCH   3  16
HETATM   16  C8  UNL     1       1.161  -0.452   0.431  1.00  0.00     0.146 A 
HETATM   17  C9  UNL     1       2.207  -1.235   0.849  1.00  0.00     0.057 A 
HETATM   18  C10 UNL     1       3.355  -0.611   0.397  1.00  0.00     0.001 A 
HETATM   19  C11 UNL     1       4.712  -0.928   0.510  1.00  0.00     0.021 A 
HETATM   20  C17 UNL     1       2.955   0.519  -0.272  1.00  0.00     0.087 A 
HETATM   21  C12 UNL     1       5.621  -0.083  -0.063  1.00  0.00    -0.055 A 
HETATM   22  C13 UNL     1       7.066  -0.414   0.054  1.00  0.00     0.049 C 
HETATM   23  C14 UNL     1       5.221   1.036  -0.725  1.00  0.00    -0.053 A 
HETATM   24  C15 UNL     1       6.273   1.922  -1.331  1.00  0.00     0.049 C 
HETATM   25  C16 UNL     1       3.902   1.357  -0.843  1.00  0.00     0.045 A 
HETATM   26  O3  UNL     1       1.651   0.568  -0.224  1.00  0.00    -0.304 OA
ENDBRANCH   3  16
TORSDOF 4
