REMARK  6 active torsions:
REMARK  status: ('A' for Active; 'I' for Inactive)
REMARK    1  A    between atoms: C5_5  and  N1_6 
REMARK    2  A    between atoms: N1_6  and  C6_8 
REMARK    3  A    between atoms: C6_8  and  N2_10 
REMARK    4  A    between atoms: N2_10  and  N3_12 
REMARK    5  A    between atoms: C7_14  and  C8_15 
REMARK    6  A    between atoms: C11_18  and  C12_19 
ROOT
HETATM    1  N2  UNL     1      -0.736   1.441  -1.574  1.00  0.00    -0.276 N 
ATOM      2  H2  UNL     1      -1.309   0.598  -1.587  1.00  0.00     0.189 HD
ENDROOT
BRANCH   1   3
HETATM    3  C6  UNL     1      -1.098   2.469  -0.682  1.00  0.00     0.191 C 
HETATM    4  S1  UNL     1      -0.131   3.820  -0.699  1.00  0.00    -0.039 SA
BRANCH   3   5
HETATM    5  N1  UNL     1      -2.169   2.443   0.185  1.00  0.00    -0.332 N 
ATOM      6  H1  UNL     1      -2.326   3.264   0.770  1.00  0.00     0.168 HD
BRANCH   5   7
HETATM    7  C5  UNL     1      -3.068   1.355   0.321  1.00  0.00     0.034 A 
HETATM    8  C4  UNL     1      -2.711   0.042   0.486  1.00  0.00     0.030 A 
HETATM    9  C3  UNL     1      -3.663  -0.963   0.578  1.00  0.00     0.009 A 
HETATM   10  C2  UNL     1      -5.013  -0.704   0.510  1.00  0.00    -0.062 A 
HETATM   11  C1  UNL     1      -6.018  -1.816   0.608  1.00  0.00     0.048 C 
HETATM   12  C17 UNL     1      -5.379   0.609   0.346  1.00  0.00     0.009 A 
HETATM   13  C16 UNL     1      -4.450   1.613   0.253  1.00  0.00     0.030 A 
ENDBRANCH   5   7
ENDBRANCH   3   5
ENDBRANCH   1   3
BRANCH   1  14
HETATM   14  N3  UNL     1       0.337   1.499  -2.427  1.00  0.00    -0.307 N 
HETATM   15  C7  UNL     1       1.522   1.141  -2.377  1.00  0.00     0.144 C 
ATOM     16  H3  UNL     1       0.103   1.943  -3.315  1.00  0.00     0.186 HD
BRANCH  15  17
HETATM   17  C8  UNL     1       2.240   0.476  -1.291  1.00  0.00     0.093 A 
HETATM   18  C9  UNL     1       1.688   0.092  -0.102  1.00  0.00     0.041 A 
HETATM   19  C10 UNL     1       2.727  -0.485   0.603  1.00  0.00     0.043 A 
HETATM   20  C11 UNL     1       3.874  -0.430  -0.185  1.00  0.00     0.110 A 
HETATM   21  O2  UNL     1       3.537   0.149  -1.302  1.00  0.00    -0.307 OA
BRANCH  20  22
HETATM   22  C12 UNL     1       5.183  -0.939   0.208  1.00  0.00     0.108 A 
HETATM   23  C13 UNL     1       5.479  -1.531   1.416  1.00  0.00     0.042 A 
HETATM   24  C14 UNL     1       6.839  -1.870   1.380  1.00  0.00     0.027 A 
HETATM   25  C15 UNL     1       7.272  -1.453   0.135  1.00  0.00     0.142 A 
HETATM   26  O1  UNL     1       6.257  -0.906  -0.528  1.00  0.00    -0.320 OA
ENDBRANCH  20  22
ENDBRANCH  15  17
ENDBRANCH   1  14
TORSDOF 6
