REMARK  2 active torsions:
REMARK  status: ('A' for Active; 'I' for Inactive)
REMARK       I    between atoms: C1_2  and  N1_3 
REMARK       I    between atoms: C1_2  and  N3_12 
REMARK    1  A    between atoms: N1_3  and  C2_5 
REMARK    2  A    between atoms: N3_12  and  C5_14 
ROOT
HETATM    1  O1  UNL     1       0.962   0.710   2.698  1.00  0.00    -0.247 OA
HETATM    2  C1  UNL     1       1.598   0.937   1.637  1.00  0.00     0.322 C 
HETATM    3  N1  UNL     1       2.942   1.367   1.702  1.00  0.00    -0.289 N 
ATOM      4  H1  UNL     1       3.160   2.211   2.231  1.00  0.00     0.172 HD
HETATM    5  N3  UNL     1       0.942   0.754   0.412  1.00  0.00    -0.338 N 
ATOM      6  H3  UNL     1       1.461   0.940  -0.446  1.00  0.00     0.164 HD
ENDROOT
BRANCH   3   7
HETATM    7  C2  UNL     1       3.923   0.726   1.110  1.00  0.00     0.153 A 
HETATM    8  N2  UNL     1       3.893  -0.380   0.373  1.00  0.00    -0.344 N 
HETATM    9  C3  UNL     1       5.012  -0.835  -0.118  1.00  0.00     0.121 A 
ATOM     10  H2  UNL     1       3.012  -0.863   0.195  1.00  0.00     0.167 HD
HETATM   11  C4  UNL     1       6.161  -0.141   0.157  1.00  0.00     0.093 A 
HETATM   12 CL1  UNL     1       7.809  -0.509  -0.364  1.00  0.00    -0.075 Cl
HETATM   13  S1  UNL     1       5.576   1.144   1.117  1.00  0.00    -0.040 SA
ENDBRANCH   3   7
BRANCH   5  14
HETATM   14  C5  UNL     1      -0.450   0.310   0.297  1.00  0.00     0.086 C 
HETATM   15  C6  UNL     1      -0.543  -1.009  -0.371  1.00  0.00     0.025 C 
HETATM   16  C7  UNL     1      -1.474  -1.137  -1.514  1.00  0.00     0.002 C 
HETATM   17  C8  UNL     1      -2.920  -0.985  -1.233  1.00  0.00     0.000 C 
HETATM   18  C9  UNL     1      -3.323  -0.931   0.194  1.00  0.00     0.000 C 
HETATM   19  C10 UNL     1      -3.240   0.382   0.867  1.00  0.00     0.000 C 
HETATM   20  C11 UNL     1      -2.665   1.511   0.089  1.00  0.00     0.002 C 
HETATM   21  C12 UNL     1      -1.240   1.414  -0.293  1.00  0.00     0.025 C 
ENDBRANCH   5  14
TORSDOF 2
