REMARK  4 active torsions:
REMARK  status: ('A' for Active; 'I' for Inactive)
REMARK    1  A    between atoms: O1_1  and  C1_3 
REMARK    2  A    between atoms: C4_6  and  C5_7 
REMARK    3  A    between atoms: C5_7  and  N1_9 
REMARK    4  A    between atoms: N1_9  and  C6_11 
ROOT
HETATM    1  C5  UNL     1       2.150  -2.302  -0.225  1.00  0.00     0.107 C 
HETATM    2  S1  UNL     1       2.961  -3.716  -0.194  1.00  0.00    -0.060 SA
ENDROOT
BRANCH   1   3
HETATM    3  C4  UNL     1       2.822  -1.070   0.122  1.00  0.00     0.005 A 
HETATM    4  C3  UNL     1       3.091  -0.142  -0.861  1.00  0.00     0.017 A 
HETATM    5  C2  UNL     1       3.728   1.030  -0.560  1.00  0.00     0.040 A 
HETATM    6  C1  UNL     1       4.103   1.278   0.743  1.00  0.00     0.104 A 
HETATM    7  C16 UNL     1       3.834   0.354   1.719  1.00  0.00     0.150 A 
HETATM    8  C15 UNL     1       3.197  -0.828   1.446  1.00  0.00     0.059 A 
HETATM    9  F1  UNL     1       4.195   0.577   3.020  1.00  0.00    -0.203 F 
BRANCH   6  10
HETATM   10  O1  UNL     1       4.747   2.471   1.028  1.00  0.00    -0.358 OA
ATOM     11  H1  UNL     1       5.005   2.642   1.926  1.00  0.00     0.217 HD
ENDBRANCH   6  10
ENDBRANCH   1   3
BRANCH   1  12
HETATM   12  N1  UNL     1       0.789  -2.320  -0.597  1.00  0.00    -0.376 N 
ATOM     13  H1  UNL     1       0.355  -3.212  -0.836  1.00  0.00     0.161 HD
BRANCH  12  14
HETATM   14  C6  UNL     1      -0.006  -1.126  -0.651  1.00  0.00     0.083 C 
HETATM   15  C7  UNL     1      -0.160  -0.406   0.649  1.00  0.00     0.030 C 
HETATM   16  C8  UNL     1      -1.619  -0.007   0.689  1.00  0.00    -0.008 C 
HETATM   17  C9  UNL     1      -1.829   1.430   1.034  1.00  0.00     0.005 C 
HETATM   18  C13 UNL     1      -2.107  -0.157  -0.759  1.00  0.00    -0.008 C 
HETATM   19  C10 UNL     1      -3.059   1.938   0.360  1.00  0.00     0.000 C 
HETATM   20  C11 UNL     1      -4.107   0.876   0.133  1.00  0.00     0.000 C 
HETATM   21  C12 UNL     1      -3.602  -0.279  -0.679  1.00  0.00     0.005 C 
HETATM   22  C14 UNL     1      -1.406  -1.403  -1.153  1.00  0.00     0.030 C 
ENDBRANCH  12  14
ENDBRANCH   1  12
TORSDOF 4
