REMARK  4 active torsions:
REMARK  status: ('A' for Active; 'I' for Inactive)
REMARK    1  A    between atoms: C2_2  and  C4_4 
REMARK       I    between atoms: C4_4  and  N1_6 
REMARK    2  A    between atoms: N1_6  and  N2_8 
REMARK    3  A    between atoms: N2_8  and  C5_10 
REMARK    4  A    between atoms: C5_10  and  N3_12 
REMARK       I    between atoms: N3_12  and  C6_14 
REMARK       I    between atoms: C6_14  and  N5_18 
ROOT
HETATM    1  N3  UNL     1      -1.634   0.888  -1.813  1.00  0.00    -0.164 N 
ATOM      2  H3  UNL     1      -2.435   1.158  -2.384  1.00  0.00     0.186 HD
HETATM    3  C6  UNL     1      -1.884   0.641  -0.448  1.00  0.00     0.689 C 
HETATM    4  N4  UNL     1      -2.076   1.642   0.336  1.00  0.00    -0.230 N 
ATOM      5  H4  UNL     1      -2.257   1.471   1.325  1.00  0.00     0.177 HD
HETATM    6  C7  UNL     1      -2.042   2.987  -0.142  1.00  0.00     0.165 C 
HETATM    7  N5  UNL     1      -1.956  -0.655   0.121  1.00  0.00    -0.126 N 
ATOM      8  H5  UNL     1      -1.772  -1.478  -0.453  1.00  0.00     0.197 HD
HETATM    9  C8  UNL     1      -2.286  -0.803   1.495  1.00  0.00     0.196 C 
HETATM   10  N6  UNL     1      -2.570  -0.907   2.624  1.00  0.00    -0.171 NA
ENDROOT
BRANCH   1  11
HETATM   11  C5  UNL     1      -0.403   0.800  -2.461  1.00  0.00     0.205 C 
HETATM   12  S1  UNL     1      -0.337   1.152  -4.114  1.00  0.00    -0.039 SA
BRANCH  11  13
HETATM   13  N2  UNL     1       0.838   0.452  -1.931  1.00  0.00    -0.273 N 
ATOM     14  H2  UNL     1       1.640   0.445  -2.561  1.00  0.00     0.189 HD
BRANCH  13  15
HETATM   15  N1  UNL     1       1.054   0.117  -0.612  1.00  0.00    -0.264 N 
HETATM   16  C4  UNL     1       1.729  -1.097  -0.242  1.00  0.00     0.265 C 
HETATM   17  O1  UNL     1       2.133  -1.871  -1.153  1.00  0.00    -0.266 OA
ATOM     18  H1  UNL     1       0.727   0.747   0.121  1.00  0.00     0.190 HD
BRANCH  16  19
HETATM   19  C2  UNL     1       1.942  -1.424   1.139  1.00  0.00    -0.002 C 
HETATM   20  C1  UNL     1       1.556  -0.675   2.148  1.00  0.00     0.024 C 
HETATM   21  C3  UNL     1       2.652  -2.708   1.464  1.00  0.00     0.053 C 
ENDBRANCH  16  19
ENDBRANCH  13  15
ENDBRANCH  11  13
ENDBRANCH   1  11
TORSDOF 4
