REMARK  3 active torsions:
REMARK  status: ('A' for Active; 'I' for Inactive)
REMARK    1  A    between atoms: C3_3  and  C4_4 
REMARK       I    between atoms: C4_4  and  N1_6 
REMARK    2  A    between atoms: N1_6  and  C5_8 
REMARK    3  A    between atoms: C5_8  and  C6_9 
ROOT
HETATM    1  C6  UNL     1      -0.437  -0.610  -0.175  1.00  0.00     0.139 C 
HETATM    2  C7  UNL     1      -0.891   0.628   0.605  1.00  0.00     0.034 C 
HETATM    3  C8  UNL     1      -1.874   1.440  -0.167  1.00  0.00     0.003 C 
HETATM    4  C9  UNL     1      -3.224   1.552   0.430  1.00  0.00     0.006 C 
HETATM    5  C10 UNL     1      -3.807   0.281   0.948  1.00  0.00     0.079 C 
HETATM    6  C11 UNL     1      -4.095  -0.746  -0.099  1.00  0.00     0.245 C 
HETATM    7  F1  UNL     1      -5.389  -1.270   0.037  1.00  0.00    -0.206 F 
HETATM    8  F2  UNL     1      -4.028  -0.255  -1.387  1.00  0.00    -0.206 F 
HETATM    9  C12 UNL     1      -3.150  -1.910   0.122  1.00  0.00     0.105 C 
HETATM   10  C13 UNL     1      -2.107  -2.006  -0.966  1.00  0.00     0.174 C 
HETATM   11  O2  UNL     1      -1.419  -0.836  -1.160  1.00  0.00    -0.384 OA
ENDROOT
BRANCH   1  12
HETATM   12  C5  UNL     1       0.850  -0.352  -0.891  1.00  0.00     0.154 C 
BRANCH  12  13
HETATM   13  N1  UNL     1       1.962  -0.101  -0.043  1.00  0.00    -0.355 N 
HETATM   14  C4  UNL     1       3.241   0.159  -0.583  1.00  0.00     0.240 C 
HETATM   15  O1  UNL     1       3.395   0.167  -1.831  1.00  0.00    -0.269 OA
ATOM     16  H1  UNL     1       1.835  -0.109   0.969  1.00  0.00     0.162 HD
BRANCH  14  17
HETATM   17  C3  UNL     1       4.389   0.418   0.273  1.00  0.00     0.070 C 
HETATM   18  C2  UNL     1       5.569   0.657  -0.233  1.00  0.00    -0.026 C 
HETATM   19  C1  UNL     1       6.779   0.928   0.584  1.00  0.00     0.036 C 
ENDBRANCH  14  17
ENDBRANCH  12  13
ENDBRANCH   1  12
TORSDOF 3
