REMARK  6 active torsions:
REMARK  status: ('A' for Active; 'I' for Inactive)
REMARK    1  A    between atoms: N2_7  and  C4_8 
REMARK    2  A    between atoms: C4_8  and  C5_9 
REMARK       I    between atoms: C5_9  and  N3_11 
REMARK    3  A    between atoms: C12_20  and  N4_21 
REMARK       I    between atoms: N4_21  and  C13_23 
REMARK    4  A    between atoms: C13_23  and  C14_25 
REMARK       I    between atoms: N5_29  and  C18_30 
REMARK    5  A    between atoms: C18_30  and  C19_32 
REMARK    6  A    between atoms: C19_32  and  C20_33 
ROOT
HETATM    1  N4  UNL     1      -0.956  -2.491   1.761  1.00  0.00    -0.341 N 
ATOM      2  H4  UNL     1      -0.689  -3.466   1.627  1.00  0.00     0.163 HD
HETATM    3  C13 UNL     1       0.013  -1.486   1.776  1.00  0.00     0.241 C 
HETATM    4  O3  UNL     1      -0.309  -0.283   1.933  1.00  0.00    -0.271 OA
ENDROOT
BRANCH   1   5
HETATM    5  C12 UNL     1      -2.344  -2.126   1.939  1.00  0.00     0.222 C 
HETATM    6  C1  UNL     1      -2.994  -2.905   3.022  1.00  0.00     0.013 C 
HETATM    7  N1  UNL     1      -2.315  -3.382   4.024  1.00  0.00    -0.403 N 
HETATM    8  C2  UNL     1      -4.458  -3.137   2.936  1.00  0.00     0.074 C 
ATOM      9  H12 UNL     1      -2.762  -3.917   4.768  1.00  0.00     0.155 HD
ATOM     10  H11 UNL     1      -1.309  -3.223   4.083  1.00  0.00     0.155 HD
HETATM   11  C3  UNL     1      -5.177  -2.106   2.091  1.00  0.00     0.132 C 
HETATM   12  N2  UNL     1      -4.532  -1.987   0.779  1.00  0.00    -0.341 N 
HETATM   13  C11 UNL     1      -3.156  -2.324   0.719  1.00  0.00     0.248 C 
HETATM   14  O2  UNL     1      -2.616  -2.773  -0.311  1.00  0.00    -0.271 OA
BRANCH  12  15
HETATM   15  C4  UNL     1      -5.245  -1.550  -0.398  1.00  0.00     0.228 C 
BRANCH  15  16
HETATM   16  C5  UNL     1      -5.164  -0.073  -0.518  1.00  0.00     0.237 C 
HETATM   17  O1  UNL     1      -4.527   0.549   0.376  1.00  0.00    -0.272 OA
HETATM   18  N3  UNL     1      -5.755   0.671  -1.569  1.00  0.00    -0.351 N 
HETATM   19  C6  UNL     1      -5.629   2.099  -1.577  1.00  0.00     0.127 C 
HETATM   20  C10 UNL     1      -6.466  -0.084  -2.595  1.00  0.00     0.127 C 
HETATM   21  C7  UNL     1      -6.953   2.793  -1.805  1.00  0.00     0.040 C 
HETATM   22  C8  UNL     1      -7.920   1.915  -2.566  1.00  0.00     0.085 C 
HETATM   23 CL1  UNL     1      -8.917   1.017  -1.401  1.00  0.00    -0.125 Cl
HETATM   24  C9  UNL     1      -7.198   0.926  -3.452  1.00  0.00     0.040 C 
ENDBRANCH  15  16
ENDBRANCH  12  15
ENDBRANCH   1   5
BRANCH   3  25
HETATM   25  C14 UNL     1       1.460  -1.796   1.607  1.00  0.00     0.179 C 
HETATM   26  C15 UNL     1       1.937  -2.427   2.931  1.00  0.00     0.037 C 
HETATM   27  C16 UNL     1       1.968  -1.134   3.767  1.00  0.00     0.022 C 
HETATM   28  C17 UNL     1       2.782  -0.255   2.840  1.00  0.00     0.127 C 
HETATM   29  N5  UNL     1       2.233  -0.546   1.543  1.00  0.00    -0.339 N 
HETATM   30  C18 UNL     1       2.389   0.233   0.371  1.00  0.00     0.221 C 
HETATM   31  O4  UNL     1       1.829  -0.167  -0.682  1.00  0.00    -0.273 OA
BRANCH  30  32
HETATM   32  C19 UNL     1       3.167   1.483   0.315  1.00  0.00     0.112 C 
BRANCH  32  33
HETATM   33  C20 UNL     1       4.524   1.385  -0.291  1.00  0.00    -0.031 C 
HETATM   34  C21 UNL     1       4.433   0.908  -1.703  1.00  0.00     0.014 C 
HETATM   35  C22 UNL     1       5.833   0.866  -2.288  1.00  0.00    -0.013 C 
HETATM   36  C23 UNL     1       6.378   2.259  -2.311  1.00  0.00     0.009 C 
HETATM   37  C27 UNL     1       6.747  -0.037  -1.500  1.00  0.00     0.009 C 
HETATM   38  C24 UNL     1       6.478   2.776  -0.892  1.00  0.00    -0.013 C 
HETATM   39  C25 UNL     1       7.375   1.897  -0.077  1.00  0.00     0.009 C 
HETATM   40  C29 UNL     1       5.108   2.793  -0.294  1.00  0.00     0.014 C 
HETATM   41  C26 UNL     1       6.825   0.487  -0.085  1.00  0.00    -0.013 C 
HETATM   42  C28 UNL     1       5.455   0.515   0.497  1.00  0.00     0.014 C 
ENDBRANCH  32  33
ENDBRANCH  30  32
ENDBRANCH   3  25
TORSDOF 6
