REMARK  5 active torsions:
REMARK  status: ('A' for Active; 'I' for Inactive)
REMARK       I    between atoms: C2_2  and  N1_4 
REMARK    1  A    between atoms: N1_4  and  C3_6 
REMARK    2  A    between atoms: C4_7  and  C5_8 
REMARK       I    between atoms: C5_8  and  N2_10 
REMARK    3  A    between atoms: N2_10  and  N3_12 
REMARK    4  A    between atoms: C8_19  and  C9_20 
REMARK    5  A    between atoms: N7_24  and  O3_25 
ROOT
HETATM    1  C3  UNL     1      -1.482  -1.894   0.217  1.00  0.00     0.120 A 
HETATM    2  C4  UNL     1      -0.565  -0.832   0.347  1.00  0.00     0.083 A 
HETATM    3  C8  UNL     1       0.764  -1.101   0.288  1.00  0.00     0.067 A 
HETATM    4  C12 UNL     1       1.169  -2.460   0.123  1.00  0.00     0.134 A 
HETATM    5  N9  UNL     1       2.548  -2.736   0.085  1.00  0.00    -0.082 NA
HETATM    6  N10 UNL     1       0.303  -3.454   0.010  1.00  0.00    -0.309 N 
ATOM      7  H10 UNL     1       0.620  -4.416  -0.108  1.00  0.00     0.170 HD
HETATM    8  C13 UNL     1      -0.987  -3.162   0.055  1.00  0.00     0.274 A 
HETATM    9  O5  UNL     1      -1.805  -4.139  -0.064  1.00  0.00    -0.266 OA
ENDROOT
BRANCH   2  10
HETATM   10  C5  UNL     1      -1.100   0.458   0.681  1.00  0.00     0.274 C 
HETATM   11  O2  UNL     1      -2.350   0.616   0.465  1.00  0.00    -0.266 OA
HETATM   12  N2  UNL     1      -0.467   1.576   1.238  1.00  0.00    -0.257 N 
ATOM     13  H2  UNL     1       0.525   1.482   1.456  1.00  0.00     0.191 HD
BRANCH  12  14
HETATM   14  N3  UNL     1      -1.054   2.795   1.522  1.00  0.00    -0.242 N 
HETATM   15  C6  UNL     1      -2.296   3.236   1.367  1.00  0.00     0.224 A 
HETATM   16  N4  UNL     1      -2.388   4.531   1.800  1.00  0.00    -0.293 N 
HETATM   17  N5  UNL     1      -1.205   4.894   2.223  1.00  0.00    -0.293 N 
ATOM     18  H4  UNL     1      -3.228   5.109   1.794  1.00  0.00     0.187 HD
HETATM   19  C7  UNL     1      -0.374   3.855   2.065  1.00  0.00     0.224 A 
ATOM     20  H5  UNL     1      -0.959   5.807   2.606  1.00  0.00     0.187 HD
ENDBRANCH  12  14
ENDBRANCH   2  10
BRANCH   1  21
HETATM   21  N1  UNL     1      -2.882  -1.731   0.210  1.00  0.00    -0.322 N 
HETATM   22  C2  UNL     1      -3.625  -1.637  -0.993  1.00  0.00     0.218 C 
HETATM   23  C1  UNL     1      -5.086  -1.467  -0.950  1.00  0.00     0.117 C 
HETATM   24  O1  UNL     1      -3.021  -1.701  -2.082  1.00  0.00    -0.274 OA
ATOM     25  H1  UNL     1      -3.377  -1.679   1.100  1.00  0.00     0.169 HD
ENDBRANCH   1  21
BRANCH   3  26
HETATM   26  C9  UNL     1       1.827  -0.145  -0.088  1.00  0.00     0.121 C 
HETATM   27  N6  UNL     1       3.050  -0.425   0.117  1.00  0.00    -0.357 N 
HETATM   28  C10 UNL     1       4.210   0.341  -0.165  1.00  0.00     0.284 C 
ATOM     29  H6  UNL     1       3.222  -1.334   0.547  1.00  0.00     0.162 HD
HETATM   30  N7  UNL     1       3.993   1.377  -1.156  1.00  0.00    -0.192 N 
HETATM   31  C11 UNL     1       2.668   1.754  -1.442  1.00  0.00     0.349 C 
HETATM   32  O4  UNL     1       2.470   2.764  -2.169  1.00  0.00    -0.244 OA
HETATM   33  N8  UNL     1       1.574   0.991  -0.906  1.00  0.00    -0.292 N 
ATOM     34  H8  UNL     1       0.613   1.265  -1.113  1.00  0.00     0.172 HD
BRANCH  30  35
HETATM   35  O3  UNL     1       5.070   1.921  -1.749  1.00  0.00    -0.282 OA
ATOM     36  H3  UNL     1       4.928   2.600  -2.398  1.00  0.00     0.245 HD
ENDBRANCH  30  35
ENDBRANCH   3  26
TORSDOF 5
