REMARK  10 active torsions:
REMARK  status: ('A' for Active; 'I' for Inactive)
REMARK    1  A    between atoms: C2_2  and  C3_3 
REMARK    2  A    between atoms: C2_2  and  C12_15 
REMARK    3  A    between atoms: C3_3  and  N1_4 
REMARK    4  A    between atoms: N1_4  and  C4_7 
REMARK    5  A    between atoms: C4_7  and  C5_8 
REMARK    6  A    between atoms: C5_8  and  C6_9 
REMARK    7  A    between atoms: C12_15  and  O1_16 
REMARK    8  A    between atoms: O1_16  and  C13_17 
REMARK    9  A    between atoms: C16_20  and  S1_21 
REMARK   10  A    between atoms: S1_21  and  N2_24 
REMARK       I    between atoms: N2_24  and  C17_26 
ROOT
HETATM    1  C13 UNL     1      -1.950   0.751  -0.444  1.00  0.00     0.069 A 
HETATM    2  C14 UNL     1      -2.475  -0.324   0.223  1.00  0.00     0.038 A 
HETATM    3  C15 UNL     1      -3.625  -0.955  -0.176  1.00  0.00     0.028 A 
HETATM    4  C16 UNL     1      -4.278  -0.496  -1.284  1.00  0.00     0.080 A 
HETATM    5  C18 UNL     1      -3.781   0.583  -1.982  1.00  0.00     0.028 A 
HETATM    6  C19 UNL     1      -2.623   1.212  -1.574  1.00  0.00     0.038 A 
ENDROOT
BRANCH   1   7
HETATM    7  O1  UNL     1      -0.810   1.410  -0.085  1.00  0.00    -0.347 OA
BRANCH   7   8
HETATM    8  C12 UNL     1      -0.006   1.080   1.027  1.00  0.00     0.210 C 
BRANCH   8   9
HETATM    9  C2  UNL     1       1.150   1.998   1.121  1.00  0.00    -0.040 C 
HETATM   10  C1  UNL     1       1.302   2.738   2.202  1.00  0.00     0.018 C 
BRANCH   9  11
HETATM   11  C3  UNL     1       2.124   2.080   0.008  1.00  0.00     0.267 C 
BRANCH  11  12
HETATM   12  N1  UNL     1       2.755   0.779  -0.236  1.00  0.00    -0.071 N 
ATOM     13  H12 UNL     1       3.190   0.380   0.596  1.00  0.00     0.277 HD
ATOM     14  H11 UNL     1       2.083   0.030  -0.400  1.00  0.00     0.277 HD
BRANCH  12  15
HETATM   15  C4  UNL     1       3.676   0.966  -1.326  1.00  0.00     0.237 C 
BRANCH  15  16
HETATM   16  C5  UNL     1       4.408  -0.301  -1.693  1.00  0.00     0.066 C 
BRANCH  16  17
HETATM   17  C6  UNL     1       5.206  -0.837  -0.562  1.00  0.00    -0.057 A 
HETATM   18  C7  UNL     1       6.518  -0.471  -0.350  1.00  0.00     0.007 A 
HETATM   19  C8  UNL     1       7.256  -0.980   0.714  1.00  0.00     0.001 A 
HETATM   20  C9  UNL     1       6.695  -1.876   1.601  1.00  0.00     0.000 A 
HETATM   21  C10 UNL     1       5.388  -2.241   1.391  1.00  0.00     0.001 A 
HETATM   22  C11 UNL     1       4.659  -1.732   0.333  1.00  0.00     0.007 A 
ENDBRANCH  16  17
ENDBRANCH  15  16
ENDBRANCH  12  15
ENDBRANCH  11  12
ENDBRANCH   9  11
ENDBRANCH   8   9
ENDBRANCH   7   8
ENDBRANCH   1   7
BRANCH   4  23
HETATM   23  S1  UNL     1      -5.750  -1.314  -1.784  1.00  0.00     0.265 S 
HETATM   24  O2  UNL     1      -5.616  -2.760  -1.387  1.00  0.00    -0.200 OA
HETATM   25  O3  UNL     1      -5.819  -1.194  -3.282  1.00  0.00    -0.200 OA
BRANCH  23  26
HETATM   26  N2  UNL     1      -7.138  -0.608  -1.038  1.00  0.00    -0.254 N 
HETATM   27  C17 UNL     1      -7.244  -0.629   0.368  1.00  0.00     0.195 C 
HETATM   28  N3  UNL     1      -6.608   0.224   1.070  1.00  0.00    -0.373 N 
HETATM   29  N4  UNL     1      -8.056  -1.595   0.996  1.00  0.00    -0.063 NA
ATOM     30  H32 UNL     1      -6.020   0.923   0.616  1.00  0.00     0.158 HD
ATOM     31  H31 UNL     1      -6.685   0.209   2.087  1.00  0.00     0.158 HD
ATOM     32  H2  UNL     1      -7.870  -0.182  -1.606  1.00  0.00     0.181 HD
ENDBRANCH  23  26
ENDBRANCH   4  23
TORSDOF 10
