REMARK  10 active torsions:
REMARK  status: ('A' for Active; 'I' for Inactive)
REMARK    1  A    between atoms: C6_8  and  C7_9 
REMARK    2  A    between atoms: C10_12  and  C11_13 
REMARK    3  A    between atoms: C12_14  and  C13_15 
REMARK    4  A    between atoms: C14_16  and  C15_17 
REMARK    5  A    between atoms: C16_20  and  O5_21 
REMARK    6  A    between atoms: O5_21  and  C17_22 
REMARK    7  A    between atoms: C19_25  and  O7_26 
REMARK    8  A    between atoms: O7_26  and  C20_27 
REMARK    9  A    between atoms: C20_27  and  C21_29 
REMARK   10  A    between atoms: C22_30  and  C23_31 
REMARK       I    between atoms: C23_31  and  N1_33 
ROOT
HETATM    1  C1  UNL     1       0.487  -0.103   3.979  1.00  0.00     0.025 C 
HETATM    2  C2  UNL     1      -0.511  -0.720   3.410  1.00  0.00     0.017 C 
HETATM    3  C3  UNL     1      -0.885  -2.106   3.641  1.00  0.00     0.289 C 
HETATM    4  O1  UNL     1      -0.237  -2.993   4.273  1.00  0.00    -0.260 OA
HETATM    5  O2  UNL     1      -2.118  -2.351   3.045  1.00  0.00    -0.307 OA
HETATM    6  C4  UNL     1      -2.658  -1.080   2.724  1.00  0.00     0.166 C 
HETATM    7  C5  UNL     1      -3.797  -1.086   1.827  1.00  0.00     0.010 C 
HETATM    8  C6  UNL     1      -3.982  -0.702   0.553  1.00  0.00    -0.068 C 
HETATM    9  C10 UNL     1      -2.932  -0.107  -0.272  1.00  0.00     0.069 C 
HETATM   10  C16 UNL     1      -1.649  -0.884  -0.049  1.00  0.00     0.174 C 
HETATM   11  C19 UNL     1      -0.895  -0.226   1.068  1.00  0.00     0.174 C 
HETATM   12  C29 UNL     1      -1.516  -0.201   2.401  1.00  0.00     0.089 C 
ENDROOT
BRANCH  11  13
HETATM   13  O7  UNL     1       0.446  -0.662   1.149  1.00  0.00    -0.309 OA
BRANCH  13  14
HETATM   14  C20 UNL     1       1.505   0.128   0.838  1.00  0.00     0.283 C 
HETATM   15  O8  UNL     1       1.242   1.286   0.470  1.00  0.00    -0.260 OA
BRANCH  14  16
HETATM   16  C21 UNL     1       2.894  -0.292   0.911  1.00  0.00     0.088 C 
HETATM   17  C22 UNL     1       3.862   0.531   0.596  1.00  0.00     0.080 C 
BRANCH  17  18
HETATM   18  C23 UNL     1       5.230   0.074   0.682  1.00  0.00     0.243 C 
HETATM   19  O9  UNL     1       5.440  -1.129   1.071  1.00  0.00    -0.268 OA
HETATM   20  N1  UNL     1       6.357   0.856   0.368  1.00  0.00    -0.349 N 
HETATM   21  C24 UNL     1       7.677   0.223   0.532  1.00  0.00     0.126 C 
HETATM   22  C28 UNL     1       6.213   2.203  -0.090  1.00  0.00     0.126 C 
HETATM   23  C25 UNL     1       8.708   1.202   0.039  1.00  0.00     0.020 C 
HETATM   24  C26 UNL     1       8.299   1.644  -1.353  1.00  0.00     0.003 C 
HETATM   25  C27 UNL     1       7.084   2.546  -1.285  1.00  0.00     0.020 C 
ENDBRANCH  17  18
ENDBRANCH  14  16
ENDBRANCH  13  14
ENDBRANCH  11  13
BRANCH  10  26
HETATM   26  O5  UNL     1      -1.991  -2.205   0.165  1.00  0.00    -0.313 OA
BRANCH  26  27
HETATM   27  C17 UNL     1      -1.533  -3.198  -0.663  1.00  0.00     0.255 C 
HETATM   28  C18 UNL     1      -1.906  -4.602  -0.423  1.00  0.00     0.126 C 
HETATM   29  O6  UNL     1      -0.798  -2.905  -1.624  1.00  0.00    -0.266 OA
ENDBRANCH  26  27
ENDBRANCH  10  26
BRANCH   9  30
HETATM   30  C11 UNL     1      -3.223   0.115  -1.683  1.00  0.00    -0.015 C 
HETATM   31  C12 UNL     1      -3.353   1.348  -2.207  1.00  0.00    -0.003 C 
BRANCH  31  32
HETATM   32  C13 UNL     1      -3.642   1.542  -3.613  1.00  0.00     0.007 C 
HETATM   33  C14 UNL     1      -3.793   2.668  -4.252  1.00  0.00     0.084 C 
BRANCH  33  34
HETATM   34  C15 UNL     1      -3.709   4.006  -3.717  1.00  0.00     0.198 C 
HETATM   35  O3  UNL     1      -3.473   4.303  -2.529  1.00  0.00    -0.645 OA
HETATM   36  O4  UNL     1      -3.906   5.116  -4.578  1.00  0.00    -0.645 OA
ENDBRANCH  33  34
ENDBRANCH  31  32
ENDBRANCH   9  30
BRANCH   8  37
HETATM   37  C7  UNL     1      -5.310  -0.865  -0.028  1.00  0.00     0.007 C 
HETATM   38  C8  UNL     1      -6.361  -1.323   0.993  1.00  0.00     0.014 C 
HETATM   39  C9  UNL     1      -5.421  -1.777  -1.202  1.00  0.00     0.014 C 
ENDBRANCH   8  37
TORSDOF 10
