REMARK  11 active torsions:
REMARK  status: ('A' for Active; 'I' for Inactive)
REMARK    1  A    between atoms: C2_2  and  C3_3 
REMARK    2  A    between atoms: C3_3  and  C4_4 
REMARK    3  A    between atoms: C4_4  and  C5_5 
REMARK    4  A    between atoms: C6_7  and  C7_8 
REMARK    5  A    between atoms: C7_8  and  O2_9 
REMARK    6  A    between atoms: C12_15  and  O4_16 
REMARK    7  A    between atoms: C13_18  and  O5_19 
REMARK    8  A    between atoms: C14_21  and  C16_23 
REMARK    9  A    between atoms: C16_23  and  C17_24 
REMARK   10  A    between atoms: C18_25  and  C20_27 
REMARK   11  A    between atoms: C21_28  and  C22_29 
ROOT
HETATM    1  C5  UNL     1      -2.652  -0.781  -0.195  1.00  0.00     0.140 C 
HETATM    2  O1  UNL     1      -3.874  -0.121   0.192  1.00  0.00    -0.364 OA
HETATM    3  C6  UNL     1      -3.447   1.106   0.769  1.00  0.00     0.144 C 
HETATM    4  C9  UNL     1      -3.754   2.014  -0.434  1.00  0.00     0.056 C 
HETATM    5  C10 UNL     1      -2.940   1.172  -1.471  1.00  0.00     0.032 C 
HETATM    6  C11 UNL     1      -2.490   2.175  -2.416  1.00  0.00     0.177 C 
HETATM    7  O3  UNL     1      -1.636   3.072  -1.753  1.00  0.00    -0.358 OA
HETATM    8  C12 UNL     1      -0.394   2.692  -2.233  1.00  0.00     0.286 C 
HETATM    9  C13 UNL     1       0.179   1.506  -1.555  1.00  0.00     0.182 C 
HETATM   10  C14 UNL     1      -0.640   0.299  -1.351  1.00  0.00     0.007 C 
HETATM   11  C15 UNL     1      -0.991  -0.393  -2.686  1.00  0.00     0.020 C 
HETATM   12  C27 UNL     1      -1.884   0.430  -0.633  1.00  0.00     0.065 C 
HETATM   13  C28 UNL     1      -1.968   1.152   0.650  1.00  0.00     0.175 C 
HETATM   14  O9  UNL     1      -1.248   1.658   1.447  1.00  0.00    -0.294 OA
ENDROOT
BRANCH  10  15
HETATM   15  C16 UNL     1       0.389  -0.682  -0.757  1.00  0.00     0.041 C 
BRANCH  15  16
HETATM   16  C17 UNL     1       1.531  -0.874  -1.709  1.00  0.00    -0.019 C 
HETATM   17  C18 UNL     1       2.798  -0.761  -1.438  1.00  0.00    -0.066 C 
HETATM   18  C19 UNL     1       3.775  -0.999  -2.563  1.00  0.00     0.048 C 
BRANCH  17  19
HETATM   19  C20 UNL     1       3.374  -0.454  -0.158  1.00  0.00     0.005 C 
HETATM   20  C21 UNL     1       4.675  -0.360   0.015  1.00  0.00     0.006 C 
BRANCH  20  21
HETATM   21  C22 UNL     1       5.310  -0.045   1.320  1.00  0.00     0.161 C 
HETATM   22  C23 UNL     1       5.723  -1.261   2.075  1.00  0.00     0.115 C 
HETATM   23  C24 UNL     1       7.190  -1.489   2.119  1.00  0.00     0.139 C 
HETATM   24  O6  UNL     1       7.737  -2.045   3.035  1.00  0.00    -0.297 OA
HETATM   25  C25 UNL     1       8.018  -1.007   0.979  1.00  0.00     0.189 C 
HETATM   26  C26 UNL     1       7.659   0.416   0.775  1.00  0.00     0.266 C 
HETATM   27  O7  UNL     1       8.493   1.189   0.269  1.00  0.00    -0.265 OA
HETATM   28  O8  UNL     1       6.394   0.873   1.151  1.00  0.00    -0.311 OA
ENDBRANCH  20  21
ENDBRANCH  17  19
ENDBRANCH  15  16
ENDBRANCH  10  15
BRANCH   9  29
HETATM   29  O5  UNL     1       0.805   1.970  -0.404  1.00  0.00    -0.390 OA
ATOM     30  H5  UNL     1       1.172   1.209   0.031  1.00  0.00     0.210 HD
ENDBRANCH   9  29
BRANCH   8  31
HETATM   31  O4  UNL     1       0.470   3.767  -2.035  1.00  0.00    -0.369 OA
ATOM     32  H4  UNL     1       1.322   3.506  -2.364  1.00  0.00     0.212 HD
ENDBRANCH   8  31
BRANCH   1  33
HETATM   33  C4  UNL     1      -2.309  -1.466   1.061  1.00  0.00     0.033 C 
BRANCH  33  34
HETATM   34  C3  UNL     1      -3.412  -2.443   1.515  1.00  0.00     0.002 C 
BRANCH  34  35
HETATM   35  C2  UNL     1      -3.653  -3.508   0.490  1.00  0.00    -0.004 C 
HETATM   36  C1  UNL     1      -4.709  -4.486   0.879  1.00  0.00     0.005 C 
ENDBRANCH  34  35
ENDBRANCH  33  34
ENDBRANCH   1  33
BRANCH   3  37
HETATM   37  C7  UNL     1      -4.072   1.416   2.023  1.00  0.00     0.213 C 
BRANCH  37  38
HETATM   38  O2  UNL     1      -3.758   2.469   2.776  1.00  0.00    -0.393 OA
HETATM   39  C8  UNL     1      -3.887   3.720   2.310  1.00  0.00     0.201 C 
ENDBRANCH  37  38
ENDBRANCH   3  37
TORSDOF 11
