REMARK  10 active torsions:
REMARK  status: ('A' for Active; 'I' for Inactive)
REMARK    1  A    between atoms: C2_2  and  C4_5 
REMARK    2  A    between atoms: C8_9  and  C9_10 
REMARK    3  A    between atoms: C10_11  and  C11_12 
REMARK    4  A    between atoms: N2_14  and  C13_15 
REMARK    5  A    between atoms: C15_18  and  N4_19 
REMARK    6  A    between atoms: N5_22  and  C18_23 
REMARK    7  A    between atoms: C18_23  and  C19_24 
REMARK    8  A    between atoms: C19_24  and  O1_25 
REMARK    9  A    between atoms: C19_24  and  C20_27 
REMARK   10  A    between atoms: C20_27  and  N6_28 
ROOT
HETATM    1  C1  UNL     1      -6.816   2.213  -1.500  1.00  0.00     0.031 C 
HETATM    2  C2  UNL     1      -7.870   1.231  -1.025  1.00  0.00     0.121 C 
HETATM    3  C3  UNL     1      -8.417   1.727   0.226  1.00  0.00     0.068 C 
HETATM    4  N1  UNL     1      -8.835   2.129   1.229  1.00  0.00    -0.197 NA
ENDROOT
BRANCH   2   5
HETATM    5  C4  UNL     1      -7.336  -0.140  -0.859  1.00  0.00    -0.040 A 
HETATM    6  C5  UNL     1      -7.786  -1.142  -1.686  1.00  0.00     0.008 A 
HETATM    7  C6  UNL     1      -7.290  -2.418  -1.530  1.00  0.00     0.001 A 
HETATM    8  C7  UNL     1      -6.359  -2.658  -0.554  1.00  0.00     0.012 A 
HETATM    9  C8  UNL     1      -5.872  -1.666   0.310  1.00  0.00    -0.029 A 
HETATM   10  C30 UNL     1      -6.388  -0.428   0.121  1.00  0.00     0.020 A 
BRANCH   9  11
HETATM   11  C9  UNL     1      -4.933  -2.008   1.372  1.00  0.00    -0.039 C 
HETATM   12  C10 UNL     1      -3.730  -1.576   1.638  1.00  0.00    -0.022 C 
HETATM   13  C27 UNL     1      -3.208  -2.301   2.898  1.00  0.00     0.042 C 
HETATM   14  C28 UNL     1      -4.435  -2.827   3.566  1.00  0.00     0.009 C 
HETATM   15  C29 UNL     1      -5.357  -3.057   2.415  1.00  0.00     0.040 C 
BRANCH  12  16
HETATM   16  C11 UNL     1      -2.896  -0.592   0.958  1.00  0.00     0.072 A 
HETATM   17  C12 UNL     1      -3.048   0.654   0.462  1.00  0.00     0.140 A 
HETATM   18  N2  UNL     1      -1.882   1.116  -0.107  1.00  0.00    -0.178 N 
HETATM   19  C15 UNL     1      -0.993   0.129   0.047  1.00  0.00     0.683 A 
HETATM   20  N7  UNL     1      -1.573  -0.896   0.677  1.00  0.00    -0.190 N 
ATOM     21  H7  UNL     1      -1.111  -1.773   0.916  1.00  0.00     0.184 HD
BRANCH  18  22
HETATM   22  C13 UNL     1      -1.698   2.409  -0.734  1.00  0.00     0.270 C 
HETATM   23  C14 UNL     1      -1.242   3.353   0.292  1.00  0.00     0.079 C 
HETATM   24  N3  UNL     1      -0.864   4.105   1.104  1.00  0.00    -0.196 NA
ENDBRANCH  18  22
BRANCH  19  25
HETATM   25  N4  UNL     1       0.373   0.200  -0.403  1.00  0.00    -0.214 N 
HETATM   26  C16 UNL     1       1.343   0.823   0.470  1.00  0.00     0.160 C 
HETATM   27  C17 UNL     1       2.630   0.017   0.398  1.00  0.00     0.137 C 
HETATM   28  N5  UNL     1       3.030  -0.022  -0.971  1.00  0.00    -0.407 N 
HETATM   29  C25 UNL     1       2.163  -0.800  -1.793  1.00  0.00     0.137 C 
HETATM   30  C26 UNL     1       0.747  -0.324  -1.672  1.00  0.00     0.160 C 
BRANCH  28  31
HETATM   31  C18 UNL     1       4.410  -0.174  -1.242  1.00  0.00     0.150 C 
BRANCH  31  32
HETATM   32  C19 UNL     1       5.187   1.078  -0.838  1.00  0.00     0.164 C 
BRANCH  32  33
HETATM   33  O1  UNL     1       4.677   2.176  -1.572  1.00  0.00    -0.392 OA
ATOM     34  H1  UNL     1       5.160   2.954  -1.321  1.00  0.00     0.210 HD
ENDBRANCH  32  33
BRANCH  32  35
HETATM   35  C20 UNL     1       6.647   0.989  -1.191  1.00  0.00     0.305 C 
BRANCH  35  36
HETATM   36  N6  UNL     1       7.346  -0.084  -0.521  1.00  0.00     0.095 N 
HETATM   37  C21 UNL     1       7.448   0.167   0.890  1.00  0.00     0.298 C 
HETATM   38  C22 UNL     1       8.856   0.033   1.423  1.00  0.00     0.198 C 
HETATM   39  O2  UNL     1       9.749   0.876   0.796  1.00  0.00    -0.388 OA
HETATM   40  C23 UNL     1       9.547   1.029  -0.555  1.00  0.00     0.198 C 
HETATM   41  C24 UNL     1       8.688  -0.109  -1.074  1.00  0.00     0.298 C 
ENDBRANCH  35  36
ENDBRANCH  32  35
ENDBRANCH  31  32
ENDBRANCH  28  31
ENDBRANCH  19  25
ENDBRANCH  12  16
ENDBRANCH   9  11
ENDBRANCH   2   5
TORSDOF 10
