REMARK  8 active torsions:
REMARK  status: ('A' for Active; 'I' for Inactive)
REMARK    1  A    between atoms: C3_3  and  C4_4 
REMARK       I    between atoms: C4_4  and  N1_6 
REMARK    2  A    between atoms: C8_10  and  C9_11 
REMARK    3  A    between atoms: C9_11  and  O2_12 
REMARK    4  A    between atoms: N2_18  and  C14_19 
REMARK    5  A    between atoms: C14_19  and  C15_20 
REMARK    6  A    between atoms: C15_20  and  N3_21 
REMARK    7  A    between atoms: N3_21  and  C16_23 
REMARK    8  A    between atoms: C22_29  and  O3_30 
ROOT
HETATM    1  C1  UNL     1       1.286  -1.356  -1.497  1.00  0.00     0.033 C 
HETATM    2  C2  UNL     1       1.522  -0.152  -0.614  1.00  0.00     0.092 C 
HETATM    3  C3  UNL     1       2.336  -0.634   0.570  1.00  0.00     0.100 C 
HETATM    4  C10 UNL     1       2.652   0.464   1.535  1.00  0.00     0.016 C 
HETATM    5  C11 UNL     1       1.421   0.727   2.392  1.00  0.00     0.002 C 
HETATM    6  C12 UNL     1       0.729   1.940   1.828  1.00  0.00     0.020 C 
HETATM    7  C13 UNL     1       0.712   1.870   0.326  1.00  0.00     0.122 C 
HETATM    8  N2  UNL     1       0.436   0.596  -0.225  1.00  0.00    -0.384 N 
ENDROOT
BRANCH   8   9
HETATM    9  C14 UNL     1      -0.898   0.346  -0.516  1.00  0.00     0.102 C 
BRANCH   9  10
HETATM   10  C15 UNL     1      -1.526  -0.856   0.163  1.00  0.00     0.100 C 
BRANCH  10  11
HETATM   11  N3  UNL     1      -2.837  -1.165  -0.103  1.00  0.00    -0.388 N 
ATOM     12  H3  UNL     1      -2.983  -2.020  -0.640  1.00  0.00     0.159 HD
BRANCH  11  13
HETATM   13  C16 UNL     1      -3.977  -0.491   0.248  1.00  0.00     0.036 C 
HETATM   14  C17 UNL     1      -4.261  -0.306   1.715  1.00  0.00     0.036 C 
HETATM   15  C18 UNL     1      -5.771  -0.122   1.686  1.00  0.00    -0.009 C 
HETATM   16  C19 UNL     1      -6.117  -1.437   0.964  1.00  0.00     0.012 C 
HETATM   17  C23 UNL     1      -6.192   1.042   0.847  1.00  0.00     0.042 C 
HETATM   18  C20 UNL     1      -5.214  -1.292  -0.238  1.00  0.00     0.017 C 
HETATM   19  C21 UNL     1      -5.930  -0.380  -1.211  1.00  0.00     0.045 C 
HETATM   20  C22 UNL     1      -5.649   0.957  -0.556  1.00  0.00     0.061 C 
HETATM   21  C24 UNL     1      -4.120   0.846  -0.425  1.00  0.00     0.069 C 
BRANCH  20  22
HETATM   22  O3  UNL     1      -6.039   2.030  -1.311  1.00  0.00    -0.390 OA
ATOM     23  H3  UNL     1      -5.863   2.868  -0.900  1.00  0.00     0.210 HD
ENDBRANCH  20  22
ENDBRANCH  11  13
ENDBRANCH  10  11
ENDBRANCH   9  10
ENDBRANCH   8   9
BRANCH   3  24
HETATM   24  C4  UNL     1       3.540  -1.374   0.192  1.00  0.00     0.226 C 
HETATM   25  O1  UNL     1       3.573  -2.646   0.455  1.00  0.00    -0.273 OA
HETATM   26  N1  UNL     1       4.693  -0.862  -0.437  1.00  0.00    -0.345 N 
HETATM   27  C5  UNL     1       5.848  -1.724  -0.786  1.00  0.00     0.126 C 
HETATM   28  C8  UNL     1       5.109   0.429  -0.880  1.00  0.00     0.110 C 
HETATM   29  C6  UNL     1       6.316  -1.158  -2.122  1.00  0.00     0.022 C 
HETATM   30  C7  UNL     1       5.516   0.113  -2.329  1.00  0.00     0.029 C 
BRANCH  28  31
HETATM   31  C9  UNL     1       6.381   0.902  -0.194  1.00  0.00     0.189 C 
BRANCH  31  32
HETATM   32  O2  UNL     1       6.237   0.990   1.178  1.00  0.00    -0.399 OA
ATOM     33  H2  UNL     1       7.032   1.286   1.607  1.00  0.00     0.209 HD
ENDBRANCH  31  32
ENDBRANCH  28  31
ENDBRANCH   3  24
TORSDOF 8
