REMARK  6 active torsions:
REMARK  status: ('A' for Active; 'I' for Inactive)
REMARK    1  A    between atoms: O1_2  and  N1_3 
REMARK    2  A    between atoms: N1_3  and  C2_5 
REMARK    3  A    between atoms: N2_6  and  C3_7 
REMARK    4  A    between atoms: C6_15  and  C7_16 
REMARK    5  A    between atoms: C12_28  and  O3_29 
REMARK    6  A    between atoms: O3_29  and  C13_30 
ROOT
HETATM    1  C2  UNL     1      -1.078   1.237   0.271  1.00  0.00     0.145 C 
HETATM    2  N2  UNL     1       0.026   0.383   0.494  1.00  0.00    -0.295 N 
HETATM    3  C10 UNL     1      -0.860  -0.754   0.487  1.00  0.00     0.335 C 
HETATM    4  N7  UNL     1      -1.248  -1.285   1.747  1.00  0.00    -0.047 N 
ATOM      5  H71 UNL     1      -0.547  -1.483   2.461  1.00  0.00     0.279 HD
ATOM      6  H72 UNL     1      -1.583  -2.246   1.821  1.00  0.00     0.279 HD
HETATM    7  C11 UNL     1      -2.175  -0.163   1.910  1.00  0.00     0.285 C 
HETATM    8  C12 UNL     1      -2.040   0.123   0.470  1.00  0.00     0.191 C 
ENDROOT
BRANCH   2   9
HETATM    9  C3  UNL     1       1.466   0.495   0.669  1.00  0.00     0.310 C 
HETATM   10  N3  UNL     1       1.966   1.093  -0.538  1.00  0.00    -0.334 N 
HETATM   11  C4  UNL     1       3.004   1.030  -1.257  1.00  0.00     0.163 A 
ATOM     12  H3  UNL     1       1.293   1.756  -0.924  1.00  0.00     0.165 HD
HETATM   13  N4  UNL     1       3.694   1.430  -2.340  1.00  0.00    -0.242 N 
HETATM   14  C5  UNL     1       4.104   0.212  -0.988  1.00  0.00     0.168 A 
HETATM   15  O2  UNL     1       4.681   0.665  -2.054  1.00  0.00    -0.230 OA
ATOM     16  H4  UNL     1       3.505   2.088  -3.096  1.00  0.00     0.196 HD
HETATM   17  C6  UNL     1       4.307  -0.634   0.011  1.00  0.00     0.069 C 
HETATM   18  N5  UNL     1       3.372  -0.880   1.052  1.00  0.00    -0.303 N 
HETATM   19  N6  UNL     1       1.978  -0.797   0.978  1.00  0.00    -0.295 N 
ATOM     20  H5  UNL     1       3.762  -1.147   1.956  1.00  0.00     0.186 HD
ATOM     21  H6  UNL     1       1.373  -1.603   1.134  1.00  0.00     0.184 HD
BRANCH  17  22
HETATM   22  C7  UNL     1       5.550  -1.387   0.085  1.00  0.00     0.040 A 
HETATM   23  C8  UNL     1       6.649  -1.294  -0.877  1.00  0.00     0.011 A 
HETATM   24  C9  UNL     1       6.769  -0.465   0.375  1.00  0.00     0.011 A 
ENDBRANCH  17  22
ENDBRANCH   2   9
BRANCH   1  25
HETATM   25  N1  UNL     1      -1.204   2.468   0.005  1.00  0.00    -0.252 N 
ATOM     26  H1  UNL     1      -0.369   3.046  -0.086  1.00  0.00     0.196 HD
BRANCH  25  27
HETATM   27  O1  UNL     1      -2.415   3.031  -0.161  1.00  0.00    -0.284 OA
HETATM   28  C1  UNL     1      -2.798   4.319   0.232  1.00  0.00     0.237 C 
ENDBRANCH  25  27
ENDBRANCH   1  25
BRANCH   8  29
HETATM   29  O3  UNL     1      -2.981   0.090  -0.427  1.00  0.00    -0.357 OA
BRANCH  29  30
HETATM   30  C13 UNL     1      -3.986  -0.776  -0.539  1.00  0.00     0.052 C 
HETATM   31  C14 UNL     1      -4.772  -0.332  -1.796  1.00  0.00     0.045 C 
HETATM   32  C15 UNL     1      -3.605  -2.210  -0.826  1.00  0.00     0.045 C 
HETATM   33  C16 UNL     1      -5.018  -0.807   0.556  1.00  0.00     0.045 C 
ENDBRANCH  29  30
ENDBRANCH   8  29
TORSDOF 6
