REMARK  7 active torsions:
REMARK  status: ('A' for Active; 'I' for Inactive)
REMARK    1  A    between atoms: N1_2  and  C2_4 
REMARK    2  A    between atoms: N2_9  and  C7_10 
REMARK    3  A    between atoms: C7_10  and  C8_11 
REMARK    4  A    between atoms: C15_19  and  O2_20 
REMARK    5  A    between atoms: C16_22  and  O3_23 
REMARK    6  A    between atoms: C17_25  and  O4_26 
REMARK    7  A    between atoms: C18_28  and  O5_29 
ROOT
HETATM    1  C2  UNL     1      -2.507   0.544   0.410  1.00  0.00     0.112 C 
HETATM    2  C3  UNL     1      -1.423   1.372  -0.186  1.00  0.00     0.019 C 
HETATM    3  C4  UNL     1      -0.670   2.172   0.871  1.00  0.00     0.012 C 
HETATM    4  C5  UNL     1       0.622   2.713   0.384  1.00  0.00     0.045 C 
HETATM    5  C6  UNL     1       1.821   1.864   0.551  1.00  0.00     0.058 C 
HETATM    6  N2  UNL     1       1.806   0.553   0.047  1.00  0.00    -0.385 N 
HETATM    7  C11 UNL     1       0.574  -0.159   0.091  1.00  0.00     0.131 C 
HETATM    8  C12 UNL     1      -0.376   0.577  -0.869  1.00  0.00     0.050 C 
HETATM    9  C13 UNL     1      -0.913  -0.552  -1.707  1.00  0.00     0.169 C 
HETATM   10  O1  UNL     1       0.270  -1.293  -1.835  1.00  0.00    -0.363 OA
HETATM   11  C14 UNL     1       0.516  -1.500  -0.447  1.00  0.00     0.147 A 
HETATM   12  C15 UNL     1       0.452  -2.822  -0.029  1.00  0.00     0.199 A 
HETATM   13  C16 UNL     1      -0.808  -2.177   0.072  1.00  0.00     0.158 A 
HETATM   14  C17 UNL     1      -1.703  -1.505  -0.859  1.00  0.00     0.148 C 
HETATM   15  C18 UNL     1      -2.832  -0.747  -0.230  1.00  0.00     0.181 C 
ENDROOT
BRANCH   6  16
HETATM   16  C7  UNL     1       2.970  -0.234   0.309  1.00  0.00     0.127 C 
BRANCH  16  17
HETATM   17  C8  UNL     1       4.185   0.247  -0.414  1.00  0.00     0.003 A 
HETATM   18  C9  UNL     1       5.485  -0.471  -0.240  1.00  0.00     0.007 A 
HETATM   19  C10 UNL     1       4.761  -0.537  -1.512  1.00  0.00     0.007 A 
ENDBRANCH  16  17
ENDBRANCH   6  16
BRANCH  12  20
HETATM   20  O2  UNL     1       1.121  -3.245   1.120  1.00  0.00    -0.389 OA
ATOM     21  H2  UNL     1       1.077  -4.150   1.406  1.00  0.00     0.210 HD
ENDBRANCH  12  20
BRANCH  13  22
HETATM   22  O3  UNL     1      -1.159  -1.890   1.418  1.00  0.00    -0.380 OA
ATOM     23  H3  UNL     1      -1.958  -2.298   1.731  1.00  0.00     0.211 HD
ENDBRANCH  13  22
BRANCH   1  24
HETATM   24  N1  UNL     1      -3.742   1.238   0.628  1.00  0.00    -0.418 N 
HETATM   25  C1  UNL     1      -4.443   1.770  -0.443  1.00  0.00     0.140 C 
ATOM     26  H1  UNL     1      -4.107   1.341   1.575  1.00  0.00     0.153 HD
ENDBRANCH   1  24
BRANCH  14  27
HETATM   27  O4  UNL     1      -2.271  -2.449  -1.730  1.00  0.00    -0.381 OA
ATOM     28  H4  UNL     1      -2.771  -3.052  -1.193  1.00  0.00     0.211 HD
ENDBRANCH  14  27
BRANCH  15  29
HETATM   29  O5  UNL     1      -3.925  -0.671  -1.093  1.00  0.00    -0.390 OA
ATOM     30  H5  UNL     1      -4.134  -1.501  -1.505  1.00  0.00     0.210 HD
ENDBRANCH  15  29
TORSDOF 7
