REMARK  6 active torsions:
REMARK  status: ('A' for Active; 'I' for Inactive)
REMARK    1  A    between atoms: C2_2  and  C3_3 
REMARK    2  A    between atoms: C3_3  and  C4_5 
REMARK    3  A    between atoms: C4_5  and  N1_6 
REMARK    4  A    between atoms: C8_10  and  N2_11 
REMARK    5  A    between atoms: N2_11  and  C9_13 
REMARK    6  A    between atoms: C11_15  and  C12_16 
ROOT
HETATM    1  N2  UNL     1      -0.688   0.249   0.841  1.00  0.00    -0.371 N 
ATOM      2  H2  UNL     1      -0.542   1.183   1.225  1.00  0.00     0.161 HD
ENDROOT
BRANCH   1   3
HETATM    3  C8  UNL     1       0.461  -0.607   0.700  1.00  0.00     0.084 C 
HETATM    4  C7  UNL     1       0.637  -1.095  -0.720  1.00  0.00     0.027 C 
HETATM    5  C6  UNL     1       1.400  -2.415  -0.644  1.00  0.00     0.032 C 
HETATM    6  C5  UNL     1       2.886  -2.180  -0.785  1.00  0.00     0.273 C 
HETATM    7  N1  UNL     1       3.167  -0.749  -0.581  1.00  0.00     0.095 N 
HETATM    8  C17 UNL     1       2.958  -0.509   0.815  1.00  0.00     0.275 C 
HETATM    9  C16 UNL     1       1.682   0.239   1.012  1.00  0.00     0.055 C 
BRANCH   7  10
HETATM   10  C4  UNL     1       4.484  -0.446  -1.003  1.00  0.00     0.350 C 
BRANCH  10  11
HETATM   11  C3  UNL     1       4.859   0.968  -0.846  1.00  0.00     0.154 C 
HETATM   12  O1  UNL     1       4.210   1.843  -0.312  1.00  0.00    -0.296 OA
BRANCH  11  13
HETATM   13  C2  UNL     1       6.194   1.430  -1.396  1.00  0.00     0.076 C 
HETATM   14  C1  UNL     1       7.094   1.614  -0.187  1.00  0.00     0.013 C 
ENDBRANCH  11  13
ENDBRANCH  10  11
ENDBRANCH   7  10
ENDBRANCH   1   3
BRANCH   1  15
HETATM   15  C9  UNL     1      -2.016  -0.123   0.479  1.00  0.00     0.117 A 
HETATM   16  C10 UNL     1      -3.117   0.706   0.573  1.00  0.00     0.076 A 
HETATM   17  C11 UNL     1      -4.255   0.031   0.133  1.00  0.00     0.037 A 
HETATM   18  N3  UNL     1      -3.802  -1.194  -0.212  1.00  0.00    -0.302 N 
HETATM   19  N4  UNL     1      -2.494  -1.282  -0.008  1.00  0.00    -0.286 N 
ATOM     20  H3  UNL     1      -4.385  -1.947  -0.578  1.00  0.00     0.186 HD
ATOM     21  H4  UNL     1      -1.930  -2.112  -0.194  1.00  0.00     0.188 HD
BRANCH  17  22
HETATM   22  C12 UNL     1      -5.646   0.555   0.042  1.00  0.00    -0.007 C 
HETATM   23  C13 UNL     1      -5.554   2.077  -0.053  1.00  0.00     0.021 C 
HETATM   24  C14 UNL     1      -6.324   0.010  -1.199  1.00  0.00     0.021 C 
HETATM   25  C15 UNL     1      -6.433   0.242   1.290  1.00  0.00     0.021 C 
ENDBRANCH  17  22
ENDBRANCH   1  15
TORSDOF 6
