REMARK  9 active torsions:
REMARK  status: ('A' for Active; 'I' for Inactive)
REMARK    1  A    between atoms: N1_2  and  C3_4 
REMARK    2  A    between atoms: C3_4  and  C4_5 
REMARK    3  A    between atoms: N2_15  and  O1_17 
REMARK    4  A    between atoms: O1_17  and  C14_18 
REMARK    5  A    between atoms: C14_18  and  C15_19 
REMARK    6  A    between atoms: C15_19  and  C16_20 
REMARK    7  A    between atoms: C16_20  and  C17_21 
REMARK    8  A    between atoms: C17_21  and  C18_22 
REMARK    9  A    between atoms: C20_25  and  O2_26 
ROOT
HETATM    1  C4  UNL     1      -3.842  -0.111  -1.072  1.00  0.00     0.015 C 
HETATM    2  C5  UNL     1      -2.440   0.416  -1.168  1.00  0.00     0.007 C 
HETATM    3  C6  UNL     1      -1.327  -0.532  -0.983  1.00  0.00     0.015 C 
HETATM    4  C7  UNL     1      -0.181  -0.016  -0.108  1.00  0.00    -0.005 C 
HETATM    5  C8  UNL     1       0.287   1.189  -0.922  1.00  0.00     0.021 C 
HETATM    6  C9  UNL     1      -0.672   0.556   1.203  1.00  0.00    -0.041 C 
HETATM    7  C10 UNL     1       0.370   0.963   2.153  1.00  0.00    -0.000 C 
HETATM    8  C11 UNL     1       1.765   0.665   2.113  1.00  0.00     0.042 C 
HETATM    9  C12 UNL     1       2.494   1.462   3.225  1.00  0.00     0.029 C 
HETATM   10  C13 UNL     1       2.540   0.632   0.865  1.00  0.00     0.032 C 
HETATM   11  N2  UNL     1       3.267   1.482   0.254  1.00  0.00    -0.273 N 
ATOM     12  H2  UNL     1       3.359   2.399   0.690  1.00  0.00     0.193 HD
HETATM   13  C19 UNL     1       2.104  -0.756   0.757  1.00  0.00     0.077 C 
HETATM   14  C20 UNL     1       2.193  -0.785   2.237  1.00  0.00     0.146 C 
HETATM   15  C21 UNL     1       0.862  -1.084   0.056  1.00  0.00    -0.004 C 
HETATM   16  C22 UNL     1       1.401  -1.407  -1.370  1.00  0.00     0.021 C 
HETATM   17  C23 UNL     1       0.320  -2.379   0.557  1.00  0.00    -0.015 C 
HETATM   18  C24 UNL     1      -0.822  -2.553   1.388  1.00  0.00     0.005 C 
HETATM   19  C25 UNL     1      -1.775  -1.549   1.835  1.00  0.00    -0.048 C 
HETATM   20  C26 UNL     1      -1.850  -0.172   1.827  1.00  0.00    -0.023 C 
HETATM   21  C27 UNL     1      -3.009   0.501   2.394  1.00  0.00     0.009 C 
HETATM   22  C28 UNL     1      -4.268   0.052   2.076  1.00  0.00    -0.017 C 
HETATM   23  C29 UNL     1      -4.618  -1.082   1.199  1.00  0.00    -0.026 C 
HETATM   24  C30 UNL     1      -6.165  -1.153   1.272  1.00  0.00     0.019 C 
HETATM   25  C31 UNL     1      -4.183  -2.405   1.869  1.00  0.00     0.018 C 
HETATM   26  C32 UNL     1      -2.825  -2.522   2.359  1.00  0.00     0.040 C 
HETATM   27  C33 UNL     1      -4.171  -1.191  -0.170  1.00  0.00     0.019 C 
ENDROOT
BRANCH  11  28
HETATM   28  O1  UNL     1       3.936   1.297  -0.921  1.00  0.00    -0.281 OA
BRANCH  28  29
HETATM   29  C14 UNL     1       5.248   0.685  -0.933  1.00  0.00     0.201 C 
BRANCH  29  30
HETATM   30  C15 UNL     1       5.709   0.623  -2.346  1.00  0.00     0.029 C 
BRANCH  30  31
HETATM   31  C16 UNL     1       7.013  -0.002  -2.585  1.00  0.00     0.003 C 
BRANCH  31  32
HETATM   32  C17 UNL     1       8.226   0.646  -2.108  1.00  0.00     0.011 C 
BRANCH  32  33
HETATM   33  C18 UNL     1       8.390   0.913  -0.661  1.00  0.00     0.086 C 
HETATM   34  S1  UNL     1      10.116   1.589  -0.486  1.00  0.00    -0.098 SA
ENDBRANCH  32  33
ENDBRANCH  31  32
ENDBRANCH  30  31
ENDBRANCH  29  30
ENDBRANCH  28  29
ENDBRANCH  11  28
BRANCH  14  35
HETATM   35  O2  UNL     1       1.595  -1.603   3.073  1.00  0.00    -0.393 OA
ATOM     36  H2  UNL     1       1.863  -2.511   3.151  1.00  0.00     0.210 HD
ENDBRANCH  14  35
BRANCH   1  37
HETATM   37  C3  UNL     1      -4.767   1.100  -0.974  1.00  0.00     0.275 C 
BRANCH  37  38
HETATM   38  N1  UNL     1      -4.659   1.968  -2.120  1.00  0.00     0.080 N 
HETATM   39  C1  UNL     1      -5.169   1.409  -3.344  1.00  0.00     0.309 C 
HETATM   40  C2  UNL     1      -5.282   3.254  -1.893  1.00  0.00     0.309 C 
ENDBRANCH  37  38
ENDBRANCH   1  37
TORSDOF 9
