REMARK  1 active torsions:
REMARK  status: ('A' for Active; 'I' for Inactive)
REMARK    1  A    between atoms: C3_3  and  N1_4 
ROOT
HETATM    1  C1  UNL     1       3.511  -0.289   1.226  1.00  0.00     0.013 C 
HETATM    2  C2  UNL     1       2.924  -0.375   0.178  1.00  0.00    -0.087 C 
HETATM    3  C3  UNL     1       2.231  -0.495  -1.099  1.00  0.00     0.365 C 
ENDROOT
BRANCH   3   4
HETATM    4  N1  UNL     1       0.829  -0.181  -0.902  1.00  0.00     0.103 N 
HETATM    5  C4  UNL     1       0.241  -1.215  -0.107  1.00  0.00     0.274 C 
HETATM    6  C5  UNL     1      -1.236  -1.391  -0.372  1.00  0.00     0.032 C 
HETATM    7  C6  UNL     1      -2.075  -0.858   0.761  1.00  0.00     0.021 C 
HETATM    8  C7  UNL     1      -1.654   0.558   1.165  1.00  0.00     0.119 C 
HETATM    9  N2  UNL     1      -1.775   1.386   0.053  1.00  0.00    -0.400 N 
HETATM   10  C8  UNL     1      -0.699   1.723  -0.749  1.00  0.00     0.085 C 
ATOM     11  H2  UNL     1      -2.695   1.760  -0.180  1.00  0.00     0.158 HD
HETATM   12  C9  UNL     1       0.631   1.155  -0.386  1.00  0.00     0.317 C 
ENDBRANCH   3   4
TORSDOF 1
