REMARK  12 active torsions:
REMARK  status: ('A' for Active; 'I' for Inactive)
REMARK    1  A    between atoms: C2_2  and  O1_3 
REMARK    2  A    between atoms: C2_2  and  C3_5 
REMARK    3  A    between atoms: C7_11  and  C8_12 
REMARK    4  A    between atoms: C8_12  and  O4_13 
REMARK    5  A    between atoms: C13_20  and  O5_21 
REMARK    6  A    between atoms: O5_21  and  C14_22 
REMARK    7  A    between atoms: C14_22  and  C15_23 
REMARK    8  A    between atoms: C15_23  and  C16_24 
REMARK    9  A    between atoms: C16_24  and  O6_25 
REMARK   10  A    between atoms: O6_25  and  C17_26 
REMARK   11  A    between atoms: C17_26  and  C18_27 
REMARK   12  A    between atoms: C26_35  and  O7_36 
ROOT
HETATM    1  C3  UNL     1      -4.242  -1.078  -0.681  1.00  0.00     0.111 C 
HETATM    2  C4  UNL     1      -4.439  -2.164  -1.718  1.00  0.00     0.051 C 
HETATM    3  O2  UNL     1      -2.887  -1.232  -0.262  1.00  0.00    -0.364 OA
HETATM    4  C5  UNL     1      -2.458  -0.236   0.589  1.00  0.00     0.188 C 
HETATM    5  C6  UNL     1      -2.818   1.162   0.160  1.00  0.00     0.188 C 
HETATM    6  O3  UNL     1      -4.134   1.204  -0.198  1.00  0.00    -0.368 OA
HETATM    7  C7  UNL     1      -4.309   0.287  -1.227  1.00  0.00     0.182 C 
HETATM    8  C9  UNL     1      -2.566   1.997   1.423  1.00  0.00    -0.011 A 
HETATM    9  C10 UNL     1      -3.432   2.821   2.038  1.00  0.00     0.060 A 
HETATM   10  S1  UNL     1      -2.537   3.388   3.391  1.00  0.00    -0.112 SA
HETATM   11  C11 UNL     1      -1.071   2.532   3.104  1.00  0.00     0.060 A 
HETATM   12  C12 UNL     1      -1.323   1.837   1.973  1.00  0.00    -0.011 A 
HETATM   13  C13 UNL     1      -0.340   0.916   1.213  1.00  0.00     0.187 C 
HETATM   14  C26 UNL     1      -0.974  -0.335   0.727  1.00  0.00     0.183 C 
ENDROOT
BRANCH  13  15
HETATM   15  O5  UNL     1       0.281   1.652   0.259  1.00  0.00    -0.377 OA
BRANCH  15  16
HETATM   16  C14 UNL     1       1.533   2.039   0.250  1.00  0.00     0.188 C 
BRANCH  16  17
HETATM   17  C15 UNL     1       2.681   1.063   0.167  1.00  0.00     0.038 A 
HETATM   18  C24 UNL     1       2.484  -0.321  -0.166  1.00  0.00    -0.012 A 
HETATM   19  C25 UNL     1       2.687  -0.092   1.133  1.00  0.00    -0.012 A 
BRANCH  17  20
HETATM   20  C16 UNL     1       4.036   1.748   0.160  1.00  0.00     0.187 C 
BRANCH  20  21
HETATM   21  O6  UNL     1       5.114   0.990   0.078  1.00  0.00    -0.385 OA
BRANCH  21  22
HETATM   22  C17 UNL     1       5.440   0.234  -0.982  1.00  0.00     0.206 C 
BRANCH  22  23
HETATM   23  C18 UNL     1       6.736  -0.503  -0.797  1.00  0.00    -0.035 A 
HETATM   24  C19 UNL     1       7.501  -0.413   0.331  1.00  0.00     0.009 A 
HETATM   25  C20 UNL     1       8.685  -1.107   0.462  1.00  0.00     0.001 A 
HETATM   26  C21 UNL     1       9.124  -1.908  -0.547  1.00  0.00     0.000 A 
HETATM   27  C22 UNL     1       8.367  -2.013  -1.692  1.00  0.00     0.001 A 
HETATM   28  C23 UNL     1       7.186  -1.316  -1.813  1.00  0.00     0.009 A 
ENDBRANCH  22  23
ENDBRANCH  21  22
ENDBRANCH  20  21
ENDBRANCH  17  20
ENDBRANCH  16  17
ENDBRANCH  15  16
ENDBRANCH  13  15
BRANCH  14  29
HETATM   29  O7  UNL     1      -0.630  -1.383   1.617  1.00  0.00    -0.390 OA
ATOM     30  H7  UNL     1       0.314  -1.446   1.705  1.00  0.00     0.210 HD
ENDBRANCH  14  29
BRANCH   1  31
HETATM   31  C2  UNL     1      -5.045  -1.394   0.534  1.00  0.00     0.151 C 
HETATM   32  C1  UNL     1      -6.536  -1.533   0.308  1.00  0.00     0.042 C 
BRANCH  31  33
HETATM   33  O1  UNL     1      -4.656  -2.704   0.952  1.00  0.00    -0.393 OA
ATOM     34  H1  UNL     1      -3.721  -2.617   1.094  1.00  0.00     0.210 HD
ENDBRANCH  31  33
ENDBRANCH   1  31
BRANCH   7  35
HETATM   35  C8  UNL     1      -5.373   0.682  -2.158  1.00  0.00     0.199 C 
BRANCH  35  36
HETATM   36  O4  UNL     1      -6.638   0.879  -1.637  1.00  0.00    -0.398 OA
ATOM     37  H4  UNL     1      -7.327   1.135  -2.240  1.00  0.00     0.209 HD
ENDBRANCH  35  36
ENDBRANCH   7  35
TORSDOF 12
