REMARK  1 active torsions:
REMARK  status: ('A' for Active; 'I' for Inactive)
REMARK       I    between atoms: C2_2  and  N1_4 
REMARK    1  A    between atoms: N1_4  and  C3_6 
ROOT
HETATM    1  C3  UNL     1      -0.894  -0.327  -0.139  1.00  0.00     0.114 C 
HETATM    2  C4  UNL     1      -0.967   0.526  -1.374  1.00  0.00     0.055 C 
HETATM    3  C5  UNL     1      -1.564   0.457   0.989  1.00  0.00     0.055 C 
HETATM    4  C6  UNL     1      -1.623  -1.559  -0.409  1.00  0.00     0.090 C 
HETATM    5  N2  UNL     1      -2.218  -2.544  -0.630  1.00  0.00    -0.195 NA
ENDROOT
BRANCH   1   6
HETATM    6  N1  UNL     1       0.439  -0.617   0.283  1.00  0.00    -0.340 N 
HETATM    7  C2  UNL     1       1.384   0.390   0.643  1.00  0.00     0.214 C 
HETATM    8  C1  UNL     1       2.752  -0.001   1.070  1.00  0.00     0.117 C 
HETATM    9  O1  UNL     1       1.111   1.603   0.614  1.00  0.00    -0.274 OA
ATOM     10  H1  UNL     1       0.731  -1.593   0.329  1.00  0.00     0.164 HD
ENDBRANCH   1   6
TORSDOF 1
