REMARK  5 active torsions:
REMARK  status: ('A' for Active; 'I' for Inactive)
REMARK    1  A    between atoms: O1_2  and  C2_3 
REMARK    2  A    between atoms: C5_10  and  N3_11 
REMARK    3  A    between atoms: C5_10  and  N4_15 
REMARK    4  A    between atoms: N4_15  and  C7_18 
REMARK    5  A    between atoms: C8_21  and  O2_22 
ROOT
HETATM    1  C2  UNL     1       1.681   0.122  -0.134  1.00  0.00     0.200 C 
HETATM    2  C3  UNL     1       1.186   1.250  -1.025  1.00  0.00     0.328 C 
HETATM    3  C4  UNL     1       1.386   0.899  -2.425  1.00  0.00     0.095 C 
HETATM    4  N1  UNL     1       1.556   0.626  -3.540  1.00  0.00    -0.195 NA
HETATM    5  N2  UNL     1      -0.205   1.350  -0.664  1.00  0.00     0.001 N 
ATOM      6  H21 UNL     1      -0.745   1.930  -1.306  1.00  0.00     0.284 HD
ATOM      7  H22 UNL     1      -0.362   1.906   0.177  1.00  0.00     0.284 HD
HETATM    8  C5  UNL     1      -0.715  -0.012  -0.554  1.00  0.00     0.405 C 
HETATM    9  C8  UNL     1       0.505  -0.806  -0.134  1.00  0.00     0.237 C 
ENDROOT
BRANCH   1  10
HETATM   10  O1  UNL     1       1.997   0.524   1.133  1.00  0.00    -0.385 OA
HETATM   11  C1  UNL     1       3.316   0.261   1.489  1.00  0.00     0.202 C 
ENDBRANCH   1  10
BRANCH   9  12
HETATM   12  O2  UNL     1       0.287  -1.302   1.138  1.00  0.00    -0.387 OA
ATOM     13  H2  UNL     1      -0.459  -1.890   1.138  1.00  0.00     0.210 HD
ENDBRANCH   9  12
BRANCH   8  14
HETATM   14  N3  UNL     1      -1.168  -0.466  -1.788  1.00  0.00    -0.022 N 
ATOM     15  H33 UNL     1      -1.859   0.165  -2.193  1.00  0.00     0.279 HD
ATOM     16  H32 UNL     1      -0.449  -0.388  -2.507  1.00  0.00     0.279 HD
ATOM     17  H31 UNL     1      -1.525  -1.419  -1.711  1.00  0.00     0.279 HD
ENDBRANCH   8  14
BRANCH   8  18
HETATM   18  N4  UNL     1      -1.757  -0.041   0.435  1.00  0.00    -0.201 N 
HETATM   19  C6  UNL     1      -1.430   0.499   1.687  1.00  0.00     0.190 C 
HETATM   20  N5  UNL     1      -1.174   0.946   2.742  1.00  0.00    -0.171 NA
BRANCH  18  21
HETATM   21  C7  UNL     1      -3.039  -0.568   0.217  1.00  0.00     0.200 C 
HETATM   22  N6  UNL     1      -3.970  -0.523   1.308  1.00  0.00    -0.069 NA
HETATM   23  S1  UNL     1      -3.576  -1.237  -1.172  1.00  0.00    -0.043 SA
ENDBRANCH  18  21
ENDBRANCH   8  18
TORSDOF 5
