REMARK  8 active torsions:
REMARK  status: ('A' for Active; 'I' for Inactive)
REMARK    1  A    between atoms: C2_2  and  C3_3 
REMARK    2  A    between atoms: C3_3  and  C4_4 
REMARK    3  A    between atoms: C4_4  and  N1_5 
REMARK    4  A    between atoms: N1_5  and  C5_7 
REMARK    5  A    between atoms: C6_10  and  N3_11 
REMARK    6  A    between atoms: N3_11  and  C7_13 
REMARK    7  A    between atoms: C7_13  and  C8_14 
REMARK    8  A    between atoms: N6_24  and  C13_25 
ROOT
HETATM    1  C5  UNL     1       1.733   0.788  -0.247  1.00  0.00     0.151 A 
HETATM    2  N2  UNL     1       1.090   1.999  -0.163  1.00  0.00    -0.174 N 
ATOM      3  H2  UNL     1       1.654   2.845  -0.077  1.00  0.00     0.186 HD
HETATM    4  C6  UNL     1      -0.247   2.120  -0.189  1.00  0.00     0.681 A 
HETATM    5  N4  UNL     1      -1.022   1.025  -0.302  1.00  0.00    -0.174 N 
ATOM      6  H4  UNL     1      -2.036   1.132  -0.320  1.00  0.00     0.186 HD
HETATM    7  C10 UNL     1      -0.487  -0.214  -0.392  1.00  0.00     0.160 A 
HETATM    8  C11 UNL     1       0.890  -0.296  -0.361  1.00  0.00     0.126 A 
HETATM    9  N5  UNL     1       1.186  -1.598  -0.463  1.00  0.00    -0.302 N 
ATOM     10  H5  UNL     1       2.122  -2.003  -0.472  1.00  0.00     0.171 HD
HETATM   11  C12 UNL     1       0.020  -2.279  -0.552  1.00  0.00     0.331 A 
HETATM   12  O1  UNL     1      -0.029  -3.508  -0.657  1.00  0.00    -0.246 OA
HETATM   13  N6  UNL     1      -1.016  -1.458  -0.511  1.00  0.00    -0.255 N 
ENDROOT
BRANCH   1  14
HETATM   14  N1  UNL     1       2.977   0.810  -0.212  1.00  0.00    -0.354 N 
ATOM     15  H1  UNL     1       3.304   1.772  -0.123  1.00  0.00     0.166 HD
BRANCH  14  16
HETATM   16  C4  UNL     1       4.056  -0.049  -0.255  1.00  0.00     0.062 C 
BRANCH  16  17
HETATM   17  C3  UNL     1       4.466  -0.672   1.063  1.00  0.00     0.044 C 
BRANCH  17  18
HETATM   18  C2  UNL     1       5.669  -1.570   0.745  1.00  0.00     0.001 C 
HETATM   19  C1  UNL     1       6.805  -0.753   0.160  1.00  0.00     0.005 C 
ENDBRANCH  17  18
ENDBRANCH  16  17
ENDBRANCH  14  16
ENDBRANCH   1  14
BRANCH   4  20
HETATM   20  N3  UNL     1      -0.724   3.313  -0.102  1.00  0.00    -0.226 N 
ATOM     21  H3  UNL     1      -0.050   4.074  -0.020  1.00  0.00     0.177 HD
BRANCH  20  22
HETATM   22  C7  UNL     1      -2.095   3.671  -0.109  1.00  0.00     0.137 C 
BRANCH  22  23
HETATM   23  C8  UNL     1      -2.191   5.130  -0.576  1.00  0.00     0.016 C 
HETATM   24  C9  UNL     1      -3.620   5.591  -0.613  1.00  0.00     0.006 C 
ENDBRANCH  22  23
ENDBRANCH  20  22
ENDBRANCH   4  20
BRANCH  13  25
HETATM   25  C13 UNL     1      -2.420  -1.673  -0.570  1.00  0.00     0.234 C 
HETATM   26  C14 UNL     1      -2.874  -3.038  -0.873  1.00  0.00     0.054 C 
HETATM   27  C15 UNL     1      -3.178  -3.924   0.311  1.00  0.00     0.006 C 
HETATM   28  C16 UNL     1      -4.068  -3.087   1.243  1.00  0.00     0.026 C 
HETATM   29  C17 UNL     1      -3.176  -1.896   1.623  1.00  0.00     0.170 C 
HETATM   30  O2  UNL     1      -2.992  -1.082   0.547  1.00  0.00    -0.366 OA
ENDBRANCH  13  25
TORSDOF 8
