REMARK  12 active torsions:
REMARK  status: ('A' for Active; 'I' for Inactive)
REMARK    1  A    between atoms: C2_2  and  C3_3 
REMARK    2  A    between atoms: C3_3  and  C5_5 
REMARK    3  A    between atoms: C5_5  and  N1_6 
REMARK    4  A    between atoms: C5_5  and  C21_30 
REMARK       I    between atoms: N1_6  and  C6_8 
REMARK    5  A    between atoms: C6_8  and  C7_10 
REMARK    6  A    between atoms: C7_10  and  N2_11 
REMARK    7  A    between atoms: C7_10  and  C15_23 
REMARK       I    between atoms: N2_11  and  C8_13 
REMARK       I    between atoms: C8_13  and  N3_15 
REMARK    8  A    between atoms: N3_15  and  C9_17 
REMARK    9  A    between atoms: C21_30  and  O3_31 
REMARK   10  A    between atoms: C21_30  and  N5_33 
REMARK   11  A    between atoms: C27_39  and  C28_40 
REMARK   12  A    between atoms: C29_43  and  O5_44 
ROOT
HETATM    1  N1  UNL     1      -0.807   0.434  -0.842  1.00  0.00    -0.347 N 
ATOM      2  H1  UNL     1      -0.726   0.391  -1.858  1.00  0.00     0.163 HD
HETATM    3  C6  UNL     1       0.272  -0.006  -0.042  1.00  0.00     0.241 C 
HETATM    4  O1  UNL     1       0.097   0.086   1.213  1.00  0.00    -0.271 OA
ENDROOT
BRANCH   1   5
HETATM    5  C5  UNL     1      -2.073   0.964  -0.226  1.00  0.00     0.163 C 
BRANCH   5   6
HETATM    6  C3  UNL     1      -1.987   2.471  -0.336  1.00  0.00     0.012 C 
HETATM    7  C4  UNL     1      -1.469   2.983  -1.637  1.00  0.00     0.012 C 
BRANCH   6   8
HETATM    8  C2  UNL     1      -3.113   3.276   0.166  1.00  0.00     0.002 C 
HETATM    9  C1  UNL     1      -4.305   3.341  -0.738  1.00  0.00     0.005 C 
ENDBRANCH   6   8
ENDBRANCH   5   6
BRANCH   5  10
HETATM   10  C21 UNL     1      -3.141   0.333  -1.001  1.00  0.00     0.139 C 
BRANCH  10  11
HETATM   11  O3  UNL     1      -2.987   0.370  -2.303  1.00  0.00    -0.348 OA
ATOM     12  H3  UNL     1      -3.681  -0.040  -2.806  1.00  0.00     0.219 HD
ENDBRANCH  10  11
BRANCH  10  13
HETATM   13  N5  UNL     1      -4.310  -0.313  -0.572  1.00  0.00    -0.331 N 
HETATM   14  C22 UNL     1      -5.310  -0.803  -1.563  1.00  0.00     0.128 C 
HETATM   15  C23 UNL     1      -6.558  -0.133  -0.969  1.00  0.00     0.029 C 
HETATM   16  C24 UNL     1      -6.370  -0.541   0.478  1.00  0.00     0.044 C 
HETATM   17  C25 UNL     1      -6.776   0.506   1.456  1.00  0.00     0.010 C 
HETATM   18  C29 UNL     1      -4.884  -0.764   0.658  1.00  0.00     0.150 C 
HETATM   19  C26 UNL     1      -5.875   0.235   2.632  1.00  0.00     0.019 C 
HETATM   20  C27 UNL     1      -4.546  -0.105   1.924  1.00  0.00     0.131 C 
BRANCH  20  21
HETATM   21  C28 UNL     1      -3.758  -0.995   2.843  1.00  0.00     0.240 C 
HETATM   22  N6  UNL     1      -4.186  -2.283   3.246  1.00  0.00    -0.062 NA
HETATM   23  O4  UNL     1      -2.671  -0.568   3.271  1.00  0.00    -0.276 OA
ENDBRANCH  20  21
BRANCH  18  24
HETATM   24  O5  UNL     1      -4.746  -2.176   0.745  1.00  0.00    -0.369 OA
ATOM     25  H5  UNL     1      -5.127  -2.476   1.562  1.00  0.00     0.212 HD
ENDBRANCH  18  24
ENDBRANCH  10  13
ENDBRANCH   5  10
ENDBRANCH   1   5
BRANCH   3  26
HETATM   26  C7  UNL     1       1.530  -0.538  -0.620  1.00  0.00     0.184 C 
BRANCH  26  27
HETATM   27  N2  UNL     1       2.633  -0.450   0.320  1.00  0.00    -0.329 N 
HETATM   28  C8  UNL     1       3.802   0.291   0.004  1.00  0.00     0.317 C 
HETATM   29  O2  UNL     1       3.939   0.901  -1.097  1.00  0.00    -0.247 OA
HETATM   30  N3  UNL     1       4.893   0.395   0.905  1.00  0.00    -0.339 N 
ATOM     31  H3  UNL     1       4.839  -0.075   1.809  1.00  0.00     0.164 HD
ATOM     32  H2  UNL     1       2.567  -0.927   1.219  1.00  0.00     0.165 HD
BRANCH  30  33
HETATM   33  C9  UNL     1       6.067   1.144   0.575  1.00  0.00     0.086 C 
HETATM   34  C10 UNL     1       7.233   0.169   0.571  1.00  0.00     0.025 C 
HETATM   35  C11 UNL     1       8.519   0.941   0.326  1.00  0.00     0.002 C 
HETATM   36  C12 UNL     1       8.708   2.033   1.322  1.00  0.00     0.000 C 
HETATM   37  C13 UNL     1       7.565   2.120   2.307  1.00  0.00     0.002 C 
HETATM   38  C14 UNL     1       6.254   2.257   1.557  1.00  0.00     0.025 C 
ENDBRANCH  30  33
ENDBRANCH  26  27
BRANCH  26  39
HETATM   39  C15 UNL     1       1.405  -2.008  -0.966  1.00  0.00     0.052 C 
HETATM   40  C16 UNL     1       0.311  -2.315  -1.957  1.00  0.00     0.280 C 
HETATM   41  N4  UNL     1       0.901  -3.405  -2.771  1.00  0.00     0.089 N 
HETATM   42  C17 UNL     1       1.247  -4.456  -1.812  1.00  0.00     0.273 C 
HETATM   43  C20 UNL     1       2.178  -2.723  -3.063  1.00  0.00     0.277 C 
HETATM   44  C18 UNL     1       2.618  -4.084  -1.258  1.00  0.00     0.037 C 
HETATM   45  C19 UNL     1       2.618  -2.593  -1.596  1.00  0.00     0.024 C 
ENDBRANCH  26  39
ENDBRANCH   3  26
TORSDOF 12
