REMARK  13 active torsions:
REMARK  status: ('A' for Active; 'I' for Inactive)
REMARK    1  A    between atoms: C2_2  and  C3_3 
REMARK    2  A    between atoms: C3_3  and  N1_4 
REMARK    3  A    between atoms: N1_4  and  C4_5 
REMARK    4  A    between atoms: C4_5  and  C5_6 
REMARK       I    between atoms: C5_6  and  N2_8 
REMARK    5  A    between atoms: N3_11  and  C8_12 
REMARK    6  A    between atoms: C8_12  and  N4_14 
REMARK    7  A    between atoms: C9_16  and  O2_17 
REMARK    8  A    between atoms: C9_16  and  N5_19 
REMARK    9  A    between atoms: N5_19  and  C10_21 
REMARK   10  A    between atoms: C10_21  and  C11_22 
REMARK   11  A    between atoms: C11_22  and  C12_23 
REMARK   12  A    between atoms: C12_23  and  N6_24 
REMARK   13  A    between atoms: N6_24  and  C13_26 
ROOT
HETATM    1  C8  UNL     1       1.557  -0.572  -1.343  1.00  0.00     0.177 C 
HETATM    2  S1  UNL     1       2.065  -1.943  -2.031  1.00  0.00    -0.041 SA
ENDROOT
BRANCH   1   3
HETATM    3  N3  UNL     1       0.370  -0.443  -0.642  1.00  0.00    -0.350 N 
HETATM    4  C7  UNL     1       0.071   0.921  -0.085  1.00  0.00     0.145 C 
HETATM    5  C6  UNL     1      -1.152   1.363  -0.858  1.00  0.00     0.146 C 
HETATM    6  N2  UNL     1      -2.251   0.431  -0.714  1.00  0.00    -0.344 N 
HETATM    7  C5  UNL     1      -3.553   0.827  -0.321  1.00  0.00     0.267 C 
HETATM    8  C18 UNL     1      -1.980  -0.971  -0.990  1.00  0.00     0.151 C 
HETATM    9  O1  UNL     1      -3.727   2.042  -0.094  1.00  0.00    -0.267 OA
HETATM   10  C16 UNL     1      -0.658  -1.389  -0.344  1.00  0.00     0.100 C 
HETATM   11  C17 UNL     1      -0.388  -2.804  -0.738  1.00  0.00     0.034 C 
BRANCH   7  12
HETATM   12  C4  UNL     1      -4.600  -0.152  -0.200  1.00  0.00     0.288 C 
BRANCH  12  13
HETATM   13  N1  UNL     1      -5.909   0.286   0.201  1.00  0.00     0.041 N 
HETATM   14  C19 UNL     1      -6.670  -0.932   0.446  1.00  0.00     0.275 C 
HETATM   15  C20 UNL     1      -7.661  -1.083  -0.680  1.00  0.00     0.153 C 
HETATM   16  N9  UNL     1      -7.329  -0.060  -1.637  1.00  0.00    -0.335 N 
HETATM   17  C21 UNL     1      -6.509   0.876  -0.955  1.00  0.00     0.419 C 
ATOM     18  H9  UNL     1      -7.625  -0.017  -2.612  1.00  0.00     0.164 HD
HETATM   19  O3  UNL     1      -6.318   2.065  -1.300  1.00  0.00    -0.239 OA
BRANCH  13  20
HETATM   20  C3  UNL     1      -5.906   1.228   1.255  1.00  0.00     0.255 C 
BRANCH  20  21
HETATM   21  C2  UNL     1      -7.004   1.160   2.246  1.00  0.00     0.024 C 
HETATM   22  C1  UNL     1      -8.391   1.339   1.700  1.00  0.00     0.007 C 
ENDBRANCH  20  21
ENDBRANCH  13  20
ENDBRANCH  12  13
ENDBRANCH   7  12
ENDBRANCH   1   3
BRANCH   1  23
HETATM   23  N4  UNL     1       2.430   0.565  -1.503  1.00  0.00    -0.299 N 
HETATM   24  C9  UNL     1       3.565   0.660  -0.934  1.00  0.00     0.219 C 
ATOM     25  H4  UNL     1       2.123   1.331  -2.102  1.00  0.00     0.171 HD
BRANCH  24  26
HETATM   26  O2  UNL     1       4.324   1.818  -1.167  1.00  0.00    -0.332 OA
ATOM     27  H2  UNL     1       5.171   1.889  -0.742  1.00  0.00     0.220 HD
ENDBRANCH  24  26
BRANCH  24  28
HETATM   28  N5  UNL     1       4.141  -0.305  -0.076  1.00  0.00    -0.356 N 
ATOM     29  H5  UNL     1       3.694  -0.467   0.826  1.00  0.00     0.163 HD
BRANCH  28  30
HETATM   30  C10 UNL     1       5.309  -1.070  -0.389  1.00  0.00     0.125 C 
BRANCH  30  31
HETATM   31  C11 UNL     1       6.575  -0.259  -0.450  1.00  0.00     0.040 C 
BRANCH  31  32
HETATM   32  C12 UNL     1       6.842   0.411   0.892  1.00  0.00     0.139 C 
BRANCH  32  33
HETATM   33  N6  UNL     1       8.048   1.194   0.862  1.00  0.00    -0.226 N 
ATOM     34  H6  UNL     1       7.970   2.208   0.781  1.00  0.00     0.177 HD
BRANCH  33  35
HETATM   35  C13 UNL     1       9.232   0.666   0.933  1.00  0.00     0.677 A 
HETATM   36  N7  UNL     1      10.357   1.407   0.904  1.00  0.00    -0.201 N 
HETATM   37  C14 UNL     1      11.407   0.557   0.996  1.00  0.00     0.123 A 
ATOM     38  H7  UNL     1      10.408   2.423   0.827  1.00  0.00     0.183 HD
HETATM   39  C15 UNL     1      10.925  -0.731   1.083  1.00  0.00     0.123 A 
HETATM   40  N8  UNL     1       9.571  -0.617   1.040  1.00  0.00    -0.201 N 
ATOM     41  H8  UNL     1       8.914  -1.396   1.083  1.00  0.00     0.183 HD
ENDBRANCH  33  35
ENDBRANCH  32  33
ENDBRANCH  31  32
ENDBRANCH  30  31
ENDBRANCH  28  30
ENDBRANCH  24  28
ENDBRANCH   1  23
TORSDOF 13
