REMARK  9 active torsions:
REMARK  status: ('A' for Active; 'I' for Inactive)
REMARK    1  A    between atoms: C4_8  and  C5_9 
REMARK    2  A    between atoms: C5_9  and  N3_10 
REMARK    3  A    between atoms: N6_20  and  C8_22 
REMARK    4  A    between atoms: C8_22  and  C9_23 
REMARK    5  A    between atoms: C9_23  and  O3_24 
REMARK    6  A    between atoms: C9_23  and  C10_26 
REMARK    7  A    between atoms: C10_26  and  O4_27 
REMARK    8  A    between atoms: C10_26  and  C11_29 
REMARK    9  A    between atoms: C11_29  and  N7_30 
ROOT
HETATM    1  C1  UNL     1      -5.982  -2.519   0.879  1.00  0.00     0.164 C 
HETATM    2  N1  UNL     1      -5.094  -1.413   0.586  1.00  0.00    -0.270 N 
HETATM    3  C2  UNL     1      -5.647  -0.229   0.324  1.00  0.00     0.329 A 
HETATM    4  O1  UNL     1      -6.899  -0.083   0.333  1.00  0.00    -0.246 OA
HETATM    5  N2  UNL     1      -4.900   0.847   0.043  1.00  0.00    -0.307 N 
ATOM      6  H2  UNL     1      -5.350   1.741  -0.154  1.00  0.00     0.170 HD
HETATM    7  C3  UNL     1      -3.572   0.753   0.020  1.00  0.00     0.068 A 
HETATM    8  C4  UNL     1      -2.796   1.855  -0.268  1.00  0.00     0.065 A 
HETATM    9  C6  UNL     1      -1.444   1.699  -0.277  1.00  0.00     0.277 A 
HETATM   10  O2  UNL     1      -0.711   2.693  -0.538  1.00  0.00    -0.266 OA
HETATM   11  N4  UNL     1      -0.839   0.534  -0.021  1.00  0.00    -0.212 N 
HETATM   12  N5  UNL     1       0.472   0.434  -0.043  1.00  0.00    -0.255 N 
ATOM     13  H5  UNL     1       1.039   1.254  -0.258  1.00  0.00     0.191 HD
HETATM   14  C7  UNL     1       1.068  -0.737   0.215  1.00  0.00     0.241 A 
HETATM   15  N6  UNL     1       2.354  -0.777   0.181  1.00  0.00    -0.352 N 
ATOM     16  H6  UNL     1       2.831  -1.658   0.373  1.00  0.00     0.163 HD
HETATM   17  O5  UNL     1       0.380  -1.805   0.492  1.00  0.00    -0.259 OA
HETATM   18  C12 UNL     1      -0.966  -1.770   0.529  1.00  0.00     0.175 A 
HETATM   19  N8  UNL     1      -1.487  -2.872   0.808  1.00  0.00    -0.378 N 
ATOM     20  H81 UNL     1      -2.506  -2.845   0.836  1.00  0.00     0.158 HD
ATOM     21  H82 UNL     1      -1.028  -3.762   1.003  1.00  0.00     0.158 HD
HETATM   22  C13 UNL     1      -1.571  -0.597   0.272  1.00  0.00     0.129 A 
HETATM   23  C14 UNL     1      -2.965  -0.495   0.295  1.00  0.00     0.093 A 
HETATM   24  C15 UNL     1      -3.727  -1.574   0.577  1.00  0.00     0.266 A 
HETATM   25  O6  UNL     1      -3.360  -2.689   0.830  1.00  0.00    -0.267 OA
ENDROOT
BRANCH  15  26
HETATM   26  C8  UNL     1       3.136   0.399  -0.123  1.00  0.00     0.157 C 
BRANCH  26  27
HETATM   27  C9  UNL     1       4.619   0.126   0.079  1.00  0.00     0.166 C 
BRANCH  27  28
HETATM   28  O3  UNL     1       4.864  -0.240   1.407  1.00  0.00    -0.391 OA
ATOM     29  H3  UNL     1       5.790  -0.410   1.533  1.00  0.00     0.210 HD
ENDBRANCH  27  28
BRANCH  27  30
HETATM   30  C10 UNL     1       5.035  -0.963  -0.885  1.00  0.00     0.173 C 
BRANCH  30  31
HETATM   31  O4  UNL     1       4.772  -0.550  -2.169  1.00  0.00    -0.391 OA
ATOM     32  H4  UNL     1       5.033  -1.234  -2.774  1.00  0.00     0.210 HD
ENDBRANCH  30  31
BRANCH  30  33
HETATM   33  C11 UNL     1       6.514  -1.276  -0.681  1.00  0.00     0.263 C 
BRANCH  33  34
HETATM   34  N7  UNL     1       7.257  -0.060  -0.957  1.00  0.00    -0.077 N 
ATOM     35  H73 UNL     1       7.056   0.329  -1.878  1.00  0.00     0.274 HD
ATOM     36  H72 UNL     1       6.938   0.736  -0.404  1.00  0.00     0.274 HD
ATOM     37  H71 UNL     1       8.246  -0.269  -0.821  1.00  0.00     0.274 HD
ENDBRANCH  33  34
ENDBRANCH  30  33
ENDBRANCH  27  30
ENDBRANCH  26  27
ENDBRANCH  15  26
BRANCH   8  38
HETATM   38  C5  UNL     1      -3.496   3.128  -0.546  1.00  0.00     0.276 C 
BRANCH  38  39
HETATM   39  N3  UNL     1      -2.635   4.224  -0.836  1.00  0.00    -0.075 N 
ATOM     40  H33 UNL     1      -1.955   4.349  -0.086  1.00  0.00     0.274 HD
ATOM     41  H32 UNL     1      -2.007   3.989  -1.605  1.00  0.00     0.274 HD
ATOM     42  H31 UNL     1      -3.118   5.102  -1.028  1.00  0.00     0.274 HD
ENDBRANCH  38  39
ENDBRANCH   8  38
TORSDOF 9
