REMARK  6 active torsions:
REMARK  status: ('A' for Active; 'I' for Inactive)
REMARK    1  A    between atoms: C2_2  and  N1_3 
REMARK    2  A    between atoms: N1_3  and  C3_5 
REMARK    3  A    between atoms: N3_9  and  C5_11 
REMARK    4  A    between atoms: C5_11  and  N4_13 
REMARK    5  A    between atoms: N8_25  and  C10_26 
REMARK    6  A    between atoms: C10_26  and  C12_28 
ROOT
HETATM    1  C3  UNL     1       2.518   0.057   0.331  1.00  0.00     0.147 A 
HETATM    2  N2  UNL     1       2.625  -1.281   0.368  1.00  0.00    -0.174 N 
ATOM      3  H2  UNL     1       3.547  -1.717   0.391  1.00  0.00     0.186 HD
HETATM    4  C4  UNL     1       1.508  -2.057   0.375  1.00  0.00     0.687 A 
HETATM    5  N3  UNL     1       1.633  -3.331   0.411  1.00  0.00    -0.165 N 
ATOM      6  H3  UNL     1       2.576  -3.718   0.433  1.00  0.00     0.186 HD
HETATM    7  N5  UNL     1       0.298  -1.472   0.345  1.00  0.00    -0.174 N 
ATOM      8  H5  UNL     1      -0.536  -2.059   0.351  1.00  0.00     0.186 HD
HETATM    9  C6  UNL     1       0.154  -0.116   0.307  1.00  0.00     0.156 A 
HETATM   10  C7  UNL     1       1.280   0.645   0.300  1.00  0.00     0.124 A 
HETATM   11  N6  UNL     1       0.900   1.915   0.262  1.00  0.00    -0.327 N 
ATOM     12  H6  UNL     1       1.515   2.729   0.248  1.00  0.00     0.168 HD
HETATM   13  C8  UNL     1      -0.464   1.933   0.245  1.00  0.00     0.193 A 
HETATM   14  C9  UNL     1      -1.222   3.162   0.203  1.00  0.00     0.137 C 
HETATM   15  N7  UNL     1      -1.843   4.139   0.173  1.00  0.00    -0.188 NA
HETATM   16  N8  UNL     1      -0.934   0.672   0.273  1.00  0.00    -0.303 N 
ENDROOT
BRANCH  16  17
HETATM   17  C10 UNL     1      -2.305   0.252   0.268  1.00  0.00     0.089 C 
HETATM   18  C11 UNL     1      -3.030   0.798   1.463  1.00  0.00     0.033 C 
BRANCH  17  19
HETATM   19  C12 UNL     1      -3.011   0.578  -1.029  1.00  0.00     0.021 C 
HETATM   20  C13 UNL     1      -4.445   0.135  -1.022  1.00  0.00     0.007 C 
ENDBRANCH  17  19
ENDBRANCH  16  17
BRANCH   1  21
HETATM   21  N1  UNL     1       3.563   0.768   0.324  1.00  0.00    -0.374 N 
ATOM     22  H1  UNL     1       4.450   0.265   0.347  1.00  0.00     0.161 HD
BRANCH  21  23
HETATM   23  C2  UNL     1       3.647   2.196   0.287  1.00  0.00     0.116 C 
HETATM   24  C1  UNL     1       5.138   2.552   0.287  1.00  0.00     0.026 C 
ENDBRANCH  21  23
ENDBRANCH   1  21
BRANCH   5  25
HETATM   25  C5  UNL     1       0.547  -4.234   0.422  1.00  0.00     0.201 C 
HETATM   26  S1  UNL     1      -0.283  -4.444   1.808  1.00  0.00    -0.039 SA
BRANCH  25  27
HETATM   27  N4  UNL     1       0.159  -4.960  -0.732  1.00  0.00    -0.275 N 
HETATM   28 CL1  UNL     1      -1.183  -6.058  -0.667  1.00  0.00     0.013 Cl
ATOM     29  H4  UNL     1       0.671  -4.836  -1.605  1.00  0.00     0.183 HD
ENDBRANCH  25  27
ENDBRANCH   5  25
TORSDOF 6
