REMARK  3 active torsions:
REMARK  status: ('A' for Active; 'I' for Inactive)
REMARK    1  A    between atoms: C10_10  and  C11_11 
REMARK    2  A    between atoms: C11_11  and  N1_12 
REMARK    3  A    between atoms: N1_12  and  C12_15 
ROOT
HETATM    1  N1  UNL     1      -1.309  -0.980  -0.288  1.00  0.00    -0.065 N 
ATOM      2  H11 UNL     1      -1.419  -1.235  -1.269  1.00  0.00     0.278 HD
ATOM      3  H12 UNL     1      -1.096   0.010  -0.413  1.00  0.00     0.278 HD
ENDROOT
BRANCH   1   4
HETATM    4  C11 UNL     1      -0.215  -1.694   0.337  1.00  0.00     0.237 C 
BRANCH   4   5
HETATM    5  C10 UNL     1       1.089  -1.497  -0.445  1.00  0.00     0.011 C 
HETATM    6  C9  UNL     1       2.164  -2.273   0.276  1.00  0.00     0.007 C 
HETATM    7  C8  UNL     1       3.546  -1.888  -0.161  1.00  0.00     0.014 C 
HETATM    8  C3  UNL     1       3.777  -0.389  -0.104  1.00  0.00    -0.023 C 
HETATM    9  C2  UNL     1       3.975   0.116  -1.489  1.00  0.00    -0.021 C 
HETATM   10  C4  UNL     1       5.018  -0.096   0.689  1.00  0.00     0.013 C 
HETATM   11  C25 UNL     1       2.547   0.241   0.461  1.00  0.00     0.014 C 
HETATM   12  C1  UNL     1       4.819   1.077  -1.852  1.00  0.00    -0.030 C 
HETATM   13  C7  UNL     1       5.751   1.879  -1.048  1.00  0.00     0.027 C 
HETATM   14  C6  UNL     1       5.200   2.366   0.255  1.00  0.00     0.004 C 
HETATM   15  C5  UNL     1       5.049   1.281   1.281  1.00  0.00     0.001 C 
HETATM   16  C24 UNL     1       1.393  -0.034  -0.480  1.00  0.00     0.007 C 
ENDBRANCH   4   5
ENDBRANCH   1   4
BRANCH   1  17
HETATM   17  C12 UNL     1      -2.492  -1.173   0.440  1.00  0.00     0.134 C 
HETATM   18  C13 UNL     1      -3.028  -2.577   0.549  1.00  0.00     0.040 C 
HETATM   19  C14 UNL     1      -4.291  -2.091  -0.124  1.00  0.00     0.015 C 
HETATM   20  C15 UNL     1      -3.776  -0.654   0.035  1.00  0.00     0.000 C 
HETATM   21  C16 UNL     1      -4.072   0.153  -1.112  1.00  0.00    -0.003 C 
HETATM   22  C22 UNL     1      -4.075  -0.136   1.390  1.00  0.00    -0.001 C 
HETATM   23  C17 UNL     1      -3.200   1.292  -1.474  1.00  0.00     0.006 C 
HETATM   24  C20 UNL     1      -5.387   0.907  -0.826  1.00  0.00     0.010 C 
HETATM   25  C18 UNL     1      -3.526   2.364  -0.467  1.00  0.00     0.005 C 
HETATM   26  C19 UNL     1      -4.848   1.932   0.170  1.00  0.00    -0.014 C 
HETATM   27  C21 UNL     1      -4.482   1.287   1.490  1.00  0.00     0.010 C 
HETATM   28  C23 UNL     1      -2.610  -0.410   1.754  1.00  0.00     0.045 C 
ENDBRANCH   1  17
TORSDOF 3
