REMARK  4 active torsions:
REMARK  status: ('A' for Active; 'I' for Inactive)
REMARK    1  A    between atoms: C5_6  and  C6_7 
REMARK       I    between atoms: C6_7  and  N1_9 
REMARK    2  A    between atoms: N1_9  and  N2_11 
REMARK       I    between atoms: N2_11  and  C7_13 
REMARK    3  A    between atoms: C7_13  and  O4_15 
REMARK    4  A    between atoms: O4_15  and  C8_16 
ROOT
HETATM    1  C6  UNL     1      -1.144  -0.860  -0.212  1.00  0.00     0.273 C 
HETATM    2  O2  UNL     1      -0.832  -2.109  -0.135  1.00  0.00    -0.266 OA
HETATM    3  N1  UNL     1      -0.115   0.023  -0.564  1.00  0.00    -0.261 N 
ATOM      4  H1  UNL     1      -0.293   1.025  -0.639  1.00  0.00     0.190 HD
ENDROOT
BRANCH   1   5
HETATM    5  C5  UNL     1      -2.501  -0.499   0.069  1.00  0.00     0.071 A 
HETATM    6  C3  UNL     1      -3.465  -1.429   0.533  1.00  0.00     0.065 A 
HETATM    7  O1  UNL     1      -4.587  -0.774   0.674  1.00  0.00    -0.319 OA
HETATM    8  C4  UNL     1      -3.229  -2.870   0.803  1.00  0.00     0.078 C 
HETATM    9  C2  UNL     1      -4.466   0.463   0.359  1.00  0.00     0.056 A 
HETATM   10  C1  UNL     1      -5.548   1.456   0.412  1.00  0.00     0.077 C 
HETATM   11  C11 UNL     1      -3.147   0.702  -0.039  1.00  0.00    -0.014 A 
HETATM   12  C12 UNL     1      -2.601   2.004  -0.489  1.00  0.00     0.052 C 
ENDBRANCH   1   5
BRANCH   3  13
HETATM   13  N2  UNL     1       1.197  -0.508  -0.818  1.00  0.00    -0.242 N 
HETATM   14  C7  UNL     1       2.339   0.118  -0.249  1.00  0.00     0.379 C 
HETATM   15  O3  UNL     1       2.224   1.139   0.481  1.00  0.00    -0.237 OA
ATOM     16  H2  UNL     1       1.308  -1.334  -1.406  1.00  0.00     0.192 HD
BRANCH  14  17
HETATM   17  O4  UNL     1       3.599  -0.363  -0.472  1.00  0.00    -0.298 OA
BRANCH  17  18
HETATM   18  C8  UNL     1       4.780   0.202   0.058  1.00  0.00     0.125 C 
HETATM   19  C9  UNL     1       5.701   0.756  -0.989  1.00  0.00     0.040 C 
HETATM   20  C10 UNL     1       5.528  -0.703   0.973  1.00  0.00     0.040 C 
ENDBRANCH  17  18
ENDBRANCH  14  17
ENDBRANCH   3  13
TORSDOF 4
