REMARK  13 active torsions:
REMARK  status: ('A' for Active; 'I' for Inactive)
REMARK    1  A    between atoms: N1_1  and  C1_4 
REMARK    2  A    between atoms: C2_10  and  N4_11 
REMARK    3  A    between atoms: C4_13  and  C5_14 
REMARK    4  A    between atoms: C5_14  and  O2_15 
REMARK    5  A    between atoms: O2_15  and  N5_16 
REMARK    6  A    between atoms: N5_16  and  C6_17 
REMARK    7  A    between atoms: C8_21  and  C9_22 
REMARK    8  A    between atoms: C10_25  and  C11_26 
REMARK    9  A    between atoms: C12_31  and  O7_32 
REMARK   10  A    between atoms: C13_34  and  C14_35 
REMARK   11  A    between atoms: C16_39  and  O10_40 
REMARK   12  A    between atoms: C16_39  and  C17_42 
REMARK   13  A    between atoms: C17_42  and  O11_43 
ROOT
HETATM    1  C6  UNL     1      -0.760  -0.685   0.112  1.00  0.00     0.167 C 
HETATM    2  C7  UNL     1      -2.097  -1.058  -0.474  1.00  0.00     0.130 C 
HETATM    3  N6  UNL     1      -3.027  -1.192   0.600  1.00  0.00    -0.374 N 
ATOM      4  H6  UNL     1      -3.046  -2.141   0.975  1.00  0.00     0.160 HD
HETATM    5  C8  UNL     1      -3.953  -0.313   1.292  1.00  0.00     0.139 C 
HETATM    6  C10 UNL     1      -4.502   0.750   0.749  1.00  0.00     0.141 C 
HETATM    7  N7  UNL     1      -4.253   1.184  -0.640  1.00  0.00    -0.355 N 
ATOM      8  H7  UNL     1      -4.388   2.169  -0.868  1.00  0.00     0.162 HD
HETATM    9  C12 UNL     1      -3.830   0.295  -1.690  1.00  0.00     0.239 C 
HETATM   10  C13 UNL     1      -2.368  -0.127  -1.554  1.00  0.00     0.116 C 
HETATM   11  C15 UNL     1      -1.486   1.062  -1.346  1.00  0.00     0.069 C 
HETATM   12  C16 UNL     1      -0.495   0.726  -0.294  1.00  0.00     0.102 C 
ENDROOT
BRANCH   1  13
HETATM   13  N5  UNL     1       0.325  -1.534  -0.371  1.00  0.00    -0.090 NA
BRANCH  13  14
HETATM   14  O2  UNL     1       1.495  -1.198   0.268  1.00  0.00    -0.280 OA
BRANCH  14  15
HETATM   15  C5  UNL     1       2.437  -2.139  -0.203  1.00  0.00     0.255 C 
BRANCH  15  16
HETATM   16  C4  UNL     1       3.769  -1.896   0.411  1.00  0.00     0.066 A 
HETATM   17  C3  UNL     1       4.768  -1.076  -0.091  1.00  0.00     0.144 A 
HETATM   18  N4  UNL     1       5.823  -1.104   0.728  1.00  0.00    -0.228 N 
HETATM   19  N9  UNL     1       5.494  -1.918   1.715  1.00  0.00    -0.014 NA
HETATM   20  N8  UNL     1       4.277  -2.402   1.549  1.00  0.00    -0.284 N 
ATOM     21  H8  UNL     1       3.802  -3.050   2.177  1.00  0.00     0.184 HD
BRANCH  18  22
HETATM   22  C2  UNL     1       7.071  -0.413   0.604  1.00  0.00     0.193 A 
HETATM   23  C1  UNL     1       7.298   0.895   0.937  1.00  0.00     0.169 A 
HETATM   24  N2  UNL     1       8.591   1.149   0.670  1.00  0.00    -0.222 N 
HETATM   25  O1  UNL     1       9.119   0.063   0.203  1.00  0.00    -0.153 OA
ATOM     26  H2  UNL     1       9.070   2.038   0.810  1.00  0.00     0.198 HD
HETATM   27  N3  UNL     1       8.251  -0.888   0.148  1.00  0.00    -0.221 N 
ATOM     28  H3  UNL     1       8.425  -1.837  -0.183  1.00  0.00     0.198 HD
BRANCH  23  29
HETATM   29  N1  UNL     1       6.465   1.775   1.423  1.00  0.00    -0.381 N 
ATOM     30  H12 UNL     1       6.634   2.750   1.671  1.00  0.00     0.157 HD
ATOM     31  H11 UNL     1       5.484   1.582   1.626  1.00  0.00     0.157 HD
ENDBRANCH  23  29
ENDBRANCH  18  22
ENDBRANCH  15  16
ENDBRANCH  14  15
ENDBRANCH  13  14
ENDBRANCH   1  13
BRANCH  12  32
HETATM   32  O10 UNL     1       0.833   0.825  -0.766  1.00  0.00    -0.386 OA
ATOM     33  H10 UNL     1       1.002   1.723  -1.025  1.00  0.00     0.210 HD
ENDBRANCH  12  32
BRANCH  12  34
HETATM   34  C17 UNL     1      -0.549   1.686   0.890  1.00  0.00     0.203 C 
BRANCH  34  35
HETATM   35  O11 UNL     1       0.364   1.320   1.873  1.00  0.00    -0.398 OA
ATOM     36  H11 UNL     1       0.330   1.918   2.610  1.00  0.00     0.209 HD
ENDBRANCH  34  35
ENDBRANCH  12  34
BRANCH  10  37
HETATM   37  C14 UNL     1      -2.078  -0.770  -2.864  1.00  0.00     0.188 C 
HETATM   38  O8  UNL     1      -1.761  -1.966  -2.911  1.00  0.00    -0.647 OA
HETATM   39  O9  UNL     1      -2.165  -0.034  -4.027  1.00  0.00    -0.647 OA
ENDBRANCH  10  37
BRANCH   5  40
HETATM   40  C9  UNL     1      -4.267  -0.654   2.627  1.00  0.00     0.229 C 
HETATM   41  O3  UNL     1      -4.981  -0.150   3.463  1.00  0.00    -0.643 OA
HETATM   42  O4  UNL     1      -3.621  -1.837   3.120  1.00  0.00    -0.643 OA
ENDBRANCH   5  40
BRANCH   9  43
HETATM   43  O7  UNL     1      -4.603  -0.825  -1.859  1.00  0.00    -0.375 OA
ATOM     44  H7  UNL     1      -4.324  -1.412  -2.552  1.00  0.00     0.212 HD
ENDBRANCH   9  43
BRANCH   6  45
HETATM   45  C11 UNL     1      -5.407   1.620   1.411  1.00  0.00     0.229 C 
HETATM   46  O5  UNL     1      -5.874   1.620   2.541  1.00  0.00    -0.643 OA
HETATM   47  O6  UNL     1      -5.902   2.731   0.658  1.00  0.00    -0.643 OA
ENDBRANCH   6  45
TORSDOF 13
