REMARK  15 active torsions:
REMARK  status: ('A' for Active; 'I' for Inactive)
REMARK    1  A    between atoms: C2_2  and  O1_3 
REMARK    2  A    between atoms: O1_3  and  C3_4 
REMARK    3  A    between atoms: C3_4  and  C4_5 
REMARK    4  A    between atoms: C4_5  and  C5_6 
REMARK    5  A    between atoms: C5_6  and  N1_7 
REMARK       I    between atoms: N1_7  and  C6_9 
REMARK    6  A    between atoms: C6_9  and  C7_11 
REMARK    7  A    between atoms: C7_11  and  C8_12 
REMARK    8  A    between atoms: C10_17  and  C11_18 
REMARK    9  A    between atoms: N3_25  and  C18_26 
REMARK       I    between atoms: N3_25  and  C20_28 
REMARK       I    between atoms: C20_28  and  N4_30 
REMARK   10  A    between atoms: N4_30  and  C21_32 
REMARK   11  A    between atoms: N5_36  and  C25_37 
REMARK   12  A    between atoms: C25_37  and  C26_38 
REMARK   13  A    between atoms: C26_38  and  C27_39 
REMARK   14  A    between atoms: C27_39  and  O6_41 
REMARK   15  A    between atoms: O6_41  and  C28_42 
ROOT
HETATM    1  C8  UNL     1       1.344  -0.627   0.587  1.00  0.00     0.231 C 
HETATM    2  O3  UNL     1       0.880  -1.262  -0.561  1.00  0.00    -0.319 OA
HETATM    3  C9  UNL     1      -0.316  -1.247  -1.284  1.00  0.00     0.158 A 
HETATM    4  N2  UNL     1      -0.133  -1.605  -2.566  1.00  0.00    -0.340 N 
ATOM      5  H2  UNL     1       0.799  -1.845  -2.904  1.00  0.00     0.167 HD
HETATM    6  C10 UNL     1      -1.178  -1.644  -3.394  1.00  0.00     0.011 A 
HETATM    7  C13 UNL     1      -2.430  -1.320  -2.940  1.00  0.00     0.033 A 
HETATM    8  C14 UNL     1      -2.681  -0.934  -1.592  1.00  0.00    -0.042 A 
HETATM    9  C15 UNL     1      -4.044  -0.621  -1.294  1.00  0.00     0.049 C 
HETATM   10  C16 UNL     1      -1.621  -0.909  -0.807  1.00  0.00     0.066 A 
HETATM   11  C17 UNL     1      -1.844  -0.485   0.609  1.00  0.00     0.131 C 
HETATM   12  N3  UNL     1      -2.897  -0.768   1.419  1.00  0.00    -0.285 N 
HETATM   13  C20 UNL     1      -3.048  -2.058   2.037  1.00  0.00     0.324 C 
HETATM   14  O4  UNL     1      -4.075  -2.179   2.808  1.00  0.00    -0.247 OA
HETATM   15  N4  UNL     1      -2.209  -3.163   1.882  1.00  0.00    -0.335 N 
ATOM     16  H4  UNL     1      -1.385  -3.122   1.283  1.00  0.00     0.165 HD
HETATM   17  N5  UNL     1      -0.961   0.635   0.784  1.00  0.00    -0.300 N 
HETATM   18  C32 UNL     1       0.456   0.493   1.038  1.00  0.00     0.255 C 
HETATM   19  O7  UNL     1       1.083   1.349   1.692  1.00  0.00    -0.270 OA
ENDROOT
BRANCH   1  20
HETATM   20  C7  UNL     1       2.693   0.008   0.238  1.00  0.00     0.145 C 
BRANCH  20  21
HETATM   21  C6  UNL     1       3.641  -1.026  -0.191  1.00  0.00     0.220 C 
HETATM   22  N1  UNL     1       4.959  -0.659  -0.558  1.00  0.00    -0.361 N 
ATOM     23  H1  UNL     1       5.219   0.326  -0.516  1.00  0.00     0.162 HD
HETATM   24  O2  UNL     1       3.274  -2.225  -0.230  1.00  0.00    -0.274 OA
BRANCH  22  25
HETATM   25  C5  UNL     1       5.954  -1.616  -0.990  1.00  0.00     0.124 C 
BRANCH  25  26
HETATM   26  C4  UNL     1       7.259  -0.938  -1.312  1.00  0.00     0.046 C 
BRANCH  26  27
HETATM   27  C3  UNL     1       7.783  -0.226  -0.063  1.00  0.00     0.169 C 
BRANCH  27  28
HETATM   28  O1  UNL     1       8.995   0.382  -0.421  1.00  0.00    -0.391 OA
BRANCH  28  29
HETATM   29  C2  UNL     1       9.514   1.051   0.689  1.00  0.00     0.163 C 
HETATM   30  C1  UNL     1       9.763   0.083   1.826  1.00  0.00     0.033 C 
ENDBRANCH  28  29
ENDBRANCH  27  28
ENDBRANCH  26  27
ENDBRANCH  25  26
ENDBRANCH  22  25
ENDBRANCH  20  21
ENDBRANCH   1  20
BRANCH  17  31
HETATM   31  C25 UNL     1      -1.302   2.010   0.675  1.00  0.00     0.143 C 
BRANCH  31  32
HETATM   32  C26 UNL     1      -1.163   2.554  -0.743  1.00  0.00     0.131 C 
BRANCH  32  33
HETATM   33  C27 UNL     1      -1.542   4.002  -0.672  1.00  0.00     0.261 C 
HETATM   34  O5  UNL     1      -0.797   4.791   0.003  1.00  0.00    -0.265 OA
BRANCH  33  35
HETATM   35  O6  UNL     1      -2.642   4.534  -1.288  1.00  0.00    -0.311 OA
BRANCH  35  36
HETATM   36  C28 UNL     1      -3.015   5.880  -1.240  1.00  0.00     0.060 C 
HETATM   37  C29 UNL     1      -3.268   6.385   0.167  1.00  0.00     0.045 C 
HETATM   38  C30 UNL     1      -2.028   6.806  -1.913  1.00  0.00     0.045 C 
HETATM   39  C31 UNL     1      -4.340   6.068  -1.983  1.00  0.00     0.045 C 
ENDBRANCH  35  36
ENDBRANCH  33  35
ENDBRANCH  32  33
ENDBRANCH  31  32
ENDBRANCH  17  31
BRANCH   6  40
HETATM   40  C11 UNL     1      -0.947  -2.045  -4.810  1.00  0.00     0.052 C 
HETATM   41  C12 UNL     1      -1.108  -3.543  -4.889  1.00  0.00     0.011 C 
ENDBRANCH   6  40
BRANCH  12  42
HETATM   42  C18 UNL     1      -3.903   0.155   1.912  1.00  0.00     0.131 C 
HETATM   43  C19 UNL     1      -3.464   0.802   3.218  1.00  0.00     0.027 C 
ENDBRANCH  12  42
BRANCH  15  44
HETATM   44  C21 UNL     1      -2.557  -4.382   2.612  1.00  0.00     0.023 C 
HETATM   45  C22 UNL     1      -3.948  -4.829   2.155  1.00  0.00     0.037 C 
HETATM   46  C23 UNL     1      -1.603  -5.505   2.335  1.00  0.00     0.037 C 
HETATM   47  C24 UNL     1      -2.544  -4.034   4.085  1.00  0.00     0.037 C 
ENDBRANCH  15  44
TORSDOF 15
