REMARK  12 active torsions:
REMARK  status: ('A' for Active; 'I' for Inactive)
REMARK    1  A    between atoms: C5_5  and  O1_6 
REMARK    2  A    between atoms: O1_6  and  C6_7 
REMARK    3  A    between atoms: C6_7  and  C7_8 
REMARK    4  A    between atoms: C7_8  and  N1_9 
REMARK    5  A    between atoms: C12_15  and  C13_16 
REMARK    6  A    between atoms: C14_19  and  C15_20 
REMARK    7  A    between atoms: C15_20  and  C16_21 
REMARK    8  A    between atoms: C16_21  and  N3_22 
REMARK    9  A    between atoms: C19_26  and  O3_27 
REMARK   10  A    between atoms: O3_27  and  C20_28 
REMARK   11  A    between atoms: C20_28  and  C21_29 
REMARK   12  A    between atoms: C21_29  and  N4_30 
ROOT
HETATM    1  C15 UNL     1       0.597   1.506  -1.907  1.00  0.00     0.076 C 
ENDROOT
BRANCH   1   2
HETATM    2  C14 UNL     1      -0.421   1.751  -0.857  1.00  0.00     0.011 A 
HETATM    3  N2  UNL     1      -1.409   0.951  -0.420  1.00  0.00    -0.358 N 
HETATM    4  C13 UNL     1      -2.132   1.517   0.561  1.00  0.00     0.051 A 
ATOM      5  H2  UNL     1      -1.590   0.018  -0.792  1.00  0.00     0.166 HD
HETATM    6  C33 UNL     1      -1.564   2.757   0.756  1.00  0.00    -0.033 A 
HETATM    7  C32 UNL     1      -0.486   2.912  -0.131  1.00  0.00     0.034 A 
HETATM    8  C34 UNL     1      -1.923   3.879   1.668  1.00  0.00     0.050 C 
BRANCH   4   9
HETATM    9  C12 UNL     1      -3.331   1.043   1.253  1.00  0.00     0.025 A 
HETATM   10  C5  UNL     1      -4.208   0.131   0.611  1.00  0.00     0.081 A 
HETATM   11  C4  UNL     1      -5.299  -0.379   1.331  1.00  0.00     0.038 A 
HETATM   12  C3  UNL     1      -5.489   0.017   2.624  1.00  0.00     0.009 A 
HETATM   13  C2  UNL     1      -4.677   0.892   3.287  1.00  0.00    -0.061 A 
HETATM   14  C1  UNL     1      -4.905   1.306   4.694  1.00  0.00     0.048 C 
HETATM   15  C35 UNL     1      -3.596   1.385   2.553  1.00  0.00     0.023 A 
BRANCH  10  16
HETATM   16  O1  UNL     1      -3.945  -0.187  -0.637  1.00  0.00    -0.348 OA
BRANCH  16  17
HETATM   17  C6  UNL     1      -4.235  -0.843  -1.764  1.00  0.00     0.206 C 
BRANCH  17  18
HETATM   18  C7  UNL     1      -5.471  -0.562  -2.533  1.00  0.00     0.299 C 
BRANCH  18  19
HETATM   19  N1  UNL     1      -6.727  -0.800  -1.928  1.00  0.00     0.094 N 
HETATM   20  C8  UNL     1      -7.762  -0.339  -2.870  1.00  0.00     0.298 C 
HETATM   21  C9  UNL     1      -9.040  -0.220  -2.069  1.00  0.00     0.198 C 
HETATM   22  O2  UNL     1      -8.984  -1.110  -1.000  1.00  0.00    -0.388 OA
HETATM   23  C10 UNL     1      -8.464  -2.347  -1.390  1.00  0.00     0.198 C 
HETATM   24  C11 UNL     1      -7.010  -2.236  -1.794  1.00  0.00     0.298 C 
ENDBRANCH  18  19
ENDBRANCH  17  18
ENDBRANCH  16  17
ENDBRANCH  10  16
ENDBRANCH   4   9
ENDBRANCH   1   2
BRANCH   1  25
HETATM   25  C16 UNL     1       1.844   0.909  -1.308  1.00  0.00     0.126 C 
BRANCH  25  26
HETATM   26  N3  UNL     1       1.643  -0.347  -0.658  1.00  0.00    -0.388 N 
HETATM   27  C17 UNL     1       2.507  -0.886   0.142  1.00  0.00     0.061 A 
HETATM   28  C18 UNL     1       3.726  -0.268   0.436  1.00  0.00     0.089 A 
HETATM   29  C31 UNL     1       2.225  -2.094   0.728  1.00  0.00     0.089 A 
HETATM   30  C19 UNL     1       4.610  -0.873   1.296  1.00  0.00     0.159 A 
HETATM   31  N5  UNL     1       4.246  -2.079   1.839  1.00  0.00    -0.273 N 
HETATM   32  N6  UNL     1       3.104  -2.676   1.574  1.00  0.00    -0.256 N 
ATOM     33  H5  UNL     1       4.894  -2.536   2.481  1.00  0.00     0.189 HD
HETATM   34  C26 UNL     1       2.574  -3.861   2.006  1.00  0.00     0.031 A 
HETATM   35  C27 UNL     1       3.284  -4.774   2.958  1.00  0.00     0.070 C 
HETATM   36  C28 UNL     1       1.340  -4.036   1.428  1.00  0.00     0.035 A 
HETATM   37  C29 UNL     1       1.126  -2.932   0.632  1.00  0.00    -0.029 A 
HETATM   38  C30 UNL     1      -0.061  -2.670  -0.189  1.00  0.00     0.050 C 
ATOM     39  H3  UNL     1       0.771  -0.847  -0.834  1.00  0.00     0.159 HD
BRANCH  30  40
HETATM   40  O3  UNL     1       5.822  -0.358   1.645  1.00  0.00    -0.333 OA
BRANCH  40  41
HETATM   41  C20 UNL     1       6.371   0.819   1.170  1.00  0.00     0.207 C 
BRANCH  41  42
HETATM   42  C21 UNL     1       6.722   0.843  -0.291  1.00  0.00     0.299 C 
BRANCH  42  43
HETATM   43  N4  UNL     1       7.258   2.139  -0.629  1.00  0.00     0.094 N 
HETATM   44  C22 UNL     1       8.532   2.441  -0.052  1.00  0.00     0.298 C 
HETATM   45  C23 UNL     1       9.529   1.363  -0.451  1.00  0.00     0.198 C 
HETATM   46  O4  UNL     1       9.410   0.998  -1.769  1.00  0.00    -0.388 OA
HETATM   47  C24 UNL     1       8.730   1.876  -2.573  1.00  0.00     0.198 C 
HETATM   48  C25 UNL     1       7.365   2.266  -2.078  1.00  0.00     0.298 C 
ENDBRANCH  42  43
ENDBRANCH  41  42
ENDBRANCH  40  41
ENDBRANCH  30  40
ENDBRANCH  25  26
ENDBRANCH   1  25
TORSDOF 12
