REMARK  12 active torsions:
REMARK  status: ('A' for Active; 'I' for Inactive)
REMARK    1  A    between atoms: C5_5  and  C6_6 
REMARK    2  A    between atoms: C7_8  and  C8_9 
REMARK    3  A    between atoms: C8_9  and  C9_10 
REMARK    4  A    between atoms: C9_10  and  C10_11 
REMARK    5  A    between atoms: N2_13  and  C11_15 
REMARK    6  A    between atoms: C14_20  and  N4_21 
REMARK    7  A    between atoms: N5_27  and  C20_28 
REMARK    8  A    between atoms: C20_28  and  C21_29 
REMARK    9  A    between atoms: C21_29  and  O1_30 
REMARK   10  A    between atoms: O1_30  and  C22_31 
REMARK   11  A    between atoms: C22_31  and  C23_32 
REMARK   12  A    between atoms: C23_32  and  N6_33 
ROOT
HETATM    1  N4  UNL     1      -1.901   0.396  -0.258  1.00  0.00    -0.366 N 
HETATM    2  C15 UNL     1      -1.403   1.113  -1.408  1.00  0.00     0.127 C 
HETATM    3  C16 UNL     1      -0.083   1.768  -0.968  1.00  0.00     0.059 C 
HETATM    4  C17 UNL     1       0.944   0.756  -0.596  1.00  0.00     0.131 C 
HETATM    5  C18 UNL     1       1.992   1.402   0.285  1.00  0.00     0.059 C 
HETATM    6  C19 UNL     1       2.985   2.245  -0.528  1.00  0.00     0.128 C 
HETATM    7  N5  UNL     1       4.076   1.312  -0.847  1.00  0.00    -0.349 N 
HETATM    8  C28 UNL     1       3.881   0.026  -1.431  1.00  0.00     0.245 C 
HETATM    9  O3  UNL     1       4.914  -0.515  -1.856  1.00  0.00    -0.272 OA
HETATM   10  C29 UNL     1       2.576  -0.716  -1.578  1.00  0.00     0.335 C 
HETATM   11  N7  UNL     1       1.500   0.222  -1.824  1.00  0.00    -0.058 N 
ATOM     12  H71 UNL     1       1.800   0.971  -2.449  1.00  0.00     0.278 HD
ATOM     13  H72 UNL     1       0.774  -0.195  -2.406  1.00  0.00     0.278 HD
HETATM   14  C30 UNL     1       0.293  -0.330   0.232  1.00  0.00     0.059 C 
HETATM   15  C31 UNL     1      -0.970   0.242   0.840  1.00  0.00     0.127 C 
ENDROOT
BRANCH   1  16
HETATM   16  C14 UNL     1      -3.244  -0.176  -0.198  1.00  0.00     0.122 A 
HETATM   17  C6  UNL     1      -4.385   0.549  -0.009  1.00  0.00     0.060 A 
HETATM   18  S1  UNL     1      -5.587  -0.715  -0.152  1.00  0.00    -0.072 SA
HETATM   19  C7  UNL     1      -4.558  -2.029  -0.431  1.00  0.00     0.053 A 
HETATM   20  N3  UNL     1      -3.371  -1.459  -0.404  1.00  0.00    -0.339 N 
ATOM     21  H3  UNL     1      -2.537  -2.029  -0.546  1.00  0.00     0.168 HD
BRANCH  17  22
HETATM   22  C5  UNL     1      -4.688   1.941   0.234  1.00  0.00    -0.015 A 
HETATM   23  C4  UNL     1      -6.026   2.339   0.129  1.00  0.00     0.013 A 
HETATM   24  C3  UNL     1      -6.411   3.635   0.386  1.00  0.00     0.007 A 
HETATM   25  C2  UNL     1      -5.496   4.584   0.754  1.00  0.00    -0.062 A 
HETATM   26  C1  UNL     1      -5.906   5.988   1.033  1.00  0.00     0.048 C 
HETATM   27  C33 UNL     1      -4.187   4.219   0.863  1.00  0.00     0.007 A 
HETATM   28  C32 UNL     1      -3.812   2.901   0.600  1.00  0.00     0.013 A 
ENDBRANCH  17  22
BRANCH  19  29
HETATM   29  C8  UNL     1      -4.878  -3.482  -0.657  1.00  0.00     0.072 C 
BRANCH  29  30
HETATM   30  C9  UNL     1      -6.365  -3.664  -0.626  1.00  0.00     0.079 C 
BRANCH  30  31
HETATM   31  C10 UNL     1      -7.029  -3.285   0.612  1.00  0.00     0.089 C 
HETATM   32  N1  UNL     1      -6.368  -3.594   1.859  1.00  0.00    -0.088 NA
HETATM   33  N2  UNL     1      -8.170  -2.734   0.726  1.00  0.00    -0.378 N 
ATOM     34  H2  UNL     1      -8.462  -2.547   1.685  1.00  0.00     0.160 HD
BRANCH  33  35
HETATM   35  C11 UNL     1      -9.101  -2.338  -0.267  1.00  0.00     0.074 C 
HETATM   36  C12 UNL     1      -9.598  -0.918  -0.017  1.00  0.00     0.031 C 
HETATM   37  C13 UNL     1     -10.357  -3.221  -0.263  1.00  0.00     0.031 C 
ENDBRANCH  33  35
ENDBRANCH  30  31
ENDBRANCH  29  30
ENDBRANCH  19  29
ENDBRANCH   1  16
BRANCH   7  38
HETATM   38  C20 UNL     1       5.424   1.697  -0.562  1.00  0.00     0.152 C 
BRANCH  38  39
HETATM   39  C21 UNL     1       5.880   1.307   0.812  1.00  0.00     0.187 C 
BRANCH  39  40
HETATM   40  O1  UNL     1       7.170   1.696   1.038  1.00  0.00    -0.388 OA
BRANCH  40  41
HETATM   41  C22 UNL     1       8.114   1.173   0.197  1.00  0.00     0.198 C 
BRANCH  41  42
HETATM   42  C23 UNL     1       8.145  -0.333   0.278  1.00  0.00     0.298 C 
BRANCH  42  43
HETATM   43  N6  UNL     1       9.107  -0.936  -0.575  1.00  0.00     0.094 N 
HETATM   44  C24 UNL     1      10.472  -0.705  -0.236  1.00  0.00     0.298 C 
HETATM   45  C25 UNL     1      10.938  -1.436   1.004  1.00  0.00     0.198 C 
HETATM   46  O2  UNL     1      10.157  -2.552   1.291  1.00  0.00    -0.388 OA
HETATM   47  C26 UNL     1       9.889  -3.168   0.055  1.00  0.00     0.198 C 
HETATM   48  C27 UNL     1       8.880  -2.343  -0.736  1.00  0.00     0.298 C 
ENDBRANCH  42  43
ENDBRANCH  41  42
ENDBRANCH  40  41
ENDBRANCH  39  40
ENDBRANCH  38  39
ENDBRANCH   7  38
TORSDOF 12
