REMARK  16 active torsions:
REMARK  status: ('A' for Active; 'I' for Inactive)
REMARK    1  A    between atoms: C2_2  and  C5_5 
REMARK    2  A    between atoms: C5_5  and  C6_6 
REMARK    3  A    between atoms: C6_6  and  C7_7 
REMARK    4  A    between atoms: C9_9  and  O1_10 
REMARK    5  A    between atoms: C10_13  and  O3_14 
REMARK    6  A    between atoms: O3_14  and  C11_15 
REMARK    7  A    between atoms: C11_15  and  C12_16 
REMARK    8  A    between atoms: C12_16  and  C14_19 
REMARK    9  A    between atoms: C14_19  and  O4_20 
REMARK   10  A    between atoms: O4_20  and  C15_21 
REMARK   11  A    between atoms: C16_22  and  O5_23 
REMARK   12  A    between atoms: C17_25  and  O6_26 
REMARK   13  A    between atoms: C18_28  and  O7_29 
REMARK   14  A    between atoms: C20_32  and  O8_33 
REMARK   15  A    between atoms: C20_32  and  C21_35 
REMARK   16  A    between atoms: C21_35  and  O9_36 
ROOT
HETATM    1  C12 UNL     1      -0.879   1.878   1.133  1.00  0.00     0.141 C 
HETATM    2  C13 UNL     1      -1.648   3.078   1.527  1.00  0.00     0.068 C 
HETATM    3  N1  UNL     1      -2.273   4.015   1.833  1.00  0.00    -0.197 NA
ENDROOT
BRANCH   1   4
HETATM    4  C11 UNL     1       0.563   2.226   1.495  1.00  0.00     0.199 C 
BRANCH   4   5
HETATM    5  O3  UNL     1       1.463   1.206   1.196  1.00  0.00    -0.328 OA
BRANCH   5   6
HETATM    6  C10 UNL     1       1.677   0.696  -0.072  1.00  0.00     0.194 A 
HETATM    7  C7  UNL     1       2.538  -0.306  -0.470  1.00  0.00     0.005 A 
HETATM    8  C8  UNL     1       2.396  -0.459  -1.828  1.00  0.00     0.076 A 
HETATM    9  C9  UNL     1       1.437   0.473  -2.211  1.00  0.00     0.186 A 
HETATM   10  O2  UNL     1       1.066   1.104  -1.148  1.00  0.00    -0.264 OA
BRANCH   7  11
HETATM   11  C6  UNL     1       3.409  -1.068   0.429  1.00  0.00     0.044 C 
BRANCH  11  12
HETATM   12  C5  UNL     1       4.627  -0.416   0.946  1.00  0.00     0.013 C 
BRANCH  12  13
HETATM   13  C2  UNL     1       5.679   0.017   0.013  1.00  0.00    -0.051 C 
HETATM   14  C1  UNL     1       5.358   1.026  -1.020  1.00  0.00     0.014 C 
HETATM   15  C3  UNL     1       6.819   0.600   0.881  1.00  0.00     0.014 C 
HETATM   16  C4  UNL     1       6.339  -1.224  -0.641  1.00  0.00     0.014 C 
ENDBRANCH  12  13
ENDBRANCH  11  12
ENDBRANCH   7  11
BRANCH   9  17
HETATM   17  O1  UNL     1       0.944   0.709  -3.491  1.00  0.00    -0.341 OA
ATOM     18  H1  UNL     1       0.289   1.346  -3.753  1.00  0.00     0.220 HD
ENDBRANCH   9  17
ENDBRANCH   5   6
ENDBRANCH   4   5
ENDBRANCH   1   4
BRANCH   1  19
HETATM   19  C14 UNL     1      -1.383   0.733   1.969  1.00  0.00     0.189 C 
BRANCH  19  20
HETATM   20  O4  UNL     1      -2.606   0.381   1.692  1.00  0.00    -0.379 OA
BRANCH  20  21
HETATM   21  C15 UNL     1      -3.079  -0.087   0.513  1.00  0.00     0.189 C 
HETATM   22  C16 UNL     1      -4.128   0.851   0.018  1.00  0.00     0.181 C 
HETATM   23  C17 UNL     1      -5.426   0.268  -0.425  1.00  0.00     0.178 C 
HETATM   24  C18 UNL     1      -5.472  -1.146  -0.808  1.00  0.00     0.152 C 
HETATM   25  C19 UNL     1      -4.121  -1.813  -0.829  1.00  0.00     0.077 C 
HETATM   26  C20 UNL     1      -3.435  -1.542   0.489  1.00  0.00     0.110 C 
BRANCH  22  27
HETATM   27  O5  UNL     1      -3.614   1.541  -1.086  1.00  0.00    -0.390 OA
ATOM     28  H5  UNL     1      -4.282   2.138  -1.401  1.00  0.00     0.210 HD
ENDBRANCH  22  27
BRANCH  23  29
HETATM   29  O6  UNL     1      -5.979   1.081  -1.442  1.00  0.00    -0.390 OA
ATOM     30  H6  UNL     1      -6.806   0.709  -1.724  1.00  0.00     0.210 HD
ENDBRANCH  23  29
BRANCH  24  31
HETATM   31  O7  UNL     1      -5.977  -1.253  -2.108  1.00  0.00    -0.393 OA
ATOM     32  H7  UNL     1      -6.007  -2.170  -2.356  1.00  0.00     0.210 HD
ENDBRANCH  24  31
BRANCH  26  33
HETATM   33  O8  UNL     1      -2.246  -2.274   0.423  1.00  0.00    -0.385 OA
ATOM     34  H8  UNL     1      -2.472  -3.197   0.408  1.00  0.00     0.210 HD
ENDBRANCH  26  33
BRANCH  26  35
HETATM   35  C21 UNL     1      -4.324  -2.001   1.597  1.00  0.00     0.204 C 
BRANCH  35  36
HETATM   36  O9  UNL     1      -3.738  -1.891   2.855  1.00  0.00    -0.398 OA
ATOM     37  H9  UNL     1      -4.304  -2.183   3.560  1.00  0.00     0.209 HD
ENDBRANCH  35  36
ENDBRANCH  26  35
ENDBRANCH  20  21
ENDBRANCH  19  20
ENDBRANCH   1  19
TORSDOF 16
