REMARK  5 active torsions:
REMARK  status: ('A' for Active; 'I' for Inactive)
REMARK    1  A    between atoms: C2_2  and  O1_3 
REMARK    2  A    between atoms: O1_3  and  C3_4 
REMARK    3  A    between atoms: C6_11  and  N3_12 
REMARK    4  A    between atoms: C12_19  and  C13_20 
REMARK    5  A    between atoms: C13_20  and  N4_21 
ROOT
HETATM    1  C3  UNL     1      -0.673   2.259  -0.556  1.00  0.00     0.159 A 
HETATM    2  N1  UNL     1       0.032   3.247  -0.029  1.00  0.00    -0.326 N 
ATOM      3  H1  UNL     1      -0.256   4.210  -0.205  1.00  0.00     0.169 HD
HETATM    4  C4  UNL     1       1.116   3.019   0.732  1.00  0.00     0.080 A 
HETATM    5  C5  UNL     1       1.891   4.159   1.315  1.00  0.00     0.089 C 
HETATM    6  N2  UNL     1       1.457   1.766   0.937  1.00  0.00    -0.332 N 
ATOM      7  H2  UNL     1       2.278   1.584   1.514  1.00  0.00     0.168 HD
HETATM    8  C6  UNL     1       0.775   0.676   0.422  1.00  0.00     0.120 A 
HETATM    9  C12 UNL     1      -0.316   0.903  -0.341  1.00  0.00     0.074 A 
ENDROOT
BRANCH   9  10
HETATM   10  C13 UNL     1      -1.158  -0.052  -1.010  1.00  0.00     0.105 C 
BRANCH  10  11
HETATM   11  N4  UNL     1      -1.087  -1.427  -0.883  1.00  0.00    -0.386 N 
HETATM   12  C14 UNL     1      -1.626  -2.009   0.334  1.00  0.00     0.149 C 
HETATM   13  C15 UNL     1      -2.944  -2.688   0.091  1.00  0.00     0.252 C 
HETATM   14  N5  UNL     1      -2.911  -3.652  -0.969  1.00  0.00    -0.072 N 
HETATM   15  C16 UNL     1      -1.704  -3.621  -1.755  1.00  0.00     0.252 C 
ATOM     16  H52 UNL     1      -3.076  -4.590  -0.604  1.00  0.00     0.277 HD
ATOM     17  H51 UNL     1      -3.730  -3.553  -1.568  1.00  0.00     0.277 HD
HETATM   18  C17 UNL     1      -1.350  -2.202  -2.054  1.00  0.00     0.149 C 
ENDBRANCH  10  11
ENDBRANCH   9  10
BRANCH   1  19
HETATM   19  O1  UNL     1      -1.771   2.585  -1.325  1.00  0.00    -0.335 OA
BRANCH  19  20
HETATM   20  C2  UNL     1      -2.207   3.874  -1.598  1.00  0.00     0.173 C 
HETATM   21  C1  UNL     1      -2.573   4.679  -0.387  1.00  0.00     0.034 C 
ENDBRANCH  19  20
ENDBRANCH   1  19
BRANCH   8  22
HETATM   22  N3  UNL     1       1.406  -0.536   0.749  1.00  0.00    -0.366 N 
HETATM   23  C7  UNL     1       2.024  -1.372  -0.248  1.00  0.00     0.127 C 
HETATM   24  C8  UNL     1       3.529  -1.434  -0.038  1.00  0.00     0.057 C 
HETATM   25  C9  UNL     1       3.853  -1.348   1.416  1.00  0.00     0.173 C 
HETATM   26  F1  UNL     1       5.022  -1.983   1.725  1.00  0.00    -0.249 F 
HETATM   27  C10 UNL     1       2.699  -1.878   2.253  1.00  0.00     0.057 C 
HETATM   28  C11 UNL     1       1.501  -0.943   2.134  1.00  0.00     0.127 C 
ENDBRANCH   8  22
TORSDOF 5
