REMARK  10 active torsions:
REMARK  status: ('A' for Active; 'I' for Inactive)
REMARK    1  A    between atoms: C2_2  and  C3_3 
REMARK    2  A    between atoms: C3_3  and  C4_4 
REMARK    3  A    between atoms: C4_4  and  N1_5 
REMARK    4  A    between atoms: C5_6  and  N2_7 
REMARK    5  A    between atoms: N2_7  and  C6_9 
REMARK    6  A    between atoms: C6_9  and  C7_10 
REMARK    7  A    between atoms: C7_10  and  O1_11 
REMARK    8  A    between atoms: C12_22  and  N6_23 
REMARK    9  A    between atoms: N6_23  and  C13_25 
REMARK   10  A    between atoms: C13_25  and  C14_26 
ROOT
HETATM    1  N1  UNL     1      -2.198   0.518  -0.156  1.00  0.00    -0.167 N 
HETATM    2  C5  UNL     1      -3.010   0.696   0.918  1.00  0.00     0.683 A 
HETATM    3  N3  UNL     1      -3.007  -0.191   1.911  1.00  0.00    -0.174 N 
ATOM      4  H3  UNL     1      -3.623  -0.041   2.710  1.00  0.00     0.186 HD
HETATM    5  C8  UNL     1      -2.219  -1.275   1.892  1.00  0.00     0.152 A 
HETATM    6  C9  UNL     1      -1.392  -1.464   0.809  1.00  0.00     0.072 A 
HETATM    7  C10 UNL     1      -0.726  -2.638   1.082  1.00  0.00     0.126 A 
HETATM    8  N4  UNL     1      -1.141  -3.131   2.284  1.00  0.00    -0.307 N 
ATOM      9  H4  UNL     1      -0.816  -3.987   2.734  1.00  0.00     0.186 HD
HETATM   10  N5  UNL     1      -2.040  -2.293   2.752  1.00  0.00    -0.280 N 
HETATM   11  C11 UNL     1      -2.779  -2.388   4.016  1.00  0.00     0.179 C 
HETATM   12  C12 UNL     1      -1.371  -0.543  -0.257  1.00  0.00     0.139 A 
ENDROOT
BRANCH  12  13
HETATM   13  N6  UNL     1      -0.592  -0.725  -1.193  1.00  0.00    -0.347 N 
ATOM     14  H6  UNL     1      -0.708   0.060  -1.834  1.00  0.00     0.167 HD
BRANCH  13  15
HETATM   15  C13 UNL     1       0.365  -1.542  -1.731  1.00  0.00     0.138 C 
BRANCH  15  16
HETATM   16  C14 UNL     1       1.767  -1.259  -1.256  1.00  0.00     0.121 A 
HETATM   17  N7  UNL     1       2.079  -0.300  -0.383  1.00  0.00    -0.343 N 
HETATM   18  C15 UNL     1       3.389  -0.305  -0.171  1.00  0.00     0.035 A 
ATOM     19  H7  UNL     1       1.414   0.338   0.054  1.00  0.00     0.167 HD
HETATM   20  C16 UNL     1       3.917  -1.323  -0.954  1.00  0.00     0.035 A 
HETATM   21  C21 UNL     1       4.116   0.623   0.744  1.00  0.00     0.089 C 
HETATM   22  N8  UNL     1       2.898  -1.875  -1.595  1.00  0.00    -0.343 N 
HETATM   23  C17 UNL     1       5.361  -1.693  -1.030  1.00  0.00     0.089 C 
ATOM     24  H8  UNL     1       2.969  -2.654  -2.249  1.00  0.00     0.167 HD
HETATM   25  C18 UNL     1       6.234  -0.472  -0.915  1.00  0.00     0.278 C 
HETATM   26  N9  UNL     1       6.462  -0.042   0.428  1.00  0.00     0.084 N 
HETATM   27  C19 UNL     1       6.892   1.352   0.436  1.00  0.00     0.309 C 
HETATM   28  C20 UNL     1       5.320  -0.141   1.290  1.00  0.00     0.278 C 
ENDBRANCH  15  16
ENDBRANCH  13  15
ENDBRANCH  12  13
BRANCH   1  29
HETATM   29  C4  UNL     1      -2.236   1.545  -1.149  1.00  0.00     0.149 C 
BRANCH  29  30
HETATM   30  C3  UNL     1      -3.325   1.510  -2.137  1.00  0.00     0.020 C 
BRANCH  30  31
HETATM   31  C2  UNL     1      -3.467   0.411  -3.099  1.00  0.00    -0.003 C 
HETATM   32  C1  UNL     1      -2.350   0.299  -4.106  1.00  0.00     0.005 C 
ENDBRANCH  30  31
ENDBRANCH  29  30
ENDBRANCH   1  29
BRANCH   2  33
HETATM   33  N2  UNL     1      -3.796   1.718   1.002  1.00  0.00    -0.224 N 
ATOM     34  H2  UNL     1      -3.807   2.405   0.248  1.00  0.00     0.177 HD
BRANCH  33  35
HETATM   35  C6  UNL     1      -4.657   1.904   2.143  1.00  0.00     0.164 C 
BRANCH  35  36
HETATM   36  C7  UNL     1      -5.450   3.186   2.038  1.00  0.00     0.184 C 
BRANCH  36  37
HETATM   37  O1  UNL     1      -6.235   3.136   0.887  1.00  0.00    -0.399 OA
ATOM     38  H1  UNL     1      -6.734   3.942   0.821  1.00  0.00     0.209 HD
ENDBRANCH  36  37
ENDBRANCH  35  36
ENDBRANCH  33  35
ENDBRANCH   2  33
TORSDOF 10
