REMARK  5 active torsions:
REMARK  status: ('A' for Active; 'I' for Inactive)
REMARK    1  A    between atoms: C4_8  and  C5_9 
REMARK    2  A    between atoms: N3_12  and  C8_13 
REMARK    3  A    between atoms: C8_13  and  C9_14 
REMARK    4  A    between atoms: C9_14  and  C10_15 
REMARK    5  A    between atoms: C10_15  and  C11_16 
ROOT
HETATM    1  C5  UNL     1       2.719  -0.167  -0.102  1.00  0.00    -0.008 C 
HETATM    2  C6  UNL     1       1.829   0.626   0.413  1.00  0.00     0.028 C 
HETATM    3  C7  UNL     1       0.390   0.331   0.396  1.00  0.00     0.090 C 
HETATM    4  N3  UNL     1       0.087  -0.853  -0.249  1.00  0.00    -0.370 N 
HETATM    5  C15 UNL     1       0.902  -1.391  -1.251  1.00  0.00     0.068 C 
HETATM    6  C16 UNL     1       2.347  -1.462  -0.770  1.00  0.00     0.087 C 
ENDROOT
BRANCH   1   7
HETATM    7  C4  UNL     1       4.142   0.174  -0.059  1.00  0.00     0.116 A 
HETATM    8  N2  UNL     1       5.046  -0.700  -0.603  1.00  0.00    -0.309 N 
HETATM    9  C3  UNL     1       6.351  -0.418  -0.584  1.00  0.00     0.250 A 
ATOM     10  H2  UNL     1       4.721  -1.570  -1.024  1.00  0.00     0.170 HD
HETATM   11  C2  UNL     1       6.862   0.737  -0.033  1.00  0.00     0.119 A 
HETATM   12  O1  UNL     1       7.189  -1.239  -1.094  1.00  0.00    -0.268 OA
HETATM   13  C1  UNL     1       5.955   1.606   0.508  1.00  0.00     0.123 A 
HETATM   14  N1  UNL     1       6.323   2.836   1.107  1.00  0.00    -0.083 NA
HETATM   15  N5  UNL     1       4.646   1.291   0.473  1.00  0.00    -0.330 N 
ATOM     16  H5  UNL     1       3.990   1.955   0.884  1.00  0.00     0.168 HD
ENDBRANCH   1   7
BRANCH   4  17
HETATM   17  C8  UNL     1      -0.976  -1.650   0.249  1.00  0.00     0.127 C 
BRANCH  17  18
HETATM   18  C9  UNL     1      -2.265  -0.843  -0.004  1.00  0.00     0.022 C 
BRANCH  18  19
HETATM   19  C10 UNL     1      -3.466  -1.572   0.473  1.00  0.00     0.034 C 
BRANCH  19  20
HETATM   20  C11 UNL     1      -4.708  -0.800   0.233  1.00  0.00     0.186 C 
HETATM   21  C12 UNL     1      -4.782   0.540   0.916  1.00  0.00     0.034 C 
HETATM   22  C13 UNL     1      -5.454   1.476  -0.088  1.00  0.00     0.029 C 
HETATM   23  C14 UNL     1      -5.988   0.496  -1.108  1.00  0.00     0.233 C 
HETATM   24  N4  UNL     1      -4.919  -0.490  -1.171  1.00  0.00    -0.071 N 
ATOM     25  H42 UNL     1      -4.085  -0.191  -1.677  1.00  0.00     0.277 HD
ATOM     26  H41 UNL     1      -5.110  -1.296  -1.767  1.00  0.00     0.277 HD
ENDBRANCH  19  20
ENDBRANCH  18  19
ENDBRANCH  17  18
ENDBRANCH   4  17
TORSDOF 5
