REMARK  7 active torsions:
REMARK  status: ('A' for Active; 'I' for Inactive)
REMARK       I    between atoms: C1_2  and  N4_16 
REMARK    1  A    between atoms: N2_3  and  C2_5 
REMARK    2  A    between atoms: C2_5  and  C3_6 
REMARK    3  A    between atoms: C3_6  and  C4_7 
REMARK    4  A    between atoms: C4_7  and  C5_8 
REMARK    5  A    between atoms: C5_8  and  C6_9 
REMARK    6  A    between atoms: C6_9  and  N3_10 
REMARK    7  A    between atoms: N4_16  and  C11_18 
ROOT
HETATM    1  N1  UNL     1       3.098  -0.310  -2.348  1.00  0.00    -0.063 NA
HETATM    2  C1  UNL     1       3.211   0.818  -1.507  1.00  0.00     0.202 C 
HETATM    3  N2  UNL     1       2.192   1.562  -1.304  1.00  0.00    -0.364 N 
ATOM      4  H2  UNL     1       2.263   2.380  -0.698  1.00  0.00     0.162 HD
HETATM    5  N4  UNL     1       4.450   1.121  -0.899  1.00  0.00    -0.163 N 
ATOM      6  H4  UNL     1       4.977   1.935  -1.216  1.00  0.00     0.187 HD
ENDROOT
BRANCH   3   7
HETATM    7  C2  UNL     1       0.938   1.233  -1.941  1.00  0.00     0.122 C 
BRANCH   7   8
HETATM    8  C3  UNL     1       0.236   0.202  -1.072  1.00  0.00     0.020 C 
BRANCH   8   9
HETATM    9  C4  UNL     1      -1.070  -0.138  -1.739  1.00  0.00     0.003 C 
BRANCH   9  10
HETATM   10  C5  UNL     1      -1.809  -1.161  -0.924  1.00  0.00     0.030 C 
BRANCH  10  11
HETATM   11  C6  UNL     1      -2.123  -0.697   0.455  1.00  0.00     0.272 C 
BRANCH  11  12
HETATM   12  N3  UNL     1      -2.934   0.478   0.518  1.00  0.00     0.092 N 
HETATM   13  C7  UNL     1      -4.274   0.346   0.078  1.00  0.00     0.298 C 
HETATM   14  C8  UNL     1      -5.235  -0.193   1.112  1.00  0.00     0.198 C 
HETATM   15  O1  UNL     1      -5.073   0.352   2.364  1.00  0.00    -0.388 OA
HETATM   16  C9  UNL     1      -3.777   0.249   2.814  1.00  0.00     0.198 C 
HETATM   17  C10 UNL     1      -2.886   1.005   1.857  1.00  0.00     0.298 C 
ENDBRANCH  11  12
ENDBRANCH  10  11
ENDBRANCH   9  10
ENDBRANCH   8   9
ENDBRANCH   7   8
ENDBRANCH   3   7
BRANCH   5  18
HETATM   18  C11 UNL     1       4.931   0.383   0.055  1.00  0.00     0.684 A 
HETATM   19  N5  UNL     1       4.380  -0.724   0.599  1.00  0.00    -0.200 N 
HETATM   20  C12 UNL     1       5.182  -1.216   1.564  1.00  0.00     0.123 A 
ATOM     21  H5  UNL     1       3.486  -1.129   0.320  1.00  0.00     0.183 HD
HETATM   22  C13 UNL     1       6.272  -0.383   1.620  1.00  0.00     0.123 A 
HETATM   23  N6  UNL     1       6.095   0.561   0.709  1.00  0.00    -0.200 N 
ATOM     24  H6  UNL     1       6.751   1.320   0.527  1.00  0.00     0.183 HD
ENDBRANCH   5  18
TORSDOF 7
