REMARK  9 active torsions:
REMARK  status: ('A' for Active; 'I' for Inactive)
REMARK       I    between atoms: C1_2  and  N2_4 
REMARK       I    between atoms: N2_4  and  C2_6 
REMARK    1  A    between atoms: C2_6  and  S1_8 
REMARK    2  A    between atoms: S1_8  and  N3_9 
REMARK    3  A    between atoms: S1_8  and  C3_13 
REMARK    4  A    between atoms: C3_13  and  C4_14 
REMARK    5  A    between atoms: C4_14  and  C5_15 
REMARK    6  A    between atoms: C6_16  and  C7_17 
REMARK    7  A    between atoms: C7_17  and  N4_18 
REMARK    8  A    between atoms: N4_18  and  C8_20 
REMARK    9  A    between atoms: N5_30  and  O5_32 
ROOT
HETATM    1  C7  UNL     1      -0.385   0.729   1.009  1.00  0.00     0.142 C 
ENDROOT
BRANCH   1   2
HETATM    2  C6  UNL     1       0.810   1.272   0.312  1.00  0.00    -0.012 C 
HETATM    3  C5  UNL     1       2.018   0.749   0.499  1.00  0.00    -0.028 C 
BRANCH   3   4
HETATM    4  C4  UNL     1       3.255   1.241  -0.164  1.00  0.00     0.041 C 
BRANCH   4   5
HETATM    5  C3  UNL     1       3.910   0.153  -1.040  1.00  0.00     0.131 C 
BRANCH   5   6
HETATM    6  S1  UNL     1       4.398  -1.361  -0.241  1.00  0.00     0.105 S 
HETATM    7  O3  UNL     1       5.025  -1.958  -1.895  1.00  0.00    -0.240 OA
BRANCH   6   8
HETATM    8  C2  UNL     1       5.774  -0.448   0.840  1.00  0.00     0.323 C 
HETATM    9  N2  UNL     1       7.135  -0.513   0.591  1.00  0.00    -0.270 N 
HETATM   10  C1  UNL     1       7.935  -1.144  -0.343  1.00  0.00     0.336 C 
ATOM     11  H2  UNL     1       7.677   0.037   1.257  1.00  0.00     0.174 HD
HETATM   12  N1  UNL     1       9.376  -0.954  -0.267  1.00  0.00    -0.040 NA
HETATM   13  O1  UNL     1       7.558  -1.867  -1.256  1.00  0.00    -0.251 OA
HETATM   14  O2  UNL     1       5.408   0.248   1.834  1.00  0.00    -0.256 OA
ENDBRANCH   6   8
BRANCH   6  15
HETATM   15  N3  UNL     1       4.835  -2.889   0.345  1.00  0.00    -0.353 N 
ATOM     16  H32 UNL     1       5.544  -3.204   1.007  1.00  0.00     0.166 HD
ATOM     17  H31 UNL     1       4.124  -3.361  -0.214  1.00  0.00     0.166 HD
ENDBRANCH   6  15
ENDBRANCH   5   6
ENDBRANCH   4   5
ENDBRANCH   3   4
ENDBRANCH   1   2
BRANCH   1  18
HETATM   18  N4  UNL     1      -1.402   0.241   0.134  1.00  0.00    -0.407 N 
ATOM     19  H4  UNL     1      -1.623  -0.752   0.067  1.00  0.00     0.154 HD
BRANCH  18  20
HETATM   20  C8  UNL     1      -2.092   1.220  -0.642  1.00  0.00     0.157 C 
HETATM   21  C9  UNL     1      -3.137   0.457  -1.467  1.00  0.00     0.071 C 
HETATM   22  C10 UNL     1      -4.323   0.305  -0.538  1.00  0.00     0.071 C 
HETATM   23  C11 UNL     1      -4.376  -1.085   0.060  1.00  0.00     0.038 C 
HETATM   24  C15 UNL     1      -5.632   0.624  -1.207  1.00  0.00     0.038 C 
HETATM   25  O4  UNL     1      -4.103   1.288   0.459  1.00  0.00    -0.325 OA
HETATM   26  C12 UNL     1      -5.548  -1.155   1.007  1.00  0.00     0.003 C 
HETATM   27  C13 UNL     1      -6.808  -1.104   0.198  1.00  0.00     0.000 C 
HETATM   28  C14 UNL     1      -6.633  -0.492  -1.160  1.00  0.00     0.003 C 
HETATM   29  C16 UNL     1      -3.004   2.066   0.188  1.00  0.00     0.161 C 
HETATM   30  N5  UNL     1      -2.712   3.279   0.525  1.00  0.00    -0.249 N 
ATOM     31  H5  UNL     1      -1.824   3.670   0.211  1.00  0.00     0.196 HD
BRANCH  30  32
HETATM   32  O5  UNL     1      -3.539   4.065   1.285  1.00  0.00    -0.288 OA
ATOM     33  H5  UNL     1      -3.324   4.957   1.533  1.00  0.00     0.244 HD
ENDBRANCH  30  32
ENDBRANCH  18  20
ENDBRANCH   1  18
TORSDOF 9
