REMARK  9 active torsions:
REMARK  status: ('A' for Active; 'I' for Inactive)
REMARK    1  A    between atoms: N1_1  and  C1_5 
REMARK    2  A    between atoms: C1_5  and  C2_6 
REMARK    3  A    between atoms: C1_5  and  C3_8 
REMARK       I    between atoms: C3_8  and  N2_10 
REMARK    4  A    between atoms: N2_10  and  C4_12 
REMARK    5  A    between atoms: C4_12  and  C5_13 
REMARK    6  A    between atoms: C4_12  and  C8_30 
REMARK       I    between atoms: C5_13  and  N3_15 
REMARK    7  A    between atoms: N3_15  and  C6_17 
REMARK    8  A    between atoms: C7_20  and  S2_21 
REMARK    9  A    between atoms: S2_21  and  N5_22 
ROOT
HETATM    1  C4  UNL     1      -0.283  -0.150  -0.218  1.00  0.00     0.181 C 
ENDROOT
BRANCH   1   2
HETATM    2  N2  UNL     1      -0.841   1.190  -0.359  1.00  0.00    -0.346 N 
HETATM    3  C3  UNL     1      -1.234   1.962   0.753  1.00  0.00     0.249 C 
HETATM    4  O1  UNL     1      -1.106   1.498   1.909  1.00  0.00    -0.271 OA
ATOM      5  H2  UNL     1      -0.951   1.582  -1.294  1.00  0.00     0.163 HD
BRANCH   3   6
HETATM    6  C1  UNL     1      -1.792   3.308   0.576  1.00  0.00     0.284 C 
BRANCH   6   7
HETATM    7  N1  UNL     1      -1.862   3.672  -0.829  1.00  0.00    -0.066 N 
ATOM      8  H13 UNL     1      -2.529   3.111  -1.358  1.00  0.00     0.275 HD
ATOM      9  H12 UNL     1      -2.302   4.578  -0.989  1.00  0.00     0.275 HD
ATOM     10  H11 UNL     1      -0.911   3.616  -1.192  1.00  0.00     0.275 HD
ENDBRANCH   6   7
BRANCH   6  11
HETATM   11  C2  UNL     1      -3.208   3.391   1.117  1.00  0.00     0.128 C 
HETATM   12  S1  UNL     1      -3.812   5.069   0.913  1.00  0.00    -0.095 SA
ENDBRANCH   6  11
ENDBRANCH   3   6
ENDBRANCH   1   2
BRANCH   1  13
HETATM   13  C5  UNL     1       1.085  -0.227  -0.775  1.00  0.00     0.246 C 
HETATM   14  O2  UNL     1       1.594   0.797  -1.283  1.00  0.00    -0.271 OA
HETATM   15  N3  UNL     1       1.792  -1.424  -0.732  1.00  0.00    -0.304 N 
ATOM     16  H3  UNL     1       1.295  -2.270  -1.010  1.00  0.00     0.171 HD
BRANCH  15  17
HETATM   17  C6  UNL     1       3.022  -1.555  -0.371  1.00  0.00     0.169 A 
HETATM   18  N4  UNL     1       3.913  -0.649   0.037  1.00  0.00    -0.310 N 
HETATM   19  C7  UNL     1       5.109  -1.064   0.346  1.00  0.00     0.232 A 
ATOM     20  H4  UNL     1       3.665   0.338   0.105  1.00  0.00     0.170 HD
HETATM   21  N6  UNL     1       5.374  -2.366   0.238  1.00  0.00    -0.298 N 
HETATM   22  S3  UNL     1       3.907  -3.004  -0.309  1.00  0.00     0.025 SA
ATOM     23  H6  UNL     1       6.246  -2.856   0.436  1.00  0.00     0.176 HD
BRANCH  19  24
HETATM   24  S2  UNL     1       6.412   0.014   0.907  1.00  0.00     0.289 S 
HETATM   25  O3  UNL     1       7.565  -0.040  -0.057  1.00  0.00    -0.198 OA
HETATM   26  O4  UNL     1       6.926  -0.448   2.237  1.00  0.00    -0.198 OA
BRANCH  24  27
HETATM   27  N5  UNL     1       5.871   1.646   0.978  1.00  0.00    -0.322 N 
ATOM     28  H52 UNL     1       4.927   1.941   0.729  1.00  0.00     0.169 HD
ATOM     29  H51 UNL     1       6.617   2.263   1.299  1.00  0.00     0.169 HD
ENDBRANCH  24  27
ENDBRANCH  19  24
ENDBRANCH  15  17
ENDBRANCH   1  13
BRANCH   1  30
HETATM   30  C8  UNL     1      -1.232  -1.099  -0.926  1.00  0.00     0.018 C 
HETATM   31  C9  UNL     1      -0.781  -2.537  -0.861  1.00  0.00     0.007 C 
HETATM   32  C10 UNL     1      -2.040  -3.399  -0.989  1.00  0.00     0.000 C 
HETATM   33  C11 UNL     1      -2.915  -3.311   0.217  1.00  0.00     0.000 C 
HETATM   34  C12 UNL     1      -2.839  -1.914   0.781  1.00  0.00     0.000 C 
HETATM   35  C13 UNL     1      -2.620  -0.965  -0.385  1.00  0.00     0.007 C 
ENDBRANCH   1  30
TORSDOF 9
