REMARK  3 active torsions:
REMARK  status: ('A' for Active; 'I' for Inactive)
REMARK    1  A    between atoms: C2_2  and  C3_3 
REMARK    2  A    between atoms: C2_2  and  N1_11 
REMARK    3  A    between atoms: C4_4  and  C5_5 
ROOT
HETATM    1  C1  UNL     1       2.356  -0.236   2.168  1.00  0.00     0.048 C 
HETATM    2  C2  UNL     1       1.990  -0.638   0.756  1.00  0.00     0.184 C 
ENDROOT
BRANCH   2   3
HETATM    3  C3  UNL     1       0.597  -0.320   0.461  1.00  0.00    -0.074 C 
HETATM    4  C4  UNL     1      -0.567  -0.074   0.224  1.00  0.00    -0.065 C 
BRANCH   4   5
HETATM    5  C5  UNL     1      -1.960   0.199  -0.046  1.00  0.00     0.017 A 
HETATM    6  C6  UNL     1      -2.472  -0.143  -1.255  1.00  0.00     0.020 A 
HETATM    7  C7  UNL     1      -3.803   0.108  -1.536  1.00  0.00     0.001 A 
HETATM    8  C8  UNL     1      -4.615   0.710  -0.584  1.00  0.00     0.000 A 
HETATM    9  C9  UNL     1      -4.113   1.065   0.651  1.00  0.00     0.001 A 
HETATM   10  C10 UNL     1      -2.781   0.796   0.888  1.00  0.00     0.020 A 
ENDBRANCH   4   5
ENDBRANCH   2   3
BRANCH   2  11
HETATM   11  N1  UNL     1       2.810   0.012  -0.235  1.00  0.00    -0.271 N 
HETATM   12  C11 UNL     1       2.549   0.417  -1.473  1.00  0.00     0.202 A 
HETATM   13  N2  UNL     1       3.654   0.968  -1.985  1.00  0.00    -0.346 N 
HETATM   14  C12 UNL     1       4.633   0.914  -1.060  1.00  0.00     0.198 A 
ATOM     15  H2  UNL     1       3.742   1.364  -2.921  1.00  0.00     0.167 HD
HETATM   16  N3  UNL     1       4.094   0.324   0.004  1.00  0.00    -0.292 N 
ATOM     17  H3  UNL     1       4.586   0.135   0.877  1.00  0.00     0.188 HD
ENDBRANCH   2  11
TORSDOF 3
