REMARK  2 active torsions:
REMARK  status: ('A' for Active; 'I' for Inactive)
REMARK    1  A    between atoms: C2_2  and  C5_5 
REMARK    2  A    between atoms: N2_8  and  C6_9 
ROOT
HETATM    1  C5  UNL     1      -1.412   0.128   0.118  1.00  0.00     0.064 A 
HETATM    2  N1  UNL     1      -0.296   0.758   0.522  1.00  0.00    -0.298 N 
ATOM      3  H1  UNL     1      -0.276   1.542   1.174  1.00  0.00     0.187 HD
HETATM    4  N2  UNL     1       0.778   0.218  -0.045  1.00  0.00    -0.270 N 
HETATM    5  C11 UNL     1       0.354  -0.772  -0.825  1.00  0.00     0.152 A 
HETATM    6  N3  UNL     1       0.731  -1.751  -1.683  1.00  0.00    -0.335 N 
ATOM      7  H3  UNL     1       1.691  -1.958  -1.960  1.00  0.00     0.168 HD
HETATM    8  C12 UNL     1      -0.363  -2.407  -2.111  1.00  0.00     0.182 A 
HETATM    9  N4  UNL     1      -1.459  -1.865  -1.540  1.00  0.00    -0.348 N 
ATOM     10  H4  UNL     1      -2.426  -2.157  -1.679  1.00  0.00     0.167 HD
HETATM   11  C13 UNL     1      -1.028  -0.866  -0.753  1.00  0.00     0.104 A 
ENDROOT
BRANCH   4  12
HETATM   12  C6  UNL     1       2.120   0.649   0.167  1.00  0.00     0.110 C 
HETATM   13  C7  UNL     1       2.998   0.598  -1.040  1.00  0.00     0.027 C 
HETATM   14  C8  UNL     1       4.410   0.556  -0.483  1.00  0.00     0.002 C 
HETATM   15  C9  UNL     1       4.273   0.376   1.013  1.00  0.00     0.002 C 
HETATM   16  C10 UNL     1       2.890  -0.250   1.129  1.00  0.00     0.027 C 
ENDBRANCH   4  12
BRANCH   1  17
HETATM   17  C2  UNL     1      -2.832   0.385   0.486  1.00  0.00    -0.005 C 
HETATM   18  C1  UNL     1      -3.671   0.730  -0.719  1.00  0.00     0.021 C 
HETATM   19  C3  UNL     1      -2.840   1.519   1.481  1.00  0.00     0.021 C 
HETATM   20  C4  UNL     1      -3.425  -0.844   1.128  1.00  0.00     0.021 C 
ENDBRANCH   1  17
TORSDOF 2
