REMARK  10 active torsions:
REMARK  status: ('A' for Active; 'I' for Inactive)
REMARK    1  A    between atoms: N1_1  and  C1_4 
REMARK    2  A    between atoms: C4_11  and  N5_12 
REMARK    3  A    between atoms: N5_12  and  C5_13 
REMARK    4  A    between atoms: N5_12  and  C7_19 
REMARK    5  A    between atoms: C5_13  and  C6_14 
REMARK    6  A    between atoms: C6_14  and  N6_15 
REMARK    7  A    between atoms: C7_19  and  C8_20 
REMARK    8  A    between atoms: C8_20  and  C9_21 
REMARK    9  A    between atoms: C9_21  and  C10_22 
REMARK   10  A    between atoms: C10_22  and  N7_23 
ROOT
HETATM    1  C1  UNL     1      -4.119   0.350  -0.473  1.00  0.00     0.123 C 
HETATM    2  C2  UNL     1      -3.898  -1.000  -0.257  1.00  0.00     0.119 C 
HETATM    3  N2  UNL     1      -5.026  -1.839  -0.121  1.00  0.00    -0.096 NA
HETATM    4  C3  UNL     1      -2.639  -1.578  -0.163  1.00  0.00     0.158 C 
HETATM    5  N3  UNL     1      -2.619  -2.974  -0.426  1.00  0.00    -0.080 NA
HETATM    6  N4  UNL     1      -1.466  -0.984   0.143  1.00  0.00    -0.177 N 
ATOM      7  H4  UNL     1      -0.717  -1.640   0.362  1.00  0.00     0.185 HD
HETATM    8  C4  UNL     1      -1.101   0.288   0.213  1.00  0.00     0.684 C 
HETATM    9  N8  UNL     1      -1.998   1.314   0.266  1.00  0.00    -0.154 N 
ATOM     10  H8  UNL     1      -1.638   2.167   0.695  1.00  0.00     0.187 HD
HETATM   11  C11 UNL     1      -3.275   1.396  -0.149  1.00  0.00     0.287 C 
HETATM   12  O1  UNL     1      -3.809   2.534  -0.272  1.00  0.00    -0.265 OA
ENDROOT
BRANCH   8  13
HETATM   13  N5  UNL     1       0.268   0.661   0.234  1.00  0.00    -0.216 N 
BRANCH  13  14
HETATM   14  C5  UNL     1       0.596   2.067   0.370  1.00  0.00     0.168 C 
BRANCH  14  15
HETATM   15  C6  UNL     1       1.232   2.418   1.689  1.00  0.00     0.250 C 
BRANCH  15  16
HETATM   16  N6  UNL     1       1.476   3.867   1.661  1.00  0.00    -0.078 N 
ATOM     17  H63 UNL     1       2.024   4.169   0.855  1.00  0.00     0.274 HD
ATOM     18  H62 UNL     1       0.639   4.414   1.458  1.00  0.00     0.274 HD
ATOM     19  H61 UNL     1       1.907   4.105   2.554  1.00  0.00     0.274 HD
ENDBRANCH  15  16
ENDBRANCH  14  15
ENDBRANCH  13  14
BRANCH  13  20
HETATM   20  C7  UNL     1       1.385  -0.235   0.127  1.00  0.00     0.141 C 
BRANCH  20  21
HETATM   21  C8  UNL     1       2.139  -0.081  -1.165  1.00  0.00     0.022 C 
BRANCH  21  22
HETATM   22  C9  UNL     1       3.271  -1.013  -1.357  1.00  0.00     0.029 C 
BRANCH  22  23
HETATM   23  C10 UNL     1       4.383  -0.998  -0.386  1.00  0.00     0.229 C 
BRANCH  23  24
HETATM   24  N7  UNL     1       4.080  -1.335   0.963  1.00  0.00    -0.079 N 
ATOM     25  H73 UNL     1       3.329  -0.733   1.301  1.00  0.00     0.274 HD
ATOM     26  H72 UNL     1       3.622  -2.246   0.989  1.00  0.00     0.274 HD
ATOM     27  H71 UNL     1       4.848  -1.325   1.634  1.00  0.00     0.274 HD
ENDBRANCH  23  24
ENDBRANCH  22  23
ENDBRANCH  21  22
ENDBRANCH  20  21
ENDBRANCH  13  20
ENDBRANCH   8  13
BRANCH   1  28
HETATM   28  N1  UNL     1      -5.236   0.641  -1.036  1.00  0.00    -0.393 N 
ATOM     29  H12 UNL     1      -5.859  -0.131  -1.275  1.00  0.00     0.156 HD
ATOM     30  H11 UNL     1      -5.399   1.635  -1.195  1.00  0.00     0.156 HD
ENDBRANCH   1  28
TORSDOF 10
