REMARK  2 active torsions:
REMARK  status: ('A' for Active; 'I' for Inactive)
REMARK    1  A    between atoms: N1_1  and  N2_4 
REMARK    2  A    between atoms: N3_6  and  C1_8 
ROOT
HETATM    1  C1  UNL     1      -1.341  -0.292  -0.561  1.00  0.00     0.060 A 
HETATM    2  C2  UNL     1      -2.047   0.898  -0.503  1.00  0.00     0.032 A 
HETATM    3  C3  UNL     1      -1.389   2.047  -0.118  1.00  0.00     0.003 A 
HETATM    4  C4  UNL     1      -0.051   2.003   0.202  1.00  0.00     0.012 A 
HETATM    5  C5  UNL     1       0.678   0.823   0.152  1.00  0.00    -0.024 A 
HETATM    6  C6  UNL     1       2.004   0.760   0.466  1.00  0.00     0.012 A 
HETATM    7  C7  UNL     1       2.668  -0.443   0.395  1.00  0.00     0.001 A 
HETATM    8  C8  UNL     1       2.048  -1.614   0.015  1.00  0.00     0.001 A 
HETATM    9  C9  UNL     1       0.696  -1.527  -0.300  1.00  0.00     0.014 A 
HETATM   10  C10 UNL     1       0.012  -0.324  -0.235  1.00  0.00     0.002 A 
ENDROOT
BRANCH   1  11
HETATM   11  N3  UNL     1      -1.966  -1.516  -0.952  1.00  0.00    -0.286 N 
HETATM   12  N2  UNL     1      -2.711  -2.134  -0.132  1.00  0.00    -0.249 N 
ATOM     13  H2  UNL     1      -3.160  -3.008  -0.406  1.00  0.00     0.207 HD
ATOM     14  H3  UNL     1      -1.814  -1.892  -1.888  1.00  0.00     0.188 HD
BRANCH  12  15
HETATM   15  N1  UNL     1      -2.916  -1.605   1.164  1.00  0.00    -0.331 N 
ATOM     16  H12 UNL     1      -2.460  -0.730   1.422  1.00  0.00     0.178 HD
ATOM     17  H11 UNL     1      -3.515  -2.102   1.823  1.00  0.00     0.178 HD
ENDBRANCH  12  15
ENDBRANCH   1  11
TORSDOF 2
