REMARK  1 active torsions:
REMARK  status: ('A' for Active; 'I' for Inactive)
REMARK       I    between atoms: N1_5  and  C5_6 
REMARK    1  A    between atoms: C5_6  and  C6_8 
ROOT
HETATM    1  C1  UNL     1       3.633  -1.922   0.292  1.00  0.00     0.012 C 
HETATM    2  C2  UNL     1       2.980  -0.921   0.123  1.00  0.00    -0.109 C 
HETATM    3  C3  UNL     1       2.218   0.287  -0.081  1.00  0.00     0.100 C 
HETATM    4  C4  UNL     1       0.967   0.429   0.763  1.00  0.00     0.145 C 
HETATM    5  N1  UNL     1       0.114   0.169  -0.367  1.00  0.00    -0.346 N 
HETATM    6  C5  UNL     1      -1.272  -0.032  -0.513  1.00  0.00     0.242 C 
HETATM    7  O1  UNL     1      -1.753  -0.244  -1.648  1.00  0.00    -0.268 OA
HETATM    8  C8  UNL     1       1.238   0.200  -1.247  1.00  0.00     0.145 C 
ENDROOT
BRANCH   6   9
HETATM    9  C6  UNL     1      -2.181  -0.001   0.627  1.00  0.00     0.064 C 
HETATM   10  C7  UNL     1      -3.479  -0.186   0.507  1.00  0.00     0.017 C 
ENDBRANCH   6   9
TORSDOF 1
