REMARK  10 active torsions:
REMARK  status: ('A' for Active; 'I' for Inactive)
REMARK    1  A    between atoms: C4_4  and  C5_5 
REMARK    2  A    between atoms: C5_5  and  C6_6 
REMARK    3  A    between atoms: C6_6  and  C7_7 
REMARK    4  A    between atoms: C9_9  and  C10_10 
REMARK    5  A    between atoms: C14_14  and  O1_15 
REMARK    6  A    between atoms: C15_17  and  O2_18 
REMARK    7  A    between atoms: C22_26  and  O3_27 
REMARK    8  A    between atoms: C23_29  and  O4_30 
REMARK    9  A    between atoms: C24_32  and  O5_34 
REMARK   10  A    between atoms: C27_37  and  O6_38 
ROOT
HETATM    1  C10 UNL     1      -0.893   0.970  -1.282  1.00  0.00    -0.000 C 
HETATM    2  C11 UNL     1      -1.554  -0.344  -1.274  1.00  0.00     0.018 C 
HETATM    3  C12 UNL     1      -3.071  -0.152  -1.078  1.00  0.00    -0.005 C 
HETATM    4  C13 UNL     1      -3.792  -1.373  -1.557  1.00  0.00     0.046 C 
HETATM    5  C14 UNL     1      -4.767  -1.947  -0.598  1.00  0.00     0.148 C 
HETATM    6  C15 UNL     1      -4.095  -2.091   0.745  1.00  0.00     0.155 C 
HETATM    7  C16 UNL     1      -3.702  -0.752   1.294  1.00  0.00    -0.015 C 
HETATM    8  C17 UNL     1      -2.533  -1.003   2.258  1.00  0.00     0.018 C 
HETATM    9  C18 UNL     1      -4.852  -0.309   2.215  1.00  0.00     0.018 C 
HETATM   10  C19 UNL     1      -3.430   0.293   0.294  1.00  0.00     0.007 C 
HETATM   11  C20 UNL     1      -2.297   1.229   0.742  1.00  0.00     0.014 C 
HETATM   12  C21 UNL     1      -1.763   1.921  -0.488  1.00  0.00     0.022 C 
HETATM   13  C22 UNL     1      -2.931   2.292  -1.425  1.00  0.00     0.152 C 
HETATM   14  C23 UNL     1      -3.461   0.993  -1.999  1.00  0.00     0.156 C 
ENDROOT
BRANCH   1  15
HETATM   15  C9  UNL     1       0.540   1.112  -1.055  1.00  0.00     0.025 C 
HETATM   16  C8  UNL     1       1.209   0.671   0.170  1.00  0.00     0.015 C 
HETATM   17  C7  UNL     1       2.545   1.454   0.252  1.00  0.00     0.015 C 
HETATM   18  C27 UNL     1       3.168   1.623  -1.083  1.00  0.00     0.125 C 
HETATM   19  C26 UNL     1       2.798   0.480  -2.004  1.00  0.00     0.070 C 
HETATM   20  C24 UNL     1       1.328   0.497  -2.233  1.00  0.00     0.060 C 
HETATM   21  C25 UNL     1       1.027   1.253  -3.507  1.00  0.00     0.046 C 
BRANCH  17  22
HETATM   22  C6  UNL     1       3.403   0.961   1.344  1.00  0.00     0.011 C 
BRANCH  22  23
HETATM   23  C5  UNL     1       3.826  -0.454   1.299  1.00  0.00     0.028 C 
BRANCH  23  24
HETATM   24  C4  UNL     1       4.681  -0.753   2.486  1.00  0.00    -0.025 C 
HETATM   25  C2  UNL     1       5.936  -1.172   2.390  1.00  0.00    -0.091 C 
HETATM   26  C1  UNL     1       6.487  -1.342   1.013  1.00  0.00     0.042 C 
HETATM   27  C3  UNL     1       6.760  -1.461   3.570  1.00  0.00     0.042 C 
ENDBRANCH  23  24
ENDBRANCH  22  23
ENDBRANCH  17  22
BRANCH  18  28
HETATM   28  O6  UNL     1       4.548   1.814  -1.030  1.00  0.00    -0.395 OA
ATOM     29  H6  UNL     1       4.947   1.922  -1.885  1.00  0.00     0.210 HD
ENDBRANCH  18  28
BRANCH  20  30
HETATM   30  O5  UNL     1       0.906  -0.824  -2.356  1.00  0.00    -0.390 OA
ATOM     31  H5  UNL     1       1.391  -1.202  -3.080  1.00  0.00     0.210 HD
ENDBRANCH  20  30
ENDBRANCH   1  15
BRANCH  13  32
HETATM   32  O3  UNL     1      -2.391   3.112  -2.409  1.00  0.00    -0.393 OA
ATOM     33  H3  UNL     1      -3.110   3.340  -2.986  1.00  0.00     0.210 HD
ENDBRANCH  13  32
BRANCH  14  34
HETATM   34  O4  UNL     1      -3.182   0.787  -3.318  1.00  0.00    -0.392 OA
ATOM     35  H4  UNL     1      -3.426   1.502  -3.894  1.00  0.00     0.210 HD
ENDBRANCH  14  34
BRANCH   5  36
HETATM   36  O1  UNL     1      -5.091  -3.242  -1.030  1.00  0.00    -0.393 OA
ATOM     37  H1  UNL     1      -5.716  -3.610  -0.416  1.00  0.00     0.210 HD
ENDBRANCH   5  36
BRANCH   6  38
HETATM   38  O2  UNL     1      -3.029  -2.987   0.675  1.00  0.00    -0.392 OA
ATOM     39  H2  UNL     1      -2.606  -3.078   1.521  1.00  0.00     0.210 HD
ENDBRANCH   6  38
TORSDOF 10
