REMARK  9 active torsions:
REMARK  status: ('A' for Active; 'I' for Inactive)
REMARK    1  A    between atoms: C2_2  and  C3_3 
REMARK    2  A    between atoms: C3_3  and  N1_4 
REMARK    3  A    between atoms: N1_4  and  C4_7 
REMARK    4  A    between atoms: C7_10  and  O1_12 
REMARK    5  A    between atoms: C12_17  and  O2_18 
REMARK    6  A    between atoms: C23_30  and  O3_31 
REMARK    7  A    between atoms: C25_34  and  O4_35 
REMARK    8  A    between atoms: C26_37  and  C27_38 
REMARK    9  A    between atoms: C27_38  and  O5_39 
ROOT
HETATM    1  C4  UNL     1       2.370  -0.400  -0.883  1.00  0.00     0.222 C 
HETATM    2  C5  UNL     1       2.090  -1.805  -0.481  1.00  0.00     0.051 C 
HETATM    3  C6  UNL     1       3.298  -2.667  -0.205  1.00  0.00     0.015 C 
HETATM    4  C7  UNL     1       0.894  -2.049   0.454  1.00  0.00     0.065 C 
HETATM    5  C8  UNL     1       0.697  -3.502   0.405  1.00  0.00     0.047 C 
HETATM    6  C9  UNL     1      -0.047  -0.957   0.637  1.00  0.00     0.049 C 
HETATM    7  C10 UNL     1       0.890   0.186   0.931  1.00  0.00     0.015 C 
HETATM    8  C11 UNL     1       2.061   0.092   1.765  1.00  0.00     0.023 C 
HETATM    9  C12 UNL     1       0.320   1.406   1.598  1.00  0.00     0.131 C 
HETATM   10  C13 UNL     1      -0.583   1.186   2.709  1.00  0.00     0.034 C 
HETATM   11  C14 UNL     1      -1.838   1.665   2.159  1.00  0.00     0.012 C 
HETATM   12  C15 UNL     1      -2.172   1.735   0.734  1.00  0.00    -0.035 C 
HETATM   13  C16 UNL     1      -2.073   3.165   0.142  1.00  0.00     0.016 C 
HETATM   14  C17 UNL     1      -3.704   2.010   1.045  1.00  0.00     0.016 C 
HETATM   15  C18 UNL     1      -1.876   0.696  -0.291  1.00  0.00     0.002 C 
HETATM   16  C19 UNL     1      -0.995   1.299  -1.425  1.00  0.00     0.042 C 
HETATM   17  C20 UNL     1       0.455   1.228  -1.388  1.00  0.00    -0.020 C 
HETATM   18  C21 UNL     1       1.368   0.646  -0.444  1.00  0.00    -0.042 C 
HETATM   19  C22 UNL     1      -3.250   0.519  -0.918  1.00  0.00     0.017 C 
HETATM   20  C23 UNL     1      -3.959  -0.567  -1.489  1.00  0.00     0.043 C 
HETATM   21  C24 UNL     1      -3.515  -1.778  -0.747  1.00  0.00     0.096 C 
HETATM   22  C25 UNL     1      -2.467  -1.542   0.295  1.00  0.00     0.136 C 
HETATM   23  C26 UNL     1      -1.262  -0.630  -0.155  1.00  0.00     0.027 C 
ENDROOT
BRANCH   1  24
HETATM   24  N1  UNL     1       3.769   0.007  -0.671  1.00  0.00    -0.064 N 
ATOM     25  H12 UNL     1       4.420  -0.769  -0.792  1.00  0.00     0.278 HD
ATOM     26  H11 UNL     1       3.968   0.211   0.308  1.00  0.00     0.278 HD
BRANCH  24  27
HETATM   27  C3  UNL     1       4.082   1.137  -1.549  1.00  0.00     0.259 C 
BRANCH  27  28
HETATM   28  C2  UNL     1       5.477   1.564  -1.325  1.00  0.00    -0.010 C 
HETATM   29  C1  UNL     1       6.277   0.997  -0.467  1.00  0.00     0.008 C 
ENDBRANCH  27  28
ENDBRANCH  24  27
ENDBRANCH   1  24
BRANCH   4  30
HETATM   30  O1  UNL     1       1.515  -2.138   1.775  1.00  0.00    -0.389 OA
ATOM     31  H1  UNL     1       0.776  -2.289   2.353  1.00  0.00     0.210 HD
ENDBRANCH   4  30
BRANCH   9  32
HETATM   32  O2  UNL     1       1.307   2.269   2.189  1.00  0.00    -0.394 OA
ATOM     33  H2  UNL     1       0.947   3.040   2.611  1.00  0.00     0.210 HD
ENDBRANCH   9  32
BRANCH  23  34
HETATM   34  C27 UNL     1      -1.147  -1.268  -1.505  1.00  0.00     0.177 C 
BRANCH  34  35
HETATM   35  O5  UNL     1      -1.114  -2.659  -1.595  1.00  0.00    -0.400 OA
ATOM     36  H5  UNL     1      -1.041  -3.064  -2.451  1.00  0.00     0.209 HD
ENDBRANCH  34  35
ENDBRANCH  23  34
BRANCH  22  37
HETATM   37  O4  UNL     1      -2.869  -1.337   1.567  1.00  0.00    -0.394 OA
ATOM     38  H4  UNL     1      -2.204  -1.187   2.228  1.00  0.00     0.210 HD
ENDBRANCH  22  37
BRANCH  20  39
HETATM   39  O3  UNL     1      -4.313  -0.642  -2.817  1.00  0.00    -0.365 OA
ATOM     40  H3  UNL     1      -4.788  -1.370  -3.200  1.00  0.00     0.217 HD
ENDBRANCH  20  39
TORSDOF 9
