REMARK  6 active torsions:
REMARK  status: ('A' for Active; 'I' for Inactive)
REMARK    1  A    between atoms: C4_6  and  O3_7 
REMARK    2  A    between atoms: C5_9  and  O4_10 
REMARK    3  A    between atoms: C6_12  and  O5_13 
REMARK    4  A    between atoms: O5_13  and  C7_14 
REMARK    5  A    between atoms: C10_17  and  O6_18 
REMARK    6  A    between atoms: C11_20  and  O7_21 
ROOT
HETATM    1  C1  UNL     1      -1.800  -0.052  -2.121  1.00  0.00     0.052 C 
HETATM    2  C2  UNL     1      -2.048  -0.055  -0.642  1.00  0.00     0.117 C 
HETATM    3  C3  UNL     1      -2.100  -1.488  -0.168  1.00  0.00     0.052 C 
HETATM    4  O1  UNL     1      -3.241   0.588  -0.341  1.00  0.00    -0.225 OA
HETATM    5  O2  UNL     1      -3.582   0.281   0.873  1.00  0.00    -0.205 OA
HETATM    6  C4  UNL     1      -2.773   0.816   1.842  1.00  0.00     0.325 C 
HETATM    7  C5  UNL     1      -1.464   1.338   1.351  1.00  0.00     0.208 C 
HETATM    8  C6  UNL     1      -0.947   0.675   0.120  1.00  0.00     0.192 C 
ENDROOT
BRANCH   8   9
HETATM    9  O5  UNL     1       0.049  -0.257   0.360  1.00  0.00    -0.372 OA
BRANCH   9  10
HETATM   10  C7  UNL     1       1.212  -0.041  -0.312  1.00  0.00     0.153 C 
HETATM   11  C8  UNL     1       1.695  -1.210  -1.130  1.00  0.00     0.037 C 
HETATM   12  C9  UNL     1       3.178  -0.843  -1.285  1.00  0.00     0.037 C 
HETATM   13  C10 UNL     1       3.534  -0.561   0.154  1.00  0.00     0.149 C 
HETATM   14  C11 UNL     1       2.327   0.153   0.696  1.00  0.00     0.175 C 
BRANCH  13  15
HETATM   15  O6  UNL     1       4.679   0.219   0.270  1.00  0.00    -0.393 OA
ATOM     16  H6  UNL     1       4.903   0.397   1.176  1.00  0.00     0.210 HD
ENDBRANCH  13  15
BRANCH  14  17
HETATM   17  O7  UNL     1       1.964  -0.363   1.952  1.00  0.00    -0.390 OA
ATOM     18  H7  UNL     1       2.663  -0.241   2.584  1.00  0.00     0.210 HD
ENDBRANCH  14  17
ENDBRANCH   9  10
ENDBRANCH   8   9
BRANCH   7  19
HETATM   19  O4  UNL     1      -1.633   2.708   1.044  1.00  0.00    -0.388 OA
ATOM     20  H4  UNL     1      -0.800   3.040   0.731  1.00  0.00     0.210 HD
ENDBRANCH   7  19
BRANCH   6  21
HETATM   21  O3  UNL     1      -3.475   1.886   2.426  1.00  0.00    -0.366 OA
ATOM     22  H3  UNL     1      -2.914   2.257   3.097  1.00  0.00     0.212 HD
ENDBRANCH   6  21
TORSDOF 6
