REMARK  3 active torsions:
REMARK  status: ('A' for Active; 'I' for Inactive)
REMARK    1  A    between atoms: S1_2  and  N1_3 
REMARK    2  A    between atoms: N1_3  and  O2_5 
REMARK    3  A    between atoms: N2_11  and  O3_13 
ROOT
HETATM    1  O1  UNL     1      -1.138   1.372   1.371  1.00  0.00    -0.242 OA
HETATM    2  S1  UNL     1      -0.828   0.782   0.050  1.00  0.00     0.088 S 
HETATM    3  C1  UNL     1      -1.444  -0.879  -0.128  1.00  0.00     0.126 C 
HETATM    4  C2  UNL     1      -0.223  -1.732   0.066  1.00  0.00     0.020 C 
HETATM    5  C3  UNL     1       0.972  -1.037  -0.424  1.00  0.00     0.071 C 
HETATM    6  C4  UNL     1       0.879   0.403  -0.135  1.00  0.00     0.107 C 
HETATM    7  N2  UNL     1       1.839   1.220  -0.037  1.00  0.00    -0.264 N 
ATOM      8  H2  UNL     1       1.642   2.200   0.168  1.00  0.00     0.194 HD
ENDROOT
BRANCH   2   9
HETATM    9  N1  UNL     1      -1.288   1.707  -1.117  1.00  0.00    -0.222 N 
ATOM     10  H1  UNL     1      -1.310   1.356  -2.075  1.00  0.00     0.204 HD
BRANCH   9  11
HETATM   11  O2  UNL     1      -1.668   3.015  -0.839  1.00  0.00    -0.282 OA
ATOM     12  H2  UNL     1      -1.948   3.579  -1.550  1.00  0.00     0.245 HD
ENDBRANCH   9  11
ENDBRANCH   2   9
BRANCH   7  13
HETATM   13  O3  UNL     1       3.142   0.816  -0.201  1.00  0.00    -0.289 OA
ATOM     14  H3  UNL     1       3.863   1.430  -0.127  1.00  0.00     0.244 HD
ENDBRANCH   7  13
TORSDOF 3
