REMARK  13 active torsions:
REMARK  status: ('A' for Active; 'I' for Inactive)
REMARK    1  A    between atoms: C2_2  and  C3_3 
REMARK    2  A    between atoms: C3_3  and  C4_4 
REMARK    3  A    between atoms: C4_4  and  C5_5 
REMARK    4  A    between atoms: C5_5  and  C6_6 
REMARK    5  A    between atoms: C6_6  and  N1_7 
REMARK    6  A    between atoms: N1_7  and  C7_9 
REMARK    7  A    between atoms: C7_9  and  N2_10 
REMARK    8  A    between atoms: C7_9  and  C19_31 
REMARK    9  A    between atoms: N2_10  and  C8_12 
REMARK   10  A    between atoms: C8_12  and  O1_13 
REMARK   11  A    between atoms: C9_15  and  S1_16 
REMARK   12  A    between atoms: S1_16  and  C10_17 
REMARK       I    between atoms: C19_31  and  N5_33 
REMARK   13  A    between atoms: N5_33  and  C20_35 
ROOT
HETATM    1  C7  UNL     1      -1.053  -0.323  -0.570  1.00  0.00     0.172 C 
ENDROOT
BRANCH   1   2
HETATM    2  N1  UNL     1      -1.656   0.890  -0.196  1.00  0.00    -0.372 N 
ATOM      3  H1  UNL     1      -1.171   1.338   0.581  1.00  0.00     0.161 HD
BRANCH   2   4
HETATM    4  C6  UNL     1      -2.723   1.608  -0.616  1.00  0.00     0.121 C 
BRANCH   4   5
HETATM    5  C5  UNL     1      -2.512   3.049  -0.049  1.00  0.00     0.020 C 
BRANCH   5   6
HETATM    6  C4  UNL     1      -3.607   3.979  -0.409  1.00  0.00     0.002 C 
BRANCH   6   7
HETATM    7  C3  UNL     1      -3.138   5.373   0.072  1.00  0.00    -0.000 C 
BRANCH   7   8
HETATM    8  C2  UNL     1      -4.128   6.447  -0.177  1.00  0.00    -0.005 C 
HETATM    9  C1  UNL     1      -5.423   6.292   0.583  1.00  0.00     0.005 C 
ENDBRANCH   7   8
ENDBRANCH   6   7
ENDBRANCH   5   6
ENDBRANCH   4   5
ENDBRANCH   2   4
ENDBRANCH   1   2
BRANCH   1  10
HETATM   10  N2  UNL     1       0.366  -0.187  -0.291  1.00  0.00    -0.319 N 
ATOM     11  H2  UNL     1       0.863  -0.722   0.421  1.00  0.00     0.169 HD
BRANCH  10  12
HETATM   12  C8  UNL     1       0.987   0.796  -1.143  1.00  0.00     0.148 C 
HETATM   13  C9  UNL     1       2.254   1.404  -1.281  1.00  0.00     0.107 C 
BRANCH  12  14
HETATM   14  O1  UNL     1       0.094   1.248  -2.028  1.00  0.00    -0.346 OA
ATOM     15  H1  UNL     1       0.503   1.896  -2.590  1.00  0.00     0.219 HD
ENDBRANCH  12  14
BRANCH  13  16
HETATM   16  S1  UNL     1       3.300   1.530   0.122  1.00  0.00    -0.078 SA
BRANCH  16  17
HETATM   17  C10 UNL     1       4.723   0.502   0.183  1.00  0.00     0.096 A 
HETATM   18  N3  UNL     1       5.837   0.953  -0.534  1.00  0.00    -0.351 N 
HETATM   19  C11 UNL     1       6.978   0.333  -0.498  1.00  0.00     0.033 A 
ATOM     20  H3  UNL     1       5.750   1.795  -1.103  1.00  0.00     0.166 HD
HETATM   21  C12 UNL     1       7.142  -0.827   0.264  1.00  0.00     0.039 A 
HETATM   22  C18 UNL     1       8.145   0.818  -1.300  1.00  0.00     0.066 C 
HETATM   23  N4  UNL     1       6.080  -1.276   0.957  1.00  0.00    -0.359 N 
HETATM   24  C15 UNL     1       8.460  -1.469   0.266  1.00  0.00     0.137 C 
HETATM   25  C13 UNL     1       4.865  -0.621   0.922  1.00  0.00     0.039 A 
ATOM     26  H4  UNL     1       6.175  -2.120   1.522  1.00  0.00     0.165 HD
HETATM   27  C14 UNL     1       3.742  -1.186   1.729  1.00  0.00     0.071 C 
HETATM   28  C16 UNL     1       9.575  -0.488   0.197  1.00  0.00     0.133 C 
HETATM   29  O2  UNL     1      10.667  -0.774   0.599  1.00  0.00    -0.298 OA
HETATM   30  C17 UNL     1       9.346   0.873  -0.382  1.00  0.00     0.084 C 
ENDBRANCH  16  17
ENDBRANCH  13  16
ENDBRANCH  10  12
ENDBRANCH   1  10
BRANCH   1  31
HETATM   31  C19 UNL     1      -1.798  -1.514  -0.503  1.00  0.00     0.289 C 
HETATM   32  O3  UNL     1      -1.953  -2.170  -1.604  1.00  0.00    -0.264 OA
HETATM   33  N5  UNL     1      -2.406  -2.013   0.656  1.00  0.00    -0.326 N 
ATOM     34  H5  UNL     1      -2.174  -1.472   1.489  1.00  0.00     0.168 HD
BRANCH  33  35
HETATM   35  C20 UNL     1      -3.266  -3.095   0.929  1.00  0.00     0.013 C 
HETATM   36  C21 UNL     1      -2.621  -4.186   1.694  1.00  0.00     0.069 C 
HETATM   37  C22 UNL     1      -2.073  -5.223   0.715  1.00  0.00     0.147 C 
HETATM   38  S2  UNL     1      -3.411  -5.246  -0.478  1.00  0.00     0.158 S 
HETATM   39  O4  UNL     1      -2.957  -5.297  -1.883  1.00  0.00    -0.227 OA
HETATM   40  O5  UNL     1      -4.323  -6.405  -0.142  1.00  0.00    -0.227 OA
HETATM   41  C23 UNL     1      -4.192  -3.683  -0.045  1.00  0.00     0.095 C 
HETATM   42  C24 UNL     1      -4.713  -2.911  -1.192  1.00  0.00     0.038 C 
HETATM   43  C25 UNL     1      -5.477  -4.102   0.778  1.00  0.00     0.038 C 
ENDBRANCH  33  35
ENDBRANCH   1  31
TORSDOF 13
