REMARK  14 active torsions:
REMARK  status: ('A' for Active; 'I' for Inactive)
REMARK    1  A    between atoms: O1_2  and  C2_3 
REMARK       I    between atoms: C2_3  and  N1_5 
REMARK    2  A    between atoms: N1_5  and  C3_7 
REMARK    3  A    between atoms: C3_7  and  C4_8 
REMARK    4  A    between atoms: C3_7  and  C24_39 
REMARK       I    between atoms: C4_8  and  N2_10 
REMARK    5  A    between atoms: N2_10  and  C5_12 
REMARK    6  A    between atoms: C5_12  and  C6_13 
REMARK    7  A    between atoms: C5_12  and  C21_36 
REMARK    8  A    between atoms: C6_13  and  O5_15 
REMARK    9  A    between atoms: O5_15  and  C7_16 
REMARK   10  A    between atoms: C7_16  and  C8_17 
REMARK       I    between atoms: N3_21  and  C12_22 
REMARK   11  A    between atoms: C12_22  and  C13_24 
REMARK   12  A    between atoms: C13_24  and  N4_25 
REMARK   13  A    between atoms: C13_24  and  C16_31 
REMARK       I    between atoms: N4_25  and  C14_27 
REMARK   14  A    between atoms: C14_27  and  O8_29 
ROOT
HETATM    1  O5  UNL     1       0.617  -0.117   1.046  1.00  0.00    -0.289 OA
ENDROOT
BRANCH   1   2
HETATM    2  C6  UNL     1       1.569  -0.330   0.125  1.00  0.00     0.286 C 
HETATM    3  O4  UNL     1       1.299  -1.269  -0.706  1.00  0.00    -0.263 OA
BRANCH   2   4
HETATM    4  C5  UNL     1       2.800   0.466   0.126  1.00  0.00     0.188 C 
BRANCH   4   5
HETATM    5  N2  UNL     1       4.007  -0.306   0.184  1.00  0.00    -0.345 N 
HETATM    6  C4  UNL     1       4.444  -1.549  -0.141  1.00  0.00     0.241 C 
HETATM    7  O3  UNL     1       3.819  -2.483  -0.689  1.00  0.00    -0.271 OA
ATOM      8  H2  UNL     1       4.764   0.244   0.591  1.00  0.00     0.163 HD
BRANCH   6   9
HETATM    9  C3  UNL     1       5.914  -1.816   0.198  1.00  0.00     0.182 C 
BRANCH   9  10
HETATM   10  N1  UNL     1       6.706  -1.118  -0.820  1.00  0.00    -0.323 N 
HETATM   11  C2  UNL     1       7.516   0.006  -0.428  1.00  0.00     0.360 C 
HETATM   12  O2  UNL     1       7.727   0.452   0.656  1.00  0.00    -0.239 OA
ATOM     13  H1  UNL     1       6.683  -1.425  -1.793  1.00  0.00     0.165 HD
BRANCH  11  14
HETATM   14  O1  UNL     1       8.134   0.655  -1.551  1.00  0.00    -0.309 OA
HETATM   15  C1  UNL     1       8.911   1.778  -1.203  1.00  0.00     0.215 C 
ENDBRANCH  11  14
ENDBRANCH   9  10
BRANCH   9  16
HETATM   16  C24 UNL     1       6.144  -1.560   1.635  1.00  0.00     0.009 C 
HETATM   17  C25 UNL     1       5.107  -2.375   2.453  1.00  0.00     0.012 C 
HETATM   18  C26 UNL     1       7.466  -2.114   2.116  1.00  0.00     0.012 C 
ENDBRANCH   9  16
ENDBRANCH   6   9
ENDBRANCH   4   5
BRANCH   4  19
HETATM   19  C21 UNL     1       2.986   1.335  -1.081  1.00  0.00     0.010 C 
HETATM   20  C22 UNL     1       4.201   2.275  -0.960  1.00  0.00     0.012 C 
HETATM   21  C23 UNL     1       1.853   2.158  -1.541  1.00  0.00     0.012 C 
ENDBRANCH   4  19
ENDBRANCH   2   4
ENDBRANCH   1   2
BRANCH   1  22
HETATM   22  C7  UNL     1      -0.561  -0.439   1.523  1.00  0.00     0.150 C 
BRANCH  22  23
HETATM   23  C8  UNL     1      -1.849  -0.067   0.866  1.00  0.00    -0.040 C 
HETATM   24  C9  UNL     1      -2.008   1.420   0.756  1.00  0.00     0.039 C 
HETATM   25  C10 UNL     1      -1.998   2.035  -0.580  1.00  0.00     0.024 C 
HETATM   26  C11 UNL     1      -2.464   1.134  -1.714  1.00  0.00     0.126 C 
HETATM   27  N3  UNL     1      -3.183   0.058  -1.062  1.00  0.00    -0.346 N 
HETATM   28  C12 UNL     1      -4.593   0.053  -1.139  1.00  0.00     0.243 C 
HETATM   29  C20 UNL     1      -2.331  -0.839  -0.314  1.00  0.00     0.162 C 
HETATM   30  O6  UNL     1      -5.107   1.022  -1.818  1.00  0.00    -0.271 OA
BRANCH  28  31
HETATM   31  C13 UNL     1      -5.514  -0.911  -0.507  1.00  0.00     0.186 C 
BRANCH  31  32
HETATM   32  N4  UNL     1      -5.839  -0.584   0.850  1.00  0.00    -0.323 N 
HETATM   33  C14 UNL     1      -5.832   0.654   1.498  1.00  0.00     0.360 C 
HETATM   34  O7  UNL     1      -5.596   1.748   0.884  1.00  0.00    -0.239 OA
ATOM     35  H4  UNL     1      -6.118  -1.375   1.431  1.00  0.00     0.165 HD
BRANCH  33  36
HETATM   36  O8  UNL     1      -6.077   0.765   2.850  1.00  0.00    -0.309 OA
HETATM   37  C15 UNL     1      -6.049   1.993   3.554  1.00  0.00     0.215 C 
ENDBRANCH  33  36
ENDBRANCH  31  32
BRANCH  31  38
HETATM   38  C16 UNL     1      -6.766  -1.096  -1.323  1.00  0.00    -0.022 C 
HETATM   39  C17 UNL     1      -7.777  -1.978  -0.583  1.00  0.00     0.017 C 
HETATM   40  C18 UNL     1      -7.468   0.084  -1.845  1.00  0.00     0.017 C 
HETATM   41  C19 UNL     1      -6.456  -1.994  -2.557  1.00  0.00     0.017 C 
ENDBRANCH  31  38
ENDBRANCH  28  31
ENDBRANCH  22  23
ENDBRANCH   1  22
TORSDOF 14
