REMARK  2 active torsions:
REMARK  status: ('A' for Active; 'I' for Inactive)
REMARK    1  A    between atoms: C6_6  and  N1_7 
REMARK    2  A    between atoms: C7_11  and  O1_12 
ROOT
HETATM    1  C1  UNL     1      -2.825   0.214   0.605  1.00  0.00     0.010 C 
HETATM    2  C2  UNL     1      -1.306   0.040   0.475  1.00  0.00    -0.016 C 
HETATM    3  C3  UNL     1      -0.995  -1.206  -0.284  1.00  0.00     0.004 C 
HETATM    4  C4  UNL     1       0.250  -1.906   0.191  1.00  0.00     0.002 C 
HETATM    5  C5  UNL     1       1.503  -1.136  -0.015  1.00  0.00     0.035 C 
HETATM    6  C6  UNL     1       1.399   0.327   0.281  1.00  0.00     0.212 C 
HETATM    7  C7  UNL     1       0.589   1.035  -0.789  1.00  0.00     0.148 C 
HETATM    8  C8  UNL     1      -0.838   1.220  -0.377  1.00  0.00     0.038 C 
ENDROOT
BRANCH   6   9
HETATM    9  N1  UNL     1       2.764   0.875   0.186  1.00  0.00    -0.073 N 
ATOM     10  H13 UNL     1       3.435   0.390   0.782  1.00  0.00     0.274 HD
ATOM     11  H12 UNL     1       3.217   0.676  -0.706  1.00  0.00     0.274 HD
ATOM     12  H11 UNL     1       2.693   1.872   0.388  1.00  0.00     0.274 HD
ENDBRANCH   6   9
BRANCH   7  13
HETATM   13  O1  UNL     1       1.187   2.251  -1.116  1.00  0.00    -0.393 OA
ATOM     14  H1  UNL     1       0.680   2.694  -1.786  1.00  0.00     0.210 HD
ENDBRANCH   7  13
TORSDOF 2
