REMARK  1 active torsions:
REMARK  status: ('A' for Active; 'I' for Inactive)
REMARK    1  A    between atoms: O1_1  and  C1_3 
ROOT
HETATM    1  C1  UNL     1       1.987   0.151  -0.409  1.00  0.00     0.118 C 
HETATM    2  C2  UNL     1       1.860  -1.301  -0.066  1.00  0.00     0.034 C 
HETATM    3  C3  UNL     1       0.792  -1.616   0.919  1.00  0.00     0.035 C 
HETATM    4  C4  UNL     1      -0.457  -0.807   0.768  1.00  0.00     0.125 C 
HETATM    5  O2  UNL     1      -1.234  -1.211  -0.333  1.00  0.00    -0.385 OA
HETATM    6  C5  UNL     1      -2.512  -0.671  -0.103  1.00  0.00     0.168 C 
HETATM    7  C6  UNL     1      -2.462   0.770  -0.516  1.00  0.00     0.027 C 
HETATM    8  C7  UNL     1      -1.041   1.287  -0.485  1.00  0.00     0.009 C 
HETATM    9  C8  UNL     1      -0.237   0.661   0.645  1.00  0.00     0.017 C 
HETATM   10  C9  UNL     1       1.200   1.058   0.493  1.00  0.00     0.039 C 
ENDROOT
BRANCH   1  11
HETATM   11  O1  UNL     1       3.341   0.543  -0.291  1.00  0.00    -0.396 OA
ATOM     12  H1  UNL     1       3.422   1.464  -0.509  1.00  0.00     0.210 HD
ENDBRANCH   1  11
TORSDOF 1
