REMARK  2 active torsions:
REMARK  status: ('A' for Active; 'I' for Inactive)
REMARK    1  A    between atoms: O1_1  and  C1_3 
REMARK    2  A    between atoms: C1_3  and  C2_4 
ROOT
HETATM    1  C2  UNL     1      -1.437   0.010  -0.363  1.00  0.00     0.012 C 
HETATM    2  C3  UNL     1      -0.801  -1.224  -0.931  1.00  0.00     0.010 C 
HETATM    3  C4  UNL     1       0.651  -1.213  -0.531  1.00  0.00     0.042 C 
HETATM    4  C5  UNL     1       0.844   0.136   0.079  1.00  0.00     0.099 C 
HETATM    5  C6  UNL     1       2.023   0.262   0.969  1.00  0.00     0.070 C 
HETATM    6  C7  UNL     1       3.010   1.001   0.062  1.00  0.00     0.213 C 
HETATM    7  O2  UNL     1       2.335   0.985  -1.168  1.00  0.00    -0.240 OA
HETATM    8  O3  UNL     1       1.064   1.092  -0.907  1.00  0.00    -0.230 OA
HETATM    9  C8  UNL     1      -0.477   0.390   0.751  1.00  0.00     0.048 C 
ENDROOT
BRANCH   1  10
HETATM   10  C1  UNL     1      -2.829  -0.241   0.160  1.00  0.00     0.168 C 
BRANCH  10  11
HETATM   11  O1  UNL     1      -3.302   0.984   0.658  1.00  0.00    -0.400 OA
ATOM     12  H1  UNL     1      -4.179   0.826   0.987  1.00  0.00     0.209 HD
ENDBRANCH  10  11
ENDBRANCH   1  10
TORSDOF 2
