REMARK  9 active torsions:
REMARK  status: ('A' for Active; 'I' for Inactive)
REMARK    1  A    between atoms: C4_4  and  O1_5 
REMARK    2  A    between atoms: C6_8  and  O2_10 
REMARK    3  A    between atoms: C8_12  and  C9_13 
REMARK    4  A    between atoms: C9_13  and  C11_15 
REMARK    5  A    between atoms: C14_19  and  O4_20 
REMARK    6  A    between atoms: C14_19  and  C15_22 
REMARK    7  A    between atoms: C15_22  and  O5_23 
REMARK    8  A    between atoms: C15_22  and  C16_25 
REMARK    9  A    between atoms: C15_22  and  C17_28 
ROOT
HETATM    1  C11 UNL     1       0.085  -1.049  -0.680  1.00  0.00     0.058 C 
HETATM    2  C12 UNL     1       0.574  -1.913  -1.786  1.00  0.00     0.037 C 
HETATM    3  C13 UNL     1      -0.505  -2.958  -2.020  1.00  0.00     0.172 C 
HETATM    4  O3  UNL     1      -1.181  -3.019  -0.844  1.00  0.00    -0.352 OA
HETATM    5  C14 UNL     1      -1.149  -1.762  -0.212  1.00  0.00     0.208 C 
ENDROOT
BRANCH   1   6
HETATM    6  C9  UNL     1       0.992  -0.739   0.430  1.00  0.00    -0.002 C 
HETATM    7  C10 UNL     1       1.342  -2.009   1.195  1.00  0.00     0.011 C 
BRANCH   6   8
HETATM    8  C8  UNL     1       2.246   0.008   0.208  1.00  0.00     0.028 C 
HETATM    9  C2  UNL     1       3.356  -0.580  -0.560  1.00  0.00    -0.009 C 
HETATM   10  C1  UNL     1       3.479  -0.167  -2.005  1.00  0.00     0.010 C 
HETATM   11  C3  UNL     1       4.659  -0.048   0.093  1.00  0.00     0.036 C 
HETATM   12  C4  UNL     1       4.577   1.424   0.327  1.00  0.00     0.121 C 
HETATM   13  C5  UNL     1       3.407   2.132  -0.234  1.00  0.00     0.069 C 
HETATM   14  C6  UNL     1       2.073   1.499  -0.018  1.00  0.00     0.061 C 
HETATM   15  C7  UNL     1       1.429   2.090   1.249  1.00  0.00     0.046 C 
BRANCH  12  16
HETATM   16  O1  UNL     1       4.669   1.743   1.702  1.00  0.00    -0.395 OA
ATOM     17  H1  UNL     1       4.617   2.680   1.851  1.00  0.00     0.210 HD
ENDBRANCH  12  16
BRANCH  14  18
HETATM   18  O2  UNL     1       1.246   1.844  -1.047  1.00  0.00    -0.390 OA
ATOM     19  H2  UNL     1       0.397   1.441  -0.909  1.00  0.00     0.210 HD
ENDBRANCH  14  18
ENDBRANCH   6   8
ENDBRANCH   1   6
BRANCH   5  20
HETATM   20  O4  UNL     1      -1.172  -2.055   1.146  1.00  0.00    -0.362 OA
ATOM     21  H4  UNL     1      -1.954  -2.507   1.442  1.00  0.00     0.213 HD
ENDBRANCH   5  20
BRANCH   5  22
HETATM   22  C15 UNL     1      -2.423  -1.086  -0.622  1.00  0.00     0.206 C 
BRANCH  22  23
HETATM   23  O5  UNL     1      -2.432  -0.973  -2.032  1.00  0.00    -0.374 OA
ATOM     24  H5  UNL     1      -3.239  -0.545  -2.292  1.00  0.00     0.211 HD
ENDBRANCH  22  23
BRANCH  22  25
HETATM   25  C16 UNL     1      -3.557  -1.965  -0.256  1.00  0.00     0.215 C 
HETATM   26  O6  UNL     1      -4.339  -2.466  -1.121  1.00  0.00    -0.646 OA
HETATM   27  O7  UNL     1      -3.805  -2.274   1.055  1.00  0.00    -0.646 OA
ENDBRANCH  22  25
BRANCH  22  28
HETATM   28  C17 UNL     1      -2.654   0.285  -0.109  1.00  0.00     0.037 C 
HETATM   29  C18 UNL     1      -2.711   0.470   1.360  1.00  0.00     0.008 C 
HETATM   30  C19 UNL     1      -2.818   1.986   1.604  1.00  0.00     0.001 C 
HETATM   31  C20 UNL     1      -4.170   2.406   1.151  1.00  0.00     0.000 C 
HETATM   32  C21 UNL     1      -4.502   1.999  -0.250  1.00  0.00     0.001 C 
HETATM   33  C22 UNL     1      -4.032   0.673  -0.667  1.00  0.00     0.008 C 
ENDBRANCH  22  28
ENDBRANCH   5  22
TORSDOF 9
