REMARK  9 active torsions:
REMARK  status: ('A' for Active; 'I' for Inactive)
REMARK    1  A    between atoms: C2_2  and  C4_4 
REMARK    2  A    between atoms: N1_10  and  O2_12 
REMARK    3  A    between atoms: C18_23  and  N2_24 
REMARK    4  A    between atoms: N2_24  and  C19_26 
REMARK    5  A    between atoms: C19_26  and  C20_27 
REMARK    6  A    between atoms: C20_27  and  N3_28 
REMARK    7  A    between atoms: N3_28  and  C22_30 
REMARK    8  A    between atoms: C22_30  and  C23_31 
REMARK    9  A    between atoms: C23_31  and  N4_32 
ROOT
HETATM    1  C4  UNL     1      -2.523  -2.310  -0.124  1.00  0.00    -0.009 C 
HETATM    2  C5  UNL     1      -3.520  -1.505  -0.929  1.00  0.00     0.013 C 
HETATM    3  C6  UNL     1      -4.813  -1.503  -0.108  1.00  0.00     0.085 C 
HETATM    4  C7  UNL     1      -6.008  -1.200  -0.895  1.00  0.00     0.173 C 
HETATM    5  O1  UNL     1      -6.487  -2.101  -1.629  1.00  0.00    -0.291 OA
HETATM    6  C8  UNL     1      -6.696   0.082  -0.893  1.00  0.00     0.077 C 
HETATM    7  N1  UNL     1      -7.982   0.182  -0.925  1.00  0.00    -0.270 N 
ATOM      8  H1  UNL     1      -8.413   1.106  -0.921  1.00  0.00     0.194 HD
HETATM    9  C9  UNL     1      -5.911   1.369  -0.858  1.00  0.00     0.063 C 
HETATM   10  C10 UNL     1      -6.807   2.462  -0.358  1.00  0.00     0.006 C 
HETATM   11  C11 UNL     1      -6.130   3.776  -0.206  1.00  0.00     0.000 C 
HETATM   12  C12 UNL     1      -4.647   3.744  -0.369  1.00  0.00     0.000 C 
HETATM   13  C13 UNL     1      -3.896   3.503   0.922  1.00  0.00     0.000 C 
HETATM   14  C14 UNL     1      -2.428   3.304   0.635  1.00  0.00     0.000 C 
HETATM   15  C15 UNL     1      -1.792   2.321   1.588  1.00  0.00     0.000 C 
HETATM   16  C16 UNL     1      -0.874   1.402   0.801  1.00  0.00     0.002 C 
HETATM   17  C17 UNL     1      -1.176  -0.042   1.125  1.00  0.00     0.025 C 
HETATM   18  C18 UNL     1      -0.373  -1.021   0.341  1.00  0.00     0.081 C 
HETATM   19  C29 UNL     1      -1.102  -2.051  -0.421  1.00  0.00     0.030 C 
ENDROOT
BRANCH  18  20
HETATM   20  N2  UNL     1       0.588  -1.604   1.234  1.00  0.00    -0.396 N 
ATOM     21  H2  UNL     1       0.303  -1.966   2.144  1.00  0.00     0.159 HD
BRANCH  20  22
HETATM   22  C19 UNL     1       1.931  -1.664   0.825  1.00  0.00     0.075 C 
BRANCH  22  23
HETATM   23  C20 UNL     1       2.614  -0.349   0.681  1.00  0.00     0.165 C 
BRANCH  23  24
HETATM   24  N3  UNL     1       4.003  -0.474   0.318  1.00  0.00    -0.391 N 
HETATM   25  C21 UNL     1       4.320  -0.987  -0.929  1.00  0.00     0.149 C 
BRANCH  24  26
HETATM   26  C22 UNL     1       4.938  -0.296   1.337  1.00  0.00     0.088 C 
BRANCH  26  27
HETATM   27  C23 UNL     1       6.369  -0.479   1.110  1.00  0.00     0.316 C 
BRANCH  27  28
HETATM   28  N4  UNL     1       7.057   0.311   0.149  1.00  0.00     0.093 N 
HETATM   29  C24 UNL     1       7.172   1.703   0.467  1.00  0.00     0.273 C 
HETATM   30  C25 UNL     1       7.770   2.538  -0.631  1.00  0.00     0.030 C 
HETATM   31  C26 UNL     1       8.958   1.824  -1.245  1.00  0.00     0.003 C 
HETATM   32  C27 UNL     1       9.412   0.730  -0.278  1.00  0.00     0.030 C 
HETATM   33  C28 UNL     1       8.314  -0.284  -0.261  1.00  0.00     0.273 C 
ENDBRANCH  27  28
ENDBRANCH  26  27
ENDBRANCH  24  26
ENDBRANCH  23  24
ENDBRANCH  22  23
ENDBRANCH  20  22
ENDBRANCH  18  20
BRANCH   1  34
HETATM   34  C2  UNL     1      -2.823  -3.775  -0.444  1.00  0.00    -0.019 C 
HETATM   35  C1  UNL     1      -1.899  -4.717   0.298  1.00  0.00     0.010 C 
HETATM   36  C3  UNL     1      -2.723  -4.095  -1.903  1.00  0.00     0.010 C 
ENDBRANCH   1  34
BRANCH   7  37
HETATM   37  O2  UNL     1      -8.779  -0.933  -0.964  1.00  0.00    -0.290 OA
ATOM     38  H2  UNL     1      -9.726  -0.859  -0.988  1.00  0.00     0.244 HD
ENDBRANCH   7  37
TORSDOF 9
