REMARK  8 active torsions:
REMARK  status: ('A' for Active; 'I' for Inactive)
REMARK    1  A    between atoms: C5_7  and  S1_8 
REMARK    2  A    between atoms: S1_8  and  C6_9 
REMARK    3  A    between atoms: C6_9  and  C7_10 
REMARK    4  A    between atoms: N4_17  and  C9_18 
REMARK    5  A    between atoms: C9_18  and  C10_19 
REMARK    6  A    between atoms: C10_19  and  C11_20 
REMARK    7  A    between atoms: C11_20  and  N5_21 
REMARK    8  A    between atoms: C19_31  and  C20_32 
ROOT
HETATM    1  C1  UNL     1      -5.849  -2.698  -1.223  1.00  0.00     0.049 C 
HETATM    2  C2  UNL     1      -4.893  -1.660  -0.780  1.00  0.00    -0.053 A 
HETATM    3  C3  UNL     1      -3.539  -1.915  -0.945  1.00  0.00     0.039 A 
HETATM    4  C4  UNL     1      -2.644  -0.955  -0.544  1.00  0.00     0.061 A 
HETATM    5  N1  UNL     1      -1.296  -0.851  -0.628  1.00  0.00    -0.335 N 
ATOM      6  H1  UNL     1      -0.673  -1.573  -0.990  1.00  0.00     0.168 HD
HETATM    7  C5  UNL     1      -0.905   0.342  -0.165  1.00  0.00     0.145 A 
HETATM    8  N6  UNL     1      -2.009   1.012   0.233  1.00  0.00    -0.335 N 
ATOM      9  H6  UNL     1      -2.028   1.949   0.637  1.00  0.00     0.168 HD
HETATM   10  C17 UNL     1      -3.081   0.228   0.004  1.00  0.00     0.061 A 
HETATM   11  C18 UNL     1      -4.468   0.448   0.163  1.00  0.00     0.040 A 
HETATM   12  C19 UNL     1      -5.385  -0.487  -0.226  1.00  0.00    -0.045 A 
ENDROOT
BRANCH   7  13
HETATM   13  S1  UNL     1       0.791   0.961  -0.294  1.00  0.00    -0.086 SA
BRANCH  13  14
HETATM   14  C6  UNL     1       1.920  -0.499  -0.400  1.00  0.00     0.160 C 
BRANCH  14  15
HETATM   15  C7  UNL     1       2.155  -0.883   1.023  1.00  0.00     0.110 A 
HETATM   16  N2  UNL     1       1.206  -1.301   1.853  1.00  0.00    -0.286 N 
HETATM   17  N3  UNL     1       1.741  -1.554   3.055  1.00  0.00    -0.275 N 
ATOM     18  H2  UNL     1       0.221  -1.412   1.612  1.00  0.00     0.188 HD
HETATM   19  C8  UNL     1       3.057  -1.279   2.943  1.00  0.00     0.194 A 
ATOM     20  H3  UNL     1       1.252  -1.887   3.886  1.00  0.00     0.189 HD
HETATM   21  S2  UNL     1       4.117  -1.454   4.171  1.00  0.00    -0.039 SA
HETATM   22  N4  UNL     1       3.346  -0.857   1.670  1.00  0.00    -0.310 N 
BRANCH  22  23
HETATM   23  C9  UNL     1       4.635  -0.569   1.123  1.00  0.00     0.138 C 
BRANCH  23  24
HETATM   24  C10 UNL     1       5.034   0.862   1.065  1.00  0.00     0.065 C 
BRANCH  24  25
HETATM   25  C11 UNL     1       6.419   1.184   0.618  1.00  0.00     0.059 C 
BRANCH  25  26
HETATM   26  N5  UNL     1       6.854   0.745  -0.625  1.00  0.00    -0.393 N 
HETATM   27  C12 UNL     1       7.177  -0.600  -0.873  1.00  0.00     0.122 C 
HETATM   28  C13 UNL     1       8.684  -0.867  -0.892  1.00  0.00     0.020 C 
HETATM   29  C14 UNL     1       9.486   0.260  -0.314  1.00  0.00     0.003 C 
HETATM   30  C15 UNL     1       9.167   1.517  -1.053  1.00  0.00     0.020 C 
HETATM   31  C16 UNL     1       7.691   1.689  -1.346  1.00  0.00     0.122 C 
ENDBRANCH  25  26
ENDBRANCH  24  25
ENDBRANCH  23  24
ENDBRANCH  22  23
ENDBRANCH  14  15
ENDBRANCH  13  14
ENDBRANCH   7  13
BRANCH  12  32
HETATM   32  C20 UNL     1      -6.857  -0.265  -0.304  1.00  0.00     0.023 C 
HETATM   33  C21 UNL     1      -7.572  -0.388   1.022  1.00  0.00     0.014 C 
HETATM   34  C22 UNL     1      -8.585   0.732   0.940  1.00  0.00    -0.013 C 
HETATM   35  C23 UNL     1      -9.326   0.654  -0.346  1.00  0.00     0.005 C 
HETATM   36  C26 UNL     1      -7.543   1.845   0.625  1.00  0.00     0.010 C 
HETATM   37  C24 UNL     1      -8.412   1.273  -1.422  1.00  0.00     0.005 C 
HETATM   38  C25 UNL     1      -7.097   1.208  -0.702  1.00  0.00    -0.006 C 
ENDBRANCH  12  32
TORSDOF 8
