REMARK  11 active torsions:
REMARK  status: ('A' for Active; 'I' for Inactive)
REMARK    1  A    between atoms: C1_2  and  C2_3 
REMARK       I    between atoms: C1_2  and  N3_22 
REMARK    2  A    between atoms: C2_3  and  C3_4 
REMARK    3  A    between atoms: N1_6  and  C4_7 
REMARK    4  A    between atoms: C4_7  and  C5_8 
REMARK    5  A    between atoms: C5_8  and  C6_9 
REMARK    6  A    between atoms: C6_9  and  C7_10 
REMARK    7  A    between atoms: C7_10  and  C8_11 
REMARK    8  A    between atoms: C8_11  and  C9_12 
REMARK    9  A    between atoms: C9_12  and  O2_13 
REMARK   10  A    between atoms: N2_15  and  O3_17 
REMARK   11  A    between atoms: C10_19  and  O4_20 
ROOT
HETATM    1  C3  UNL     1      -1.342  -0.351   1.044  1.00  0.00     0.060 A 
HETATM    2  S1  UNL     1      -0.268   0.839   1.593  1.00  0.00    -0.010 SA
HETATM    3  N1  UNL     1       0.753  -0.267   0.893  1.00  0.00    -0.297 N 
HETATM    4  C10 UNL     1      -0.277  -1.066   0.553  1.00  0.00     0.163 A 
ENDROOT
BRANCH   3   5
HETATM    5  C4  UNL     1       2.218  -0.291   0.745  1.00  0.00     0.139 C 
BRANCH   5   6
HETATM    6  C5  UNL     1       2.630   0.371  -0.528  1.00  0.00     0.021 C 
BRANCH   6   7
HETATM    7  C6  UNL     1       4.133   0.377  -0.713  1.00  0.00     0.002 C 
BRANCH   7   8
HETATM    8  C7  UNL     1       4.830   1.115   0.399  1.00  0.00     0.008 C 
BRANCH   8   9
HETATM    9  C8  UNL     1       6.320   1.119   0.215  1.00  0.00     0.086 C 
BRANCH   9  10
HETATM   10  C9  UNL     1       6.904  -0.237   0.193  1.00  0.00     0.135 C 
HETATM   11  N2  UNL     1       7.542  -0.667  -0.825  1.00  0.00    -0.251 N 
ATOM     12  H2  UNL     1       7.921  -1.613  -0.777  1.00  0.00     0.196 HD
BRANCH  10  13
HETATM   13  O2  UNL     1       6.753  -1.049   1.296  1.00  0.00    -0.348 OA
ATOM     14  H2  UNL     1       7.129  -1.921   1.282  1.00  0.00     0.219 HD
ENDBRANCH  10  13
BRANCH  11  15
HETATM   15  O3  UNL     1       7.759   0.042  -1.980  1.00  0.00    -0.288 OA
ATOM     16  H3  UNL     1       8.234  -0.278  -2.738  1.00  0.00     0.244 HD
ENDBRANCH  11  15
ENDBRANCH   9  10
ENDBRANCH   8   9
ENDBRANCH   7   8
ENDBRANCH   6   7
ENDBRANCH   5   6
ENDBRANCH   3   5
BRANCH   4  17
HETATM   17  O4  UNL     1      -0.221  -2.303  -0.129  1.00  0.00    -0.345 OA
ATOM     18  H4  UNL     1       0.516  -2.798  -0.469  1.00  0.00     0.219 HD
ENDBRANCH   4  17
BRANCH   1  19
HETATM   19  C2  UNL     1      -2.814  -0.486   1.112  1.00  0.00     0.155 C 
BRANCH  19  20
HETATM   20  C1  UNL     1      -3.511  -0.188  -0.151  1.00  0.00     0.224 C 
HETATM   21  O1  UNL     1      -2.845   0.144  -1.154  1.00  0.00    -0.273 OA
HETATM   22  N3  UNL     1      -4.904  -0.274  -0.226  1.00  0.00    -0.348 N 
HETATM   23  C11 UNL     1      -5.704  -0.663   0.913  1.00  0.00     0.152 C 
HETATM   24  C14 UNL     1      -5.601   0.029  -1.455  1.00  0.00     0.152 C 
HETATM   25  C12 UNL     1      -6.950   0.148   1.045  1.00  0.00     0.187 C 
HETATM   26  O5  UNL     1      -7.575   0.482  -0.122  1.00  0.00    -0.388 OA
HETATM   27  C13 UNL     1      -6.742   0.984  -1.101  1.00  0.00     0.187 C 
ENDBRANCH  19  20
ENDBRANCH   1  19
TORSDOF 11
