REMARK  12 active torsions:
REMARK  status: ('A' for Active; 'I' for Inactive)
REMARK    1  A    between atoms: C2_2  and  O1_3 
REMARK    2  A    between atoms: O1_3  and  C3_4 
REMARK    3  A    between atoms: C3_4  and  C4_6 
REMARK    4  A    between atoms: N1_7  and  N2_9 
REMARK       I    between atoms: N2_9  and  C5_11 
REMARK    5  A    between atoms: C5_11  and  C6_13 
REMARK    6  A    between atoms: C7_14  and  O4_15 
REMARK    7  A    between atoms: C8_17  and  O5_18 
REMARK    8  A    between atoms: C9_20  and  C10_21 
REMARK    9  A    between atoms: C10_21  and  O7_23 
REMARK   10  A    between atoms: C13_27  and  C14_28 
REMARK   11  A    between atoms: C14_28  and  O9_30 
REMARK   12  A    between atoms: O9_30  and  C15_31 
ROOT
HETATM    1  C6  UNL     1      -0.722  -0.124   0.318  1.00  0.00     0.087 A 
HETATM    2  C7  UNL     1      -1.004  -1.152   1.215  1.00  0.00     0.117 A 
HETATM    3  C8  UNL     1      -2.251  -1.742   1.301  1.00  0.00     0.118 A 
HETATM    4  C9  UNL     1      -3.262  -1.308   0.476  1.00  0.00     0.100 A 
HETATM    5  C12 UNL     1      -2.994  -0.303  -0.403  1.00  0.00     0.083 A 
HETATM    6  N3  UNL     1      -4.043   0.171  -1.282  1.00  0.00    -0.100 NA
HETATM    7  C13 UNL     1      -1.725   0.318  -0.512  1.00  0.00     0.083 A 
ENDROOT
BRANCH   1   8
HETATM    8  C5  UNL     1       0.596   0.449   0.277  1.00  0.00     0.274 C 
HETATM    9  N2  UNL     1       1.711   0.094   1.066  1.00  0.00    -0.266 N 
ATOM     10  H2  UNL     1       1.640  -0.646   1.764  1.00  0.00     0.190 HD
HETATM   11  O3  UNL     1       0.912   1.393  -0.526  1.00  0.00    -0.266 OA
BRANCH   9  12
HETATM   12  N1  UNL     1       2.933   0.787   0.868  1.00  0.00    -0.303 N 
HETATM   13  C4  UNL     1       4.018   0.121   0.887  1.00  0.00     0.189 C 
ATOM     14  H1  UNL     1       2.942   1.795   0.714  1.00  0.00     0.186 HD
BRANCH  13  15
HETATM   15  C3  UNL     1       5.332   0.747   0.693  1.00  0.00     0.299 C 
HETATM   16  O2  UNL     1       5.487   1.977   0.494  1.00  0.00    -0.259 OA
BRANCH  15  17
HETATM   17  O1  UNL     1       6.461  -0.050   0.729  1.00  0.00    -0.317 OA
BRANCH  17  18
HETATM   18  C2  UNL     1       7.742   0.504   0.547  1.00  0.00     0.174 C 
HETATM   19  C1  UNL     1       8.815  -0.541   0.625  1.00  0.00     0.034 C 
ENDBRANCH  17  18
ENDBRANCH  15  17
ENDBRANCH  13  15
ENDBRANCH   9  12
ENDBRANCH   1   8
BRANCH   2  20
HETATM   20  O4  UNL     1      -0.032  -1.626   2.062  1.00  0.00    -0.357 OA
ATOM     21  H4  UNL     1      -0.224  -2.327   2.674  1.00  0.00     0.217 HD
ENDBRANCH   2  20
BRANCH   7  22
HETATM   22  C14 UNL     1      -1.625   1.368  -1.501  1.00  0.00     0.296 C 
HETATM   23  O8  UNL     1      -0.662   2.054  -1.792  1.00  0.00    -0.259 OA
BRANCH  22  24
HETATM   24  O9  UNL     1      -2.774   1.701  -2.281  1.00  0.00    -0.318 OA
BRANCH  24  25
HETATM   25  C15 UNL     1      -2.694   2.728  -3.255  1.00  0.00     0.174 C 
HETATM   26  C16 UNL     1      -2.325   4.061  -2.679  1.00  0.00     0.034 C 
ENDBRANCH  24  25
ENDBRANCH  22  24
ENDBRANCH   7  22
BRANCH   3  27
HETATM   27  O5  UNL     1      -2.517  -2.772   2.205  1.00  0.00    -0.357 OA
ATOM     28  H5  UNL     1      -3.374  -3.178   2.264  1.00  0.00     0.217 HD
ENDBRANCH   3  27
BRANCH   4  29
HETATM   29  C10 UNL     1      -4.589  -1.917   0.548  1.00  0.00     0.297 C 
HETATM   30  O6  UNL     1      -5.486  -1.491  -0.223  1.00  0.00    -0.259 OA
BRANCH  29  31
HETATM   31  O7  UNL     1      -4.912  -2.929   1.412  1.00  0.00    -0.322 OA
HETATM   32  C11 UNL     1      -6.207  -3.509   1.469  1.00  0.00     0.213 C 
ENDBRANCH  29  31
ENDBRANCH   4  29
TORSDOF 12
