REMARK  12 active torsions:
REMARK  status: ('A' for Active; 'I' for Inactive)
REMARK    1  A    between atoms: C2_7  and  N3_8 
REMARK    2  A    between atoms: N4_11  and  C3_12 
REMARK    3  A    between atoms: C3_12  and  C4_13 
REMARK    4  A    between atoms: C4_13  and  C5_14 
REMARK    5  A    between atoms: C5_14  and  O1_15 
REMARK    6  A    between atoms: O1_15  and  C6_16 
REMARK    7  A    between atoms: C6_16  and  O3_18 
REMARK    8  A    between atoms: O3_18  and  C7_19 
REMARK    9  A    between atoms: C7_19  and  O4_20 
REMARK   10  A    between atoms: O4_20  and  C8_21 
REMARK   11  A    between atoms: C10_26  and  O6_27 
REMARK   12  A    between atoms: C11_29  and  C12_30 
ROOT
HETATM    1  N1  UNL     1      -4.434   2.236   1.839  1.00  0.00    -0.384 N 
ATOM      2  H11 UNL     1      -5.169   1.539   1.960  1.00  0.00     0.157 HD
ATOM      3  H12 UNL     1      -4.566   3.117   2.335  1.00  0.00     0.157 HD
HETATM    4  C1  UNL     1      -3.467   1.949   1.112  1.00  0.00     0.132 A 
HETATM    5  N2  UNL     1      -2.468   2.897   0.947  1.00  0.00    -0.176 N 
ATOM      6  H2  UNL     1      -2.544   3.798   1.419  1.00  0.00     0.186 HD
HETATM    7  C2  UNL     1      -1.416   2.642   0.182  1.00  0.00     0.685 A 
HETATM    8  N4  UNL     1      -1.224   1.494  -0.472  1.00  0.00    -0.142 N 
HETATM    9  C9  UNL     1      -2.189   0.515  -0.344  1.00  0.00     0.148 A 
HETATM   10  N5  UNL     1      -2.024  -0.656  -0.988  1.00  0.00    -0.321 N 
ATOM     11  H5  UNL     1      -1.192  -0.798  -1.560  1.00  0.00     0.169 HD
HETATM   12  C10 UNL     1      -2.932  -1.641  -0.893  1.00  0.00     0.159 A 
HETATM   13  C11 UNL     1      -4.038  -1.430  -0.119  1.00  0.00     0.103 A 
HETATM   14  C13 UNL     1      -4.252  -0.241   0.565  1.00  0.00     0.207 A 
HETATM   15  O8  UNL     1      -5.287  -0.102   1.261  1.00  0.00    -0.286 OA
HETATM   16  C14 UNL     1      -3.291   0.775   0.451  1.00  0.00     0.104 A 
ENDROOT
BRANCH   8  17
HETATM   17  C3  UNL     1      -0.072   1.130  -1.175  1.00  0.00     0.115 C 
BRANCH  17  18
HETATM   18  C4  UNL     1       1.162   1.209  -0.789  1.00  0.00     0.018 C 
BRANCH  18  19
HETATM   19  C5  UNL     1       1.776   1.658   0.445  1.00  0.00     0.210 C 
BRANCH  19  20
HETATM   20  O1  UNL     1       2.563   0.611   1.060  1.00  0.00    -0.294 OA
BRANCH  20  21
HETATM   21  C6  UNL     1       3.661   0.076   0.468  1.00  0.00     0.408 C 
HETATM   22  O2  UNL     1       4.055   0.478  -0.656  1.00  0.00    -0.229 OA
BRANCH  21  23
HETATM   23  O3  UNL     1       4.409  -0.957   1.096  1.00  0.00    -0.272 OA
BRANCH  23  24
HETATM   24  C7  UNL     1       5.541  -1.470   0.426  1.00  0.00     0.360 C 
BRANCH  24  25
HETATM   25  O4  UNL     1       6.096  -2.474   1.257  1.00  0.00    -0.302 OA
BRANCH  25  26
HETATM   26  C8  UNL     1       7.221  -3.203   0.929  1.00  0.00     0.400 C 
HETATM   27  O5  UNL     1       7.805  -2.983  -0.160  1.00  0.00    -0.276 OA
ENDBRANCH  25  26
ENDBRANCH  24  25
ENDBRANCH  23  24
ENDBRANCH  21  23
ENDBRANCH  20  21
ENDBRANCH  19  20
ENDBRANCH  18  19
ENDBRANCH  17  18
ENDBRANCH   8  17
BRANCH   7  28
HETATM   28  N3  UNL     1      -0.581   3.640  -0.026  1.00  0.00    -0.234 N 
ATOM     29  H32 UNL     1      -0.728   4.517   0.474  1.00  0.00     0.174 HD
ATOM     30  H31 UNL     1       0.229   3.444  -0.615  1.00  0.00     0.174 HD
ENDBRANCH   7  28
BRANCH  12  31
HETATM   31  O6  UNL     1      -2.750  -2.862  -1.571  1.00  0.00    -0.345 OA
ATOM     32  H6  UNL     1      -3.392  -3.559  -1.504  1.00  0.00     0.219 HD
ENDBRANCH  12  31
BRANCH  13  33
HETATM   33  C12 UNL     1      -5.057  -2.487   0.010  1.00  0.00     0.278 C 
HETATM   34  O7  UNL     1      -4.900  -3.579  -0.593  1.00  0.00    -0.301 OA
ENDBRANCH  13  33
TORSDOF 12
