REMARK  11 active torsions:
REMARK  status: ('A' for Active; 'I' for Inactive)
REMARK    1  A    between atoms: C2_2  and  C3_3 
REMARK    2  A    between atoms: C3_3  and  C4_4 
REMARK    3  A    between atoms: C5_5  and  C6_6 
REMARK    4  A    between atoms: C6_6  and  C7_7 
REMARK    5  A    between atoms: C7_7  and  C8_8 
REMARK    6  A    between atoms: C7_7  and  C9_11 
REMARK    7  A    between atoms: C8_8  and  O1_9 
REMARK    8  A    between atoms: C9_11  and  C10_12 
REMARK    9  A    between atoms: C11_13  and  C12_14 
REMARK   10  A    between atoms: C13_15  and  O2_16 
REMARK   11  A    between atoms: C16_20  and  O3_21 
ROOT
HETATM    1  C9  UNL     1      -0.011   0.712   0.515  1.00  0.00     0.033 C 
ENDROOT
BRANCH   1   2
HETATM    2  C7  UNL     1       0.766   0.033  -0.547  1.00  0.00     0.016 C 
BRANCH   2   3
HETATM    3  C6  UNL     1       2.195   0.621  -0.423  1.00  0.00     0.033 C 
BRANCH   3   4
HETATM    4  C5  UNL     1       3.105   0.047  -1.424  1.00  0.00    -0.030 C 
HETATM    5  C4  UNL     1       4.220  -0.622  -1.200  1.00  0.00    -0.031 C 
BRANCH   5   6
HETATM    6  C3  UNL     1       4.809  -0.949   0.104  1.00  0.00     0.026 C 
BRANCH   6   7
HETATM    7  C2  UNL     1       6.188  -0.386   0.305  1.00  0.00    -0.001 C 
HETATM    8  C1  UNL     1       6.250   1.100   0.221  1.00  0.00     0.005 C 
ENDBRANCH   6   7
ENDBRANCH   5   6
ENDBRANCH   3   4
ENDBRANCH   2   3
BRANCH   2   9
HETATM    9  C8  UNL     1       0.871  -1.459  -0.331  1.00  0.00     0.169 C 
BRANCH   9  10
HETATM   10  O1  UNL     1       1.381  -1.779   0.921  1.00  0.00    -0.400 OA
ATOM     11  H1  UNL     1       1.447  -2.717   1.057  1.00  0.00     0.209 HD
ENDBRANCH   9  10
ENDBRANCH   2   9
ENDBRANCH   1   2
BRANCH   1  12
HETATM   12  C10 UNL     1      -1.437   0.460   0.641  1.00  0.00    -0.030 C 
HETATM   13  C11 UNL     1      -2.204  -0.252  -0.119  1.00  0.00    -0.021 C 
BRANCH  13  14
HETATM   14  C12 UNL     1      -3.640  -0.490   0.038  1.00  0.00     0.065 C 
HETATM   15  C13 UNL     1      -4.317   0.086   1.222  1.00  0.00     0.128 C 
HETATM   16  C14 UNL     1      -5.786  -0.241   0.856  1.00  0.00     0.035 C 
HETATM   17  C15 UNL     1      -5.837   0.325  -0.555  1.00  0.00     0.035 C 
HETATM   18  C16 UNL     1      -4.480  -0.029  -1.147  1.00  0.00     0.128 C 
BRANCH  15  19
HETATM   19  O2  UNL     1      -4.259   1.462   1.355  1.00  0.00    -0.395 OA
ATOM     20  H2  UNL     1      -4.693   1.832   2.115  1.00  0.00     0.210 HD
ENDBRANCH  15  19
BRANCH  18  21
HETATM   21  O3  UNL     1      -3.889   1.058  -1.761  1.00  0.00    -0.395 OA
ATOM     22  H3  UNL     1      -4.413   1.345  -2.500  1.00  0.00     0.210 HD
ENDBRANCH  18  21
ENDBRANCH  13  14
ENDBRANCH   1  12
TORSDOF 11
