REMARK  6 active torsions:
REMARK  status: ('A' for Active; 'I' for Inactive)
REMARK    1  A    between atoms: C3_3  and  C4_4 
REMARK    2  A    between atoms: C4_4  and  C6_7 
REMARK    3  A    between atoms: C11_15  and  C12_16 
REMARK    4  A    between atoms: C13_17  and  C14_18 
REMARK    5  A    between atoms: C16_23  and  N4_24 
REMARK       I    between atoms: N4_24  and  C17_26 
REMARK       I    between atoms: C17_26  and  N5_28 
REMARK    6  A    between atoms: C20_31  and  C21_32 
ROOT
HETATM    1  C4  UNL     1      -6.615   0.008   1.467  1.00  0.00     0.178 C 
HETATM    2  C5  UNL     1      -7.146  -1.071   2.301  1.00  0.00     0.075 C 
HETATM    3  N1  UNL     1      -7.575  -1.917   2.985  1.00  0.00    -0.196 NA
ENDROOT
BRANCH   1   4
HETATM    4  C3  UNL     1      -5.364  -0.370   0.811  1.00  0.00     0.057 A 
HETATM    5  C2  UNL     1      -5.110  -1.401  -0.031  1.00  0.00     0.056 A 
HETATM    6  C1  UNL     1      -6.055  -2.442  -0.533  1.00  0.00     0.072 C 
HETATM    7  N7  UNL     1      -3.799  -1.332  -0.367  1.00  0.00    -0.241 N 
HETATM    8  C10 UNL     1      -3.250  -0.277   0.255  1.00  0.00     0.148 A 
HETATM    9  N6  UNL     1      -3.041  -2.082  -1.149  1.00  0.00    -0.301 N 
HETATM   10  N2  UNL     1      -4.212   0.312   0.978  1.00  0.00    -0.340 N 
HETATM   11  C11 UNL     1      -1.914  -0.000   0.067  1.00  0.00     0.091 A 
ATOM     12  H2  UNL     1      -4.093   1.141   1.560  1.00  0.00     0.167 HD
HETATM   13  C16 UNL     1      -1.084  -0.777  -0.756  1.00  0.00     0.075 A 
HETATM   14  C28 UNL     1      -1.710  -1.834  -1.357  1.00  0.00     0.139 A 
ATOM     15  H6  UNL     1      -3.467  -2.881  -1.619  1.00  0.00     0.186 HD
BRANCH  11  16
HETATM   16  C12 UNL     1      -1.357   1.125   0.741  1.00  0.00    -0.058 C 
HETATM   17  C13 UNL     1      -0.888   2.077   1.322  1.00  0.00    -0.066 C 
BRANCH  17  18
HETATM   18  C14 UNL     1      -0.332   3.240   2.037  1.00  0.00     0.290 A 
HETATM   19  C15 UNL     1      -1.147   4.457   2.139  1.00  0.00     0.279 A 
HETATM   20  N3  UNL     1      -0.102   4.368   1.135  1.00  0.00    -0.056 N 
ATOM     21  H32 UNL     1       0.708   4.937   0.890  1.00  0.00     0.278 HD
ATOM     22  H31 UNL     1      -0.069   4.481   0.122  1.00  0.00     0.278 HD
ENDBRANCH  17  18
ENDBRANCH  11  16
BRANCH  13  23
HETATM   23  N4  UNL     1       0.254  -0.389  -0.865  1.00  0.00    -0.306 N 
HETATM   24  C17 UNL     1       1.215  -1.069  -1.635  1.00  0.00     0.323 C 
HETATM   25  O1  UNL     1       1.017  -2.095  -2.315  1.00  0.00    -0.247 OA
HETATM   26  N5  UNL     1       2.589  -0.586  -1.688  1.00  0.00    -0.334 N 
HETATM   27  C18 UNL     1       2.870   0.600  -0.923  1.00  0.00     0.128 C 
HETATM   28  C27 UNL     1       3.517  -1.313  -2.472  1.00  0.00     0.128 C 
HETATM   29  C19 UNL     1       4.239   1.129  -1.111  1.00  0.00     0.025 C 
HETATM   30  C20 UNL     1       5.301   0.133  -1.440  1.00  0.00    -0.007 C 
HETATM   31  C26 UNL     1       4.905  -0.838  -2.509  1.00  0.00     0.025 C 
ATOM     32  H4  UNL     1       0.553   0.441  -0.353  1.00  0.00     0.171 HD
BRANCH  30  33
HETATM   33  C21 UNL     1       5.920  -0.525  -0.240  1.00  0.00    -0.006 C 
HETATM   34  C22 UNL     1       6.562   0.486   0.669  1.00  0.00     0.031 C 
HETATM   35  C23 UNL     1       7.391  -0.320   1.679  1.00  0.00     0.168 C 
HETATM   36  O2  UNL     1       6.549  -1.150   2.411  1.00  0.00    -0.391 OA
HETATM   37  C24 UNL     1       5.915  -2.088   1.600  1.00  0.00     0.168 C 
HETATM   38  C25 UNL     1       5.018  -1.387   0.567  1.00  0.00     0.031 C 
ENDBRANCH  30  33
ENDBRANCH  13  23
ENDBRANCH   1   4
BRANCH   1  39
HETATM   39  C6  UNL     1      -7.662   0.493   0.476  1.00  0.00    -0.028 A 
HETATM   40  C7  UNL     1      -8.671  -0.274   0.048  1.00  0.00     0.016 A 
HETATM   41  C8  UNL     1      -9.547   0.273  -0.850  1.00  0.00     0.050 A 
HETATM   42  S1  UNL     1      -8.932   1.848  -1.071  1.00  0.00    -0.113 SA
HETATM   43  C9  UNL     1      -7.590   1.768  -0.023  1.00  0.00     0.058 A 
ENDBRANCH   1  39
TORSDOF 6
