REMARK  3 active torsions:
REMARK  status: ('A' for Active; 'I' for Inactive)
REMARK    1  A    between atoms: C5_6  and  N2_7 
REMARK       I    between atoms: N2_7  and  C6_9 
REMARK    2  A    between atoms: C6_9  and  C7_11 
REMARK    3  A    between atoms: C9_13  and  N3_14 
ROOT
HETATM    1  C7  UNL     1      -0.266   0.637  -0.416  1.00  0.00     0.279 C 
HETATM    2  C8  UNL     1      -0.799  -0.480   0.491  1.00  0.00     0.069 C 
HETATM    3  C9  UNL     1      -2.221  -0.044   0.771  1.00  0.00     0.107 C 
HETATM    4  C16 UNL     1      -2.411   1.180  -0.076  1.00  0.00     0.258 C 
HETATM    5  N4  UNL     1      -1.079   1.784  -0.063  1.00  0.00    -0.060 N 
ATOM      6  H41 UNL     1      -0.962   2.607  -0.654  1.00  0.00     0.278 HD
ATOM      7  H42 UNL     1      -0.819   2.261   0.800  1.00  0.00     0.278 HD
ENDROOT
BRANCH   1   8
HETATM    8  C6  UNL     1       1.142   0.949  -0.122  1.00  0.00     0.248 C 
HETATM    9  N2  UNL     1       2.187  -0.000  -0.369  1.00  0.00    -0.353 N 
ATOM     10  H2  UNL     1       1.954  -0.914  -0.758  1.00  0.00     0.163 HD
HETATM   11  O1  UNL     1       1.455   2.069   0.358  1.00  0.00    -0.271 OA
BRANCH   9  12
HETATM   12  C5  UNL     1       3.567   0.319  -0.075  1.00  0.00     0.102 C 
HETATM   13  C4  UNL     1       4.061  -0.593   1.002  1.00  0.00     0.028 C 
HETATM   14  C3  UNL     1       5.556  -0.533   1.146  1.00  0.00     0.021 C 
HETATM   15  C2  UNL     1       6.282  -0.613  -0.152  1.00  0.00     0.116 C 
HETATM   16  N1  UNL     1       5.785   0.246  -1.170  1.00  0.00    -0.415 N 
HETATM   17  C1  UNL     1       6.457   1.494  -1.319  1.00  0.00     0.143 C 
HETATM   18  C17 UNL     1       4.372   0.275  -1.333  1.00  0.00     0.141 C 
ENDBRANCH   9  12
ENDBRANCH   1   8
BRANCH   3  19
HETATM   19  N3  UNL     1      -3.178  -1.072   0.548  1.00  0.00    -0.402 N 
HETATM   20  C10 UNL     1      -3.298  -1.567  -0.770  1.00  0.00     0.143 C 
HETATM   21  C11 UNL     1      -4.547  -1.219  -1.509  1.00  0.00     0.188 C 
HETATM   22  O2  UNL     1      -5.685  -1.267  -0.743  1.00  0.00    -0.377 OA
HETATM   23  C12 UNL     1      -5.595  -0.548   0.433  1.00  0.00     0.077 A 
HETATM   24  C13 UNL     1      -6.125   0.866   0.480  1.00  0.00     0.042 A 
HETATM   25  C14 UNL     1      -6.899  -0.240   1.082  1.00  0.00     0.042 A 
HETATM   26  C15 UNL     1      -4.380  -0.818   1.250  1.00  0.00     0.155 C 
ENDBRANCH   3  19
TORSDOF 3
