REMARK  4 active torsions:
REMARK  status: ('A' for Active; 'I' for Inactive)
REMARK    1  A    between atoms: C1_2  and  C2_3 
REMARK    2  A    between atoms: C2_3  and  N1_4 
REMARK    3  A    between atoms: C2_3  and  C11_18 
REMARK       I    between atoms: N1_4  and  C3_6 
REMARK       I    between atoms: C3_6  and  N2_8 
REMARK       I    between atoms: C11_18  and  N3_20 
REMARK    4  A    between atoms: N3_20  and  C12_22 
ROOT
HETATM    1  N1  UNL     1      -0.091   1.098  -0.073  1.00  0.00    -0.322 N 
ATOM      2  H1  UNL     1      -0.645   1.728  -0.653  1.00  0.00     0.165 HD
HETATM    3  C3  UNL     1      -0.667  -0.129   0.344  1.00  0.00     0.343 C 
HETATM    4  O2  UNL     1       0.004  -0.913   1.058  1.00  0.00    -0.245 OA
HETATM    5  N2  UNL     1      -1.984  -0.510  -0.016  1.00  0.00    -0.207 N 
HETATM    6  C4  UNL     1      -2.659  -1.737   0.360  1.00  0.00     0.168 C 
HETATM    7  C5  UNL     1      -4.113  -1.370   0.010  1.00  0.00     0.040 C 
HETATM    8  C6  UNL     1      -4.615  -0.559   1.152  1.00  0.00     0.011 C 
HETATM    9  C7  UNL     1      -5.780   0.300   0.907  1.00  0.00     0.027 C 
HETATM   10  C8  UNL     1      -6.709  -0.104  -0.171  1.00  0.00     0.167 C 
HETATM   11  O3  UNL     1      -6.142  -0.616  -1.303  1.00  0.00    -0.389 OA
HETATM   12  C9  UNL     1      -5.042   0.206  -1.643  1.00  0.00     0.202 C 
HETATM   13  C10 UNL     1      -3.822  -0.522  -1.226  1.00  0.00     0.182 C 
HETATM   14  O4  UNL     1      -2.791   0.261  -0.782  1.00  0.00    -0.266 OA
ENDROOT
BRANCH   1  15
HETATM   15  C2  UNL     1       1.250   1.488   0.293  1.00  0.00     0.239 C 
BRANCH  15  16
HETATM   16  C1  UNL     1       1.456   1.616   1.748  1.00  0.00     0.266 C 
HETATM   17  O1  UNL     1       0.619   1.433   2.598  1.00  0.00    -0.304 OA
ENDBRANCH  15  16
BRANCH  15  18
HETATM   18  C11 UNL     1       2.265   0.586  -0.306  1.00  0.00     0.247 C 
HETATM   19  O5  UNL     1       1.908  -0.377  -1.037  1.00  0.00    -0.271 OA
HETATM   20  N3  UNL     1       3.655   0.771  -0.081  1.00  0.00    -0.354 N 
ATOM     21  H3  UNL     1       3.965   1.545   0.507  1.00  0.00     0.162 HD
BRANCH  20  22
HETATM   22  C12 UNL     1       4.641  -0.110  -0.665  1.00  0.00     0.084 C 
HETATM   23  C13 UNL     1       5.600   0.718  -1.494  1.00  0.00     0.025 C 
HETATM   24  C14 UNL     1       6.887  -0.066  -1.403  1.00  0.00     0.002 C 
HETATM   25  C15 UNL     1       6.911  -0.486   0.048  1.00  0.00     0.002 C 
HETATM   26  C16 UNL     1       5.485  -0.743   0.430  1.00  0.00     0.025 C 
ENDBRANCH  20  22
ENDBRANCH  15  18
ENDBRANCH   1  15
TORSDOF 4
