REMARK  7 active torsions:
REMARK  status: ('A' for Active; 'I' for Inactive)
REMARK    1  A    between atoms: C1_2  and  C2_3 
REMARK    2  A    between atoms: C2_3  and  N1_4 
REMARK    3  A    between atoms: C2_3  and  C11_17 
REMARK       I    between atoms: N1_4  and  C3_6 
REMARK    4  A    between atoms: C3_6  and  C4_8 
REMARK    5  A    between atoms: C5_9  and  C6_10 
REMARK    6  A    between atoms: C14_21  and  N3_22 
REMARK       I    between atoms: N3_22  and  C15_24 
REMARK    7  A    between atoms: C15_24  and  C16_26 
ROOT
HETATM    1  C2  UNL     1      -0.863   1.906  -1.802  1.00  0.00     0.153 C 
ENDROOT
BRANCH   1   2
HETATM    2  C1  UNL     1      -1.678   2.904  -2.577  1.00  0.00     0.256 C 
HETATM    3  O1  UNL     1      -2.750   2.618  -3.037  1.00  0.00    -0.305 OA
ENDBRANCH   1   2
BRANCH   1   4
HETATM    4  N1  UNL     1      -1.600   0.679  -1.758  1.00  0.00    -0.346 N 
HETATM    5  C3  UNL     1      -2.018   0.106  -0.461  1.00  0.00     0.241 C 
HETATM    6  O2  UNL     1      -1.673   0.776   0.515  1.00  0.00    -0.269 OA
ATOM      7  H1  UNL     1      -1.838   0.198  -2.626  1.00  0.00     0.163 HD
BRANCH   5   8
HETATM    8  C4  UNL     1      -2.746  -1.105  -0.431  1.00  0.00     0.075 C 
HETATM    9  C5  UNL     1      -3.285  -1.934   0.353  1.00  0.00     0.018 C 
BRANCH   9  10
HETATM   10  C6  UNL     1      -3.444  -2.076   1.768  1.00  0.00    -0.021 A 
HETATM   11  C7  UNL     1      -4.199  -3.164   2.274  1.00  0.00     0.014 A 
HETATM   12  C8  UNL     1      -4.371  -3.351   3.611  1.00  0.00     0.018 A 
HETATM   13  C9  UNL     1      -3.835  -2.515   4.543  1.00  0.00     0.087 A 
HETATM   14  N2  UNL     1      -3.122  -1.487   4.093  1.00  0.00    -0.374 N 
HETATM   15  C10 UNL     1      -2.934  -1.277   2.762  1.00  0.00     0.099 A 
ATOM     16  H2  UNL     1      -2.706  -0.840   4.762  1.00  0.00     0.164 HD
ENDBRANCH   9  10
ENDBRANCH   5   8
ENDBRANCH   1   4
BRANCH   1  17
HETATM   17  C11 UNL     1       0.428   1.737  -2.550  1.00  0.00     0.052 C 
HETATM   18  C12 UNL     1       0.293   1.238  -3.970  1.00  0.00     0.090 C 
HETATM   19  C13 UNL     1       1.492   0.398  -3.733  1.00  0.00     0.150 C 
HETATM   20  O3  UNL     1       2.344  -0.111  -4.422  1.00  0.00    -0.296 OA
HETATM   21  C14 UNL     1       1.189   0.455  -2.283  1.00  0.00     0.161 C 
BRANCH  21  22
HETATM   22  N3  UNL     1       2.347   0.618  -1.426  1.00  0.00    -0.347 N 
HETATM   23  C15 UNL     1       2.646  -0.257  -0.361  1.00  0.00     0.247 C 
HETATM   24  O4  UNL     1       1.890  -1.223  -0.128  1.00  0.00    -0.271 OA
ATOM     25  H3  UNL     1       2.975   1.402  -1.602  1.00  0.00     0.163 HD
BRANCH  23  26
HETATM   26  C16 UNL     1       3.834  -0.051   0.482  1.00  0.00     0.224 C 
HETATM   27  C17 UNL     1       3.517   0.187   1.932  1.00  0.00     0.052 C 
HETATM   28  C18 UNL     1       4.734   0.989   2.388  1.00  0.00     0.114 C 
HETATM   29  C19 UNL     1       4.988   1.820   1.182  1.00  0.00     0.259 C 
HETATM   30  O5  UNL     1       5.485   2.980   1.195  1.00  0.00    -0.265 OA
HETATM   31  O6  UNL     1       4.582   1.086   0.085  1.00  0.00    -0.306 OA
ENDBRANCH  23  26
ENDBRANCH  21  22
ENDBRANCH   1  17
TORSDOF 7
