REMARK  7 active torsions:
REMARK  status: ('A' for Active; 'I' for Inactive)
REMARK    1  A    between atoms: C2_3  and  C3_4 
REMARK    2  A    between atoms: C2_3  and  N2_9 
REMARK    3  A    between atoms: C3_4  and  C4_5 
REMARK    4  A    between atoms: C4_5  and  C5_6 
REMARK       I    between atoms: N2_9  and  C6_11 
REMARK    5  A    between atoms: C6_11  and  C7_13 
REMARK       I    between atoms: N3_18  and  C12_19 
REMARK    6  A    between atoms: C12_19  and  C13_21 
REMARK       I    between atoms: N4_25  and  C17_26 
REMARK    7  A    between atoms: C17_26  and  C18_28 
ROOT
HETATM    1  N1  UNL     1       1.778  -1.798   3.183  1.00  0.00    -0.195 NA
HETATM    2  C1  UNL     1       2.062  -0.957   2.441  1.00  0.00     0.084 C 
HETATM    3  C2  UNL     1       2.433   0.106   1.471  1.00  0.00     0.192 C 
ENDROOT
BRANCH   3   4
HETATM    4  C3  UNL     1       3.504  -0.368   0.563  1.00  0.00     0.051 C 
BRANCH   4   5
HETATM    5  C4  UNL     1       4.735  -0.752   1.316  1.00  0.00     0.116 C 
BRANCH   5   6
HETATM    6  C5  UNL     1       5.388   0.313   2.070  1.00  0.00     0.172 C 
HETATM    7  O1  UNL     1       5.071   1.524   2.113  1.00  0.00    -0.648 OA
HETATM    8  O2  UNL     1       6.506  -0.040   2.845  1.00  0.00    -0.648 OA
ENDBRANCH   5   6
ENDBRANCH   4   5
ENDBRANCH   3   4
BRANCH   3   9
HETATM    9  N2  UNL     1       1.248   0.557   0.757  1.00  0.00    -0.342 N 
HETATM   10  C6  UNL     1       0.713   1.852   0.866  1.00  0.00     0.241 C 
HETATM   11  O3  UNL     1       1.290   2.671   1.625  1.00  0.00    -0.271 OA
ATOM     12  H2  UNL     1       0.778  -0.106   0.141  1.00  0.00     0.163 HD
BRANCH  10  13
HETATM   13  C7  UNL     1      -0.480   2.296   0.142  1.00  0.00     0.180 C 
HETATM   14  C8  UNL     1      -0.129   3.421  -0.866  1.00  0.00     0.042 C 
HETATM   15  C9  UNL     1      -1.109   3.061  -1.913  1.00  0.00     0.013 A 
HETATM   16  C10 UNL     1      -1.087   2.288  -3.080  1.00  0.00     0.032 A 
HETATM   17  C11 UNL     1      -0.594   1.561  -1.986  1.00  0.00     0.092 A 
HETATM   18  N3  UNL     1      -1.049   1.249  -0.693  1.00  0.00    -0.332 N 
HETATM   19  C12 UNL     1      -1.858   0.198  -0.261  1.00  0.00     0.244 C 
HETATM   20  O4  UNL     1      -2.151   0.118   0.982  1.00  0.00    -0.271 OA
BRANCH  19  21
HETATM   21  C13 UNL     1      -2.418  -0.853  -1.138  1.00  0.00     0.179 C 
HETATM   22  C14 UNL     1      -1.343  -1.764  -1.689  1.00  0.00     0.037 C 
HETATM   23  C15 UNL     1      -1.079  -2.700  -0.520  1.00  0.00     0.022 C 
HETATM   24  C16 UNL     1      -2.388  -2.762   0.199  1.00  0.00     0.127 C 
HETATM   25  N4  UNL     1      -3.239  -1.760  -0.376  1.00  0.00    -0.333 N 
HETATM   26  C17 UNL     1      -4.662  -1.685  -0.212  1.00  0.00     0.282 C 
HETATM   27  O5  UNL     1      -5.305  -0.748  -0.786  1.00  0.00    -0.265 OA
BRANCH  26  28
HETATM   28  C18 UNL     1      -5.438  -2.624   0.578  1.00  0.00     0.332 C 
HETATM   29  O6  UNL     1      -4.948  -3.600   1.210  1.00  0.00    -0.297 OA
ENDBRANCH  26  28
ENDBRANCH  19  21
ENDBRANCH  10  13
ENDBRANCH   3   9
TORSDOF 7
