REMARK  5 active torsions:
REMARK  status: ('A' for Active; 'I' for Inactive)
REMARK    1  A    between atoms: N2_8  and  C7_9 
REMARK    2  A    between atoms: C7_9  and  C8_10 
REMARK    3  A    between atoms: C8_10  and  O1_11 
REMARK       I    between atoms: N3_16  and  C12_17 
REMARK    4  A    between atoms: C12_17  and  C13_19 
REMARK    5  A    between atoms: C13_19  and  O3_20 
ROOT
HETATM    1  C8  UNL     1       1.976  -1.224   0.471  1.00  0.00     0.100 C 
HETATM    2  C9  UNL     1       1.837  -1.109  -1.059  1.00  0.00     0.043 C 
HETATM    3  C10 UNL     1       2.318   0.252  -1.499  1.00  0.00     0.023 C 
HETATM    4  C11 UNL     1       3.684   0.588  -1.008  1.00  0.00     0.126 C 
HETATM    5  N3  UNL     1       4.214  -0.177   0.063  1.00  0.00    -0.344 N 
HETATM    6  C12 UNL     1       5.592  -0.065   0.424  1.00  0.00     0.265 C 
HETATM    7  O2  UNL     1       5.991  -0.829   1.372  1.00  0.00    -0.266 OA
HETATM    8  C14 UNL     1       3.404  -1.091   0.844  1.00  0.00     0.165 C 
ENDROOT
BRANCH   1   9
HETATM    9  C7  UNL     1       1.087  -0.217   1.136  1.00  0.00     0.311 C 
BRANCH   9  10
HETATM   10  N2  UNL     1      -0.247  -0.273   0.666  1.00  0.00     0.091 N 
HETATM   11  C6  UNL     1      -0.974   0.963   1.111  1.00  0.00     0.273 C 
HETATM   12  C5  UNL     1      -2.009   1.161   0.026  1.00  0.00     0.041 C 
HETATM   13  C4  UNL     1      -2.937  -0.018   0.007  1.00  0.00    -0.009 C 
HETATM   14  C3  UNL     1      -3.674  -0.073  -1.342  1.00  0.00     0.041 C 
HETATM   15  C16 UNL     1      -2.326  -1.346   0.211  1.00  0.00     0.041 C 
HETATM   16  C17 UNL     1      -4.039   0.307   1.026  1.00  0.00     0.281 C 
HETATM   17  C2  UNL     1      -5.115   0.131  -0.922  1.00  0.00     0.272 C 
HETATM   18  N1  UNL     1      -4.940   1.074   0.170  1.00  0.00     0.085 N 
HETATM   19  C1  UNL     1      -6.171   1.435   0.819  1.00  0.00     0.309 C 
HETATM   20  C15 UNL     1      -1.079  -1.346   1.107  1.00  0.00     0.273 C 
ENDBRANCH   9  10
ENDBRANCH   1   9
BRANCH   1  21
HETATM   21  O1  UNL     1       1.545  -2.508   0.754  1.00  0.00    -0.386 OA
ATOM     22  H1  UNL     1       2.108  -3.146   0.333  1.00  0.00     0.210 HD
ENDBRANCH   1  21
BRANCH   6  23
HETATM   23  C13 UNL     1       6.535   0.834  -0.203  1.00  0.00     0.205 C 
BRANCH  23  24
HETATM   24  O3  UNL     1       6.075   1.794  -1.047  1.00  0.00    -0.367 OA
ATOM     25  H3  UNL     1       6.695   2.385  -1.459  1.00  0.00     0.216 HD
ENDBRANCH  23  24
ENDBRANCH   6  23
TORSDOF 5
