REMARK  3 active torsions:
REMARK  status: ('A' for Active; 'I' for Inactive)
REMARK    1  A    between atoms: C3_7  and  N3_8 
REMARK    2  A    between atoms: N3_8  and  C4_10 
REMARK    3  A    between atoms: C4_10  and  N4_11 
ROOT
HETATM    1  C1  UNL     1       3.160   0.509  -0.344  1.00  0.00     0.091 C 
HETATM    2  C2  UNL     1       1.909  -0.271  -0.123  1.00  0.00     0.108 A 
HETATM    3  N1  UNL     1       1.767  -1.560   0.232  1.00  0.00    -0.275 N 
ATOM      4  H1  UNL     1       2.544  -2.198   0.403  1.00  0.00     0.189 HD
HETATM    5  N2  UNL     1       0.492  -1.894   0.331  1.00  0.00    -0.131 N 
ATOM      6  H2  UNL     1       0.120  -2.809   0.585  1.00  0.00     0.205 HD
HETATM    7  C3  UNL     1      -0.226  -0.785   0.030  1.00  0.00     0.695 A 
HETATM    8  N5  UNL     1       0.653   0.195  -0.244  1.00  0.00    -0.178 N 
ATOM      9  H5  UNL     1       0.404   1.149  -0.505  1.00  0.00     0.185 HD
ENDROOT
BRANCH   7  10
HETATM   10  N3  UNL     1      -1.519  -0.700   0.013  1.00  0.00    -0.201 N 
ATOM     11  H3  UNL     1      -2.094  -1.512   0.239  1.00  0.00     0.179 HD
BRANCH  10  12
HETATM   12  C4  UNL     1      -2.131   0.557  -0.329  1.00  0.00     0.368 C 
BRANCH  12  13
HETATM   13  N4  UNL     1      -3.543   0.571  -0.132  1.00  0.00    -0.063 N 
ATOM     14  H43 UNL     1      -3.986  -0.196  -0.637  1.00  0.00     0.276 HD
ATOM     15  H42 UNL     1      -3.778   0.302   0.824  1.00  0.00     0.276 HD
ATOM     16  H41 UNL     1      -3.977   1.462  -0.374  1.00  0.00     0.276 HD
ENDBRANCH  12  13
ENDBRANCH  10  12
ENDBRANCH   7  10
TORSDOF 3
