REMARK  4 active torsions:
REMARK  status: ('A' for Active; 'I' for Inactive)
REMARK    1  A    between atoms: C5_5  and  C6_6 
REMARK    2  A    between atoms: C13_13  and  C14_14 
REMARK    3  A    between atoms: C14_14  and  C15_15 
REMARK    4  A    between atoms: C15_15  and  C16_16 
ROOT
HETATM    1  C1  UNL     1      -0.105  -3.429  -0.500  1.00  0.00     0.015 C 
HETATM    2  C2  UNL     1      -0.193  -1.923  -0.229  1.00  0.00    -0.043 C 
HETATM    3  C3  UNL     1      -0.914  -1.309  -1.387  1.00  0.00     0.009 C 
HETATM    4  C4  UNL     1      -2.082  -0.453  -0.991  1.00  0.00     0.006 C 
HETATM    5  C5  UNL     1      -1.742   0.493   0.146  1.00  0.00    -0.006 C 
HETATM    6  C11 UNL     1      -0.963  -0.147   1.240  1.00  0.00    -0.009 C 
HETATM    7  C12 UNL     1       0.463   0.392   1.345  1.00  0.00     0.010 C 
HETATM    8  C13 UNL     1       1.297   0.041   0.148  1.00  0.00    -0.013 C 
HETATM    9  C19 UNL     1       1.225  -1.424  -0.140  1.00  0.00     0.013 C 
HETATM   10  C20 UNL     1      -0.937  -1.653   1.034  1.00  0.00     0.014 C 
ENDROOT
BRANCH   8  11
HETATM   11  C14 UNL     1       2.724   0.437   0.464  1.00  0.00     0.010 C 
BRANCH  11  12
HETATM   12  C15 UNL     1       3.664   0.130  -0.676  1.00  0.00     0.059 C 
BRANCH  12  13
HETATM   13  C16 UNL     1       5.036   0.554  -0.271  1.00  0.00     0.025 A 
HETATM   14  C17 UNL     1       5.603   1.796  -0.474  1.00  0.00     0.113 A 
HETATM   15  N1  UNL     1       6.843   1.766   0.035  1.00  0.00    -0.360 N 
HETATM   16  C18 UNL     1       7.077   0.550   0.552  1.00  0.00     0.180 A 
ATOM     17  H1  UNL     1       7.503   2.543   0.030  1.00  0.00     0.166 HD
HETATM   18  N2  UNL     1       5.969  -0.183   0.361  1.00  0.00    -0.355 N 
ATOM     19  H2  UNL     1       5.851  -1.154   0.651  1.00  0.00     0.166 HD
ENDBRANCH  12  13
ENDBRANCH  11  12
ENDBRANCH   8  11
BRANCH   5  20
HETATM   20  C6  UNL     1      -2.940   1.237   0.629  1.00  0.00    -0.010 C 
HETATM   21  C7  UNL     1      -4.057   0.439   1.151  1.00  0.00     0.005 C 
HETATM   22  C8  UNL     1      -5.184   0.426   0.159  1.00  0.00     0.000 C 
HETATM   23  C9  UNL     1      -4.963   1.667  -0.637  1.00  0.00     0.000 C 
HETATM   24  C10 UNL     1      -3.562   2.131  -0.391  1.00  0.00     0.005 C 
ENDBRANCH   5  20
TORSDOF 4
