REMARK  10 active torsions:
REMARK  status: ('A' for Active; 'I' for Inactive)
REMARK    1  A    between atoms: C2_2  and  C3_3 
REMARK    2  A    between atoms: C3_3  and  C4_4 
REMARK       I    between atoms: C4_4  and  N1_6 
REMARK    3  A    between atoms: N1_6  and  C5_8 
REMARK    4  A    between atoms: C5_8  and  C6_9 
REMARK       I    between atoms: C6_9  and  N2_11 
REMARK    5  A    between atoms: N2_11  and  C7_13 
REMARK       I    between atoms: N3_15  and  C9_16 
REMARK    6  A    between atoms: C9_16  and  O4_18 
REMARK    7  A    between atoms: O4_18  and  C10_19 
REMARK    8  A    between atoms: C17_27  and  C18_28 
REMARK    9  A    between atoms: C18_28  and  O6_30 
REMARK   10  A    between atoms: O6_30  and  C19_31 
ROOT
HETATM    1  C7  UNL     1      -1.497   0.726  -0.399  1.00  0.00     0.082 A 
HETATM    2  C8  UNL     1      -2.189   0.375   0.904  1.00  0.00     0.162 A 
HETATM    3  N3  UNL     1      -2.628  -0.907   0.379  1.00  0.00    -0.318 N 
HETATM    4  C9  UNL     1      -3.354  -1.983   0.924  1.00  0.00     0.363 C 
HETATM    5  O3  UNL     1      -3.787  -1.926   2.124  1.00  0.00    -0.238 OA
HETATM    6  C13 UNL     1      -2.018  -0.592  -0.895  1.00  0.00     0.121 A 
HETATM    7  C14 UNL     1      -3.041  -0.503  -1.989  1.00  0.00     0.044 C 
HETATM    8  C15 UNL     1      -4.094   0.523  -1.831  1.00  0.00     0.060 C 
HETATM    9 BR1  UNL     1      -5.702  -0.193  -0.987  1.00  0.00    -0.091 Br
HETATM   10  C16 UNL     1      -3.650   1.781  -1.173  1.00  0.00     0.033 C 
HETATM   11  C17 UNL     1      -2.126   1.830  -1.169  1.00  0.00     0.118 C 
ENDROOT
BRANCH   1  12
HETATM   12  N2  UNL     1      -0.080   0.866  -0.297  1.00  0.00    -0.345 N 
HETATM   13  C6  UNL     1       0.819  -0.131   0.135  1.00  0.00     0.246 C 
HETATM   14  O2  UNL     1       0.362  -1.251   0.452  1.00  0.00    -0.271 OA
ATOM     15  H2  UNL     1       0.318   1.768  -0.560  1.00  0.00     0.163 HD
BRANCH  13  16
HETATM   16  C5  UNL     1       2.276   0.043   0.243  1.00  0.00     0.113 A 
HETATM   17  C21 UNL     1       2.869   0.852  -0.865  1.00  0.00     0.041 A 
HETATM   18  C22 UNL     1       3.428   2.126  -0.292  1.00  0.00     0.003 A 
HETATM   19  C23 UNL     1       3.263   2.069   1.184  1.00  0.00     0.003 A 
HETATM   20  C24 UNL     1       2.565   0.806   1.497  1.00  0.00     0.041 A 
BRANCH  16  21
HETATM   21  N1  UNL     1       2.900  -1.277   0.287  1.00  0.00    -0.343 N 
HETATM   22  C4  UNL     1       4.282  -1.493   0.442  1.00  0.00     0.218 C 
HETATM   23  O1  UNL     1       5.058  -0.524   0.566  1.00  0.00    -0.274 OA
ATOM     24  H1  UNL     1       2.296  -2.094   0.200  1.00  0.00     0.163 HD
BRANCH  22  25
HETATM   25  C3  UNL     1       4.792  -2.885   0.455  1.00  0.00     0.102 C 
BRANCH  25  26
HETATM   26  C2  UNL     1       6.244  -3.005   0.764  1.00  0.00     0.005 C 
HETATM   27  C1  UNL     1       6.584  -2.454   2.145  1.00  0.00     0.005 C 
ENDBRANCH  25  26
ENDBRANCH  22  25
ENDBRANCH  16  21
ENDBRANCH  13  16
ENDBRANCH   1  12
BRANCH  11  28
HETATM   28  C18 UNL     1      -1.812   3.196  -0.627  1.00  0.00     0.265 C 
HETATM   29  O5  UNL     1      -1.155   3.304   0.429  1.00  0.00    -0.265 OA
BRANCH  28  30
HETATM   30  O6  UNL     1      -2.229   4.337  -1.258  1.00  0.00    -0.321 OA
BRANCH  30  31
HETATM   31  C19 UNL     1      -2.001   5.652  -0.859  1.00  0.00     0.174 C 
HETATM   32  C20 UNL     1      -0.569   6.068  -0.801  1.00  0.00     0.034 C 
ENDBRANCH  30  31
ENDBRANCH  28  30
ENDBRANCH  11  28
BRANCH   4  33
HETATM   33  O4  UNL     1      -3.651  -3.145   0.245  1.00  0.00    -0.298 OA
BRANCH  33  34
HETATM   34  C10 UNL     1      -4.381  -4.210   0.817  1.00  0.00     0.134 A 
HETATM   35  C11 UNL     1      -4.135  -5.610   0.397  1.00  0.00     0.035 A 
HETATM   36  C12 UNL     1      -5.312  -4.909  -0.166  1.00  0.00     0.035 A 
ENDBRANCH  33  34
ENDBRANCH   4  33
TORSDOF 10
