REMARK  8 active torsions:
REMARK  status: ('A' for Active; 'I' for Inactive)
REMARK    1  A    between atoms: C2_2  and  C3_3 
REMARK    2  A    between atoms: C2_2  and  C12_19 
REMARK    3  A    between atoms: C3_3  and  S1_4 
REMARK    4  A    between atoms: S1_4  and  C4_5 
REMARK    5  A    between atoms: C4_5  and  C5_7 
REMARK    6  A    between atoms: C6_8  and  C7_9 
REMARK    7  A    between atoms: C9_11  and  C10_12 
REMARK    8  A    between atoms: C10_12  and  C11_13 
ROOT
HETATM    1  C5  UNL     1       0.118  -2.933   0.284  1.00  0.00     0.060 C 
HETATM    2  C6  UNL     1       1.301  -2.434   0.144  1.00  0.00     0.010 C 
ENDROOT
BRANCH   1   3
HETATM    3  C4  UNL     1      -1.060  -2.394   0.918  1.00  0.00     0.208 C 
HETATM    4  O1  UNL     1      -2.145  -3.084   0.934  1.00  0.00    -0.281 OA
BRANCH   3   5
HETATM    5  S1  UNL     1      -1.029  -0.789   1.677  1.00  0.00    -0.084 SA
BRANCH   5   6
HETATM    6  C3  UNL     1      -2.673  -0.448   2.358  1.00  0.00     0.121 C 
BRANCH   6   7
HETATM    7  C2  UNL     1      -3.608  -0.335   1.208  1.00  0.00    -0.041 C 
HETATM    8  C1  UNL     1      -4.637  -1.115   1.058  1.00  0.00     0.021 C 
BRANCH   7   9
HETATM    9  C12 UNL     1      -3.300   0.732   0.226  1.00  0.00     0.011 A 
HETATM   10  C13 UNL     1      -3.996   1.048  -0.910  1.00  0.00     0.020 A 
HETATM   11  C14 UNL     1      -3.531   2.059  -1.655  1.00  0.00     0.008 A 
HETATM   12  C15 UNL     1      -2.400   2.694  -1.223  1.00  0.00     0.050 A 
HETATM   13  S2  UNL     1      -2.020   1.859   0.213  1.00  0.00    -0.102 SA
ENDBRANCH   7   9
ENDBRANCH   6   7
ENDBRANCH   5   6
ENDBRANCH   3   5
ENDBRANCH   1   3
BRANCH   2  14
HETATM   14  C7  UNL     1       1.718  -1.132   0.633  1.00  0.00     0.211 C 
HETATM   15  C8  UNL     1       3.201  -0.802   0.304  1.00  0.00     0.070 C 
HETATM   16  C9  UNL     1       2.659   0.610   0.269  1.00  0.00     0.199 C 
HETATM   17  N1  UNL     1       1.414   0.022  -0.228  1.00  0.00    -0.063 N 
ATOM     18  H12 UNL     1       1.239  -0.090  -1.227  1.00  0.00     0.278 HD
ATOM     19  H11 UNL     1       0.526   0.519  -0.160  1.00  0.00     0.278 HD
BRANCH  16  20
HETATM   20  C10 UNL     1       3.338   1.536  -0.684  1.00  0.00     0.146 C 
BRANCH  20  21
HETATM   21  C11 UNL     1       4.761   1.646  -0.329  1.00  0.00     0.174 C 
HETATM   22  O2  UNL     1       5.216   1.015   0.641  1.00  0.00    -0.648 OA
HETATM   23  O3  UNL     1       5.590   2.452  -1.075  1.00  0.00    -0.648 OA
ENDBRANCH  20  21
ENDBRANCH  16  20
ENDBRANCH   2  14
TORSDOF 8
