REMARK  9 active torsions:
REMARK  status: ('A' for Active; 'I' for Inactive)
REMARK    1  A    between atoms: C2_2  and  C3_3 
REMARK    2  A    between atoms: C3_3  and  O1_4 
REMARK    3  A    between atoms: O1_4  and  C4_5 
REMARK       I    between atoms: C4_5  and  N1_7 
REMARK    4  A    between atoms: N1_7  and  C5_9 
REMARK    5  A    between atoms: C5_9  and  C7_11 
REMARK    6  A    between atoms: C7_11  and  S1_12 
REMARK    7  A    between atoms: S1_12  and  C8_13 
REMARK    8  A    between atoms: C8_13  and  C9_14 
REMARK       I    between atoms: C9_14  and  N2_16 
REMARK    9  A    between atoms: N2_16  and  C10_18 
ROOT
HETATM    1  S1  UNL     1       0.401   0.318   3.116  1.00  0.00    -0.158 SA
ENDROOT
BRANCH   1   2
HETATM    2  C7  UNL     1       1.534   0.584   1.770  1.00  0.00     0.099 C 
BRANCH   2   3
HETATM    3  C5  UNL     1       2.263  -0.612   1.270  1.00  0.00     0.092 C 
HETATM    4  C6  UNL     1       1.342  -1.620   0.623  1.00  0.00     0.033 C 
BRANCH   3   5
HETATM    5  N1  UNL     1       3.134  -0.124   0.181  1.00  0.00    -0.332 N 
HETATM    6  C4  UNL     1       4.541  -0.326   0.237  1.00  0.00     0.360 C 
HETATM    7  O2  UNL     1       5.076  -0.915   1.198  1.00  0.00    -0.239 OA
ATOM      8  H1  UNL     1       2.724   0.361  -0.617  1.00  0.00     0.165 HD
BRANCH   6   9
HETATM    9  O1  UNL     1       5.367   0.128  -0.779  1.00  0.00    -0.304 OA
BRANCH   9  10
HETATM   10  C3  UNL     1       6.771  -0.043  -0.779  1.00  0.00     0.180 C 
BRANCH  10  11
HETATM   11  C2  UNL     1       7.288   0.591  -2.053  1.00  0.00     0.022 C 
HETATM   12  C1  UNL     1       6.668  -0.090  -3.243  1.00  0.00     0.007 C 
ENDBRANCH  10  11
ENDBRANCH   9  10
ENDBRANCH   6   9
ENDBRANCH   3   5
ENDBRANCH   2   3
ENDBRANCH   1   2
BRANCH   1  13
HETATM   13  C8  UNL     1      -1.061  -0.620   2.741  1.00  0.00     0.176 C 
BRANCH  13  14
HETATM   14  C9  UNL     1      -1.968   0.104   1.813  1.00  0.00     0.227 C 
HETATM   15  O3  UNL     1      -1.666   1.245   1.383  1.00  0.00    -0.273 OA
HETATM   16  N2  UNL     1      -3.196  -0.468   1.386  1.00  0.00    -0.356 N 
ATOM     17  H2  UNL     1      -3.453  -1.394   1.728  1.00  0.00     0.162 HD
BRANCH  16  18
HETATM   18  C10 UNL     1      -4.096   0.220   0.481  1.00  0.00     0.084 C 
HETATM   19  C11 UNL     1      -5.439   0.310   1.173  1.00  0.00     0.025 C 
HETATM   20  C12 UNL     1      -6.571   0.585   0.245  1.00  0.00     0.002 C 
HETATM   21  C13 UNL     1      -6.171   0.951  -1.145  1.00  0.00     0.000 C 
HETATM   22  C14 UNL     1      -5.153   0.038  -1.755  1.00  0.00     0.002 C 
HETATM   23  C15 UNL     1      -4.281  -0.641  -0.743  1.00  0.00     0.025 C 
ENDBRANCH  16  18
ENDBRANCH  13  14
ENDBRANCH   1  13
TORSDOF 9
