REMARK  4 active torsions:
REMARK  status: ('A' for Active; 'I' for Inactive)
REMARK    1  A    between atoms: C2_2  and  C3_3 
REMARK    2  A    between atoms: C2_2  and  C6_6 
REMARK    3  A    between atoms: C3_3  and  C4_4 
REMARK    4  A    between atoms: C16_16  and  O1_18 
ROOT
HETATM    1  C6  UNL     1      -0.625  -1.024  -0.439  1.00  0.00    -0.035 C 
HETATM    2  C7  UNL     1      -0.212  -2.358   0.113  1.00  0.00    -0.058 C 
HETATM    3  C8  UNL     1      -1.239  -3.415   0.254  1.00  0.00     0.048 C 
HETATM    4  C9  UNL     1       1.029  -2.633   0.450  1.00  0.00    -0.019 C 
HETATM    5  C10 UNL     1       2.150  -1.674   0.324  1.00  0.00     0.034 C 
HETATM    6  C11 UNL     1       1.566  -0.311   0.409  1.00  0.00     0.012 C 
HETATM    7  C12 UNL     1       2.570   0.788   0.232  1.00  0.00    -0.040 C 
HETATM    8  C13 UNL     1       3.968   0.290   0.006  1.00  0.00     0.015 C 
HETATM    9  C14 UNL     1       2.616   1.572   1.531  1.00  0.00     0.015 C 
HETATM   10  C15 UNL     1       2.019   1.599  -0.875  1.00  0.00     0.047 C 
HETATM   11  C16 UNL     1       0.493   1.272  -0.902  1.00  0.00     0.067 C 
HETATM   12  C17 UNL     1      -0.087   2.163   0.126  1.00  0.00     0.047 C 
HETATM   13  C18 UNL     1       0.515  -0.166  -0.720  1.00  0.00     0.019 C 
HETATM   14  C19 UNL     1       1.149  -0.751  -2.014  1.00  0.00     0.024 C 
ENDROOT
BRANCH   1  15
HETATM   15  C2  UNL     1      -1.904  -0.540   0.081  1.00  0.00    -0.060 C 
HETATM   16  C1  UNL     1      -2.218  -0.918   1.331  1.00  0.00     0.019 C 
BRANCH  15  17
HETATM   17  C3  UNL     1      -2.909   0.205  -0.700  1.00  0.00     0.038 C 
BRANCH  17  18
HETATM   18  C4  UNL     1      -4.168   0.596  -0.033  1.00  0.00     0.000 C 
HETATM   19  C5  UNL     1      -3.929   1.555   1.094  1.00  0.00     0.005 C 
ENDBRANCH  17  18
ENDBRANCH  15  17
ENDBRANCH   1  15
BRANCH  11  20
HETATM   20  O1  UNL     1       0.080   1.678  -2.182  1.00  0.00    -0.389 OA
ATOM     21  H1  UNL     1      -0.849   1.479  -2.198  1.00  0.00     0.210 HD
ENDBRANCH  11  20
TORSDOF 4
