REMARK  5 active torsions:
REMARK  status: ('A' for Active; 'I' for Inactive)
REMARK    1  A    between atoms: C2_2  and  C3_3 
REMARK    2  A    between atoms: C5_5  and  C6_6 
REMARK    3  A    between atoms: C6_6  and  C7_7 
REMARK    4  A    between atoms: C8_8  and  C10_10 
REMARK    5  A    between atoms: C16_16  and  O1_17 
ROOT
HETATM    1  C10 UNL     1      -0.687  -0.649  -0.275  1.00  0.00     0.010 C 
HETATM    2  C11 UNL     1      -1.814  -0.046   0.007  1.00  0.00    -0.065 C 
HETATM    3  C12 UNL     1      -2.978  -0.993   0.433  1.00  0.00     0.017 C 
HETATM    4  C13 UNL     1      -3.811  -1.353  -0.741  1.00  0.00     0.015 C 
HETATM    5  C14 UNL     1      -3.631  -0.172   1.481  1.00  0.00     0.019 C 
HETATM    6  C15 UNL     1      -5.003  -0.614   1.859  1.00  0.00     0.013 C 
HETATM    7  C16 UNL     1      -3.628   1.216   0.910  1.00  0.00     0.134 C 
HETATM    8  C17 UNL     1      -2.360   1.289   0.051  1.00  0.00     0.003 C 
HETATM    9  C18 UNL     1      -2.744   1.823  -1.329  1.00  0.00     0.022 C 
HETATM   10  C19 UNL     1      -1.516   2.352   0.718  1.00  0.00     0.022 C 
ENDROOT
BRANCH   1  11
HETATM   11  C8  UNL     1       0.625  -0.271  -0.700  1.00  0.00    -0.065 C 
HETATM   12  C7  UNL     1       1.501  -1.268  -0.854  1.00  0.00    -0.016 C 
HETATM   13  C9  UNL     1       1.038   1.094  -0.981  1.00  0.00     0.048 C 
BRANCH  12  14
HETATM   14  C6  UNL     1       2.896  -1.207  -1.285  1.00  0.00     0.055 C 
BRANCH  14  15
HETATM   15  C5  UNL     1       3.777  -1.806  -0.241  1.00  0.00    -0.021 C 
HETATM   16  C3  UNL     1       4.775  -1.322   0.400  1.00  0.00    -0.088 C 
HETATM   17  C4  UNL     1       5.403  -2.323   1.416  1.00  0.00     0.043 C 
BRANCH  16  18
HETATM   18  C2  UNL     1       5.482  -0.049   0.420  1.00  0.00     0.029 C 
HETATM   19  C1  UNL     1       5.072   1.055  -0.460  1.00  0.00     0.010 C 
ENDBRANCH  16  18
ENDBRANCH  14  15
ENDBRANCH  12  14
ENDBRANCH   1  11
BRANCH   7  20
HETATM   20  O1  UNL     1      -4.760   1.449   0.141  1.00  0.00    -0.394 OA
ATOM     21  H1  UNL     1      -4.758   2.328  -0.220  1.00  0.00     0.210 HD
ENDBRANCH   7  20
TORSDOF 5
