REMARK  9 active torsions:
REMARK  status: ('A' for Active; 'I' for Inactive)
REMARK    1  A    between atoms: N1_1  and  C1_5 
REMARK    2  A    between atoms: C1_5  and  C2_6 
REMARK    3  A    between atoms: C2_6  and  N2_7 
REMARK    4  A    between atoms: N2_7  and  C3_9 
REMARK    5  A    between atoms: C4_12  and  C5_13 
REMARK       I    between atoms: C5_13  and  N4_15 
REMARK    6  A    between atoms: N4_15  and  N5_17 
REMARK    7  A    between atoms: C6_20  and  N6_21 
REMARK    8  A    between atoms: C7_24  and  N7_25 
REMARK    9  A    between atoms: N7_25  and  N8_27 
ROOT
HETATM    1  C3  UNL     1      -0.945  -0.640  -0.158  1.00  0.00     0.680 A 
HETATM    2  N3  UNL     1      -1.192   0.667  -0.168  1.00  0.00    -0.184 N 
ATOM      3  H3  UNL     1      -2.156   0.988  -0.255  1.00  0.00     0.184 HD
HETATM    4  C4  UNL     1      -0.174   1.608  -0.063  1.00  0.00     0.155 A 
HETATM    5  C6  UNL     1       1.106   1.142   0.055  1.00  0.00     0.181 A 
HETATM    6  C7  UNL     1       1.303  -0.230   0.060  1.00  0.00     0.171 A 
HETATM    7  N11 UNL     1       0.305  -1.093  -0.043  1.00  0.00    -0.173 N 
ATOM      8  H11 UNL     1       0.490  -2.096  -0.035  1.00  0.00     0.186 HD
ENDROOT
BRANCH   1   9
HETATM    9  N2  UNL     1      -1.905  -1.529  -0.256  1.00  0.00    -0.224 N 
ATOM     10  H2  UNL     1      -1.704  -2.529  -0.247  1.00  0.00     0.177 HD
BRANCH   9  11
HETATM   11  C2  UNL     1      -3.256  -1.036  -0.377  1.00  0.00     0.165 C 
BRANCH  11  12
HETATM   12  C1  UNL     1      -4.193  -2.225  -0.392  1.00  0.00     0.249 C 
BRANCH  12  13
HETATM   13  N1  UNL     1      -5.539  -1.740  -0.512  1.00  0.00    -0.078 N 
ATOM     14  H13 UNL     1      -5.777  -1.062   0.212  1.00  0.00     0.274 HD
ATOM     15  H12 UNL     1      -5.666  -1.131  -1.320  1.00  0.00     0.274 HD
ATOM     16  H11 UNL     1      -6.170  -2.541  -0.522  1.00  0.00     0.274 HD
ENDBRANCH  12  13
ENDBRANCH  11  12
ENDBRANCH   9  11
ENDBRANCH   1   9
BRANCH   4  17
HETATM   17  C5  UNL     1      -0.549   2.966  -0.149  1.00  0.00     0.289 C 
HETATM   18  O1  UNL     1      -1.763   3.207  -0.525  1.00  0.00    -0.264 OA
HETATM   19  N4  UNL     1       0.210   4.104   0.117  1.00  0.00    -0.271 N 
ATOM     20  H4  UNL     1       1.179   4.005   0.421  1.00  0.00     0.189 HD
BRANCH  19  21
HETATM   21  N5  UNL     1      -0.358   5.414  -0.032  1.00  0.00    -0.342 N 
ATOM     22  H52 UNL     1      -1.328   5.495  -0.336  1.00  0.00     0.176 HD
ATOM     23  H51 UNL     1       0.198   6.247   0.163  1.00  0.00     0.176 HD
ENDBRANCH  19  21
ENDBRANCH   4  17
BRANCH   6  24
HETATM   24  N7  UNL     1       2.511  -0.661   0.166  1.00  0.00    -0.281 N 
ATOM     25  H7  UNL     1       3.278   0.007   0.242  1.00  0.00     0.188 HD
BRANCH  24  26
HETATM   26  N8  UNL     1       2.785  -2.020   0.178  1.00  0.00    -0.274 N 
HETATM   27  C8  UNL     1       3.963  -2.433  -0.105  1.00  0.00     0.215 C 
HETATM   28  N9  UNL     1       4.973  -1.508  -0.430  1.00  0.00    -0.065 NA
HETATM   29  N10 UNL     1       4.207  -3.822  -0.074  1.00  0.00    -0.065 NA
ATOM     30  H8  UNL     1       2.051  -2.688   0.411  1.00  0.00     0.189 HD
ENDBRANCH  24  26
ENDBRANCH   6  24
BRANCH   5  31
HETATM   31  N6  UNL     1       2.283   1.922   0.140  1.00  0.00    -0.109 N 
HETATM   32  O2  UNL     1       2.714   2.161   1.311  1.00  0.00    -0.532 OA
HETATM   33  O3  UNL     1       3.033   2.362  -0.898  1.00  0.00    -0.532 OA
ENDBRANCH   5  31
TORSDOF 9
