REMARK  8 active torsions:
REMARK  status: ('A' for Active; 'I' for Inactive)
REMARK    1  A    between atoms: N2_3  and  C2_5 
REMARK    2  A    between atoms: C2_5  and  C3_6 
REMARK    3  A    between atoms: C3_6  and  N3_7 
REMARK    4  A    between atoms: N7_19  and  C8_20 
REMARK    5  A    between atoms: C9_22  and  C10_23 
REMARK    6  A    between atoms: C10_23  and  O2_24 
REMARK    7  A    between atoms: C11_26  and  N8_27 
REMARK    8  A    between atoms: C12_31  and  O3_32 
ROOT
HETATM    1  N3  UNL     1       2.957   1.270   1.408  1.00  0.00    -0.372 N 
ATOM      2  H3  UNL     1       3.196   2.050   2.021  1.00  0.00     0.161 HD
HETATM    3  C4  UNL     1       1.707   1.051   1.171  1.00  0.00     0.147 A 
HETATM    4  N4  UNL     1       0.684   1.771   1.668  1.00  0.00    -0.282 N 
ATOM      5  H4  UNL     1       0.779   2.574   2.290  1.00  0.00     0.188 HD
HETATM    6  N5  UNL     1      -0.472   1.276   1.225  1.00  0.00    -0.282 N 
ATOM      7  H5  UNL     1      -1.393   1.646   1.459  1.00  0.00     0.188 HD
HETATM    8  C5  UNL     1      -0.249   0.220   0.427  1.00  0.00     0.156 A 
HETATM    9  C6  UNL     1       1.129   0.073   0.389  1.00  0.00     0.124 A 
HETATM   10  N6  UNL     1       1.357  -0.975  -0.402  1.00  0.00    -0.346 N 
ATOM     11  H6  UNL     1       2.277  -1.348  -0.636  1.00  0.00     0.167 HD
HETATM   12  C7  UNL     1       0.172  -1.470  -0.848  1.00  0.00     0.188 A 
HETATM   13  N7  UNL     1      -0.819  -0.729  -0.333  1.00  0.00    -0.296 N 
ENDROOT
BRANCH  13  14
HETATM   14  C8  UNL     1      -2.242  -0.885  -0.531  1.00  0.00     0.261 C 
HETATM   15  O1  UNL     1      -2.858   0.262  -0.960  1.00  0.00    -0.354 OA
HETATM   16  C9  UNL     1      -4.073   0.385  -0.348  1.00  0.00     0.180 C 
HETATM   17  C11 UNL     1      -4.359  -0.909   0.379  1.00  0.00     0.247 C 
HETATM   18  C12 UNL     1      -2.943  -1.326   0.739  1.00  0.00     0.200 C 
BRANCH  16  19
HETATM   19  C10 UNL     1      -5.189   0.759  -1.295  1.00  0.00     0.198 C 
BRANCH  19  20
HETATM   20  O2  UNL     1      -4.888   1.983  -1.890  1.00  0.00    -0.398 OA
ATOM     21  H2  UNL     1      -5.590   2.218  -2.486  1.00  0.00     0.209 HD
ENDBRANCH  19  20
ENDBRANCH  16  19
BRANCH  17  22
HETATM   22  N8  UNL     1      -4.864  -1.902  -0.545  1.00  0.00    -0.070 N 
ATOM     23  H83 UNL     1      -5.679  -1.565  -1.058  1.00  0.00     0.274 HD
ATOM     24  H82 UNL     1      -4.235  -2.041  -1.336  1.00  0.00     0.274 HD
ATOM     25  H81 UNL     1      -5.057  -2.775  -0.054  1.00  0.00     0.274 HD
ENDBRANCH  17  22
BRANCH  18  26
HETATM   26  O3  UNL     1      -2.848  -2.706   0.915  1.00  0.00    -0.389 OA
ATOM     27  H3  UNL     1      -3.287  -2.982   1.711  1.00  0.00     0.210 HD
ENDBRANCH  18  26
ENDBRANCH  13  14
BRANCH   1  28
HETATM   28  C3  UNL     1       4.027   0.494   0.870  1.00  0.00     0.141 C 
BRANCH  28  29
HETATM   29  C2  UNL     1       5.325   1.263   0.996  1.00  0.00     0.139 C 
BRANCH  29  30
HETATM   30  N2  UNL     1       6.405   0.472   0.450  1.00  0.00    -0.386 N 
HETATM   31  C1  UNL     1       6.714   0.578  -0.791  1.00  0.00     0.185 C 
HETATM   32  N1  UNL     1       7.792  -0.227  -1.286  1.00  0.00    -0.097 NA
ATOM     33  H2  UNL     1       6.921  -0.170   1.051  1.00  0.00     0.159 HD
ENDBRANCH  29  30
ENDBRANCH  28  29
ENDBRANCH   1  28
TORSDOF 8
