REMARK  9 active torsions:
REMARK  status: ('A' for Active; 'I' for Inactive)
REMARK    1  A    between atoms: N1_1  and  C1_4 
REMARK    2  A    between atoms: C2_10  and  N4_11 
REMARK    3  A    between atoms: C5_17  and  O3_18 
REMARK    4  A    between atoms: C6_20  and  O4_21 
REMARK    5  A    between atoms: C7_23  and  O5_24 
REMARK    6  A    between atoms: C8_26  and  C9_27 
REMARK    7  A    between atoms: C9_27  and  S1_28 
REMARK    8  A    between atoms: S1_28  and  C10_29 
REMARK    9  A    between atoms: C10_29  and  C11_30 
REMARK       I    between atoms: C11_30  and  N6_32 
ROOT
HETATM    1  N4  UNL     1      -3.000   0.415   0.393  1.00  0.00    -0.242 N 
HETATM    2  C3  UNL     1      -4.278   0.028   0.045  1.00  0.00     0.333 A 
HETATM    3  O2  UNL     1      -5.294   0.658   0.415  1.00  0.00    -0.246 OA
HETATM    4  N5  UNL     1      -4.271  -1.048  -0.697  1.00  0.00    -0.304 N 
ATOM      5  H5  UNL     1      -5.082  -1.531  -1.083  1.00  0.00     0.171 HD
HETATM    6  C4  UNL     1      -2.969  -1.392  -0.850  1.00  0.00     0.101 A 
HETATM    7  C5  UNL     1      -2.406  -2.452  -1.521  1.00  0.00     0.131 A 
HETATM    8  C6  UNL     1      -1.039  -2.585  -1.503  1.00  0.00     0.135 A 
HETATM    9  C7  UNL     1      -0.237  -1.699  -0.842  1.00  0.00     0.111 A 
HETATM   10  C8  UNL     1      -0.807  -0.602  -0.148  1.00  0.00     0.017 A 
HETATM   11  C13 UNL     1      -2.164  -0.469  -0.163  1.00  0.00     0.085 A 
ENDROOT
BRANCH  10  12
HETATM   12  C9  UNL     1       0.135   0.304   0.557  1.00  0.00     0.118 C 
BRANCH  12  13
HETATM   13  S1  UNL     1       1.461   0.598  -0.736  1.00  0.00    -0.155 SA
BRANCH  13  14
HETATM   14  C10 UNL     1       2.736   1.704  -0.055  1.00  0.00     0.179 C 
BRANCH  14  15
HETATM   15  C11 UNL     1       3.447   1.138   1.081  1.00  0.00     0.257 C 
HETATM   16  O6  UNL     1       3.032   1.468   2.239  1.00  0.00    -0.270 OA
HETATM   17  N6  UNL     1       4.554   0.257   1.019  1.00  0.00    -0.154 N 
HETATM   18  N7  UNL     1       5.219  -0.254   2.064  1.00  0.00    -0.214 N 
HETATM   19  C12 UNL     1       5.118  -0.222  -0.100  1.00  0.00     0.365 A 
HETATM   20  N8  UNL     1       6.174  -1.031   1.634  1.00  0.00    -0.224 N 
ATOM     21  H7  UNL     1       5.010  -0.065   3.044  1.00  0.00     0.210 HD
HETATM   22  N9  UNL     1       6.122  -1.019   0.296  1.00  0.00    -0.234 N 
ATOM     23  H8  UNL     1       6.837  -1.551   2.209  1.00  0.00     0.210 HD
ATOM     24  H9  UNL     1       6.747  -1.534  -0.324  1.00  0.00     0.193 HD
HETATM   25  O7  UNL     1       4.840  -0.028  -1.316  1.00  0.00    -0.243 OA
ENDBRANCH  14  15
ENDBRANCH  13  14
ENDBRANCH  12  13
ENDBRANCH  10  12
BRANCH   9  26
HETATM   26  O5  UNL     1       1.148  -1.794  -0.795  1.00  0.00    -0.357 OA
ATOM     27  H5  UNL     1       1.706  -1.178  -0.335  1.00  0.00     0.217 HD
ENDBRANCH   9  26
BRANCH   8  28
HETATM   28  O4  UNL     1      -0.474  -3.657  -2.182  1.00  0.00    -0.356 OA
ATOM     29  H4  UNL     1       0.471  -3.749  -2.170  1.00  0.00     0.218 HD
ENDBRANCH   8  28
BRANCH   1  30
HETATM   30  C2  UNL     1      -2.726   1.535   1.205  1.00  0.00     0.184 A 
HETATM   31  C1  UNL     1      -2.721   2.854   0.787  1.00  0.00     0.168 A 
HETATM   32  N2  UNL     1      -2.463   3.637   1.862  1.00  0.00    -0.222 N 
HETATM   33  O1  UNL     1      -2.319   2.845   2.879  1.00  0.00    -0.153 OA
ATOM     34  H2  UNL     1      -2.395   4.655   1.870  1.00  0.00     0.198 HD
HETATM   35  N3  UNL     1      -2.471   1.583   2.515  1.00  0.00    -0.221 N 
ATOM     36  H3  UNL     1      -2.404   0.776   3.135  1.00  0.00     0.198 HD
BRANCH  31  37
HETATM   37  N1  UNL     1      -2.918   3.292  -0.403  1.00  0.00    -0.381 N 
ATOM     38  H12 UNL     1      -2.914   4.264  -0.711  1.00  0.00     0.157 HD
ATOM     39  H11 UNL     1      -3.112   2.702  -1.212  1.00  0.00     0.157 HD
ENDBRANCH  31  37
ENDBRANCH   1  30
BRANCH   7  40
HETATM   40  O3  UNL     1      -3.202  -3.361  -2.199  1.00  0.00    -0.356 OA
ATOM     41  H3  UNL     1      -2.813  -4.093  -2.663  1.00  0.00     0.218 HD
ENDBRANCH   7  40
TORSDOF 9
