REMARK  1 active torsions:
REMARK  status: ('A' for Active; 'I' for Inactive)
REMARK    1  A    between atoms: C2_3  and  S1_4 
ROOT
HETATM    1  N1  UNL     1       0.232   3.325   0.463  1.00  0.00    -0.195 NA
HETATM    2  C1  UNL     1       0.456   2.181   0.535  1.00  0.00     0.085 C 
HETATM    3  C2  UNL     1       0.736   0.779   0.602  1.00  0.00     0.125 A 
HETATM    4  C3  UNL     1      -0.057   0.053   1.424  1.00  0.00     0.005 A 
HETATM    5  C4  UNL     1      -0.721  -0.544   1.511  1.00  0.00    -0.028 A 
HETATM    6  C5  UNL     1      -1.616  -1.340   0.903  1.00  0.00     0.027 A 
HETATM    7  C6  UNL     1      -1.080  -0.856  -0.615  1.00  0.00     0.007 A 
HETATM    8  C7  UNL     1      -0.026   0.139  -0.731  1.00  0.00     0.041 A 
ENDROOT
BRANCH   3   9
HETATM    9  S1  UNL     1       2.477   0.448   0.449  1.00  0.00    -0.056 SA
HETATM   10  S2  UNL     1       3.106   0.984  -1.510  1.00  0.00    -0.011 SA
ENDBRANCH   3   9
TORSDOF 1
