REMARK  9 active torsions:
REMARK  status: ('A' for Active; 'I' for Inactive)
REMARK    1  A    between atoms: O1_2  and  C2_3 
REMARK    2  A    between atoms: C7_9  and  O3_10 
REMARK    3  A    between atoms: O3_10  and  C8_11 
REMARK    4  A    between atoms: C14_18  and  C15_19 
REMARK    5  A    between atoms: C15_19  and  N2_20 
REMARK    6  A    between atoms: C20_25  and  O4_26 
REMARK    7  A    between atoms: C22_29  and  O5_30 
REMARK    8  A    between atoms: C23_32  and  C24_33 
REMARK    9  A    between atoms: C24_33  and  C25_34 
ROOT
HETATM    1  C2  UNL     1       3.053  -1.791   1.026  1.00  0.00     0.078 A 
HETATM    2  C3  UNL     1       1.869  -2.000   1.705  1.00  0.00     0.050 A 
HETATM    3  C4  UNL     1       0.877  -1.047   1.636  1.00  0.00    -0.014 A 
HETATM    4  C5  UNL     1      -0.265  -1.415   2.354  1.00  0.00     0.070 C 
HETATM    5  C6  UNL     1      -1.571  -0.921   2.228  1.00  0.00     0.206 C 
HETATM    6  O2  UNL     1      -2.429  -1.301   3.052  1.00  0.00    -0.285 OA
HETATM    7  C7  UNL     1      -1.973  -0.028   1.236  1.00  0.00     0.130 C 
HETATM    8  C14 UNL     1      -1.245   0.987   0.668  1.00  0.00     0.042 C 
HETATM    9  C20 UNL     1       0.154   1.159   0.756  1.00  0.00     0.090 C 
HETATM   10  C21 UNL     1       1.057   0.119   0.893  1.00  0.00     0.042 A 
HETATM   11  C22 UNL     1       2.235   0.351   0.201  1.00  0.00     0.088 A 
HETATM   12  C23 UNL     1       3.210  -0.613   0.285  1.00  0.00     0.013 A 
ENDROOT
BRANCH   7  13
HETATM   13  O3  UNL     1      -3.276  -0.239   0.811  1.00  0.00    -0.339 OA
BRANCH  13  14
HETATM   14  C8  UNL     1      -3.609  -1.138  -0.259  1.00  0.00     0.157 C 
HETATM   15  C9  UNL     1      -4.659  -0.575  -1.149  1.00  0.00     0.036 C 
HETATM   16  C10 UNL     1      -5.986  -1.274  -0.873  1.00  0.00     0.033 C 
HETATM   17  C11 UNL     1      -5.799  -2.718  -1.222  1.00  0.00     0.272 C 
HETATM   18  N1  UNL     1      -4.772  -3.302  -0.422  1.00  0.00     0.086 N 
HETATM   19  C12 UNL     1      -5.357  -4.349   0.391  1.00  0.00     0.310 C 
HETATM   20  C13 UNL     1      -4.084  -2.398   0.459  1.00  0.00     0.304 C 
ENDBRANCH  13  14
ENDBRANCH   7  13
BRANCH   8  21
HETATM   21  C15 UNL     1      -1.984   2.043  -0.047  1.00  0.00     0.317 C 
BRANCH  21  22
HETATM   22  N2  UNL     1      -1.087   3.032  -0.676  1.00  0.00     0.092 N 
HETATM   23  C16 UNL     1      -1.922   4.171  -1.133  1.00  0.00     0.273 C 
HETATM   24  C17 UNL     1      -1.029   4.769  -2.208  1.00  0.00     0.032 C 
HETATM   25  C18 UNL     1      -0.347   3.549  -2.831  1.00  0.00     0.032 C 
HETATM   26  C19 UNL     1      -0.827   2.398  -2.011  1.00  0.00     0.273 C 
ENDBRANCH  21  22
ENDBRANCH   8  21
BRANCH   9  27
HETATM   27  O4  UNL     1       0.653   2.405   0.708  1.00  0.00    -0.359 OA
ATOM     28  H4  UNL     1       1.594   2.521   0.767  1.00  0.00     0.217 HD
ENDBRANCH   9  27
BRANCH  11  29
HETATM   29  O5  UNL     1       2.379   1.510  -0.529  1.00  0.00    -0.359 OA
ATOM     30  H5  UNL     1       3.187   1.669  -1.003  1.00  0.00     0.217 HD
ENDBRANCH  11  29
BRANCH   1  31
HETATM   31  O1  UNL     1       4.079  -2.720   1.067  1.00  0.00    -0.355 OA
HETATM   32  C1  UNL     1       3.885  -3.898   1.825  1.00  0.00     0.210 C 
ENDBRANCH   1  31
BRANCH  12  33
HETATM   33  C24 UNL     1       4.503  -0.465  -0.410  1.00  0.00     0.072 C 
BRANCH  33  34
HETATM   34  C25 UNL     1       5.605  -0.107   0.517  1.00  0.00    -0.020 C 
HETATM   35  C26 UNL     1       6.361   0.961   0.433  1.00  0.00    -0.091 C 
HETATM   36  C27 UNL     1       6.236   2.002  -0.621  1.00  0.00     0.042 C 
HETATM   37  C28 UNL     1       7.441   1.186   1.456  1.00  0.00     0.042 C 
ENDBRANCH  33  34
ENDBRANCH  12  33
TORSDOF 9
