REMARK  1 active torsions:
REMARK  status: ('A' for Active; 'I' for Inactive)
REMARK    1  A    between atoms: O1_2  and  C2_3 
ROOT
HETATM    1  C2  UNL     1       2.576  -1.041  -0.768  1.00  0.00     0.178 C 
HETATM    2  C3  UNL     1       1.364  -0.573  -0.540  1.00  0.00     0.127 C 
HETATM    3  O2  UNL     1       0.223  -1.192  -1.051  1.00  0.00    -0.342 OA
HETATM    4  C4  UNL     1      -0.905  -0.354  -1.233  1.00  0.00     0.185 C 
HETATM    5  C5  UNL     1      -1.541   0.050   0.062  1.00  0.00    -0.017 C 
HETATM    6  C6  UNL     1      -2.752   0.902  -0.271  1.00  0.00     0.018 C 
HETATM    7  C7  UNL     1      -2.081  -1.227   0.709  1.00  0.00     0.018 C 
HETATM    8  C8  UNL     1      -0.661   0.831   0.971  1.00  0.00     0.092 C 
HETATM    9  S1  UNL     1       1.068   0.885   0.437  1.00  0.00    -0.103 SA
ENDROOT
BRANCH   1  10
HETATM   10  O1  UNL     1       3.744  -0.513  -0.318  1.00  0.00    -0.365 OA
HETATM   11  C1  UNL     1       3.957   0.655   0.419  1.00  0.00     0.209 C 
ENDBRANCH   1  10
TORSDOF 1
