REMARK  6 active torsions:
REMARK  status: ('A' for Active; 'I' for Inactive)
REMARK    1  A    between atoms: N1_1  and  C1_4 
REMARK    2  A    between atoms: C2_9  and  N4_10 
REMARK    3  A    between atoms: N4_10  and  O1_12 
REMARK    4  A    between atoms: C3_14  and  N5_15 
REMARK    5  A    between atoms: N5_15  and  S1_17 
REMARK    6  A    between atoms: S1_17  and  N6_18 
ROOT
HETATM    1  C1  UNL     1      -1.940   0.787   0.266  1.00  0.00     0.692 A 
HETATM    2  N2  UNL     1      -2.556  -0.398   0.367  1.00  0.00    -0.131 N 
ATOM      3  H2  UNL     1      -3.561  -0.418   0.538  1.00  0.00     0.205 HD
HETATM    4  N3  UNL     1      -1.896  -1.556   0.251  1.00  0.00    -0.267 N 
ATOM      5  H3  UNL     1      -2.381  -2.450   0.331  1.00  0.00     0.189 HD
HETATM    6  C2  UNL     1      -0.554  -1.502   0.023  1.00  0.00     0.186 A 
HETATM    7  C3  UNL     1       0.111  -0.300  -0.085  1.00  0.00     0.179 A 
HETATM    8  N7  UNL     1      -0.594   0.836   0.038  1.00  0.00    -0.171 N 
ATOM      9  H7  UNL     1      -0.123   1.738  -0.039  1.00  0.00     0.186 HD
ENDROOT
BRANCH   7  10
HETATM   10  N5  UNL     1       1.359  -0.241  -0.297  1.00  0.00    -0.249 N 
ATOM     11  H5  UNL     1       1.853  -1.129  -0.384  1.00  0.00     0.182 HD
BRANCH  10  12
HETATM   12  S1  UNL     1       2.290   1.171  -0.450  1.00  0.00     0.318 S 
HETATM   13  O2  UNL     1       2.157   2.088   0.748  1.00  0.00    -0.183 OA
HETATM   14  O3  UNL     1       1.998   1.954  -1.693  1.00  0.00    -0.183 OA
BRANCH  12  15
HETATM   15  N6  UNL     1       3.972   0.694  -0.488  1.00  0.00    -0.311 N 
ATOM     16  H62 UNL     1       4.316  -0.264  -0.428  1.00  0.00     0.170 HD
ATOM     17  H61 UNL     1       4.531   1.542  -0.580  1.00  0.00     0.170 HD
ENDBRANCH  12  15
ENDBRANCH  10  12
ENDBRANCH   7  10
BRANCH   6  18
HETATM   18  N4  UNL     1       0.159  -2.577  -0.101  1.00  0.00    -0.249 N 
ATOM     19  H4  UNL     1       1.164  -2.526  -0.270  1.00  0.00     0.196 HD
BRANCH  18  20
HETATM   20  O1  UNL     1      -0.482  -3.785   0.003  1.00  0.00    -0.288 OA
ATOM     21  H1  UNL     1       0.041  -4.573  -0.088  1.00  0.00     0.244 HD
ENDBRANCH  18  20
ENDBRANCH   6  18
BRANCH   1  22
HETATM   22  N1  UNL     1      -2.629   1.858   0.387  1.00  0.00    -0.233 N 
ATOM     23  H12 UNL     1      -3.634   1.821   0.557  1.00  0.00     0.174 HD
ATOM     24  H11 UNL     1      -2.160   2.760   0.310  1.00  0.00     0.174 HD
ENDBRANCH   1  22
TORSDOF 6
