REMARK  8 active torsions:
REMARK  status: ('A' for Active; 'I' for Inactive)
REMARK    1  A    between atoms: C3_5  and  C4_6 
REMARK    2  A    between atoms: C4_6  and  N2_7 
REMARK    3  A    between atoms: C6_9  and  O1_10 
REMARK    4  A    between atoms: C8_13  and  C9_14 
REMARK    5  A    between atoms: C9_14  and  N3_15 
REMARK    6  A    between atoms: C12_19  and  C13_20 
REMARK       I    between atoms: C13_20  and  N4_22 
REMARK    7  A    between atoms: N4_22  and  C14_24 
REMARK    8  A    between atoms: C18_28  and  C19_29 
ROOT
HETATM    1  C1  UNL     1      -0.112   0.438  -2.162  1.00  0.00     0.070 C 
HETATM    2  C2  UNL     1      -0.901   0.952  -0.967  1.00  0.00     0.028 A 
HETATM    3  N1  UNL     1      -2.202   0.945  -1.002  1.00  0.00    -0.355 N 
ATOM      4  H1  UNL     1      -2.679   0.594  -1.833  1.00  0.00     0.166 HD
HETATM    5  C3  UNL     1      -2.910   1.380   0.010  1.00  0.00     0.080 A 
HETATM    6  S1  UNL     1      -1.706   1.842   1.114  1.00  0.00    -0.068 SA
HETATM    7  C12 UNL     1      -0.291   1.425   0.153  1.00  0.00     0.096 A 
ENDROOT
BRANCH   7   8
HETATM    8  C13 UNL     1       1.083   1.600   0.585  1.00  0.00     0.260 C 
HETATM    9  O2  UNL     1       1.236   2.099   1.765  1.00  0.00    -0.267 OA
HETATM   10  N4  UNL     1       2.196   1.273  -0.172  1.00  0.00    -0.352 N 
ATOM     11  H4  UNL     1       2.081   0.878  -1.105  1.00  0.00     0.163 HD
BRANCH  10  12
HETATM   12  C14 UNL     1       3.566   1.500   0.381  1.00  0.00     0.085 C 
HETATM   13  C15 UNL     1       4.261   2.428  -0.573  1.00  0.00     0.025 C 
HETATM   14  C16 UNL     1       5.705   2.607  -0.231  1.00  0.00     0.002 C 
HETATM   15  C17 UNL     1       6.280   1.392   0.501  1.00  0.00     0.005 C 
HETATM   16  C18 UNL     1       5.629   0.174  -0.063  1.00  0.00    -0.005 C 
HETATM   17  C23 UNL     1       4.199   0.130   0.419  1.00  0.00     0.030 C 
BRANCH  16  18
HETATM   18  C19 UNL     1       6.307  -1.111   0.283  1.00  0.00    -0.048 C 
HETATM   19  C20 UNL     1       6.363  -1.345   1.759  1.00  0.00     0.015 C 
HETATM   20  C21 UNL     1       5.585  -2.234  -0.440  1.00  0.00     0.015 C 
HETATM   21  C22 UNL     1       7.719  -1.052  -0.300  1.00  0.00     0.015 C 
ENDBRANCH  16  18
ENDBRANCH  10  12
ENDBRANCH   7   8
BRANCH   5  22
HETATM   22  C4  UNL     1      -4.412   1.458   0.155  1.00  0.00     0.337 C 
BRANCH  22  23
HETATM   23  N2  UNL     1      -4.997   0.338   0.788  1.00  0.00     0.103 N 
HETATM   24  C5  UNL     1      -4.562   0.052   2.125  1.00  0.00     0.305 C 
HETATM   25  C6  UNL     1      -4.430  -1.429   2.290  1.00  0.00     0.148 C 
HETATM   26  C7  UNL     1      -4.849  -2.009   0.981  1.00  0.00     0.071 C 
HETATM   27  C8  UNL     1      -4.869  -0.840   0.011  1.00  0.00     0.254 C 
BRANCH  25  28
HETATM   28  O1  UNL     1      -5.296  -1.929   3.270  1.00  0.00    -0.394 OA
ATOM     29  H1  UNL     1      -5.212  -2.869   3.375  1.00  0.00     0.210 HD
ENDBRANCH  25  28
BRANCH  27  30
HETATM   30  C9  UNL     1      -5.980  -0.949  -0.978  1.00  0.00     0.307 C 
BRANCH  30  31
HETATM   31  N3  UNL     1      -7.302  -1.010  -0.454  1.00  0.00     0.082 N 
HETATM   32  C10 UNL     1      -8.181  -1.198  -1.637  1.00  0.00     0.309 C 
HETATM   33  C11 UNL     1      -7.780   0.195   0.179  1.00  0.00     0.309 C 
ENDBRANCH  30  31
ENDBRANCH  27  30
ENDBRANCH  22  23
ENDBRANCH   5  22
TORSDOF 8
