REMARK  2 active torsions:
REMARK  status: ('A' for Active; 'I' for Inactive)
REMARK    1  A    between atoms: C7_7  and  O1_9 
REMARK    2  A    between atoms: C9_11  and  O2_12 
ROOT
HETATM    1  C1  UNL     1       1.601  -0.973  -1.373  1.00  0.00     0.013 C 
HETATM    2  C2  UNL     1       1.039  -0.955   0.026  1.00  0.00     0.018 C 
HETATM    3  C3  UNL     1       1.161   0.374   0.698  1.00  0.00    -0.001 C 
HETATM    4  C4  UNL     1       1.309   1.561  -0.224  1.00  0.00     0.006 C 
HETATM    5  C5  UNL     1       0.024   2.113   0.384  1.00  0.00     0.008 C 
HETATM    6  C6  UNL     1      -0.264   0.831   1.022  1.00  0.00     0.027 C 
HETATM    7  C7  UNL     1      -1.198  -0.138   0.463  1.00  0.00     0.084 C 
HETATM    8  C8  UNL     1      -1.996   0.252  -0.717  1.00  0.00     0.049 C 
HETATM    9  C9  UNL     1      -0.391  -1.381   0.103  1.00  0.00     0.156 C 
ENDROOT
BRANCH   7  10
HETATM   10  O1  UNL     1      -2.098  -0.561   1.470  1.00  0.00    -0.387 OA
ATOM     11  H1  UNL     1      -2.707  -1.193   1.106  1.00  0.00     0.210 HD
ENDBRANCH   7  10
BRANCH   9  12
HETATM   12  O2  UNL     1      -0.550  -2.398   1.017  1.00  0.00    -0.392 OA
ATOM     13  H2  UNL     1      -1.459  -2.669   1.066  1.00  0.00     0.210 HD
ENDBRANCH   9  12
TORSDOF 2
