REMARK  7 active torsions:
REMARK  status: ('A' for Active; 'I' for Inactive)
REMARK       I    between atoms: C1_2  and  N2_4 
REMARK    1  A    between atoms: N2_4  and  N3_6 
REMARK    2  A    between atoms: N3_6  and  C2_7 
REMARK    3  A    between atoms: C2_7  and  O2_8 
REMARK    4  A    between atoms: C2_7  and  N4_10 
REMARK    5  A    between atoms: N4_10  and  C3_12 
REMARK    6  A    between atoms: C7_16  and  N5_17 
REMARK    7  A    between atoms: N6_19  and  N7_21 
ROOT
HETATM    1  N7  UNL     1       5.399  -2.408   0.606  1.00  0.00    -0.263 N 
ATOM      2  H7  UNL     1       5.122  -3.380   0.467  1.00  0.00     0.191 HD
HETATM    3  C8  UNL     1       6.634  -2.174   0.750  1.00  0.00     0.369 C 
HETATM    4  O3  UNL     1       7.836  -1.976   0.898  1.00  0.00    -0.282 OA
ENDROOT
BRANCH   1   5
HETATM    5  N6  UNL     1       4.398  -1.465   0.621  1.00  0.00    -0.240 N 
HETATM    6  N5  UNL     1       3.910  -0.920  -0.423  1.00  0.00    -0.286 N 
ATOM      7  H5  UNL     1       4.247  -1.163  -1.354  1.00  0.00     0.188 HD
ATOM      8  H6  UNL     1       4.022  -1.183   1.526  1.00  0.00     0.208 HD
BRANCH   6   9
HETATM    9  C7  UNL     1       2.869   0.047  -0.237  1.00  0.00     0.051 A 
HETATM   10  C6  UNL     1       3.144   1.301   0.268  1.00  0.00     0.031 A 
HETATM   11  C5  UNL     1       2.128   2.222   0.442  1.00  0.00     0.005 A 
HETATM   12  C4  UNL     1       0.807   1.940   0.123  1.00  0.00     0.029 A 
HETATM   13  C3  UNL     1       0.522   0.690  -0.382  1.00  0.00     0.033 A 
HETATM   14  C9  UNL     1       1.557  -0.224  -0.550  1.00  0.00     0.060 A 
BRANCH  13  15
HETATM   15  N4  UNL     1      -0.821   0.357  -0.720  1.00  0.00    -0.349 N 
ATOM     16  H4  UNL     1      -1.025  -0.558  -1.121  1.00  0.00     0.163 HD
BRANCH  15  17
HETATM   17  C2  UNL     1      -1.899   1.293  -0.504  1.00  0.00     0.337 C 
BRANCH  17  18
HETATM   18  N3  UNL     1      -3.150   0.680  -0.976  1.00  0.00    -0.084 NA
BRANCH  18  19
HETATM   19  N2  UNL     1      -3.359  -0.488  -0.227  1.00  0.00    -0.254 N 
HETATM   20  C1  UNL     1      -4.593  -1.155  -0.347  1.00  0.00     0.344 C 
HETATM   21  N1  UNL     1      -4.829  -2.328   0.394  1.00  0.00    -0.039 NA
HETATM   22  O1  UNL     1      -5.487  -0.712  -1.111  1.00  0.00    -0.250 OA
ATOM     23  H2  UNL     1      -2.632  -0.846   0.392  1.00  0.00     0.187 HD
ENDBRANCH  18  19
ENDBRANCH  17  18
BRANCH  17  24
HETATM   24  O2  UNL     1      -2.054   1.585   0.866  1.00  0.00    -0.361 OA
ATOM     25  H2  UNL     1      -1.246   1.981   1.171  1.00  0.00     0.213 HD
ENDBRANCH  17  24
ENDBRANCH  15  17
ENDBRANCH  13  15
ENDBRANCH   6   9
ENDBRANCH   1   5
TORSDOF 7
