REMARK  2 active torsions:
REMARK  status: ('A' for Active; 'I' for Inactive)
REMARK    1  A    between atoms: O1_2  and  C2_3 
REMARK    2  A    between atoms: C9_10  and  O2_11 
ROOT
HETATM    1  C2  UNL     1       0.476  -0.031  -0.030  1.00  0.00     0.093 C 
HETATM    2  C3  UNL     1       0.799  -0.037   1.414  1.00  0.00     0.042 C 
HETATM    3  C4  UNL     1      -0.537  -0.733   1.680  1.00  0.00     0.015 C 
HETATM    4  C5  UNL     1      -0.928  -0.487   0.269  1.00  0.00    -0.010 C 
HETATM    5  C6  UNL     1      -1.305  -1.737  -0.492  1.00  0.00     0.018 C 
HETATM    6  C7  UNL     1      -1.800   0.705   0.005  1.00  0.00     0.015 C 
HETATM    7  C8  UNL     1      -1.097   1.370  -1.157  1.00  0.00     0.035 C 
HETATM    8  C9  UNL     1       0.346   1.311  -0.702  1.00  0.00     0.153 C 
ENDROOT
BRANCH   1   9
HETATM    9  O1  UNL     1       1.232  -0.941  -0.743  1.00  0.00    -0.382 OA
HETATM   10  C1  UNL     1       2.584  -0.722  -0.676  1.00  0.00     0.202 C 
ENDBRANCH   1   9
BRANCH   8  11
HETATM   11  O2  UNL     1       0.731   2.369   0.067  1.00  0.00    -0.393 OA
ATOM     12  H2  UNL     1       0.649   3.215  -0.357  1.00  0.00     0.210 HD
ENDBRANCH   8  11
TORSDOF 2
