REMARK  15 active torsions:
REMARK  status: ('A' for Active; 'I' for Inactive)
REMARK    1  A    between atoms: C3_3  and  O1_4 
REMARK    2  A    between atoms: C5_7  and  O2_8 
REMARK    3  A    between atoms: C7_11  and  C8_12 
REMARK    4  A    between atoms: C8_12  and  C9_13 
REMARK    5  A    between atoms: C10_14  and  C11_15 
REMARK    6  A    between atoms: C10_14  and  N3_38 
REMARK    7  A    between atoms: C11_15  and  C12_16 
REMARK    8  A    between atoms: C12_16  and  C13_17 
REMARK    9  A    between atoms: C13_17  and  C14_18 
REMARK   10  A    between atoms: C14_18  and  C15_19 
REMARK   11  A    between atoms: C15_19  and  C16_20 
REMARK   12  A    between atoms: C16_20  and  C17_21 
REMARK   13  A    between atoms: C17_21  and  C18_22 
REMARK   14  A    between atoms: C18_22  and  C19_23 
REMARK   15  A    between atoms: C19_23  and  C20_24 
ROOT
HETATM    1  C13 UNL     1      -1.688  -2.867   0.149  1.00  0.00    -0.009 C 
ENDROOT
BRANCH   1   2
HETATM    2  C12 UNL     1      -2.847  -3.251   0.254  1.00  0.00    -0.062 C 
BRANCH   2   3
HETATM    3  C11 UNL     1      -4.165  -3.763   0.374  1.00  0.00     0.094 C 
BRANCH   3   4
HETATM    4  C10 UNL     1      -5.270  -2.866   0.553  1.00  0.00     0.032 C 
HETATM    5  C9  UNL     1      -5.405  -1.623   0.627  1.00  0.00     0.004 C 
BRANCH   5   6
HETATM    6  C8  UNL     1      -4.490  -0.507   0.563  1.00  0.00     0.038 C 
BRANCH   6   7
HETATM    7  C7  UNL     1      -4.944   0.353  -0.638  1.00  0.00     0.022 C 
HETATM    8  C2  UNL     1      -6.313   0.848  -0.482  1.00  0.00    -0.056 C 
HETATM    9  C1  UNL     1      -7.365   0.354  -1.133  1.00  0.00     0.017 C 
HETATM   10  C3  UNL     1      -6.552   1.977   0.454  1.00  0.00     0.149 C 
HETATM   11  C4  UNL     1      -5.324   2.797   0.680  1.00  0.00     0.068 C 
HETATM   12  C5  UNL     1      -4.357   2.787  -0.465  1.00  0.00     0.121 C 
HETATM   13  C6  UNL     1      -3.930   1.416  -0.893  1.00  0.00     0.041 C 
BRANCH  10  14
HETATM   14  O1  UNL     1      -6.958   1.444   1.674  1.00  0.00    -0.391 OA
ATOM     15  H1  UNL     1      -7.111   2.166   2.272  1.00  0.00     0.210 HD
ENDBRANCH  10  14
BRANCH  12  16
HETATM   16  O2  UNL     1      -3.231   3.516  -0.086  1.00  0.00    -0.395 OA
ATOM     17  H2  UNL     1      -2.618   3.510  -0.812  1.00  0.00     0.210 HD
ENDBRANCH  12  16
ENDBRANCH   6   7
ENDBRANCH   5   6
BRANCH   4  18
HETATM   18  N3  UNL     1      -6.582  -3.604   0.683  1.00  0.00    -0.394 N 
HETATM   19  C30 UNL     1      -7.205  -3.773   1.936  1.00  0.00     0.146 C 
ATOM     20  H3  UNL     1      -7.025  -3.987  -0.152  1.00  0.00     0.159 HD
ENDBRANCH   4  18
ENDBRANCH   3   4
ENDBRANCH   2   3
ENDBRANCH   1   2
BRANCH   1  21
HETATM   21  C14 UNL     1      -0.348  -2.422   0.052  1.00  0.00    -0.001 C 
BRANCH  21  22
HETATM   22  C15 UNL     1       0.805  -2.062  -0.028  1.00  0.00    -0.001 C 
BRANCH  22  23
HETATM   23  C16 UNL     1       2.163  -1.659  -0.107  1.00  0.00    -0.009 C 
BRANCH  23  24
HETATM   24  C17 UNL     1       3.318  -1.306  -0.155  1.00  0.00    -0.065 C 
BRANCH  24  25
HETATM   25  C18 UNL     1       4.687  -0.882  -0.188  1.00  0.00     0.062 C 
BRANCH  25  26
HETATM   26  C19 UNL     1       5.613  -1.335   0.636  1.00  0.00    -0.007 C 
BRANCH  26  27
HETATM   27  C20 UNL     1       7.004  -0.881   0.577  1.00  0.00     0.059 C 
HETATM   28  C21 UNL     1       7.823  -1.759  -0.300  1.00  0.00     0.015 C 
HETATM   29  C22 UNL     1       8.101  -1.174  -1.661  1.00  0.00     0.006 C 
HETATM   30  C23 UNL     1       8.776   0.171  -1.533  1.00  0.00     0.043 C 
HETATM   31  C24 UNL     1       7.823   1.068  -0.817  1.00  0.00    -0.006 A 
HETATM   32  C25 UNL     1       7.013   0.551   0.158  1.00  0.00     0.026 A 
HETATM   33  C29 UNL     1       7.537   2.415  -0.911  1.00  0.00     0.067 A 
HETATM   34  N1  UNL     1       6.266   1.551   0.635  1.00  0.00    -0.357 N 
HETATM   35  C26 UNL     1       6.567   2.675   0.005  1.00  0.00     0.061 A 
ATOM     36  H1  UNL     1       5.568   1.461   1.374  1.00  0.00     0.166 HD
HETATM   37  C27 UNL     1       6.284   4.031  -0.094  1.00  0.00     0.049 A 
HETATM   38  C28 UNL     1       7.100   4.542  -1.074  1.00  0.00     0.090 A 
HETATM   39  N2  UNL     1       7.864   3.525  -1.562  1.00  0.00    -0.364 N 
ATOM     40  H2  UNL     1       8.565   3.603  -2.299  1.00  0.00     0.165 HD
ENDBRANCH  26  27
ENDBRANCH  25  26
ENDBRANCH  24  25
ENDBRANCH  23  24
ENDBRANCH  22  23
ENDBRANCH  21  22
ENDBRANCH   1  21
TORSDOF 15
