REMARK  16 active torsions:
REMARK  status: ('A' for Active; 'I' for Inactive)
REMARK    1  A    between atoms: N1_1  and  C1_4 
REMARK    2  A    between atoms: N3_8  and  C3_9 
REMARK    3  A    between atoms: C3_9  and  C4_10 
REMARK    4  A    between atoms: C3_9  and  C6_16 
REMARK    5  A    between atoms: C4_10  and  C5_11 
REMARK    6  A    between atoms: C5_11  and  O1_12 
REMARK    7  A    between atoms: C5_11  and  O2_14 
REMARK    8  A    between atoms: C6_16  and  C7_17 
REMARK    9  A    between atoms: C6_16  and  N5_31 
REMARK   10  A    between atoms: C7_17  and  C8_18 
REMARK   11  A    between atoms: C11_22  and  O3_23 
REMARK   12  A    between atoms: C12_25  and  O4_26 
REMARK   13  A    between atoms: C13_28  and  O5_29 
REMARK   14  A    between atoms: C14_33  and  N6_34 
REMARK   15  A    between atoms: N6_34  and  C15_36 
REMARK   16  A    between atoms: C17_52  and  N14_53 
ROOT
HETATM    1  C6  UNL     1      -0.366   0.813   0.802  1.00  0.00     0.155 C 
ENDROOT
BRANCH   1   2
HETATM    2  C3  UNL     1      -1.362  -0.028   0.176  1.00  0.00     0.063 C 
BRANCH   2   3
HETATM    3  N3  UNL     1      -1.304  -1.450   0.272  1.00  0.00    -0.073 N 
HETATM    4  C2  UNL     1      -2.411  -2.285   0.159  1.00  0.00     0.756 A 
HETATM    5  N2  UNL     1      -3.679  -1.965  -0.057  1.00  0.00    -0.018 N 
HETATM    6  N13 UNL     1      -2.031  -3.560   0.307  1.00  0.00     0.108 N 
HETATM    7  C1  UNL     1      -4.625  -2.915  -0.135  1.00  0.00     0.705 A 
ATOM      8  H2  UNL     1      -3.940  -0.985  -0.165  1.00  0.00     0.203 HD
HETATM    9  N15 UNL     1      -4.270  -4.206   0.010  1.00  0.00    -0.020 N 
HETATM   10  C17 UNL     1      -2.976  -4.503   0.228  1.00  0.00     0.728 A 
ATOM     11  H15 UNL     1      -4.970  -4.946  -0.045  1.00  0.00     0.203 HD
HETATM   12  N12 UNL     1      -0.747  -3.547   0.504  1.00  0.00    -0.191 N 
HETATM   13  N11 UNL     1      -0.343  -2.303   0.480  1.00  0.00    -0.206 N 
ATOM     14  H12 UNL     1      -0.156  -4.365   0.652  1.00  0.00     0.211 HD
ATOM     15  H11 UNL     1       0.630  -2.028   0.611  1.00  0.00     0.211 HD
BRANCH   7  16
HETATM   16  N1  UNL     1      -5.875  -2.608  -0.348  1.00  0.00    -0.234 N 
ATOM     17  H12 UNL     1      -6.144  -1.630  -0.458  1.00  0.00     0.174 HD
ATOM     18  H11 UNL     1      -6.594  -3.330  -0.407  1.00  0.00     0.174 HD
ENDBRANCH   7  16
BRANCH  10  19
HETATM   19  N14 UNL     1      -2.592  -5.748   0.376  1.00  0.00    -0.232 N 
ATOM     20 2H14 UNL     1      -1.611  -5.973   0.541  1.00  0.00     0.174 HD
ATOM     21 1H14 UNL     1      -3.313  -6.467   0.316  1.00  0.00     0.174 HD
ENDBRANCH  10  19
ENDBRANCH   2   3
BRANCH   2  22
HETATM   22  C4  UNL     1      -1.755   0.392  -1.238  1.00  0.00     0.118 C 
BRANCH  22  23
HETATM   23  C5  UNL     1      -0.826  -0.064  -2.290  1.00  0.00     0.259 C 
BRANCH  23  24
HETATM   24  O1  UNL     1      -0.672  -1.436  -2.387  1.00  0.00    -0.371 OA
ATOM     25  H1  UNL     1      -0.074  -1.730  -3.064  1.00  0.00     0.212 HD
ENDBRANCH  23  24
BRANCH  23  26
HETATM   26  O2  UNL     1      -1.296   0.352  -3.559  1.00  0.00    -0.371 OA
ATOM     27  H2  UNL     1      -0.698   0.058  -4.236  1.00  0.00     0.212 HD
ENDBRANCH  23  26
ENDBRANCH  22  23
ENDBRANCH   2  22
ENDBRANCH   1   2
BRANCH   1  28
HETATM   28  C7  UNL     1       1.038   0.936   0.571  1.00  0.00     0.018 C 
BRANCH  28  29
HETATM   29  C8  UNL     1       2.064  -0.077   0.705  1.00  0.00     0.000 A 
HETATM   30  C9  UNL     1       2.677  -0.585  -0.416  1.00  0.00     0.043 A 
HETATM   31  C10 UNL     1       3.696  -1.501  -0.391  1.00  0.00     0.083 A 
HETATM   32  N4  UNL     1       4.311  -2.007  -1.571  1.00  0.00    -0.099 NA
HETATM   33  C11 UNL     1       4.127  -1.936   0.847  1.00  0.00     0.126 A 
HETATM   34  C12 UNL     1       3.540  -1.453   2.004  1.00  0.00     0.135 A 
HETATM   35  C13 UNL     1       2.519  -0.533   1.921  1.00  0.00     0.111 A 
BRANCH  33  36
HETATM   36  O3  UNL     1       5.165  -2.872   0.965  1.00  0.00    -0.356 OA
ATOM     37  H3  UNL     1       5.461  -3.171   1.817  1.00  0.00     0.218 HD
ENDBRANCH  33  36
BRANCH  34  38
HETATM   38  O4  UNL     1       3.989  -1.905   3.262  1.00  0.00    -0.356 OA
ATOM     39  H4  UNL     1       3.586  -1.574   4.056  1.00  0.00     0.218 HD
ENDBRANCH  34  38
BRANCH  35  40
HETATM   40  O5  UNL     1       1.980  -0.096   3.126  1.00  0.00    -0.357 OA
ATOM     41  H5  UNL     1       2.294  -0.411   3.965  1.00  0.00     0.217 HD
ENDBRANCH  35  40
ENDBRANCH  28  29
ENDBRANCH   1  28
BRANCH   1  42
HETATM   42  N5  UNL     1      -0.881   2.236   0.757  1.00  0.00    -0.372 N 
HETATM   43  C14 UNL     1      -0.534   3.071   1.650  1.00  0.00     0.194 C 
ATOM     44  H5  UNL     1      -1.509   2.526   0.007  1.00  0.00     0.161 HD
BRANCH  43  45
HETATM   45  N6  UNL     1      -1.057   4.386   1.541  1.00  0.00    -0.186 N 
ATOM     46  H6  UNL     1      -1.792   4.666   2.191  1.00  0.00     0.185 HD
BRANCH  45  47
HETATM   47  C15 UNL     1      -0.662   5.239   0.678  1.00  0.00     0.702 A 
HETATM   48  N7  UNL     1      -1.223   6.481   0.647  1.00  0.00    -0.117 N 
HETATM   49  N8  UNL     1      -0.840   7.392  -0.233  1.00  0.00    -0.224 N 
ATOM     50  H7  UNL     1      -1.955   6.714   1.318  1.00  0.00     0.207 HD
HETATM   51  N9  UNL     1       0.092   7.097  -1.089  1.00  0.00    -0.236 N 
ATOM     52  H8  UNL     1      -1.272   8.316  -0.239  1.00  0.00     0.209 HD
HETATM   53  C16 UNL     1       0.659   5.891  -1.083  1.00  0.00     0.354 A 
ATOM     54  H9  UNL     1       0.392   7.794  -1.771  1.00  0.00     0.193 HD
HETATM   55  O6  UNL     1       1.556   5.663  -1.933  1.00  0.00    -0.245 OA
HETATM   56  N10 UNL     1       0.300   4.927  -0.200  1.00  0.00    -0.139 N 
ATOM     57  H10 UNL     1       0.742   4.008  -0.204  1.00  0.00     0.189 HD
ENDBRANCH  45  47
ENDBRANCH  43  45
ENDBRANCH   1  42
TORSDOF 16
