REMARK  15 active torsions:
REMARK  status: ('A' for Active; 'I' for Inactive)
REMARK    1  A    between atoms: N1_2  and  C3_4 
REMARK    2  A    between atoms: C3_4  and  C4_5 
REMARK    3  A    between atoms: C4_5  and  C5_6 
REMARK    4  A    between atoms: C5_6  and  N2_7 
REMARK    5  A    between atoms: N2_7  and  C6_10 
REMARK    6  A    between atoms: C6_10  and  C7_11 
REMARK    7  A    between atoms: C7_11  and  C8_12 
REMARK    8  A    between atoms: C8_12  and  C9_13 
REMARK    9  A    between atoms: C9_13  and  N3_14 
REMARK   10  A    between atoms: N3_14  and  C10_16 
REMARK   11  A    between atoms: C11_19  and  O1_20 
REMARK   12  A    between atoms: C12_22  and  C13_23 
REMARK   13  A    between atoms: C13_23  and  C14_24 
REMARK   14  A    between atoms: C14_24  and  C15_25 
REMARK   15  A    between atoms: C15_25  and  N5_26 
ROOT
HETATM    1  C10 UNL     1      -1.882  -0.291  -0.059  1.00  0.00     0.680 A 
HETATM    2  N4  UNL     1      -2.330   0.378   1.011  1.00  0.00    -0.169 N 
ATOM      3  H4  UNL     1      -1.927   1.247   1.361  1.00  0.00     0.186 HD
HETATM    4  C11 UNL     1      -3.380  -0.250   1.559  1.00  0.00     0.178 A 
HETATM    5  C12 UNL     1      -3.613  -1.385   0.789  1.00  0.00     0.078 A 
HETATM    6  N8  UNL     1      -2.662  -1.372  -0.202  1.00  0.00    -0.191 N 
ATOM      7  H8  UNL     1      -2.564  -2.076  -0.934  1.00  0.00     0.184 HD
ENDROOT
BRANCH   1   8
HETATM    8  N3  UNL     1      -0.891   0.007  -0.843  1.00  0.00    -0.226 N 
ATOM      9  H3  UNL     1      -0.688  -0.624  -1.619  1.00  0.00     0.177 HD
BRANCH   8  10
HETATM   10  C9  UNL     1      -0.064   1.168  -0.686  1.00  0.00     0.138 C 
BRANCH  10  11
HETATM   11  C8  UNL     1       0.976   1.147  -1.757  1.00  0.00     0.022 C 
BRANCH  11  12
HETATM   12  C7  UNL     1       1.811  -0.093  -1.671  1.00  0.00     0.029 C 
BRANCH  12  13
HETATM   13  C6  UNL     1       2.527  -0.187  -0.372  1.00  0.00     0.232 C 
BRANCH  13  14
HETATM   14  N2  UNL     1       3.351  -1.363  -0.255  1.00  0.00    -0.075 N 
ATOM     15  H22 UNL     1       2.794  -2.206  -0.391  1.00  0.00     0.277 HD
ATOM     16  H21 UNL     1       3.641  -1.503   0.713  1.00  0.00     0.277 HD
BRANCH  14  17
HETATM   17  C5  UNL     1       4.483  -1.364  -1.123  1.00  0.00     0.234 C 
BRANCH  17  18
HETATM   18  C4  UNL     1       5.500  -0.312  -0.727  1.00  0.00     0.057 C 
BRANCH  18  19
HETATM   19  C3  UNL     1       6.000  -0.546   0.683  1.00  0.00     0.273 C 
BRANCH  19  20
HETATM   20  N1  UNL     1       6.976   0.414   1.108  1.00  0.00     0.080 N 
HETATM   21  C1  UNL     1       8.227   0.291   0.405  1.00  0.00     0.309 C 
HETATM   22  C2  UNL     1       6.511   1.771   1.107  1.00  0.00     0.309 C 
ENDBRANCH  19  20
ENDBRANCH  18  19
ENDBRANCH  17  18
ENDBRANCH  14  17
ENDBRANCH  13  14
ENDBRANCH  12  13
ENDBRANCH  11  12
ENDBRANCH  10  11
ENDBRANCH   8  10
ENDBRANCH   1   8
BRANCH   4  23
HETATM   23  O1  UNL     1      -4.070   0.198   2.700  1.00  0.00    -0.344 OA
ATOM     24  H1  UNL     1      -4.814  -0.247   3.088  1.00  0.00     0.219 HD
ENDBRANCH   4  23
BRANCH   5  25
HETATM   25  C13 UNL     1      -4.685  -2.379   0.953  1.00  0.00     0.064 C 
BRANCH  25  26
HETATM   26  C14 UNL     1      -5.963  -2.206   0.263  1.00  0.00     0.026 C 
BRANCH  26  27
HETATM   27  C15 UNL     1      -6.718  -0.957   0.493  1.00  0.00     0.122 C 
BRANCH  27  28
HETATM   28  N5  UNL     1      -6.106   0.253   0.033  1.00  0.00    -0.367 N 
HETATM   29  C16 UNL     1      -6.705   1.376  -0.062  1.00  0.00     0.196 C 
HETATM   30  N6  UNL     1      -6.003   2.511  -0.529  1.00  0.00    -0.067 NA
HETATM   31  N7  UNL     1      -8.066   1.474   0.301  1.00  0.00    -0.067 NA
ATOM     32  H5  UNL     1      -5.123   0.215  -0.237  1.00  0.00     0.161 HD
ENDBRANCH  27  28
ENDBRANCH  26  27
ENDBRANCH  25  26
ENDBRANCH   5  25
TORSDOF 15
