REMARK  4 active torsions:
REMARK  status: ('A' for Active; 'I' for Inactive)
REMARK    1  A    between atoms: O1_1  and  C1_3 
REMARK    2  A    between atoms: C4_6  and  C5_7 
REMARK    3  A    between atoms: C6_8  and  C7_9 
REMARK    4  A    between atoms: C17_21  and  C18_22 
ROOT
HETATM    1  C1  UNL     1       1.509  -0.524  -0.202  1.00  0.00     0.094 A 
HETATM    2  C2  UNL     1       0.248  -0.054   0.129  1.00  0.00     0.054 A 
HETATM    3  C3  UNL     1       0.174   1.024   0.992  1.00  0.00     0.012 A 
HETATM    4  C4  UNL     1      -1.081   1.486   1.317  1.00  0.00     0.030 A 
HETATM    5  C13 UNL     1      -1.136   2.561   2.178  1.00  0.00     0.022 A 
HETATM    6  C14 UNL     1       0.012   3.148   2.691  1.00  0.00     0.004 A 
HETATM    7  C15 UNL     1       1.250   2.685   2.365  1.00  0.00     0.030 A 
HETATM    8  C16 UNL     1       1.331   1.597   1.494  1.00  0.00     0.044 A 
HETATM    9  N1  UNL     1       2.515   1.095   1.134  1.00  0.00    -0.353 N 
ATOM     10  H1  UNL     1       3.360   1.526   1.510  1.00  0.00     0.166 HD
HETATM   11  C17 UNL     1       2.647   0.052   0.302  1.00  0.00     0.076 A 
ENDROOT
BRANCH   4  12
HETATM   12  C5  UNL     1      -2.253   0.861   0.773  1.00  0.00    -0.060 C 
HETATM   13  C6  UNL     1      -3.254   0.350   0.317  1.00  0.00    -0.061 C 
BRANCH  13  14
HETATM   14  C7  UNL     1      -4.454  -0.237  -0.215  1.00  0.00     0.018 A 
HETATM   15  C8  UNL     1      -4.806  -1.552   0.001  1.00  0.00     0.020 A 
HETATM   16  C9  UNL     1      -5.953  -2.124  -0.504  1.00  0.00     0.001 A 
HETATM   17  C10 UNL     1      -6.776  -1.317  -1.263  1.00  0.00     0.000 A 
HETATM   18  C11 UNL     1      -6.471  -0.001  -1.509  1.00  0.00     0.001 A 
HETATM   19  C12 UNL     1      -5.323   0.537  -0.992  1.00  0.00     0.020 A 
ENDBRANCH  13  14
ENDBRANCH   4  12
BRANCH   1  20
HETATM   20  O1  UNL     1       1.653  -1.602  -1.063  1.00  0.00    -0.358 OA
ATOM     21  H1  UNL     1       2.517  -1.924  -1.290  1.00  0.00     0.217 HD
ENDBRANCH   1  20
BRANCH  11  22
HETATM   22  C18 UNL     1       3.993  -0.447  -0.053  1.00  0.00    -0.007 A 
HETATM   23  C19 UNL     1       4.995   0.431  -0.404  1.00  0.00     0.014 A 
HETATM   24  C20 UNL     1       6.264   0.021  -0.739  1.00  0.00     0.001 A 
HETATM   25  C21 UNL     1       6.529  -1.330  -0.719  1.00  0.00     0.000 A 
HETATM   26  C22 UNL     1       5.554  -2.228  -0.374  1.00  0.00     0.001 A 
HETATM   27  C23 UNL     1       4.286  -1.793  -0.040  1.00  0.00     0.014 A 
ENDBRANCH  11  22
TORSDOF 4
