REMARK  3 active torsions:
REMARK  status: ('A' for Active; 'I' for Inactive)
REMARK    1  A    between atoms: C3_4  and  C4_5 
REMARK    2  A    between atoms: C7_8  and  C8_9 
REMARK    3  A    between atoms: C9_10  and  C10_11 
ROOT
HETATM    1  C4  UNL     1       3.762   0.149  -0.371  1.00  0.00    -0.010 A 
HETATM    2  C5  UNL     1       3.029   1.310  -0.175  1.00  0.00     0.016 A 
HETATM    3  C6  UNL     1       1.679   1.191   0.070  1.00  0.00     0.040 A 
HETATM    4  C7  UNL     1       1.104  -0.047   0.113  1.00  0.00     0.086 A 
HETATM    5  N1  UNL     1       1.839  -1.136  -0.079  1.00  0.00    -0.358 N 
ATOM      6  H1  UNL     1       1.385  -2.049  -0.042  1.00  0.00     0.166 HD
HETATM    7  C20 UNL     1       3.150  -1.078  -0.319  1.00  0.00     0.101 A 
ENDROOT
BRANCH   4   8
HETATM    8  C8  UNL     1      -0.319  -0.121   0.375  1.00  0.00    -0.043 C 
HETATM    9  C9  UNL     1      -1.504  -0.201   0.585  1.00  0.00    -0.060 C 
BRANCH   9  10
HETATM   10  C10 UNL     1      -2.916  -0.317   0.824  1.00  0.00     0.018 A 
HETATM   11  C11 UNL     1      -3.450  -0.758   2.023  1.00  0.00     0.021 A 
HETATM   12  C12 UNL     1      -4.812  -0.863   2.231  1.00  0.00     0.013 A 
HETATM   13  C13 UNL     1      -5.694  -0.523   1.226  1.00  0.00    -0.026 A 
HETATM   14  C14 UNL     1      -7.074  -0.621   1.413  1.00  0.00     0.012 A 
HETATM   15  C18 UNL     1      -5.191  -0.081   0.022  1.00  0.00    -0.025 A 
HETATM   16  C15 UNL     1      -7.949  -0.280   0.406  1.00  0.00     0.001 A 
HETATM   17  C16 UNL     1      -7.451   0.163  -0.802  1.00  0.00     0.001 A 
HETATM   18  C17 UNL     1      -6.079   0.257  -0.977  1.00  0.00     0.012 A 
HETATM   19  C19 UNL     1      -3.829   0.015  -0.161  1.00  0.00     0.032 A 
ENDBRANCH   9  10
ENDBRANCH   4   8
BRANCH   1  20
HETATM   20  C3  UNL     1       5.200   0.195  -0.635  1.00  0.00    -0.018 A 
HETATM   21  C2  UNL     1       5.793   1.240  -1.320  1.00  0.00     0.086 A 
HETATM   22  C1  UNL     1       7.161   1.257  -1.555  1.00  0.00     0.245 A 
HETATM   23  O1  UNL     1       7.690   2.219  -2.183  1.00  0.00    -0.268 OA
HETATM   24  N2  UNL     1       7.941   0.244  -1.114  1.00  0.00    -0.334 N 
HETATM   25  C22 UNL     1       7.394  -0.788  -0.444  1.00  0.00     0.092 A 
ATOM     26  H2  UNL     1       8.946   0.262  -1.289  1.00  0.00     0.168 HD
HETATM   27  C21 UNL     1       6.038  -0.812  -0.206  1.00  0.00     0.029 A 
ENDBRANCH   1  20
TORSDOF 3
