REMARK  9 active torsions:
REMARK  status: ('A' for Active; 'I' for Inactive)
REMARK    1  A    between atoms: N1_1  and  C1_4 
REMARK    2  A    between atoms: C2_7  and  N3_8 
REMARK    3  A    between atoms: C4_14  and  C5_15 
REMARK    4  A    between atoms: C5_15  and  N5_16 
REMARK    5  A    between atoms: C7_22  and  C8_23 
REMARK    6  A    between atoms: C8_23  and  N9_24 
REMARK    7  A    between atoms: C8_23  and  C9_28 
REMARK    8  A    between atoms: N10_29  and  N11_31 
REMARK       I    between atoms: C10_33  and  N13_35 
REMARK    9  A    between atoms: N13_35  and  N14_37 
ROOT
HETATM    1  N5  UNL     1      -0.969  -0.164   1.170  1.00  0.00    -0.303 N 
HETATM    2  C6  UNL     1      -1.041  -1.513   1.658  1.00  0.00     0.208 C 
HETATM    3  N6  UNL     1      -2.223  -2.076   2.207  1.00  0.00    -0.062 NA
HETATM    4  N7  UNL     1       0.137  -2.072   1.507  1.00  0.00    -0.270 N 
ATOM      5  H7  UNL     1       0.375  -3.029   1.767  1.00  0.00     0.189 HD
HETATM    6  N8  UNL     1       1.022  -1.136   0.927  1.00  0.00    -0.244 N 
HETATM    7  C7  UNL     1       2.096  -0.296   0.432  1.00  0.00     0.345 C 
HETATM    8  N15 UNL     1       1.127   0.763   0.315  1.00  0.00    -0.010 N 
ATOM      9 1H15 UNL     1       1.230   1.484  -0.399  1.00  0.00     0.284 HD
ATOM     10 2H15 UNL     1       1.067   1.492   1.026  1.00  0.00     0.284 HD
HETATM   11  C11 UNL     1       0.112  -0.222   0.205  1.00  0.00     0.415 C 
ENDROOT
BRANCH   1  12
HETATM   12  C5  UNL     1      -1.715   1.002   1.475  1.00  0.00     0.188 C 
BRANCH  12  13
HETATM   13  C4  UNL     1      -3.138   0.982   1.161  1.00  0.00     0.043 A 
HETATM   14  N4  UNL     1      -3.677   0.012   0.412  1.00  0.00    -0.351 N 
HETATM   15  C3  UNL     1      -5.015   0.037   0.146  1.00  0.00     0.122 A 
ATOM     16  H4  UNL     1      -3.093  -0.739   0.044  1.00  0.00     0.166 HD
HETATM   17  C2  UNL     1      -5.580  -0.968  -0.630  1.00  0.00     0.145 A 
HETATM   18  C13 UNL     1      -5.849   1.024   0.614  1.00  0.00     0.151 A 
HETATM   19  N2  UNL     1      -6.885  -0.918  -0.874  1.00  0.00    -0.175 N 
HETATM   20  C1  UNL     1      -7.687   0.072  -0.396  1.00  0.00     0.679 A 
ATOM     21  H2  UNL     1      -7.304  -1.653  -1.444  1.00  0.00     0.186 HD
HETATM   22  N17 UNL     1      -7.173   1.056   0.355  1.00  0.00    -0.174 N 
ATOM     23  H17 UNL     1      -7.763   1.804   0.719  1.00  0.00     0.186 HD
HETATM   24  N16 UNL     1      -5.283   2.009   1.378  1.00  0.00    -0.348 N 
HETATM   25  C12 UNL     1      -3.961   1.981   1.639  1.00  0.00     0.116 A 
ATOM     26  H16 UNL     1      -5.861   2.763   1.749  1.00  0.00     0.167 HD
BRANCH  17  27
HETATM   27  N3  UNL     1      -4.800  -1.897  -1.073  1.00  0.00    -0.383 N 
ATOM     28  H32 UNL     1      -5.215  -2.635  -1.643  1.00  0.00     0.157 HD
ATOM     29  H31 UNL     1      -3.798  -1.935  -0.886  1.00  0.00     0.157 HD
ENDBRANCH  17  27
BRANCH  20  30
HETATM   30  N1  UNL     1      -8.951   0.088  -0.653  1.00  0.00    -0.234 N 
ATOM     31  H12 UNL     1      -9.342  -0.661  -1.225  1.00  0.00     0.174 HD
ATOM     32  H11 UNL     1      -9.552   0.830  -0.295  1.00  0.00     0.174 HD
ENDBRANCH  20  30
ENDBRANCH  12  13
ENDBRANCH   1  12
BRANCH   7  33
HETATM   33  C8  UNL     1       2.828  -0.740  -0.769  1.00  0.00     0.274 C 
BRANCH  33  34
HETATM   34  N9  UNL     1       2.085  -0.915  -1.964  1.00  0.00    -0.067 N 
ATOM     35  H93 UNL     1       1.309  -1.553  -1.788  1.00  0.00     0.275 HD
ATOM     36  H92 UNL     1       1.581  -0.054  -2.176  1.00  0.00     0.275 HD
ATOM     37  H91 UNL     1       2.591  -1.222  -2.795  1.00  0.00     0.275 HD
ENDBRANCH  33  34
BRANCH  33  38
HETATM   38  C9  UNL     1       3.959   0.190  -1.038  1.00  0.00     0.116 C 
HETATM   39  N10 UNL     1       5.005  -0.166  -1.694  1.00  0.00    -0.311 N 
ATOM     40  H10 UNL     1       5.044  -1.126  -2.035  1.00  0.00     0.185 HD
BRANCH  39  41
HETATM   41  N11 UNL     1       6.075   0.651  -1.970  1.00  0.00    -0.273 N 
HETATM   42  C10 UNL     1       7.223   0.616  -1.432  1.00  0.00     0.226 C 
HETATM   43  N12 UNL     1       8.215   1.546  -1.845  1.00  0.00    -0.060 NA
HETATM   44  N13 UNL     1       7.582  -0.314  -0.424  1.00  0.00    -0.212 N 
ATOM     45  H13 UNL     1       6.982  -1.126  -0.277  1.00  0.00     0.196 HD
ATOM     46  H11 UNL     1       5.930   1.363  -2.686  1.00  0.00     0.189 HD
BRANCH  44  47
HETATM   47  N14 UNL     1       8.714  -0.173   0.376  1.00  0.00    -0.036 N 
HETATM   48  O1  UNL     1       9.734  -0.862   0.143  1.00  0.00    -0.516 OA
HETATM   49  O2  UNL     1       8.780   0.702   1.437  1.00  0.00    -0.516 OA
ENDBRANCH  44  47
ENDBRANCH  39  41
ENDBRANCH  33  38
ENDBRANCH   7  33
TORSDOF 9
