REMARK  0 active torsions:
REMARK  status: ('A' for Active; 'I' for Inactive)
ROOT
HETATM    1  C1  UNL     1       0.711  -1.102   1.390  1.00  0.00     0.015 C 
HETATM    2  C2  UNL     1       0.530  -0.720  -0.037  1.00  0.00    -0.039 C 
HETATM    3  C3  UNL     1      -0.142  -1.851  -0.760  1.00  0.00     0.015 C 
HETATM    4  C4  UNL     1      -1.260  -1.433  -1.657  1.00  0.00     0.056 C 
HETATM    5  C5  UNL     1      -2.169  -0.560  -0.925  1.00  0.00     0.019 C 
HETATM    6  N1  UNL     1      -3.449  -0.687  -0.831  1.00  0.00    -0.243 N 
ATOM      7  H1  UNL     1      -3.958  -1.446  -1.283  1.00  0.00     0.196 HD
HETATM    8  O1  UNL     1      -4.077   0.277  -0.076  1.00  0.00    -0.113 OA
HETATM    9  O2  UNL     1      -3.589   0.860   0.998  1.00  0.00    -0.216 OA
HETATM   10  C6  UNL     1      -2.202   0.626   1.164  1.00  0.00     0.223 C 
HETATM   11  C7  UNL     1      -1.607   0.607  -0.197  1.00  0.00     0.065 C 
HETATM   12  C8  UNL     1      -0.121   0.610  -0.266  1.00  0.00     0.007 C 
HETATM   13  C9  UNL     1       0.539   1.650   0.571  1.00  0.00     0.026 C 
HETATM   14  C10 UNL     1       1.957   1.835   0.010  1.00  0.00     0.082 C 
HETATM   15 CL1  UNL     1       2.813   2.952   1.111  1.00  0.00    -0.125 Cl
HETATM   16  C11 UNL     1       2.694   0.541   0.004  1.00  0.00     0.021 C 
HETATM   17  C12 UNL     1       1.940  -0.596  -0.644  1.00  0.00     0.011 C 
ENDROOT
TORSDOF 0
