REMARK  14 active torsions:
REMARK  status: ('A' for Active; 'I' for Inactive)
REMARK    1  A    between atoms: N1_1  and  C1_5 
REMARK    2  A    between atoms: C1_5  and  C2_6 
REMARK    3  A    between atoms: C5_9  and  N2_10 
REMARK    4  A    between atoms: C6_14  and  O1_15 
REMARK    5  A    between atoms: O1_15  and  C7_16 
REMARK    6  A    between atoms: C8_18  and  O3_19 
REMARK    7  A    between atoms: O3_19  and  C9_20 
REMARK    8  A    between atoms: C10_22  and  C11_23 
REMARK    9  A    between atoms: N4_25  and  O5_27 
REMARK   10  A    between atoms: C12_29  and  C13_30 
REMARK   11  A    between atoms: C13_30  and  O6_31 
REMARK   12  A    between atoms: C14_33  and  O7_34 
REMARK   13  A    between atoms: C15_36  and  N5_37 
REMARK   14  A    between atoms: C17_42  and  N6_43 
ROOT
HETATM    1  C7  UNL     1      -1.490  -0.977  -0.831  1.00  0.00     0.296 C 
HETATM    2  O2  UNL     1      -0.232  -1.064  -0.254  1.00  0.00    -0.327 OA
HETATM    3  C8  UNL     1       0.791  -0.754  -1.146  1.00  0.00     0.296 C 
HETATM    4  C15 UNL     1       0.858  -1.837  -2.212  1.00  0.00     0.240 C 
HETATM    5  C16 UNL     1      -0.472  -2.174  -2.790  1.00  0.00     0.075 C 
HETATM    6  C17 UNL     1      -1.604  -2.139  -1.812  1.00  0.00     0.240 C 
ENDROOT
BRANCH   3   7
HETATM    7  O3  UNL     1       1.991  -0.873  -0.412  1.00  0.00    -0.327 OA
BRANCH   7   8
HETATM    8  C9  UNL     1       2.715   0.309  -0.429  1.00  0.00     0.293 C 
HETATM    9  O4  UNL     1       4.009   0.093  -0.958  1.00  0.00    -0.345 OA
HETATM   10  C10 UNL     1       4.658   1.293  -0.641  1.00  0.00     0.199 C 
HETATM   11  C12 UNL     1       4.311   1.593   0.767  1.00  0.00     0.079 C 
HETATM   12  C14 UNL     1       3.015   0.794   0.955  1.00  0.00     0.182 C 
BRANCH  10  13
HETATM   13  C11 UNL     1       6.053   1.362  -1.022  1.00  0.00     0.142 C 
HETATM   14  N3  UNL     1       7.043   0.418  -0.645  1.00  0.00    -0.083 NA
HETATM   15  N4  UNL     1       6.479   2.352  -1.770  1.00  0.00    -0.257 N 
ATOM     16  H4  UNL     1       5.815   3.064  -2.074  1.00  0.00     0.195 HD
BRANCH  15  17
HETATM   17  O5  UNL     1       7.785   2.456  -2.153  1.00  0.00    -0.289 OA
ATOM     18  H5  UNL     1       8.093   3.173  -2.695  1.00  0.00     0.244 HD
ENDBRANCH  15  17
ENDBRANCH  10  13
BRANCH  11  19
HETATM   19  C13 UNL     1       5.326   1.168   1.803  1.00  0.00     0.174 C 
BRANCH  19  20
HETATM   20  O6  UNL     1       5.529  -0.192   1.791  1.00  0.00    -0.400 OA
ATOM     21  H6  UNL     1       6.167  -0.459   2.442  1.00  0.00     0.209 HD
ENDBRANCH  19  20
ENDBRANCH  11  19
BRANCH  12  22
HETATM   22  O7  UNL     1       1.999   1.588   1.480  1.00  0.00    -0.390 OA
ATOM     23  H7  UNL     1       2.189   1.896   2.358  1.00  0.00     0.210 HD
ENDBRANCH  12  22
ENDBRANCH   7   8
ENDBRANCH   3   7
BRANCH   4  24
HETATM   24  N5  UNL     1       1.447  -3.004  -1.585  1.00  0.00    -0.070 N 
ATOM     25  H53 UNL     1       2.349  -2.814  -1.147  1.00  0.00     0.274 HD
ATOM     26  H52 UNL     1       0.955  -3.299  -0.742  1.00  0.00     0.274 HD
ATOM     27  H51 UNL     1       1.492  -3.730  -2.300  1.00  0.00     0.274 HD
ENDBRANCH   4  24
BRANCH   1  28
HETATM   28  O1  UNL     1      -2.419  -1.139   0.170  1.00  0.00    -0.327 OA
BRANCH  28  29
HETATM   29  C6  UNL     1      -3.359  -0.131   0.245  1.00  0.00     0.293 C 
HETATM   30  C5  UNL     1      -3.384   0.542   1.611  1.00  0.00     0.238 C 
HETATM   31  C4  UNL     1      -4.306   1.746   1.471  1.00  0.00     0.040 C 
HETATM   32  C3  UNL     1      -5.177   1.624   0.246  1.00  0.00     0.036 C 
HETATM   33  C2  UNL     1      -5.636   0.210  -0.006  1.00  0.00     0.150 C 
HETATM   34  O8  UNL     1      -4.617  -0.715   0.076  1.00  0.00    -0.352 OA
BRANCH  30  35
HETATM   35  N2  UNL     1      -2.058   0.937   2.041  1.00  0.00    -0.070 N 
ATOM     36  H23 UNL     1      -1.659   1.643   1.422  1.00  0.00     0.274 HD
ATOM     37  H22 UNL     1      -2.092   1.483   2.902  1.00  0.00     0.274 HD
ATOM     38  H21 UNL     1      -1.440   0.131   2.135  1.00  0.00     0.274 HD
ENDBRANCH  30  35
BRANCH  33  39
HETATM   39  C1  UNL     1      -6.771  -0.078   0.949  1.00  0.00     0.261 C 
BRANCH  39  40
HETATM   40  N1  UNL     1      -7.380  -1.361   0.712  1.00  0.00    -0.077 N 
ATOM     41  H13 UNL     1      -7.685  -1.449  -0.257  1.00  0.00     0.274 HD
ATOM     42  H12 UNL     1      -6.684  -2.107   0.733  1.00  0.00     0.274 HD
ATOM     43  H11 UNL     1      -8.146  -1.555   1.357  1.00  0.00     0.274 HD
ENDBRANCH  39  40
ENDBRANCH  33  39
ENDBRANCH  28  29
ENDBRANCH   1  28
BRANCH   6  44
HETATM   44  N6  UNL     1      -1.723  -3.339  -1.025  1.00  0.00    -0.070 N 
ATOM     45  H63 UNL     1      -0.966  -3.455  -0.352  1.00  0.00     0.274 HD
ATOM     46  H62 UNL     1      -2.489  -3.304  -0.353  1.00  0.00     0.274 HD
ATOM     47  H61 UNL     1      -1.799  -4.116  -1.681  1.00  0.00     0.274 HD
ENDBRANCH   6  44
TORSDOF 14
