REMARK  5 active torsions:
REMARK  status: ('A' for Active; 'I' for Inactive)
REMARK    1  A    between atoms: C2_2  and  C3_3 
REMARK    2  A    between atoms: C3_3  and  C4_4 
REMARK    3  A    between atoms: N1_9  and  C9_10 
REMARK    4  A    between atoms: C12_13  and  C13_14 
REMARK    5  A    between atoms: C13_14  and  N3_18 
ROOT
HETATM    1  C9  UNL     1      -1.354   0.662   0.156  1.00  0.00     0.104 A 
HETATM    2  C10 UNL     1      -0.336  -0.221   0.362  1.00  0.00     0.049 A 
HETATM    3  C11 UNL     1       1.002   0.135   0.174  1.00  0.00     0.022 A 
HETATM    4  C12 UNL     1       1.326   1.426  -0.236  1.00  0.00     0.046 A 
HETATM    5  C21 UNL     1       0.288   2.276  -0.433  1.00  0.00     0.119 A 
HETATM    6 CL1  UNL     1       0.497   3.919  -0.953  1.00  0.00    -0.063 Cl
HETATM    7  N4  UNL     1      -1.012   1.897  -0.240  1.00  0.00    -0.332 N 
ATOM      8  H4  UNL     1      -1.751   2.581  -0.404  1.00  0.00     0.168 HD
ENDROOT
BRANCH   4   9
HETATM    9  C13 UNL     1       2.716   1.757  -0.404  1.00  0.00     0.111 C 
HETATM   10  N2  UNL     1       3.146   2.864  -0.755  1.00  0.00    -0.385 N 
ATOM     11  H22 UNL     1       2.431   3.570  -0.931  1.00  0.00     0.157 HD
ATOM     12  H21 UNL     1       4.131   3.099  -0.874  1.00  0.00     0.157 HD
BRANCH   9  13
HETATM   13  N3  UNL     1       3.735   0.750  -0.153  1.00  0.00    -0.358 N 
HETATM   14  C14 UNL     1       4.029  -0.167  -1.215  1.00  0.00     0.082 C 
HETATM   15  C15 UNL     1       4.602   0.580  -2.420  1.00  0.00     0.032 C 
HETATM   16  C16 UNL     1       5.181  -1.066  -0.730  1.00  0.00     0.025 C 
HETATM   17  C17 UNL     1       4.744  -1.750   0.534  1.00  0.00     0.004 C 
HETATM   18  C18 UNL     1       4.581  -0.745   1.627  1.00  0.00     0.025 C 
HETATM   19  C19 UNL     1       4.460   0.632   1.071  1.00  0.00     0.082 C 
HETATM   20  C20 UNL     1       3.918   1.528   2.166  1.00  0.00     0.032 C 
ENDBRANCH   9  13
ENDBRANCH   4   9
BRANCH   1  21
HETATM   21  N1  UNL     1      -2.695   0.276   0.351  1.00  0.00    -0.363 N 
HETATM   22  C4  UNL     1      -3.126  -1.071   0.489  1.00  0.00     0.086 C 
HETATM   23  C5  UNL     1      -4.045  -1.153   1.676  1.00  0.00     0.025 C 
HETATM   24  C6  UNL     1      -5.054  -0.110   1.852  1.00  0.00     0.004 C 
HETATM   25  C7  UNL     1      -4.875   1.175   1.164  1.00  0.00     0.020 C 
HETATM   26  C8  UNL     1      -3.636   1.410   0.414  1.00  0.00     0.125 C 
BRANCH  22  27
HETATM   27  C3  UNL     1      -3.687  -1.709  -0.747  1.00  0.00     0.025 C 
BRANCH  27  28
HETATM   28  C2  UNL     1      -4.944  -1.188  -1.296  1.00  0.00    -0.002 C 
HETATM   29  C1  UNL     1      -5.286  -2.014  -2.546  1.00  0.00     0.005 C 
ENDBRANCH  27  28
ENDBRANCH  22  27
ENDBRANCH   1  21
TORSDOF 5
