REMARK  4 active torsions:
REMARK  status: ('A' for Active; 'I' for Inactive)
REMARK       I    between atoms: C1_2  and  N1_3 
REMARK    1  A    between atoms: C1_2  and  C20_34 
REMARK    2  A    between atoms: N1_3  and  C2_5 
REMARK    3  A    between atoms: C5_8  and  C6_9 
REMARK    4  A    between atoms: C10_15  and  C11_16 
REMARK       I    between atoms: C11_16  and  N3_18 
ROOT
HETATM    1  C6  UNL     1      -0.132  -1.657  -0.762  1.00  0.00     0.006 A 
HETATM    2  C7  UNL     1      -0.080  -2.793  -1.550  1.00  0.00     0.031 A 
HETATM    3  C8  UNL     1       1.057  -3.074  -2.272  1.00  0.00     0.089 A 
HETATM    4  N2  UNL     1       2.113  -2.243  -2.206  1.00  0.00    -0.363 N 
ATOM      5  H2  UNL     1       2.949  -2.465  -2.747  1.00  0.00     0.165 HD
HETATM    6  C9  UNL     1       2.104  -1.124  -1.448  1.00  0.00     0.077 A 
HETATM    7  C10 UNL     1       3.038  -0.137  -1.217  1.00  0.00     0.076 A 
HETATM    8  C17 UNL     1       2.472   0.769  -0.339  1.00  0.00     0.108 A 
HETATM    9  N5  UNL     1       1.223   0.329  -0.054  1.00  0.00    -0.362 N 
ATOM     10  H5  UNL     1       0.572   0.804   0.571  1.00  0.00     0.165 HD
HETATM   11  C18 UNL     1       0.956  -0.817  -0.704  1.00  0.00     0.071 A 
ENDROOT
BRANCH   1  12
HETATM   12  C5  UNL     1      -1.324  -1.348  -0.009  1.00  0.00    -0.008 A 
HETATM   13  C4  UNL     1      -1.864  -0.081  -0.062  1.00  0.00     0.017 A 
HETATM   14  C3  UNL     1      -3.010   0.250   0.657  1.00  0.00     0.049 A 
HETATM   15  C2  UNL     1      -3.603  -0.723   1.433  1.00  0.00     0.107 A 
HETATM   16  N6  UNL     1      -3.058  -1.959   1.471  1.00  0.00    -0.351 N 
HETATM   17  C19 UNL     1      -1.958  -2.293   0.787  1.00  0.00     0.102 A 
ATOM     18  H6  UNL     1      -3.506  -2.670   2.048  1.00  0.00     0.166 HD
BRANCH  15  19
HETATM   19  N1  UNL     1      -4.669  -0.464   2.119  1.00  0.00    -0.309 N 
HETATM   20  C1  UNL     1      -5.248   0.818   2.089  1.00  0.00     0.257 C 
HETATM   21  O1  UNL     1      -4.759   1.739   2.782  1.00  0.00    -0.267 OA
ATOM     22  H1  UNL     1      -5.094  -1.197   2.687  1.00  0.00     0.170 HD
BRANCH  20  23
HETATM   23  C20 UNL     1      -6.415   1.071   1.254  1.00  0.00     0.035 A 
HETATM   24  C21 UNL     1      -7.000   2.329   1.212  1.00  0.00     0.034 A 
HETATM   25  C22 UNL     1      -8.095   2.593   0.437  1.00  0.00     0.088 A 
HETATM   26  N7  UNL     1      -8.601   1.583  -0.299  1.00  0.00    -0.375 N 
HETATM   27  C23 UNL     1      -8.060   0.361  -0.280  1.00  0.00     0.088 A 
ATOM     28  H7  UNL     1      -9.418   1.756  -0.885  1.00  0.00     0.164 HD
HETATM   29  C24 UNL     1      -6.965   0.069   0.486  1.00  0.00     0.034 A 
ENDBRANCH  20  23
ENDBRANCH  15  19
ENDBRANCH   1  12
BRANCH   7  30
HETATM   30  C11 UNL     1       4.359  -0.094  -1.805  1.00  0.00     0.259 C 
HETATM   31  O2  UNL     1       4.741  -0.994  -2.593  1.00  0.00    -0.267 OA
HETATM   32  N3  UNL     1       5.274   0.969  -1.514  1.00  0.00    -0.323 N 
HETATM   33  C12 UNL     1       6.312   0.803  -0.784  1.00  0.00     0.037 A 
ATOM     34  H3  UNL     1       5.091   1.894  -1.904  1.00  0.00     0.169 HD
HETATM   35  C13 UNL     1       7.156   1.864  -0.538  1.00  0.00     0.046 A 
HETATM   36  C16 UNL     1       6.603  -0.429  -0.237  1.00  0.00     0.046 A 
HETATM   37  C14 UNL     1       8.278   1.653   0.258  1.00  0.00     0.090 A 
HETATM   38  N4  UNL     1       8.525   0.427   0.776  1.00  0.00    -0.375 N 
HETATM   39  C15 UNL     1       7.719  -0.627   0.553  1.00  0.00     0.090 A 
ATOM     40  H4  UNL     1       9.353   0.297   1.357  1.00  0.00     0.164 HD
ENDBRANCH   7  30
TORSDOF 4
