REMARK  9 active torsions:
REMARK  status: ('A' for Active; 'I' for Inactive)
REMARK    1  A    between atoms: C1_2  and  C2_3 
REMARK       I    between atoms: C1_2  and  N5_25 
REMARK    2  A    between atoms: C2_3  and  N1_4 
REMARK    3  A    between atoms: N1_4  and  C3_5 
REMARK    4  A    between atoms: N1_4  and  C9_19 
REMARK    5  A    between atoms: C3_5  and  N2_7 
REMARK    6  A    between atoms: N2_7  and  N3_9 
REMARK    7  A    between atoms: N3_9  and  C4_11 
REMARK    8  A    between atoms: C4_11  and  N4_13 
REMARK    9  A    between atoms: N5_25  and  C15_27 
ROOT
HETATM    1  N1  UNL     1       0.224   1.913  -0.293  1.00  0.00    -0.344 N 
ENDROOT
BRANCH   1   2
HETATM    2  C2  UNL     1      -1.131   1.492  -0.586  1.00  0.00     0.228 C 
BRANCH   2   3
HETATM    3  C1  UNL     1      -1.577   0.325   0.200  1.00  0.00     0.235 C 
HETATM    4  O1  UNL     1      -0.808  -0.196   1.037  1.00  0.00    -0.272 OA
HETATM    5  N5  UNL     1      -2.880  -0.193  -0.005  1.00  0.00    -0.355 N 
ATOM      6  H5  UNL     1      -3.504   0.236  -0.689  1.00  0.00     0.162 HD
BRANCH   5   7
HETATM    7  C15 UNL     1      -3.319  -1.345   0.772  1.00  0.00     0.084 C 
HETATM    8  C16 UNL     1      -4.457  -0.880   1.632  1.00  0.00     0.025 C 
HETATM    9  C17 UNL     1      -5.354  -1.978   2.101  1.00  0.00     0.002 C 
HETATM   10  C18 UNL     1      -5.952  -2.609   0.844  1.00  0.00     0.000 C 
HETATM   11  C19 UNL     1      -4.834  -3.261   0.109  1.00  0.00     0.002 C 
HETATM   12  C20 UNL     1      -3.657  -2.426  -0.190  1.00  0.00     0.025 C 
ENDBRANCH   5   7
ENDBRANCH   2   3
ENDBRANCH   1   2
BRANCH   1  13
HETATM   13  C3  UNL     1       1.323   1.116  -0.676  1.00  0.00     0.189 C 
HETATM   14  S1  UNL     1       2.837   1.620  -0.316  1.00  0.00    -0.039 SA
BRANCH  13  15
HETATM   15  N2  UNL     1       1.140  -0.114  -1.370  1.00  0.00    -0.274 N 
ATOM     16  H2  UNL     1       0.196  -0.427  -1.595  1.00  0.00     0.189 HD
BRANCH  15  17
HETATM   17  N3  UNL     1       2.224  -0.893  -1.745  1.00  0.00    -0.274 N 
ATOM     18  H3  UNL     1       2.475  -0.919  -2.733  1.00  0.00     0.189 HD
BRANCH  17  19
HETATM   19  C4  UNL     1       3.007  -1.658  -0.837  1.00  0.00     0.188 C 
HETATM   20  S2  UNL     1       2.585  -1.598   0.739  1.00  0.00    -0.039 SA
BRANCH  19  21
HETATM   21  N4  UNL     1       4.102  -2.433  -1.290  1.00  0.00    -0.353 N 
HETATM   22  C5  UNL     1       4.482  -2.492  -2.678  1.00  0.00     0.151 C 
HETATM   23  C6  UNL     1       5.477  -3.653  -2.800  1.00  0.00     0.187 C 
HETATM   24  O2  UNL     1       6.594  -3.450  -2.028  1.00  0.00    -0.388 OA
HETATM   25  C7  UNL     1       6.343  -3.144  -0.717  1.00  0.00     0.187 C 
HETATM   26  C8  UNL     1       4.878  -3.199  -0.349  1.00  0.00     0.151 C 
ENDBRANCH  19  21
ENDBRANCH  17  19
ENDBRANCH  15  17
ENDBRANCH  13  15
ENDBRANCH   1  13
BRANCH   1  27
HETATM   27  C9  UNL     1       0.491   3.172   0.398  1.00  0.00     0.087 C 
HETATM   28  C10 UNL     1      -0.203   3.127   1.734  1.00  0.00     0.025 C 
HETATM   29  C11 UNL     1      -0.518   4.525   2.241  1.00  0.00     0.002 C 
HETATM   30  C12 UNL     1       0.518   5.508   1.763  1.00  0.00     0.000 C 
HETATM   31  C13 UNL     1       0.565   5.601   0.266  1.00  0.00     0.002 C 
HETATM   32  C14 UNL     1      -0.049   4.356  -0.373  1.00  0.00     0.025 C 
ENDBRANCH   1  27
TORSDOF 9
