REMARK  3 active torsions:
REMARK  status: ('A' for Active; 'I' for Inactive)
REMARK    1  A    between atoms: N1_7  and  C6_9 
REMARK    2  A    between atoms: C9_12  and  C10_13 
REMARK       I    between atoms: C10_13  and  N2_15 
REMARK    3  A    between atoms: N2_15  and  C11_17 
ROOT
HETATM    1  C6  UNL     1       3.442  -0.389  -0.944  1.00  0.00     0.081 C 
HETATM    2  C7  UNL     1       2.505   0.781  -0.775  1.00  0.00     0.026 C 
HETATM    3  C8  UNL     1       1.089   0.326  -0.488  1.00  0.00     0.016 C 
HETATM    4  C9  UNL     1       0.620  -0.725  -1.445  1.00  0.00     0.078 C 
HETATM    5  C22 UNL     1       1.608  -1.849  -1.601  1.00  0.00     0.016 C 
HETATM    6  C23 UNL     1       2.904  -1.239  -2.098  1.00  0.00     0.026 C 
ENDROOT
BRANCH   4   7
HETATM    7  C10 UNL     1      -0.657  -1.288  -0.941  1.00  0.00     0.222 C 
HETATM    8  O2  UNL     1      -0.762  -2.519  -0.677  1.00  0.00    -0.273 OA
HETATM    9  N2  UNL     1      -1.753  -0.400  -0.767  1.00  0.00    -0.356 N 
ATOM     10  H2  UNL     1      -1.646   0.591  -0.986  1.00  0.00     0.162 HD
BRANCH   9  11
HETATM   11  C11 UNL     1      -3.025  -0.903  -0.278  1.00  0.00     0.088 C 
HETATM   12  C12 UNL     1      -4.061  -0.638  -1.280  1.00  0.00     0.030 C 
HETATM   13  C13 UNL     1      -5.383  -0.148  -0.807  1.00  0.00    -0.012 C 
HETATM   14  C14 UNL     1      -6.019  -1.014   0.238  1.00  0.00     0.009 C 
HETATM   15  C18 UNL     1      -5.364   1.319  -0.438  1.00  0.00     0.009 C 
HETATM   16  C15 UNL     1      -5.671  -0.662   1.641  1.00  0.00    -0.013 C 
HETATM   17  C16 UNL     1      -5.775   0.809   1.945  1.00  0.00     0.009 C 
HETATM   18  C21 UNL     1      -4.252  -1.104   1.904  1.00  0.00     0.011 C 
HETATM   19  C17 UNL     1      -4.919   1.552   0.972  1.00  0.00    -0.013 C 
HETATM   20  C19 UNL     1      -3.478   1.148   1.087  1.00  0.00     0.011 C 
HETATM   21  C20 UNL     1      -3.243  -0.324   1.088  1.00  0.00     0.009 C 
ENDBRANCH   9  11
ENDBRANCH   4   7
BRANCH   1  22
HETATM   22  N1  UNL     1       4.725   0.076  -1.367  1.00  0.00    -0.391 N 
HETATM   23  C5  UNL     1       5.650   0.222  -0.512  1.00  0.00    -0.011 C 
HETATM   24  C4  UNL     1       5.418  -0.081   0.904  1.00  0.00     0.053 C 
HETATM   25  C24 UNL     1       6.975   0.708  -0.993  1.00  0.00     0.130 C 
HETATM   26  C3  UNL     1       6.626   0.277   1.732  1.00  0.00     0.013 C 
HETATM   27  C2  UNL     1       7.207   1.626   1.375  1.00  0.00     0.079 C 
HETATM   28  C1  UNL     1       7.383   1.793  -0.077  1.00  0.00     0.132 C 
HETATM   29  O1  UNL     1       7.859   2.809  -0.518  1.00  0.00    -0.298 OA
ATOM     30  H1  UNL     1       4.896   0.289  -2.350  1.00  0.00     0.159 HD
ENDBRANCH   1  22
TORSDOF 3
