REMARK  3 active torsions:
REMARK  status: ('A' for Active; 'I' for Inactive)
REMARK    1  A    between atoms: S1_2  and  N1_4 
REMARK    2  A    between atoms: S1_2  and  C14_21 
REMARK    3  A    between atoms: N1_4  and  C1_6 
ROOT
HETATM    1  N1  UNL     1      -0.444   0.455  -0.897  1.00  0.00    -0.280 N 
ATOM      2  H1  UNL     1      -0.922  -0.090  -1.615  1.00  0.00     0.179 HD
ENDROOT
BRANCH   1   3
HETATM    3  S1  UNL     1       1.183   0.826  -1.224  1.00  0.00     0.265 S 
HETATM    4  O1  UNL     1       1.438   2.309  -1.125  1.00  0.00    -0.200 OA
HETATM    5  O2  UNL     1       1.471   0.452  -2.691  1.00  0.00    -0.200 OA
BRANCH   3   6
HETATM    6  C14 UNL     1       2.327  -0.056  -0.258  1.00  0.00     0.107 A 
HETATM    7  C15 UNL     1       1.962  -1.018   0.654  1.00  0.00     0.028 A 
HETATM    8  C16 UNL     1       2.910  -1.711   1.403  1.00  0.00     0.003 A 
HETATM    9  C17 UNL     1       4.251  -1.444   1.245  1.00  0.00     0.014 A 
HETATM   10  C18 UNL     1       4.629  -0.497   0.348  1.00  0.00    -0.008 A 
HETATM   11  C19 UNL     1       5.979  -0.238   0.198  1.00  0.00     0.015 A 
HETATM   12  C22 UNL     1       3.681   0.194  -0.399  1.00  0.00     0.066 A 
HETATM   13  C20 UNL     1       6.315   0.730  -0.722  1.00  0.00     0.018 A 
HETATM   14  C21 UNL     1       5.359   1.405  -1.454  1.00  0.00     0.088 A 
HETATM   15  N3  UNL     1       4.067   1.129  -1.283  1.00  0.00    -0.364 N 
ATOM     16  H3  UNL     1       3.366   1.631  -1.827  1.00  0.00     0.165 HD
ENDBRANCH   3   6
ENDBRANCH   1   3
BRANCH   1  17
HETATM   17  C1  UNL     1      -1.142   0.758   0.107  1.00  0.00     0.057 A 
HETATM   18  C2  UNL     1      -0.533   1.503   1.119  1.00  0.00     0.048 A 
HETATM   19  C3  UNL     1      -1.223   1.880   2.230  1.00  0.00     0.090 A 
HETATM   20  N2  UNL     1      -2.502   1.527   2.346  1.00  0.00    -0.365 N 
HETATM   21  C4  UNL     1      -3.151   0.817   1.422  1.00  0.00     0.045 A 
ATOM     22  H2  UNL     1      -3.010   1.814   3.183  1.00  0.00     0.165 HD
HETATM   23  C5  UNL     1      -4.478   0.482   1.600  1.00  0.00     0.031 A 
HETATM   24  C13 UNL     1      -2.453   0.414   0.258  1.00  0.00     0.029 A 
HETATM   25  C6  UNL     1      -5.127  -0.247   0.642  1.00  0.00     0.014 A 
HETATM   26  C7  UNL     1      -4.469  -0.652  -0.502  1.00  0.00    -0.025 A 
HETATM   27  C8  UNL     1      -5.140  -1.388  -1.459  1.00  0.00     0.012 A 
HETATM   28  C12 UNL     1      -3.116  -0.329  -0.718  1.00  0.00    -0.011 A 
HETATM   29  C9  UNL     1      -4.510  -1.804  -2.605  1.00  0.00     0.001 A 
HETATM   30  C10 UNL     1      -3.186  -1.480  -2.801  1.00  0.00     0.001 A 
HETATM   31  C11 UNL     1      -2.476  -0.734  -1.848  1.00  0.00     0.013 A 
ENDBRANCH   1  17
TORSDOF 3
