REMARK  3 active torsions:
REMARK  status: ('A' for Active; 'I' for Inactive)
REMARK    1  A    between atoms: C6_9  and  N3_10 
REMARK       I    between atoms: N3_10  and  C7_12 
REMARK    2  A    between atoms: C7_12  and  C8_14 
REMARK    3  A    between atoms: C11_17  and  C12_18 
ROOT
HETATM    1  N1  UNL     1       3.733  -1.639  -2.392  1.00  0.00    -0.191 NA
HETATM    2  C1  UNL     1       4.311  -1.093  -1.550  1.00  0.00     0.103 C 
HETATM    3  C2  UNL     1       5.053  -0.449  -0.501  1.00  0.00     0.086 A 
HETATM    4  C3  UNL     1       6.087  -1.191   0.091  1.00  0.00     0.112 A 
HETATM    5  N2  UNL     1       6.794  -0.613   1.072  1.00  0.00    -0.374 N 
ATOM      6  H2  UNL     1       7.549  -1.137   1.514  1.00  0.00     0.164 HD
HETATM    7  C4  UNL     1       6.534   0.640   1.489  1.00  0.00     0.090 A 
HETATM    8  C5  UNL     1       5.534   1.361   0.918  1.00  0.00     0.048 A 
HETATM    9  C6  UNL     1       4.734   0.828  -0.127  1.00  0.00     0.058 A 
ENDROOT
BRANCH   9  10
HETATM   10  N3  UNL     1       3.842   1.540  -0.599  1.00  0.00    -0.321 N 
HETATM   11  C7  UNL     1       2.871   1.475  -1.557  1.00  0.00     0.256 C 
HETATM   12  O1  UNL     1       3.142   1.757  -2.759  1.00  0.00    -0.267 OA
ATOM     13  H3  UNL     1       3.826   2.448  -0.134  1.00  0.00     0.169 HD
BRANCH  11  14
HETATM   14  C8  UNL     1       1.483   1.077  -1.200  1.00  0.00     0.032 A 
HETATM   15  C9  UNL     1       1.184   0.769   0.098  1.00  0.00     0.018 A 
HETATM   16  C10 UNL     1      -0.070   0.403   0.456  1.00  0.00     0.013 A 
HETATM   17  C11 UNL     1      -1.055   0.343  -0.519  1.00  0.00    -0.024 A 
HETATM   18  C25 UNL     1      -0.746   0.650  -1.805  1.00  0.00     0.013 A 
HETATM   19  C26 UNL     1       0.529   1.027  -2.192  1.00  0.00     0.018 A 
BRANCH  17  20
HETATM   20  C12 UNL     1      -2.390  -0.062  -0.061  1.00  0.00    -0.001 A 
HETATM   21  C13 UNL     1      -2.726  -1.392   0.127  1.00  0.00     0.003 A 
HETATM   22  C14 UNL     1      -1.762  -2.350  -0.131  1.00  0.00     0.014 A 
HETATM   23  C18 UNL     1      -3.997  -1.770   0.563  1.00  0.00     0.043 A 
HETATM   24  C15 UNL     1      -2.069  -3.673   0.048  1.00  0.00     0.001 A 
HETATM   25  C16 UNL     1      -3.328  -4.027   0.479  1.00  0.00     0.002 A 
HETATM   26  C17 UNL     1      -4.317  -3.104   0.746  1.00  0.00     0.030 A 
HETATM   27  N4  UNL     1      -4.907  -0.817   0.804  1.00  0.00    -0.355 N 
HETATM   28  C19 UNL     1      -4.646   0.510   0.641  1.00  0.00     0.043 A 
ATOM     29  H4  UNL     1      -5.835  -1.097   1.123  1.00  0.00     0.166 HD
HETATM   30  C20 UNL     1      -5.618   1.444   0.903  1.00  0.00     0.030 A 
HETATM   31  C24 UNL     1      -3.375   0.867   0.205  1.00  0.00     0.003 A 
HETATM   32  C21 UNL     1      -5.316   2.773   0.726  1.00  0.00     0.002 A 
HETATM   33  C22 UNL     1      -4.057   3.135   0.295  1.00  0.00     0.001 A 
HETATM   34  C23 UNL     1      -3.081   2.198   0.032  1.00  0.00     0.014 A 
ENDBRANCH  17  20
ENDBRANCH  11  14
ENDBRANCH   9  10
TORSDOF 3
