REMARK  3 active torsions:
REMARK  status: ('A' for Active; 'I' for Inactive)
REMARK    1  A    between atoms: C2_2  and  O1_3 
REMARK    2  A    between atoms: O1_3  and  C3_4 
REMARK       I    between atoms: C3_4  and  N1_6 
REMARK       I    between atoms: N1_6  and  C4_8 
REMARK       I    between atoms: C4_8  and  N2_10 
REMARK    3  A    between atoms: N2_10  and  C5_12 
ROOT
HETATM    1  C5  UNL     1      -0.557  -1.989  -0.275  1.00  0.00     0.153 A 
HETATM    2  N3  UNL     1      -0.670  -0.738   0.120  1.00  0.00    -0.335 N 
ATOM      3  H3  UNL     1       0.161  -0.163   0.256  1.00  0.00     0.168 HD
HETATM    4  C6  UNL     1      -1.883  -0.233   0.340  1.00  0.00     0.063 A 
HETATM    5  C7  UNL     1      -2.930  -1.082   0.132  1.00  0.00     0.043 A 
HETATM    6  S1  UNL     1      -2.155  -2.546  -0.363  1.00  0.00    -0.053 SA
HETATM    7  C8  UNL     1      -4.374  -0.785   0.304  1.00  0.00     0.167 A 
HETATM    8  C9  UNL     1      -5.016  -0.953  -1.076  1.00  0.00     0.046 C 
HETATM    9  O4  UNL     1      -4.532   0.508   0.714  1.00  0.00    -0.340 OA
HETATM   10  C10 UNL     1      -3.530   1.470   0.959  1.00  0.00     0.089 A 
HETATM   11  C11 UNL     1      -3.827   2.766   1.379  1.00  0.00     0.087 A 
HETATM   12  S2  UNL     1      -2.310   3.491   1.522  1.00  0.00    -0.110 SA
HETATM   13  C12 UNL     1      -1.332   2.178   1.061  1.00  0.00     0.066 A 
HETATM   14  C13 UNL     1      -2.243   1.171   0.797  1.00  0.00     0.032 A 
ENDROOT
BRANCH   1  15
HETATM   15  N2  UNL     1       0.554  -2.650  -0.538  1.00  0.00    -0.288 N 
HETATM   16  C4  UNL     1       1.807  -2.014  -0.407  1.00  0.00     0.330 C 
HETATM   17  N1  UNL     1       2.176  -0.979  -1.297  1.00  0.00    -0.254 N 
HETATM   18  O3  UNL     1       2.587  -2.368   0.498  1.00  0.00    -0.246 OA
HETATM   19  C3  UNL     1       3.449  -0.336  -1.161  1.00  0.00     0.368 C 
ATOM     20  H1  UNL     1       1.535  -0.690  -2.036  1.00  0.00     0.175 HD
HETATM   21  O2  UNL     1       3.819   0.580  -1.921  1.00  0.00    -0.238 OA
ATOM     22  H2  UNL     1       0.507  -3.624  -0.837  1.00  0.00     0.172 HD
BRANCH  19  23
HETATM   23  O1  UNL     1       4.316  -0.735  -0.150  1.00  0.00    -0.304 OA
BRANCH  23  24
HETATM   24  C2  UNL     1       5.578  -0.179   0.075  1.00  0.00     0.176 C 
HETATM   25  C1  UNL     1       5.535   1.304   0.377  1.00  0.00     0.034 C 
ENDBRANCH  23  24
ENDBRANCH  19  23
ENDBRANCH   1  15
TORSDOF 3
