REMARK  12 active torsions:
REMARK  status: ('A' for Active; 'I' for Inactive)
REMARK    1  A    between atoms: C4_4  and  O1_5 
REMARK    2  A    between atoms: C5_7  and  O2_8 
REMARK    3  A    between atoms: C6_10  and  O3_11 
REMARK    4  A    between atoms: O3_11  and  C7_12 
REMARK    5  A    between atoms: C8_13  and  C9_14 
REMARK    6  A    between atoms: C18_25  and  C19_26 
REMARK    7  A    between atoms: C19_26  and  O5_27 
REMARK    8  A    between atoms: O5_27  and  C20_28 
REMARK    9  A    between atoms: C20_28  and  C21_30 
REMARK   10  A    between atoms: C21_30  and  C22_31 
REMARK   11  A    between atoms: C22_31  and  C23_32 
REMARK   12  A    between atoms: C23_32  and  C24_33 
ROOT
HETATM    1  C7  UNL     1      -1.657  -0.510   0.357  1.00  0.00     0.164 C 
HETATM    2  C8  UNL     1      -2.053  -1.847   0.884  1.00  0.00     0.155 C 
HETATM    3  O4  UNL     1      -0.879  -2.634   0.988  1.00  0.00    -0.374 OA
HETATM    4  C12 UNL     1      -0.172  -2.227  -0.088  1.00  0.00     0.169 C 
HETATM    5  C13 UNL     1       1.210  -2.720  -0.207  1.00  0.00     0.203 C 
HETATM    6  F1  UNL     1       1.208  -4.123  -0.184  1.00  0.00    -0.246 F 
HETATM    7  C14 UNL     1       1.782  -2.226  -1.517  1.00  0.00     0.018 C 
HETATM    8  C15 UNL     1       1.387  -3.306  -2.542  1.00  0.00     0.013 C 
HETATM    9  C16 UNL     1       1.276  -0.934  -2.004  1.00  0.00     0.008 C 
HETATM   10  C17 UNL     1       0.269  -0.188  -1.218  1.00  0.00     0.017 C 
HETATM   11  C18 UNL     1      -0.147  -0.698   0.089  1.00  0.00     0.039 C 
ENDROOT
BRANCH   1  12
HETATM   12  O3  UNL     1      -2.348  -0.072  -0.757  1.00  0.00    -0.371 OA
BRANCH  12  13
HETATM   13  C6  UNL     1      -3.110   1.048  -0.621  1.00  0.00     0.194 C 
HETATM   14  C5  UNL     1      -4.596   0.778  -0.827  1.00  0.00     0.179 C 
HETATM   15  C4  UNL     1      -5.110   1.306  -2.145  1.00  0.00     0.153 C 
HETATM   16  C3  UNL     1      -5.199   2.828  -1.977  1.00  0.00     0.071 C 
HETATM   17  C2  UNL     1      -3.978   3.204  -1.214  1.00  0.00    -0.048 C 
HETATM   18  C1  UNL     1      -3.861   4.239  -0.425  1.00  0.00     0.017 C 
HETATM   19  C26 UNL     1      -2.804   2.248  -1.432  1.00  0.00     0.133 A 
HETATM   20  C27 UNL     1      -2.118   2.384  -2.637  1.00  0.00     0.215 A 
HETATM   21  O7  UNL     1      -1.618   2.929  -1.402  1.00  0.00    -0.367 OA
BRANCH  14  22
HETATM   22  O2  UNL     1      -5.314   1.429   0.174  1.00  0.00    -0.390 OA
ATOM     23  H2  UNL     1      -4.991   1.097   1.003  1.00  0.00     0.210 HD
ENDBRANCH  14  22
BRANCH  15  24
HETATM   24  O1  UNL     1      -6.366   0.774  -2.428  1.00  0.00    -0.393 OA
ATOM     25  H1  UNL     1      -6.311  -0.169  -2.532  1.00  0.00     0.210 HD
ENDBRANCH  15  24
ENDBRANCH  12  13
ENDBRANCH   1  12
BRANCH   2  26
HETATM   26  C9  UNL     1      -2.630  -1.892   2.268  1.00  0.00     0.009 C 
HETATM   27  C10 UNL     1      -3.880  -1.077   2.390  1.00  0.00     0.012 C 
HETATM   28  C11 UNL     1      -3.044  -3.338   2.619  1.00  0.00     0.012 C 
ENDBRANCH   2  26
BRANCH  11  29
HETATM   29  C19 UNL     1       0.544  -0.236   1.302  1.00  0.00     0.193 C 
BRANCH  29  30
HETATM   30  O5  UNL     1       1.884  -0.211   1.467  1.00  0.00    -0.321 OA
BRANCH  30  31
HETATM   31  C20 UNL     1       2.916   0.501   0.993  1.00  0.00     0.258 C 
HETATM   32  O6  UNL     1       2.734   1.423   0.197  1.00  0.00    -0.265 OA
BRANCH  31  33
HETATM   33  C21 UNL     1       4.292   0.160   1.446  1.00  0.00     0.111 C 
BRANCH  33  34
HETATM   34  C22 UNL     1       5.324   1.061   0.816  1.00  0.00     0.010 C 
BRANCH  34  35
HETATM   35  C23 UNL     1       6.679   0.600   1.368  1.00  0.00     0.000 C 
BRANCH  35  36
HETATM   36  C24 UNL     1       7.803   1.436   0.804  1.00  0.00    -0.005 C 
HETATM   37  C25 UNL     1       9.089   0.912   1.401  1.00  0.00     0.005 C 
ENDBRANCH  35  36
ENDBRANCH  34  35
ENDBRANCH  33  34
ENDBRANCH  31  33
ENDBRANCH  30  31
ENDBRANCH  29  30
ENDBRANCH  11  29
TORSDOF 12
