REMARK  7 active torsions:
REMARK  status: ('A' for Active; 'I' for Inactive)
REMARK    1  A    between atoms: C2_2  and  C3_3 
REMARK       I    between atoms: C3_3  and  N1_5 
REMARK    2  A    between atoms: N1_5  and  C4_7 
REMARK    3  A    between atoms: C10_15  and  N2_16 
REMARK    4  A    between atoms: C13_19  and  O4_20 
REMARK    5  A    between atoms: O4_20  and  C14_21 
REMARK    6  A    between atoms: C14_21  and  O6_23 
REMARK    7  A    between atoms: O6_23  and  C15_24 
ROOT
HETATM    1  C15 UNL     1      -4.221   0.632  -1.748  1.00  0.00     0.153 C 
HETATM    2  C16 UNL     1      -4.691  -0.797  -1.570  1.00  0.00     0.063 C 
HETATM    3  C17 UNL     1      -3.729   0.854  -3.145  1.00  0.00     0.063 C 
HETATM    4  C18 UNL     1      -5.348   1.576  -1.541  1.00  0.00     0.097 C 
HETATM    5  N3  UNL     1      -6.226   2.307  -1.363  1.00  0.00    -0.194 NA
ENDROOT
BRANCH   1   6
HETATM    6  O6  UNL     1      -3.277   0.913  -0.762  1.00  0.00    -0.272 OA
BRANCH   6   7
HETATM    7  C14 UNL     1      -2.078   0.242  -0.585  1.00  0.00     0.408 C 
HETATM    8  O5  UNL     1      -1.808  -0.688  -1.360  1.00  0.00    -0.229 OA
BRANCH   7   9
HETATM    9  O4  UNL     1      -1.171   0.556   0.408  1.00  0.00    -0.288 OA
BRANCH   9  10
HETATM   10  C13 UNL     1       0.042  -0.116   0.595  1.00  0.00     0.184 C 
HETATM   11  C4  UNL     1       1.160   0.935   0.526  1.00  0.00     0.147 C 
HETATM   12  C5  UNL     1       2.317   0.172   1.086  1.00  0.00     0.181 C 
HETATM   13  O2  UNL     1       2.785  -0.687   0.086  1.00  0.00    -0.346 OA
HETATM   14  C9  UNL     1       1.697  -0.729   2.148  1.00  0.00     0.181 C 
HETATM   15  C6  UNL     1       3.134  -1.804   0.811  1.00  0.00     0.158 C 
HETATM   16  C7  UNL     1       3.081  -3.036  -0.085  1.00  0.00     0.078 C 
HETATM   17  C8  UNL     1       4.464  -1.712   1.488  1.00  0.00     0.078 C 
HETATM   18  O3  UNL     1       2.156  -1.973   1.783  1.00  0.00    -0.346 OA
HETATM   19  C10 UNL     1       0.236  -0.533   2.056  1.00  0.00     0.141 C 
BRANCH  11  20
HETATM   20  N1  UNL     1       1.365   1.421  -0.802  1.00  0.00    -0.351 N 
HETATM   21  C3  UNL     1       1.214   2.811  -1.049  1.00  0.00     0.217 C 
HETATM   22  O1  UNL     1       0.904   3.630  -0.139  1.00  0.00    -0.274 OA
ATOM     23  H1  UNL     1       1.615   0.782  -1.557  1.00  0.00     0.163 HD
BRANCH  21  24
HETATM   24  C2  UNL     1       1.420   3.351  -2.416  1.00  0.00     0.098 C 
HETATM   25  C1  UNL     1       1.219   4.829  -2.487  1.00  0.00     0.014 C 
ENDBRANCH  21  24
ENDBRANCH  11  20
BRANCH  19  26
HETATM   26  N2  UNL     1      -0.609  -1.549   2.485  1.00  0.00    -0.412 N 
HETATM   27  C11 UNL     1      -0.578  -2.800   1.838  1.00  0.00     0.143 C 
HETATM   28  C12 UNL     1      -0.988  -1.587   3.856  1.00  0.00     0.143 C 
ENDBRANCH  19  26
ENDBRANCH   9  10
ENDBRANCH   7   9
ENDBRANCH   6   7
ENDBRANCH   1   6
TORSDOF 7
