REMARK  4 active torsions:
REMARK  status: ('A' for Active; 'I' for Inactive)
REMARK    1  A    between atoms: C16_17  and  C17_18 
REMARK    2  A    between atoms: C21_22  and  N1_23 
REMARK    3  A    between atoms: C23_29  and  C24_30 
REMARK    4  A    between atoms: N3_36  and  O4_37 
ROOT
HETATM    1  O1  UNL     1      -2.379   1.011  -0.920  1.00  0.00    -0.286 OA
HETATM    2  C1  UNL     1      -1.845   0.087  -0.332  1.00  0.00     0.197 C 
HETATM    3  C2  UNL     1      -2.631  -0.841   0.375  1.00  0.00     0.026 A 
HETATM    4  C3  UNL     1      -3.693  -0.249   0.967  1.00  0.00     0.016 A 
HETATM    5  C4  UNL     1      -4.513  -1.008   1.774  1.00  0.00     0.001 A 
HETATM    6  C5  UNL     1      -4.238  -2.377   1.971  1.00  0.00     0.001 A 
HETATM    7  C6  UNL     1      -3.156  -2.988   1.367  1.00  0.00     0.013 A 
HETATM    8  C7  UNL     1      -2.391  -2.189   0.582  1.00  0.00    -0.011 A 
HETATM    9  C8  UNL     1      -1.417  -2.913  -0.066  1.00  0.00    -0.012 A 
HETATM   10  C9  UNL     1      -1.780  -4.188  -0.290  1.00  0.00     0.013 A 
HETATM   11  C10 UNL     1      -0.955  -5.024  -1.029  1.00  0.00     0.001 A 
HETATM   12  C11 UNL     1       0.255  -4.535  -1.547  1.00  0.00     0.001 A 
HETATM   13  C12 UNL     1       0.630  -3.224  -1.322  1.00  0.00     0.014 A 
HETATM   14  C13 UNL     1      -0.197  -2.440  -0.590  1.00  0.00     0.005 A 
HETATM   15  C14 UNL     1       0.294  -1.166  -0.435  1.00  0.00     0.092 A 
HETATM   16  C15 UNL     1      -0.469   0.010  -0.396  1.00  0.00     0.073 A 
HETATM   17  C16 UNL     1       0.165   1.213  -0.344  1.00  0.00     0.060 A 
HETATM   18  N2  UNL     1       1.513   1.168  -0.336  1.00  0.00    -0.338 N 
ATOM     19  H2  UNL     1       2.017   2.054  -0.303  1.00  0.00     0.167 HD
HETATM   20  C23 UNL     1       2.253   0.016  -0.369  1.00  0.00     0.144 A 
HETATM   21  N3  UNL     1       1.626  -1.164  -0.415  1.00  0.00    -0.205 N 
ENDROOT
BRANCH  17  22
HETATM   22  C17 UNL     1      -0.538   2.478  -0.301  1.00  0.00    -0.006 A 
HETATM   23  C18 UNL     1      -0.363   3.353  -1.312  1.00  0.00     0.014 A 
HETATM   24  C19 UNL     1      -0.908   4.612  -1.275  1.00  0.00     0.003 A 
HETATM   25  C20 UNL     1      -1.647   4.976  -0.174  1.00  0.00     0.036 A 
HETATM   26  C21 UNL     1      -1.835   4.090   0.869  1.00  0.00     0.103 A 
HETATM   27  C22 UNL     1      -1.266   2.838   0.780  1.00  0.00     0.049 A 
BRANCH  26  28
HETATM   28  N1  UNL     1      -2.605   4.515   1.981  1.00  0.00    -0.116 N 
HETATM   29  O2  UNL     1      -3.103   5.651   2.027  1.00  0.00    -0.532 OA
HETATM   30  O3  UNL     1      -2.846   3.700   3.069  1.00  0.00    -0.532 OA
ENDBRANCH  26  28
ENDBRANCH  17  22
BRANCH  20  31
HETATM   31  C24 UNL     1       3.717   0.193  -0.333  1.00  0.00     0.010 A 
HETATM   32  C25 UNL     1       4.215   1.482  -0.093  1.00  0.00     0.015 A 
HETATM   33  C26 UNL     1       5.558   1.752  -0.066  1.00  0.00     0.001 A 
HETATM   34  C27 UNL     1       6.455   0.734  -0.279  1.00  0.00     0.000 A 
HETATM   35  C28 UNL     1       5.978  -0.524  -0.514  1.00  0.00     0.001 A 
HETATM   36  C29 UNL     1       4.613  -0.801  -0.543  1.00  0.00     0.015 A 
ENDBRANCH  20  31
BRANCH  21  37
HETATM   37  O4  UNL     1       2.278  -2.345  -0.272  1.00  0.00    -0.281 OA
ATOM     38  H4  UNL     1       3.228  -2.344  -0.258  1.00  0.00     0.245 HD
ENDBRANCH  21  37
TORSDOF 4
