REMARK  4 active torsions:
REMARK  status: ('A' for Active; 'I' for Inactive)
REMARK    1  A    between atoms: N1_13  and  C13_14 
REMARK    2  A    between atoms: C13_14  and  C14_15 
REMARK    3  A    between atoms: C14_15  and  N2_16 
REMARK    4  A    between atoms: N3_19  and  C17_20 
ROOT
HETATM    1  C13 UNL     1      -0.999  -0.500  -1.206  1.00  0.00     0.149 C 
ENDROOT
BRANCH   1   2
HETATM    2  N1  UNL     1      -2.395  -0.296  -1.316  1.00  0.00    -0.344 N 
HETATM    3  C4  UNL     1      -3.191  -0.266  -0.124  1.00  0.00     0.046 A 
HETATM    4  C3  UNL     1      -4.391   0.414   0.094  1.00  0.00     0.002 A 
HETATM    5  C5  UNL     1      -2.641  -1.058   0.842  1.00  0.00     0.031 A 
HETATM    6  C2  UNL     1      -5.065   1.327  -0.823  1.00  0.00     0.015 C 
HETATM    7  C12 UNL     1      -5.060   0.300   1.293  1.00  0.00    -0.013 A 
HETATM    8  C1  UNL     1      -4.922   1.406  -2.157  1.00  0.00     0.014 C 
HETATM    9  C32 UNL     1      -4.063   0.605  -3.007  1.00  0.00    -0.009 A 
HETATM   10  C27 UNL     1      -2.942  -0.147  -2.655  1.00  0.00     0.045 A 
HETATM   11  C31 UNL     1      -4.406   0.598  -4.334  1.00  0.00     0.014 A 
HETATM   12  C28 UNL     1      -2.205  -0.865  -3.562  1.00  0.00     0.030 A 
HETATM   13  C29 UNL     1      -2.552  -0.870  -4.892  1.00  0.00     0.002 A 
HETATM   14  C30 UNL     1      -3.676  -0.117  -5.256  1.00  0.00     0.001 A 
HETATM   15  C7  UNL     1      -4.465  -0.524   2.263  1.00  0.00    -0.025 A 
HETATM   16  C11 UNL     1      -6.248   0.937   1.537  1.00  0.00     0.013 A 
HETATM   17  C6  UNL     1      -3.277  -1.191   2.044  1.00  0.00     0.014 A 
HETATM   18  C8  UNL     1      -5.112  -0.679   3.493  1.00  0.00     0.012 A 
HETATM   19  C9  UNL     1      -6.304  -0.036   3.733  1.00  0.00     0.001 A 
HETATM   20  C10 UNL     1      -6.880   0.768   2.774  1.00  0.00     0.001 A 
ENDBRANCH   1   2
BRANCH   1  21
HETATM   21  C14 UNL     1      -0.296   0.564  -0.325  1.00  0.00     0.137 C 
BRANCH  21  22
HETATM   22  N2  UNL     1       1.108   0.332  -0.243  1.00  0.00    -0.408 N 
HETATM   23  C15 UNL     1       1.507  -0.832   0.476  1.00  0.00     0.136 C 
HETATM   24  C16 UNL     1       2.987  -1.073   0.469  1.00  0.00     0.142 C 
HETATM   25  N3  UNL     1       3.673   0.096   0.942  1.00  0.00    -0.376 N 
HETATM   26  C25 UNL     1       2.942   1.333   1.041  1.00  0.00     0.142 C 
HETATM   27  C26 UNL     1       1.916   1.484  -0.054  1.00  0.00     0.136 C 
BRANCH  25  28
HETATM   28  C17 UNL     1       5.039   0.023   1.299  1.00  0.00     0.059 A 
HETATM   29  C18 UNL     1       5.395   0.315   2.605  1.00  0.00     0.032 A 
HETATM   30  C19 UNL     1       6.703   0.263   3.010  1.00  0.00     0.003 A 
HETATM   31  C20 UNL     1       7.672  -0.082   2.116  1.00  0.00     0.014 A 
HETATM   32  C21 UNL     1       7.313  -0.370   0.823  1.00  0.00    -0.004 A 
HETATM   33  C22 UNL     1       8.304  -0.712  -0.055  1.00  0.00     0.032 A 
HETATM   34  C24 UNL     1       6.005  -0.324   0.392  1.00  0.00     0.085 A 
HETATM   35  C23 UNL     1       7.962  -1.004  -1.359  1.00  0.00     0.108 A 
HETATM   36  N4  UNL     1       6.670  -0.940  -1.712  1.00  0.00    -0.311 N 
HETATM   37  N5  UNL     1       5.706  -0.610  -0.870  1.00  0.00    -0.298 N 
ATOM     38  H4  UNL     1       6.419  -1.156  -2.677  1.00  0.00     0.186 HD
ATOM     39  H5  UNL     1       4.737  -0.575  -1.188  1.00  0.00     0.187 HD
ENDBRANCH  25  28
ENDBRANCH  21  22
ENDBRANCH   1  21
TORSDOF 4
