REMARK  9 active torsions:
REMARK  status: ('A' for Active; 'I' for Inactive)
REMARK    1  A    between atoms: C2_2  and  C3_3 
REMARK    2  A    between atoms: C3_3  and  C4_4 
REMARK    3  A    between atoms: C9_9  and  O1_10 
REMARK    4  A    between atoms: C12_16  and  C13_17 
REMARK    5  A    between atoms: C13_17  and  C14_18 
REMARK    6  A    between atoms: C14_18  and  C15_19 
REMARK    7  A    between atoms: C15_19  and  N1_20 
REMARK    8  A    between atoms: N2_29  and  C23_30 
REMARK    9  A    between atoms: C23_30  and  C24_31 
ROOT
HETATM    1  C4  UNL     1      -0.359   1.907  -0.585  1.00  0.00     0.003 A 
HETATM    2  C5  UNL     1      -0.236   0.505  -0.736  1.00  0.00     0.015 A 
HETATM    3  C6  UNL     1      -0.606  -0.739  -0.038  1.00  0.00     0.013 C 
HETATM    4  C7  UNL     1       0.145  -1.995  -0.427  1.00  0.00     0.058 C 
HETATM    5  C8  UNL     1       1.454  -2.156   0.187  1.00  0.00     0.011 A 
HETATM    6  C9  UNL     1       2.142  -3.327  -0.065  1.00  0.00     0.093 A 
HETATM    7  C10 UNL     1       3.390  -3.570   0.474  1.00  0.00     0.067 A 
HETATM    8 BR1  UNL     1       4.334  -5.199   0.117  1.00  0.00    -0.046 Br
HETATM    9  C11 UNL     1       4.016  -2.655   1.294  1.00  0.00     0.063 A 
HETATM   10 CL1  UNL     1       5.602  -2.985   1.971  1.00  0.00    -0.082 Cl
HETATM   11  C12 UNL     1       3.339  -1.481   1.554  1.00  0.00    -0.001 A 
HETATM   12  C18 UNL     1       2.094  -1.253   1.008  1.00  0.00     0.086 A 
HETATM   13  O2  UNL     1       1.358  -0.080   1.236  1.00  0.00    -0.343 OA
HETATM   14  C19 UNL     1      -0.040  -0.056   1.178  1.00  0.00     0.149 C 
HETATM   15  C20 UNL     1      -0.592   1.185   0.604  1.00  0.00     0.000 A 
HETATM   16  C21 UNL     1      -1.983   1.241   1.021  1.00  0.00     0.057 C 
HETATM   17  C22 UNL     1      -3.046   1.107  -0.016  1.00  0.00     0.064 C 
HETATM   18  N2  UNL     1      -2.944  -0.169  -0.595  1.00  0.00    -0.373 N 
HETATM   19  C29 UNL     1      -2.052  -1.078   0.031  1.00  0.00     0.139 C 
ENDROOT
BRANCH  11  20
HETATM   20  C13 UNL     1       3.961  -0.478   2.422  1.00  0.00     0.045 C 
BRANCH  20  21
HETATM   21  C14 UNL     1       5.048   0.322   1.806  1.00  0.00     0.035 C 
BRANCH  21  22
HETATM   22  C15 UNL     1       4.643   1.119   0.610  1.00  0.00     0.271 C 
BRANCH  22  23
HETATM   23  N1  UNL     1       5.846   1.834   0.153  1.00  0.00     0.080 N 
HETATM   24  C16 UNL     1       6.749   0.790  -0.352  1.00  0.00     0.309 C 
HETATM   25  C17 UNL     1       5.513   2.664  -1.004  1.00  0.00     0.309 C 
ENDBRANCH  22  23
ENDBRANCH  21  22
ENDBRANCH  20  21
ENDBRANCH  11  20
BRANCH   6  26
HETATM   26  O1  UNL     1       1.598  -4.305  -0.875  1.00  0.00    -0.359 OA
ATOM     27  H1  UNL     1       2.071  -5.110  -1.048  1.00  0.00     0.217 HD
ENDBRANCH   6  26
BRANCH   1  28
HETATM   28  C3  UNL     1       0.749   2.948  -0.538  1.00  0.00     0.005 C 
BRANCH  28  29
HETATM   29  C2  UNL     1       0.205   4.337  -0.362  1.00  0.00    -0.004 C 
HETATM   30  C1  UNL     1      -0.713   4.747  -1.472  1.00  0.00     0.005 C 
ENDBRANCH  28  29
ENDBRANCH   1  28
BRANCH  18  31
HETATM   31  C23 UNL     1      -4.016  -0.666  -1.342  1.00  0.00     0.067 C 
BRANCH  31  32
HETATM   32  C24 UNL     1      -5.272  -0.994  -0.583  1.00  0.00     0.024 C 
HETATM   33  C25 UNL     1      -5.100  -2.030   0.479  1.00  0.00     0.010 C 
HETATM   34  C26 UNL     1      -6.548  -2.456   0.746  1.00  0.00     0.001 C 
HETATM   35  C27 UNL     1      -7.058  -2.632  -0.668  1.00  0.00     0.001 C 
HETATM   36  C28 UNL     1      -6.269  -1.672  -1.528  1.00  0.00     0.010 C 
ENDBRANCH  31  32
ENDBRANCH  18  31
TORSDOF 9
