REMARK  7 active torsions:
REMARK  status: ('A' for Active; 'I' for Inactive)
REMARK       I    between atoms: C1_2  and  N1_3 
REMARK       I    between atoms: C1_2  and  N3_14 
REMARK    1  A    between atoms: N1_3  and  C2_5 
REMARK    2  A    between atoms: N3_14  and  C7_15 
REMARK    3  A    between atoms: N3_14  and  C18_28 
REMARK    4  A    between atoms: C7_15  and  C8_16 
REMARK    5  A    between atoms: C8_16  and  N4_17 
REMARK    6  A    between atoms: C11_20  and  N5_21 
REMARK    7  A    between atoms: C18_28  and  C19_29 
ROOT
HETATM    1  O1  UNL     1       0.327   1.960  -0.797  1.00  0.00    -0.246 OA
HETATM    2  C1  UNL     1      -0.889   1.664  -0.527  1.00  0.00     0.327 C 
HETATM    3  N1  UNL     1      -1.872   2.494  -1.016  1.00  0.00    -0.305 N 
ATOM      4  H1  UNL     1      -2.819   2.208  -0.767  1.00  0.00     0.171 HD
HETATM    5  N3  UNL     1      -1.063   0.475   0.281  1.00  0.00    -0.297 N 
ENDROOT
BRANCH   5   6
HETATM    6  C7  UNL     1       0.254  -0.028   0.725  1.00  0.00     0.164 C 
BRANCH   6   7
HETATM    7  C8  UNL     1       0.990  -0.869  -0.219  1.00  0.00     0.292 C 
BRANCH   7   8
HETATM    8  N4  UNL     1       2.251  -1.283   0.398  1.00  0.00     0.090 N 
HETATM    9  C9  UNL     1       3.000  -2.110  -0.539  1.00  0.00     0.274 C 
HETATM   10  C10 UNL     1       4.326  -1.406  -0.869  1.00  0.00     0.066 C 
HETATM   11  C11 UNL     1       5.110  -1.460   0.429  1.00  0.00     0.226 C 
HETATM   12  C16 UNL     1       4.344  -0.764   1.484  1.00  0.00     0.066 C 
HETATM   13  C17 UNL     1       3.000  -0.239   0.996  1.00  0.00     0.274 C 
BRANCH  11  14
HETATM   14  N5  UNL     1       6.468  -1.104   0.267  1.00  0.00     0.093 N 
HETATM   15  C12 UNL     1       6.780   0.200  -0.171  1.00  0.00     0.273 C 
HETATM   16  C13 UNL     1       8.302   0.248   0.031  1.00  0.00     0.032 C 
HETATM   17  C14 UNL     1       8.447  -0.475   1.370  1.00  0.00     0.032 C 
HETATM   18  C15 UNL     1       7.326  -1.477   1.347  1.00  0.00     0.273 C 
ENDBRANCH  11  14
ENDBRANCH   7   8
ENDBRANCH   6   7
ENDBRANCH   5   6
BRANCH   5  19
HETATM   19  C18 UNL     1      -2.251  -0.163   0.651  1.00  0.00     0.056 C 
HETATM   20  C25 UNL     1      -3.004  -1.237   0.057  1.00  0.00    -0.019 C 
HETATM   21  C26 UNL     1      -2.303  -2.613  -0.027  1.00  0.00     0.042 C 
HETATM   22  C34 UNL     1      -3.859  -1.246  -1.099  1.00  0.00    -0.021 A 
HETATM   23  C27 UNL     1      -3.331  -3.673   0.309  1.00  0.00     0.009 C 
HETATM   24  C28 UNL     1      -4.752  -3.221   0.090  1.00  0.00     0.040 C 
HETATM   25  C29 UNL     1      -4.811  -2.273  -1.095  1.00  0.00    -0.047 A 
HETATM   26  C30 UNL     1      -5.727  -2.476  -2.092  1.00  0.00     0.008 A 
HETATM   27  C31 UNL     1      -5.698  -1.612  -3.156  1.00  0.00     0.001 A 
HETATM   28  C32 UNL     1      -4.781  -0.588  -3.208  1.00  0.00     0.001 A 
HETATM   29  C33 UNL     1      -3.870  -0.420  -2.175  1.00  0.00     0.012 A 
BRANCH  19  30
HETATM   30  C19 UNL     1      -3.065   0.623   1.639  1.00  0.00    -0.009 A 
HETATM   31  C20 UNL     1      -2.488   1.272   2.732  1.00  0.00     0.014 A 
HETATM   32  C21 UNL     1      -3.206   1.976   3.641  1.00  0.00     0.001 A 
HETATM   33  C22 UNL     1      -4.562   2.075   3.509  1.00  0.00     0.000 A 
HETATM   34  C23 UNL     1      -5.189   1.448   2.440  1.00  0.00     0.001 A 
HETATM   35  C24 UNL     1      -4.407   0.730   1.524  1.00  0.00     0.014 A 
ENDBRANCH  19  30
ENDBRANCH   5  19
BRANCH   3  36
HETATM   36  C2  UNL     1      -1.813   3.665  -1.797  1.00  0.00     0.081 A 
HETATM   37  C3  UNL     1      -0.685   4.263  -2.263  1.00  0.00     0.050 A 
HETATM   38  C4  UNL     1      -0.787   5.420  -3.027  1.00  0.00     0.093 A 
HETATM   39  N2  UNL     1      -1.983   5.948  -3.306  1.00  0.00    -0.340 N 
HETATM   40  C5  UNL     1      -3.132   5.421  -2.884  1.00  0.00     0.229 A 
ATOM     41  H2  UNL     1      -2.018   6.797  -3.870  1.00  0.00     0.167 HD
HETATM   42  F1  UNL     1      -4.341   5.975  -3.177  1.00  0.00    -0.183 F 
HETATM   43  C6  UNL     1      -3.040   4.275  -2.127  1.00  0.00     0.199 A 
HETATM   44  F2  UNL     1      -4.227   3.745  -1.704  1.00  0.00    -0.199 F 
ENDBRANCH   3  36
TORSDOF 7
