REMARK  12 active torsions:
REMARK  status: ('A' for Active; 'I' for Inactive)
REMARK       I    between atoms: C1_4  and  N3_6 
REMARK    1  A    between atoms: N3_6  and  C2_8 
REMARK    2  A    between atoms: C4_11  and  C5_12 
REMARK    3  A    between atoms: C5_12  and  C6_13 
REMARK    4  A    between atoms: C5_12  and  C13_20 
REMARK    5  A    between atoms: C6_13  and  C7_14 
REMARK       I    between atoms: C13_20  and  N4_22 
REMARK    6  A    between atoms: N4_22  and  C14_24 
REMARK    7  A    between atoms: C19_29  and  C20_30 
REMARK    8  A    between atoms: C20_30  and  C21_31 
REMARK    9  A    between atoms: C21_31  and  C22_32 
REMARK   10  A    between atoms: C22_32  and  C23_33 
REMARK   11  A    between atoms: C23_33  and  N5_34 
REMARK   12  A    between atoms: C24_38  and  N6_39 
REMARK       I    between atoms: C25_41  and  N8_43 
ROOT
HETATM    1  C5  UNL     1      -0.354  -1.823  -0.191  1.00  0.00     0.011 C 
ENDROOT
BRANCH   1   2
HETATM    2  C4  UNL     1      -1.055  -0.990   0.733  1.00  0.00     0.129 C 
HETATM    3  S1  UNL     1       0.162  -0.207   1.880  1.00  0.00    -0.151 SA
HETATM    4  C3  UNL     1       0.077   1.486   1.248  1.00  0.00     0.106 C 
HETATM    5  C2  UNL     1      -1.028   1.439   0.244  1.00  0.00     0.141 C 
HETATM    6  C24 UNL     1      -1.840   0.212   0.452  1.00  0.00     0.031 C 
BRANCH   5   7
HETATM    7  N3  UNL     1      -0.625   1.755  -1.079  1.00  0.00    -0.354 N 
HETATM    8  C1  UNL     1      -1.423   1.841  -2.219  1.00  0.00     0.182 C 
HETATM    9  N1  UNL     1      -1.542   0.903  -3.083  1.00  0.00    -0.374 N 
HETATM   10  N2  UNL     1      -2.155   3.069  -2.439  1.00  0.00    -0.064 NA
ATOM     11  H12 UNL     1      -2.126   0.966  -3.917  1.00  0.00     0.158 HD
ATOM     12  H11 UNL     1      -1.026   0.037  -2.928  1.00  0.00     0.158 HD
ATOM     13  H3  UNL     1       0.369   1.942  -1.212  1.00  0.00     0.163 HD
ENDBRANCH   5   7
BRANCH   6  14
HETATM   14  N6  UNL     1      -2.954   0.173  -0.402  1.00  0.00    -0.334 N 
HETATM   15  C25 UNL     1      -4.116   0.654  -0.294  1.00  0.00     0.190 C 
HETATM   16  N7  UNL     1      -5.021   0.415  -1.386  1.00  0.00    -0.063 NA
HETATM   17  N8  UNL     1      -4.645   1.414   0.774  1.00  0.00    -0.355 N 
HETATM   18  C26 UNL     1      -4.895   2.861   0.689  1.00  0.00     0.125 C 
HETATM   19  C29 UNL     1      -5.048   0.990   2.089  1.00  0.00     0.125 C 
HETATM   20  C27 UNL     1      -6.219   2.936   1.424  1.00  0.00     0.021 C 
HETATM   21  C28 UNL     1      -5.971   2.065   2.628  1.00  0.00     0.021 C 
ATOM     22  H6  UNL     1      -2.795  -0.339  -1.270  1.00  0.00     0.168 HD
ENDBRANCH   6  14
ENDBRANCH   1   2
BRANCH   1  23
HETATM   23  C6  UNL     1      -1.091  -2.639  -1.236  1.00  0.00     0.080 C 
BRANCH  23  24
HETATM   24  C7  UNL     1      -2.002  -3.658  -0.663  1.00  0.00    -0.054 A 
HETATM   25  C8  UNL     1      -1.363  -4.861  -0.318  1.00  0.00     0.007 A 
HETATM   26  C9  UNL     1      -2.051  -5.912   0.208  1.00  0.00     0.001 A 
HETATM   27  C10 UNL     1      -3.407  -5.787   0.403  1.00  0.00     0.000 A 
HETATM   28  C11 UNL     1      -4.042  -4.612   0.068  1.00  0.00     0.001 A 
HETATM   29  C12 UNL     1      -3.333  -3.555  -0.463  1.00  0.00     0.007 A 
ENDBRANCH  23  24
ENDBRANCH   1  23
BRANCH   1  30
HETATM   30  C13 UNL     1       0.997  -1.444  -0.686  1.00  0.00     0.245 C 
HETATM   31  O1  UNL     1       1.102  -1.134  -1.906  1.00  0.00    -0.268 OA
HETATM   32  N4  UNL     1       2.185  -1.395   0.070  1.00  0.00    -0.352 N 
ATOM     33  H4  UNL     1       2.137  -1.643   1.058  1.00  0.00     0.163 HD
BRANCH  32  34
HETATM   34  C14 UNL     1       3.475  -1.011  -0.478  1.00  0.00     0.088 C 
HETATM   35  C15 UNL     1       4.333  -2.242  -0.462  1.00  0.00     0.025 C 
HETATM   36  C16 UNL     1       5.302  -2.300   0.657  1.00  0.00     0.002 C 
HETATM   37  C17 UNL     1       4.848  -1.623   1.903  1.00  0.00     0.001 C 
HETATM   38  C18 UNL     1       4.266  -0.253   1.712  1.00  0.00     0.007 C 
HETATM   39  C19 UNL     1       4.002   0.136   0.286  1.00  0.00     0.008 C 
BRANCH  39  40
HETATM   40  C20 UNL     1       5.203   0.822  -0.274  1.00  0.00     0.007 C 
BRANCH  40  41
HETATM   41  C21 UNL     1       4.990   1.398  -1.649  1.00  0.00     0.002 C 
BRANCH  41  42
HETATM   42  C22 UNL     1       3.886   2.426  -1.680  1.00  0.00     0.027 C 
BRANCH  42  43
HETATM   43  C23 UNL     1       4.141   3.597  -0.783  1.00  0.00     0.229 C 
BRANCH  43  44
HETATM   44  N5  UNL     1       5.351   4.313  -1.126  1.00  0.00    -0.079 N 
ATOM     45  H53 UNL     1       6.154   3.685  -1.144  1.00  0.00     0.274 HD
ATOM     46  H52 UNL     1       5.342   4.598  -2.105  1.00  0.00     0.274 HD
ATOM     47  H51 UNL     1       5.525   5.111  -0.515  1.00  0.00     0.274 HD
ENDBRANCH  43  44
ENDBRANCH  42  43
ENDBRANCH  41  42
ENDBRANCH  40  41
ENDBRANCH  39  40
ENDBRANCH  32  34
ENDBRANCH   1  30
TORSDOF 12
