REMARK  4 active torsions:
REMARK  status: ('A' for Active; 'I' for Inactive)
REMARK    1  A    between atoms: N1_1  and  S1_4 
REMARK    2  A    between atoms: S1_4  and  N2_7 
REMARK    3  A    between atoms: N2_7  and  C1_9 
REMARK    4  A    between atoms: C3_11  and  O3_12 
ROOT
HETATM    1  C1  UNL     1       0.631   0.641  -0.458  1.00  0.00     0.123 C 
HETATM    2  C2  UNL     1      -0.755   0.279  -0.357  1.00  0.00     0.099 A 
HETATM    3  C3  UNL     1      -1.204  -0.596   0.610  1.00  0.00     0.161 A 
HETATM    4  N3  UNL     1      -2.517  -0.909   0.668  1.00  0.00    -0.288 N 
ATOM      5  H3  UNL     1      -2.827  -1.558   1.391  1.00  0.00     0.172 HD
HETATM    6  C4  UNL     1      -3.436  -0.410  -0.176  1.00  0.00     0.329 A 
HETATM    7  O4  UNL     1      -4.658  -0.740  -0.073  1.00  0.00    -0.247 OA
HETATM    8  N4  UNL     1      -3.012   0.445  -1.123  1.00  0.00    -0.275 N 
ATOM      9  H4  UNL     1      -3.684   0.843  -1.779  1.00  0.00     0.173 HD
HETATM   10  C5  UNL     1      -1.704   0.786  -1.218  1.00  0.00     0.265 A 
HETATM   11  O5  UNL     1      -1.309   1.597  -2.118  1.00  0.00    -0.267 OA
ENDROOT
BRANCH   1  12
HETATM   12  N2  UNL     1       1.535   0.179   0.337  1.00  0.00    -0.278 N 
ATOM     13  H2  UNL     1       1.258  -0.472   1.072  1.00  0.00     0.179 HD
BRANCH  12  14
HETATM   14  S1  UNL     1       3.180   0.620   0.202  1.00  0.00     0.316 S 
HETATM   15  O1  UNL     1       3.522   1.840   1.016  1.00  0.00    -0.183 OA
HETATM   16  O2  UNL     1       3.460   0.981  -1.249  1.00  0.00    -0.183 OA
BRANCH  14  17
HETATM   17  N1  UNL     1       4.246  -0.683   0.588  1.00  0.00    -0.311 N 
ATOM     18  H12 UNL     1       4.998  -0.619   1.274  1.00  0.00     0.170 HD
ATOM     19  H11 UNL     1       4.014  -1.509   0.037  1.00  0.00     0.170 HD
ENDBRANCH  14  17
ENDBRANCH  12  14
ENDBRANCH   1  12
BRANCH   3  20
HETATM   20  O3  UNL     1      -0.277  -1.132   1.501  1.00  0.00    -0.345 OA
ATOM     21  H3  UNL     1      -0.586  -1.735   2.167  1.00  0.00     0.219 HD
ENDBRANCH   3  20
TORSDOF 4
