REMARK  6 active torsions:
REMARK  status: ('A' for Active; 'I' for Inactive)
REMARK    1  A    between atoms: C3_3  and  O1_4 
REMARK    2  A    between atoms: C3_3  and  C4_6 
REMARK    3  A    between atoms: C4_6  and  O2_7 
REMARK    4  A    between atoms: C4_6  and  C5_9 
REMARK    5  A    between atoms: C5_9  and  O3_10 
REMARK    6  A    between atoms: C5_9  and  N1_12 
ROOT
HETATM    1  C1  UNL     1       2.246  -1.050   2.118  1.00  0.00     0.100 C 
HETATM    2  C2  UNL     1       2.507  -0.302   1.185  1.00  0.00    -0.153 C 
HETATM    3  C3  UNL     1       2.822   0.573   0.054  1.00  0.00     0.216 C 
ENDROOT
BRANCH   3   4
HETATM    4  O1  UNL     1       4.187   0.758   0.029  1.00  0.00    -0.382 OA
ATOM      5  H1  UNL     1       4.391   1.326  -0.705  1.00  0.00     0.211 HD
ENDBRANCH   3   4
BRANCH   3   6
HETATM    6  C4  UNL     1       2.320  -0.082  -1.230  1.00  0.00     0.206 C 
BRANCH   6   7
HETATM    7  O2  UNL     1       2.606   0.682  -2.335  1.00  0.00    -0.388 OA
ATOM      8  H2  UNL     1       2.294   0.274  -3.134  1.00  0.00     0.210 HD
ENDBRANCH   6   7
BRANCH   6   9
HETATM    9  C5  UNL     1       0.870  -0.470  -1.111  1.00  0.00     0.267 C 
BRANCH   9  10
HETATM   10  O3  UNL     1       0.505  -1.267  -2.182  1.00  0.00    -0.373 OA
ATOM     11  H3  UNL     1      -0.410  -1.512  -2.107  1.00  0.00     0.212 HD
ENDBRANCH   9  10
BRANCH   9  12
HETATM   12  N1  UNL     1      -0.008   0.652  -1.022  1.00  0.00    -0.197 N 
HETATM   13  C6  UNL     1      -1.149   0.611  -0.376  1.00  0.00     0.683 A 
HETATM   14  N2  UNL     1      -1.932   1.702  -0.329  1.00  0.00    -0.188 N 
HETATM   15  N5  UNL     1      -1.575  -0.501   0.251  1.00  0.00    -0.163 N 
HETATM   16  C7  UNL     1      -3.113   1.724   0.316  1.00  0.00     0.200 A 
ATOM     17  H2  UNL     1      -1.618   2.549  -0.802  1.00  0.00     0.185 HD
HETATM   18  N3  UNL     1      -3.502   0.593   0.930  1.00  0.00    -0.326 N 
HETATM   19  C8  UNL     1      -2.744  -0.529   0.907  1.00  0.00     0.207 A 
ATOM     20  H3  UNL     1      -4.393   0.580   1.427  1.00  0.00     0.169 HD
HETATM   21  N4  UNL     1      -3.236  -1.676   1.584  1.00  0.00    -0.063 NA
ATOM     22  H5  UNL     1      -0.996  -1.340   0.227  1.00  0.00     0.187 HD
ATOM     23  H1  UNL     1       0.263   1.522  -1.480  1.00  0.00     0.180 HD
ENDBRANCH   9  12
ENDBRANCH   6   9
ENDBRANCH   3   6
TORSDOF 6
