REMARK  3 active torsions:
REMARK  status: ('A' for Active; 'I' for Inactive)
REMARK    1  A    between atoms: N1_1  and  C1_4 
REMARK    2  A    between atoms: N3_9  and  C3_10 
REMARK    3  A    between atoms: C3_10  and  C4_11 
ROOT
HETATM    1  C3  UNL     1       0.014  -1.276   0.516  1.00  0.00     0.219 C 
ENDROOT
BRANCH   1   2
HETATM    2  N3  UNL     1      -1.237  -0.666   0.149  1.00  0.00    -0.222 N 
HETATM    3  C2  UNL     1      -2.023  -0.824  -0.913  1.00  0.00     0.356 A 
HETATM    4  N2  UNL     1      -3.110   0.000  -0.839  1.00  0.00    -0.139 N 
HETATM    5  O1  UNL     1      -1.835  -1.625  -1.893  1.00  0.00    -0.244 OA
HETATM    6  C1  UNL     1      -2.968   0.669   0.301  1.00  0.00     0.694 A 
ATOM      7  H2  UNL     1      -3.869   0.084  -1.515  1.00  0.00     0.189 HD
HETATM    8  N7  UNL     1      -1.845   0.277   0.904  1.00  0.00    -0.126 N 
ATOM      9  H7  UNL     1      -1.499   0.633   1.795  1.00  0.00     0.206 HD
BRANCH   6  10
HETATM   10  N1  UNL     1      -3.798   1.568   0.756  1.00  0.00    -0.233 N 
ATOM     11  H12 UNL     1      -4.657   1.868   0.295  1.00  0.00     0.174 HD
ATOM     12  H11 UNL     1      -3.689   2.081   1.631  1.00  0.00     0.174 HD
ENDBRANCH   6  10
ENDBRANCH   1   2
BRANCH   1  13
HETATM   13  C4  UNL     1       1.230  -0.554   0.167  1.00  0.00     0.114 A 
HETATM   14  N4  UNL     1       1.811   0.182   1.166  1.00  0.00    -0.294 N 
HETATM   15  N5  UNL     1       2.908   0.874   0.910  1.00  0.00    -0.251 N 
ATOM     16  H4  UNL     1       1.400   0.196   2.100  1.00  0.00     0.187 HD
HETATM   17  C5  UNL     1       3.495   0.895  -0.295  1.00  0.00     0.341 A 
ATOM     18  H5  UNL     1       3.327   1.417   1.665  1.00  0.00     0.191 HD
HETATM   19  O2  UNL     1       4.551   1.593  -0.442  1.00  0.00    -0.245 OA
HETATM   20  N6  UNL     1       2.967   0.192  -1.302  1.00  0.00    -0.273 N 
HETATM   21  C6  UNL     1       1.830  -0.529  -1.050  1.00  0.00     0.275 A 
ATOM     22  H6  UNL     1       3.397   0.192  -2.227  1.00  0.00     0.173 HD
HETATM   23  O3  UNL     1       1.380  -1.169  -2.026  1.00  0.00    -0.266 OA
ENDBRANCH   1  13
TORSDOF 3
