REMARK  8 active torsions:
REMARK  status: ('A' for Active; 'I' for Inactive)
REMARK       I    between atoms: N1_2  and  C2_3 
REMARK    1  A    between atoms: C2_3  and  C3_5 
REMARK    2  A    between atoms: C3_5  and  C4_6 
REMARK    3  A    between atoms: C7_9  and  C8_10 
REMARK    4  A    between atoms: C10_12  and  S1_13 
REMARK    5  A    between atoms: S1_13  and  N2_16 
REMARK    6  A    between atoms: N2_16  and  C11_18 
REMARK    7  A    between atoms: C11_18  and  C12_19 
REMARK    8  A    between atoms: C12_19  and  C13_20 
ROOT
HETATM    1  C8  UNL     1       0.917  -1.413  -0.273  1.00  0.00    -0.036 C 
HETATM    2  C9  UNL     1      -0.154  -0.475   0.014  1.00  0.00     0.092 C 
HETATM    3  C10 UNL     1      -1.397  -1.101   0.400  1.00  0.00     0.062 C 
HETATM    4  C16 UNL     1      -1.576  -2.455   0.499  1.00  0.00     0.028 C 
HETATM    5  C17 UNL     1      -0.517  -3.325   0.041  1.00  0.00    -0.054 C 
HETATM    6  C18 UNL     1      -0.700  -4.769   0.052  1.00  0.00     0.049 C 
HETATM    7  C19 UNL     1       0.623  -2.718  -0.284  1.00  0.00    -0.049 C 
HETATM    8  C20 UNL     1       1.603  -3.598  -1.118  1.00  0.00     0.049 C 
ENDROOT
BRANCH   1   9
HETATM    9  C7  UNL     1       2.241  -1.029  -0.458  1.00  0.00    -0.023 A 
HETATM   10  C6  UNL     1       2.924  -0.732  -1.594  1.00  0.00     0.013 A 
HETATM   11  C5  UNL     1       4.149  -0.180  -1.540  1.00  0.00     0.008 A 
HETATM   12  C4  UNL     1       4.792   0.043  -0.421  1.00  0.00    -0.048 A 
HETATM   13  C23 UNL     1       4.249  -0.218   0.772  1.00  0.00     0.015 A 
HETATM   14  C21 UNL     1       2.978  -0.723   0.756  1.00  0.00    -0.051 A 
HETATM   15  C22 UNL     1       2.405  -1.220   2.084  1.00  0.00     0.049 C 
BRANCH  12  16
HETATM   16  C3  UNL     1       6.097   0.604  -0.422  1.00  0.00     0.157 C 
BRANCH  16  17
HETATM   17  C2  UNL     1       5.674   2.292  -0.619  1.00  0.00     0.290 C 
HETATM   18  N1  UNL     1       6.752   2.677  -0.040  1.00  0.00    -0.420 NA
HETATM   19  C1  UNL     1       7.804   3.476   0.414  1.00  0.00     0.263 C 
HETATM   20  O1  UNL     1       4.549   2.372  -1.244  1.00  0.00    -0.257 OA
ENDBRANCH  16  17
ENDBRANCH  12  16
ENDBRANCH   1   9
BRANCH   3  21
HETATM   21  S1  UNL     1      -2.634  -0.105   0.207  1.00  0.00     0.255 S 
HETATM   22  O2  UNL     1      -2.590   0.276  -1.450  1.00  0.00    -0.201 OA
HETATM   23  O3  UNL     1      -3.999  -1.063  -0.011  1.00  0.00    -0.201 OA
BRANCH  21  24
HETATM   24  N2  UNL     1      -3.231   1.313   0.614  1.00  0.00    -0.316 N 
ATOM     25  H2  UNL     1      -2.773   2.208   0.442  1.00  0.00     0.172 HD
BRANCH  24  26
HETATM   26  C11 UNL     1      -4.506   1.157   1.258  1.00  0.00     0.132 C 
BRANCH  26  27
HETATM   27  C12 UNL     1      -5.180   2.205   0.376  1.00  0.00     0.024 C 
BRANCH  27  28
HETATM   28  C13 UNL     1      -6.588   1.922   0.461  1.00  0.00    -0.021 C 
HETATM   29  C14 UNL     1      -7.268   0.795  -0.316  1.00  0.00     0.009 C 
HETATM   30  C15 UNL     1      -7.332   3.166   0.219  1.00  0.00     0.009 C 
ENDBRANCH  27  28
ENDBRANCH  26  27
ENDBRANCH  24  26
ENDBRANCH  21  24
ENDBRANCH   3  21
TORSDOF 8
