REMARK  8 active torsions:
REMARK  status: ('A' for Active; 'I' for Inactive)
REMARK    1  A    between atoms: C2_2  and  N1_3 
REMARK    2  A    between atoms: N1_3  and  C3_4 
REMARK       I    between atoms: N1_3  and  C5_6 
REMARK    3  A    between atoms: C5_6  and  C6_8 
REMARK    4  A    between atoms: C6_8  and  N2_9 
REMARK    5  A    between atoms: C6_8  and  C20_29 
REMARK       I    between atoms: N2_9  and  C7_11 
REMARK       I    between atoms: C7_11  and  N3_13 
REMARK    6  A    between atoms: N3_13  and  C8_15 
REMARK    7  A    between atoms: C10_17  and  N4_18 
REMARK       I    between atoms: N4_18  and  C11_19 
REMARK    8  A    between atoms: N4_18  and  C13_22 
ROOT
HETATM    1  N2  UNL     1      -1.675  -0.446   1.539  1.00  0.00    -0.329 N 
ATOM      2  H2  UNL     1      -1.737  -1.032   2.371  1.00  0.00     0.165 HD
HETATM    3  C7  UNL     1      -0.367  -0.159   1.009  1.00  0.00     0.321 C 
HETATM    4  O2  UNL     1      -0.235   0.538  -0.012  1.00  0.00    -0.247 OA
HETATM    5  N3  UNL     1       0.786  -0.668   1.641  1.00  0.00    -0.308 N 
ATOM      6  H3  UNL     1       0.603  -1.198   2.493  1.00  0.00     0.170 HD
ENDROOT
BRANCH   1   7
HETATM    7  C6  UNL     1      -2.888   0.041   0.969  1.00  0.00     0.183 C 
BRANCH   7   8
HETATM    8  C5  UNL     1      -3.435  -0.848  -0.089  1.00  0.00     0.243 C 
HETATM    9  N1  UNL     1      -4.073  -0.364  -1.212  1.00  0.00    -0.351 N 
HETATM   10  O1  UNL     1      -3.296  -2.086   0.070  1.00  0.00    -0.271 OA
BRANCH   9  11
HETATM   11  C2  UNL     1      -4.634  -1.316  -2.194  1.00  0.00     0.121 C 
HETATM   12  C1  UNL     1      -6.049  -1.590  -1.768  1.00  0.00     0.026 C 
ENDBRANCH   9  11
BRANCH   9  13
HETATM   13  C3  UNL     1      -4.233   1.019  -1.551  1.00  0.00     0.121 C 
HETATM   14  C4  UNL     1      -3.067   1.549  -2.405  1.00  0.00     0.026 C 
ENDBRANCH   9  13
ENDBRANCH   7   8
BRANCH   7  15
HETATM   15  C20 UNL     1      -3.899   0.506   1.936  1.00  0.00     0.022 A 
HETATM   16  C21 UNL     1      -3.310   1.372   3.064  1.00  0.00     0.012 A 
HETATM   17  C22 UNL     1      -4.189   0.157   3.294  1.00  0.00    -0.012 A 
HETATM   18  C23 UNL     1      -3.664  -0.929   4.128  1.00  0.00     0.010 C 
ENDBRANCH   7  15
ENDBRANCH   1   7
BRANCH   5  19
HETATM   19  C8  UNL     1       2.132  -0.571   1.300  1.00  0.00     0.044 A 
HETATM   20  C9  UNL     1       2.585  -0.063   0.111  1.00  0.00     0.059 A 
HETATM   21  C10 UNL     1       3.944  -0.012  -0.241  1.00  0.00     0.039 A 
HETATM   22  C16 UNL     1       4.825  -0.509   0.689  1.00  0.00     0.030 A 
HETATM   23  C17 UNL     1       4.384  -1.021   1.886  1.00  0.00     0.011 A 
HETATM   24  C18 UNL     1       3.055  -1.070   2.228  1.00  0.00    -0.035 A 
HETATM   25  C19 UNL     1       2.647  -1.628   3.550  1.00  0.00     0.050 C 
BRANCH  21  26
HETATM   26  N4  UNL     1       4.366   0.510  -1.515  1.00  0.00    -0.314 N 
HETATM   27  C11 UNL     1       4.237  -0.347  -2.652  1.00  0.00     0.220 C 
HETATM   28  C12 UNL     1       3.689  -1.719  -2.500  1.00  0.00     0.117 C 
HETATM   29  O3  UNL     1       4.579   0.034  -3.795  1.00  0.00    -0.273 OA
BRANCH  26  30
HETATM   30  C13 UNL     1       4.904   1.843  -1.640  1.00  0.00     0.085 C 
HETATM   31  C14 UNL     1       6.371   1.763  -2.078  1.00  0.00     0.032 C 
HETATM   32  C15 UNL     1       4.126   2.699  -2.608  1.00  0.00     0.032 C 
ENDBRANCH  26  30
ENDBRANCH  21  26
ENDBRANCH   5  19
TORSDOF 8
