REMARK  11 active torsions:
REMARK  status: ('A' for Active; 'I' for Inactive)
REMARK    1  A    between atoms: C3_5  and  N2_6 
REMARK    2  A    between atoms: C4_9  and  C5_10 
REMARK    3  A    between atoms: C8_16  and  C9_17 
REMARK    4  A    between atoms: C9_17  and  N4_18 
REMARK    5  A    between atoms: N4_18  and  C10_21 
REMARK    6  A    between atoms: C10_21  and  C11_22 
REMARK    7  A    between atoms: C14_25  and  C15_26 
REMARK    8  A    between atoms: C15_26  and  C16_27 
REMARK    9  A    between atoms: C16_27  and  C17_28 
REMARK   10  A    between atoms: C21_34  and  O1_35 
REMARK   11  A    between atoms: O1_35  and  C22_36 
ROOT
HETATM    1  C5  UNL     1      -1.819   0.641  -1.499  1.00  0.00     0.066 A 
HETATM    2  C6  UNL     1      -1.651   0.087  -2.748  1.00  0.00     0.119 A 
HETATM    3  N3  UNL     1      -0.444  -0.374  -3.094  1.00  0.00    -0.356 N 
ATOM      4  H3  UNL     1      -0.306  -0.788  -4.016  1.00  0.00     0.166 HD
HETATM    5  C7  UNL     1       0.614  -0.295  -2.216  1.00  0.00     0.103 A 
HETATM    6  S1  UNL     1       2.256  -0.750  -2.268  1.00  0.00    -0.071 SA
HETATM    7  C8  UNL     1       2.721  -0.236  -0.710  1.00  0.00     0.031 A 
HETATM    8  C14 UNL     1       1.585   0.282  -0.179  1.00  0.00     0.062 A 
HETATM    9  C20 UNL     1       0.473   0.250  -0.975  1.00  0.00     0.087 A 
HETATM   10  N5  UNL     1      -0.788   0.709  -0.666  1.00  0.00    -0.351 N 
ATOM     11  H5  UNL     1      -0.938   1.124   0.254  1.00  0.00     0.166 HD
ENDROOT
BRANCH   1  12
HETATM   12  C4  UNL     1      -3.148   1.158  -1.093  1.00  0.00     0.086 A 
HETATM   13  C3  UNL     1      -3.470   2.463  -1.347  1.00  0.00     0.117 A 
HETATM   14  N1  UNL     1      -4.677   2.988  -0.995  1.00  0.00    -0.332 N 
HETATM   15  C2  UNL     1      -5.587   2.221  -0.384  1.00  0.00     0.080 A 
ATOM     16  H1  UNL     1      -4.887   3.966  -1.197  1.00  0.00     0.168 HD
HETATM   17  C1  UNL     1      -6.931   2.767   0.019  1.00  0.00     0.089 C 
HETATM   18  N6  UNL     1      -5.268   0.920  -0.130  1.00  0.00    -0.326 N 
HETATM   19  C21 UNL     1      -4.093   0.365  -0.459  1.00  0.00     0.160 A 
ATOM     20  H6  UNL     1      -5.962   0.336   0.336  1.00  0.00     0.169 HD
BRANCH  13  21
HETATM   21  N2  UNL     1      -2.585   3.196  -1.937  1.00  0.00    -0.385 N 
ATOM     22  H22 UNL     1      -2.825   4.169  -2.126  1.00  0.00     0.157 HD
ATOM     23  H21 UNL     1      -1.681   2.803  -2.201  1.00  0.00     0.157 HD
ENDBRANCH  13  21
BRANCH  19  24
HETATM   24  O1  UNL     1      -3.808  -0.950  -0.188  1.00  0.00    -0.330 OA
BRANCH  24  25
HETATM   25  C22 UNL     1      -4.577  -1.919   0.425  1.00  0.00     0.122 C 
HETATM   26  C23 UNL     1      -4.770  -3.119  -0.503  1.00  0.00     0.040 C 
HETATM   27  C24 UNL     1      -3.905  -2.505   1.668  1.00  0.00     0.040 C 
ENDBRANCH  24  25
ENDBRANCH  19  24
ENDBRANCH   1  12
BRANCH   8  28
HETATM   28  C15 UNL     1       1.600   0.839   1.195  1.00  0.00    -0.063 C 
BRANCH  28  29
HETATM   29  C16 UNL     1       1.593   1.302   2.318  1.00  0.00    -0.096 C 
BRANCH  29  30
HETATM   30  C17 UNL     1       1.574   1.881   3.660  1.00  0.00     0.065 A 
HETATM   31  C18 UNL     1       0.510   2.898   4.004  1.00  0.00     0.018 A 
HETATM   32  C19 UNL     1       1.892   3.392   3.765  1.00  0.00     0.018 A 
ENDBRANCH  29  30
ENDBRANCH  28  29
ENDBRANCH   8  28
BRANCH   7  33
HETATM   33  C9  UNL     1       4.075  -0.322  -0.046  1.00  0.00     0.280 C 
BRANCH  33  34
HETATM   34  N4  UNL     1       4.974  -0.951  -1.004  1.00  0.00    -0.070 N 
ATOM     35  H42 UNL     1       4.614  -1.848  -1.329  1.00  0.00     0.277 HD
ATOM     36  H41 UNL     1       4.981  -0.458  -1.897  1.00  0.00     0.277 HD
BRANCH  34  37
HETATM   37  C10 UNL     1       6.299  -1.075  -0.450  1.00  0.00     0.237 C 
BRANCH  37  38
HETATM   38  C11 UNL     1       7.168  -1.737  -1.506  1.00  0.00     0.011 A 
HETATM   39  C12 UNL     1       6.686  -3.116  -1.918  1.00  0.00     0.007 A 
HETATM   40  C13 UNL     1       7.975  -2.921  -1.190  1.00  0.00     0.007 A 
ENDBRANCH  37  38
ENDBRANCH  34  37
ENDBRANCH  33  34
ENDBRANCH   7  33
TORSDOF 11
