REMARK  19 active torsions:
REMARK  status: ('A' for Active; 'I' for Inactive)
REMARK    1  A    between atoms: C2_2  and  C3_3 
REMARK    2  A    between atoms: C3_3  and  C4_4 
REMARK    3  A    between atoms: C4_4  and  C5_5 
REMARK    4  A    between atoms: C6_6  and  C7_7 
REMARK    5  A    between atoms: C7_7  and  C8_8 
REMARK    6  A    between atoms: C9_9  and  C10_10 
REMARK    7  A    between atoms: C10_10  and  C11_11 
REMARK    8  A    between atoms: C12_12  and  C13_13 
REMARK    9  A    between atoms: C13_13  and  C14_14 
REMARK   10  A    between atoms: C15_15  and  C16_16 
REMARK   11  A    between atoms: C16_16  and  C17_17 
REMARK   12  A    between atoms: C17_17  and  C18_18 
REMARK   13  A    between atoms: C19_19  and  C20_20 
REMARK   14  A    between atoms: C20_20  and  C21_21 
REMARK   15  A    between atoms: C21_21  and  C22_22 
REMARK   16  A    between atoms: C22_22  and  C23_23 
REMARK   17  A    between atoms: C23_23  and  C24_24 
REMARK   18  A    between atoms: C24_24  and  C25_25 
REMARK   19  A    between atoms: C25_25  and  C26_27 
ROOT
HETATM    1  C16 UNL     1      -1.361  -3.326  -1.353  1.00  0.00     0.030 C 
ENDROOT
BRANCH   1   2
HETATM    2  C15 UNL     1      -0.172  -2.826  -2.061  1.00  0.00    -0.030 C 
HETATM    3  C14 UNL     1      -0.105  -2.706  -3.363  1.00  0.00    -0.027 C 
BRANCH   3   4
HETATM    4  C13 UNL     1       1.170  -2.176  -3.974  1.00  0.00     0.053 C 
BRANCH   4   5
HETATM    5  C12 UNL     1       2.143  -1.904  -2.917  1.00  0.00    -0.027 C 
HETATM    6  C11 UNL     1       2.613  -0.683  -2.734  1.00  0.00    -0.027 C 
BRANCH   6   7
HETATM    7  C10 UNL     1       3.619  -0.373  -1.650  1.00  0.00     0.053 C 
BRANCH   7   8
HETATM    8  C9  UNL     1       2.988   0.622  -0.776  1.00  0.00    -0.027 C 
HETATM    9  C8  UNL     1       3.469   1.809  -0.557  1.00  0.00    -0.027 C 
BRANCH   9  10
HETATM   10  C7  UNL     1       4.710   2.314  -1.156  1.00  0.00     0.053 C 
BRANCH  10  11
HETATM   11  C6  UNL     1       5.629   2.647  -0.012  1.00  0.00    -0.027 C 
HETATM   12  C5  UNL     1       6.808   2.074   0.152  1.00  0.00    -0.030 C 
BRANCH  12  13
HETATM   13  C4  UNL     1       7.646   2.450   1.289  1.00  0.00     0.027 C 
BRANCH  13  14
HETATM   14  C3  UNL     1       7.964   1.294   2.207  1.00  0.00     0.003 C 
BRANCH  14  15
HETATM   15  C2  UNL     1       6.728   0.670   2.800  1.00  0.00    -0.004 C 
HETATM   16  C1  UNL     1       5.932   1.665   3.614  1.00  0.00     0.005 C 
ENDBRANCH  14  15
ENDBRANCH  13  14
ENDBRANCH  12  13
ENDBRANCH  10  11
ENDBRANCH   9  10
ENDBRANCH   7   8
ENDBRANCH   6   7
ENDBRANCH   4   5
ENDBRANCH   3   4
ENDBRANCH   1   2
BRANCH   1  17
HETATM   17  C17 UNL     1      -2.530  -3.562  -2.248  1.00  0.00     0.030 C 
BRANCH  17  18
HETATM   18  C18 UNL     1      -3.092  -2.306  -2.803  1.00  0.00    -0.030 C 
HETATM   19  C19 UNL     1      -4.356  -1.899  -2.611  1.00  0.00    -0.031 C 
BRANCH  19  20
HETATM   20  C20 UNL     1      -5.404  -2.552  -1.858  1.00  0.00     0.027 C 
BRANCH  20  21
HETATM   21  C21 UNL     1      -6.067  -1.824  -0.749  1.00  0.00     0.004 C 
BRANCH  21  22
HETATM   22  C22 UNL     1      -5.256  -1.358   0.393  1.00  0.00     0.001 C 
BRANCH  22  23
HETATM   23  C23 UNL     1      -4.226  -0.326   0.162  1.00  0.00     0.008 C 
BRANCH  23  24
HETATM   24  C24 UNL     1      -3.538  -0.013   1.487  1.00  0.00     0.084 C 
BRANCH  24  25
HETATM   25  C25 UNL     1      -4.471   0.485   2.490  1.00  0.00     0.159 C 
HETATM   26  O1  UNL     1      -5.031  -0.279   3.331  1.00  0.00    -0.292 OA
BRANCH  25  27
HETATM   27  C26 UNL     1      -4.801   1.920   2.564  1.00  0.00     0.010 A 
HETATM   28  C27 UNL     1      -4.249   2.811   1.691  1.00  0.00     0.015 A 
HETATM   29  C28 UNL     1      -4.565   4.152   1.773  1.00  0.00     0.001 A 
HETATM   30  C29 UNL     1      -5.436   4.627   2.725  1.00  0.00     0.000 A 
HETATM   31  C30 UNL     1      -5.991   3.737   3.600  1.00  0.00     0.001 A 
HETATM   32  C31 UNL     1      -5.671   2.409   3.511  1.00  0.00     0.015 A 
ENDBRANCH  25  27
ENDBRANCH  24  25
ENDBRANCH  23  24
ENDBRANCH  22  23
ENDBRANCH  21  22
ENDBRANCH  20  21
ENDBRANCH  19  20
ENDBRANCH  17  18
ENDBRANCH   1  17
TORSDOF 19
