REMARK  6 active torsions:
REMARK  status: ('A' for Active; 'I' for Inactive)
REMARK    1  A    between atoms: C3_3  and  N1_4 
REMARK       I    between atoms: N1_4  and  C4_6 
REMARK    2  A    between atoms: C20_26  and  O1_27 
REMARK    3  A    between atoms: C20_26  and  C21_29 
REMARK    4  A    between atoms: C21_29  and  O2_30 
REMARK    5  A    between atoms: O2_30  and  C22_31 
REMARK    6  A    between atoms: C22_31  and  C23_32 
ROOT
HETATM    1  C1  UNL     1      -4.981  -1.416  -0.863  1.00  0.00     0.012 C 
HETATM    2  C2  UNL     1      -4.023  -0.287  -0.481  1.00  0.00     0.009 C 
HETATM    3  C3  UNL     1      -3.952  -0.108   0.994  1.00  0.00     0.088 C 
HETATM    4  C5  UNL     1      -3.137  -1.220   1.580  1.00  0.00     0.026 C 
HETATM    5  C6  UNL     1      -1.751  -1.298   1.000  1.00  0.00     0.012 C 
HETATM    6  C7  UNL     1      -1.706  -1.278  -0.488  1.00  0.00    -0.036 C 
HETATM    7  C8  UNL     1      -1.978  -2.720  -0.953  1.00  0.00     0.016 C 
HETATM    8  C9  UNL     1      -2.693  -0.413  -1.166  1.00  0.00    -0.000 C 
HETATM    9  C10 UNL     1      -2.200   0.980  -1.487  1.00  0.00     0.006 C 
HETATM   10  C11 UNL     1      -1.069   1.414  -0.627  1.00  0.00     0.006 C 
HETATM   11  C12 UNL     1       0.082   0.470  -0.837  1.00  0.00    -0.005 C 
HETATM   12  C13 UNL     1      -0.298  -0.960  -0.947  1.00  0.00    -0.002 C 
HETATM   13  C14 UNL     1       0.741  -1.780  -0.208  1.00  0.00     0.007 C 
HETATM   14  C15 UNL     1       2.101  -1.245  -0.682  1.00  0.00     0.013 C 
HETATM   15  C16 UNL     1       2.367   0.002   0.100  1.00  0.00    -0.007 C 
HETATM   16  C17 UNL     1       2.925  -0.327   1.466  1.00  0.00     0.019 C 
HETATM   17  C18 UNL     1       1.103   0.779   0.217  1.00  0.00     0.004 C 
HETATM   18  C19 UNL     1       1.899   2.030  -0.183  1.00  0.00     0.046 C 
HETATM   19  C20 UNL     1       3.033   1.119  -0.626  1.00  0.00     0.087 C 
ENDROOT
BRANCH  19  20
HETATM   20  O1  UNL     1       3.109   0.876  -1.977  1.00  0.00    -0.387 OA
ATOM     21  H1  UNL     1       3.534   1.588  -2.440  1.00  0.00     0.210 HD
ENDBRANCH  19  20
BRANCH  19  22
HETATM   22  C21 UNL     1       4.331   1.617  -0.058  1.00  0.00     0.206 C 
BRANCH  22  23
HETATM   23  O2  UNL     1       5.383   0.730  -0.223  1.00  0.00    -0.381 OA
BRANCH  23  24
HETATM   24  C22 UNL     1       6.511   1.334   0.354  1.00  0.00     0.240 C 
BRANCH  24  25
HETATM   25  C23 UNL     1       7.636   0.396   0.183  1.00  0.00     0.110 C 
HETATM   26  N4  UNL     1       8.222  -0.038   1.243  1.00  0.00    -0.389 N 
ATOM     27  H42 UNL     1       7.951   0.232   2.188  1.00  0.00     0.157 HD
ATOM     28  H41 UNL     1       9.000  -0.687   1.125  1.00  0.00     0.157 HD
HETATM   29  N5  UNL     1       8.012   0.022  -1.127  1.00  0.00    -0.086 NA
ENDBRANCH  24  25
ENDBRANCH  23  24
ENDBRANCH  22  23
ENDBRANCH  19  22
BRANCH   3  30
HETATM   30  N1  UNL     1      -5.296  -0.168   1.526  1.00  0.00    -0.360 N 
HETATM   31  C4  UNL     1      -6.303   0.764   1.113  1.00  0.00     0.182 C 
HETATM   32  N2  UNL     1      -7.526   0.363   1.098  1.00  0.00    -0.374 N 
HETATM   33  N3  UNL     1      -6.017   2.084   0.729  1.00  0.00    -0.064 NA
ATOM     34  H22 UNL     1      -7.734  -0.596   1.377  1.00  0.00     0.158 HD
ATOM     35  H21 UNL     1      -8.243   1.026   0.804  1.00  0.00     0.158 HD
ATOM     36  H1  UNL     1      -5.532  -0.888   2.209  1.00  0.00     0.162 HD
ENDBRANCH   3  30
TORSDOF 6
