REMARK  12 active torsions:
REMARK  status: ('A' for Active; 'I' for Inactive)
REMARK    1  A    between atoms: C2_2  and  O1_3 
REMARK    2  A    between atoms: O1_3  and  C3_4 
REMARK    3  A    between atoms: C3_4  and  C4_6 
REMARK    4  A    between atoms: C4_6  and  N1_7 
REMARK    5  A    between atoms: N1_7  and  C5_9 
REMARK    6  A    between atoms: C6_12  and  N3_13 
REMARK    7  A    between atoms: C8_16  and  O4_17 
REMARK    8  A    between atoms: C8_16  and  C9_19 
REMARK    9  A    between atoms: C9_19  and  N4_20 
REMARK   10  A    between atoms: C11_25  and  N7_26 
REMARK   11  A    between atoms: C12_31  and  N9_32 
REMARK   12  A    between atoms: C15_41  and  N12_42 
ROOT
HETATM    1  N3  UNL     1       0.012  -0.084  -1.224  1.00  0.00    -0.190 N 
HETATM    2  C7  UNL     1       0.372   0.801  -2.304  1.00  0.00     0.315 C 
HETATM    3  O3  UNL     1       1.603   0.319  -2.693  1.00  0.00    -0.332 OA
HETATM    4  C8  UNL     1       2.283   0.129  -1.495  1.00  0.00     0.198 C 
HETATM    5  C14 UNL     1       1.226  -0.309  -0.480  1.00  0.00     0.213 C 
ENDROOT
BRANCH   4   6
HETATM    6  O4  UNL     1       3.210  -0.921  -1.603  1.00  0.00    -0.363 OA
ATOM      7  H4  UNL     1       3.675  -1.051  -0.785  1.00  0.00     0.213 HD
ENDBRANCH   4   6
BRANCH   4   8
HETATM    8  C9  UNL     1       2.984   1.389  -1.084  1.00  0.00     0.218 C 
BRANCH   8   9
HETATM    9  N4  UNL     1       3.733   1.268   0.142  1.00  0.00    -0.253 N 
HETATM   10  N5  UNL     1       3.351   1.460   1.392  1.00  0.00    -0.018 NA
HETATM   11  N6  UNL     1       4.368   1.236   2.234  1.00  0.00    -0.277 N 
HETATM   12  C10 UNL     1       5.440   0.890   1.530  1.00  0.00     0.136 A 
ATOM     13  H6  UNL     1       4.326   1.318   3.250  1.00  0.00     0.184 HD
HETATM   14  C11 UNL     1       6.745   0.556   1.841  1.00  0.00     0.146 A 
HETATM   15  C13 UNL     1       5.046   0.909   0.210  1.00  0.00     0.168 A 
HETATM   16  N8  UNL     1       7.613   0.252   0.842  1.00  0.00    -0.175 N 
HETATM   17  C12 UNL     1       7.214   0.276  -0.436  1.00  0.00     0.679 A 
ATOM     18  H8  UNL     1       8.576   0.003   1.067  1.00  0.00     0.186 HD
HETATM   19  N10 UNL     1       5.939   0.603  -0.727  1.00  0.00    -0.173 N 
ATOM     20  H10 UNL     1       5.648   0.616  -1.704  1.00  0.00     0.186 HD
BRANCH  14  21
HETATM   21  N7  UNL     1       7.160   0.522   3.048  1.00  0.00    -0.383 N 
ATOM     22  H72 UNL     1       6.508   0.750   3.798  1.00  0.00     0.157 HD
ATOM     23  H71 UNL     1       8.123   0.276   3.277  1.00  0.00     0.157 HD
ENDBRANCH  14  21
BRANCH  17  24
HETATM   24  N9  UNL     1       8.001   0.003  -1.436  1.00  0.00    -0.234 N 
ATOM     25  H92 UNL     1       8.966  -0.244  -1.216  1.00  0.00     0.174 HD
ATOM     26  H91 UNL     1       7.697   0.021  -2.409  1.00  0.00     0.174 HD
ENDBRANCH  17  24
ENDBRANCH   8   9
ENDBRANCH   4   8
BRANCH   1  27
HETATM   27  C6  UNL     1      -1.269  -0.620  -0.955  1.00  0.00     0.711 A 
HETATM   28  N2  UNL     1      -2.335  -0.370  -1.733  1.00  0.00    -0.021 N 
HETATM   29  C5  UNL     1      -3.570  -0.872  -1.482  1.00  0.00     0.707 A 
ATOM     30  H2  UNL     1      -2.210   0.226  -2.552  1.00  0.00     0.203 HD
HETATM   31  N13 UNL     1      -3.692  -1.651  -0.394  1.00  0.00    -0.022 N 
HETATM   32  C15 UNL     1      -2.622  -1.915   0.408  1.00  0.00     0.705 A 
ATOM     33  H13 UNL     1      -4.601  -2.052  -0.164  1.00  0.00     0.203 HD
HETATM   34  N11 UNL     1      -1.416  -1.402   0.127  1.00  0.00    -0.021 N 
ATOM     35  H11 UNL     1      -0.618  -1.604   0.729  1.00  0.00     0.203 HD
BRANCH  29  36
HETATM   36  N1  UNL     1      -4.566  -0.607  -2.258  1.00  0.00    -0.216 N 
ATOM     37  H1  UNL     1      -4.425  -0.012  -3.074  1.00  0.00     0.178 HD
BRANCH  36  38
HETATM   38  C4  UNL     1      -5.860  -1.136  -1.988  1.00  0.00     0.249 C 
BRANCH  38  39
HETATM   39  C3  UNL     1      -6.496  -0.345  -0.886  1.00  0.00     0.277 C 
HETATM   40  O2  UNL     1      -7.667  -0.625  -0.514  1.00  0.00    -0.263 OA
BRANCH  39  41
HETATM   41  O1  UNL     1      -5.858   0.700  -0.236  1.00  0.00    -0.321 OA
BRANCH  41  42
HETATM   42  C2  UNL     1      -6.514   1.427   0.813  1.00  0.00     0.174 C 
HETATM   43  C1  UNL     1      -6.881   0.475   1.930  1.00  0.00     0.034 C 
ENDBRANCH  41  42
ENDBRANCH  39  41
ENDBRANCH  38  39
ENDBRANCH  36  38
ENDBRANCH  29  36
BRANCH  32  44
HETATM   44  N12 UNL     1      -2.736  -2.664   1.454  1.00  0.00    -0.234 N 
ATOM     45 2H12 UNL     1      -1.935  -2.862   2.054  1.00  0.00     0.174 HD
ATOM     46 1H12 UNL     1      -3.654  -3.054   1.668  1.00  0.00     0.174 HD
ENDBRANCH  32  44
ENDBRANCH   1  27
TORSDOF 12
