REMARK  4 active torsions:
REMARK  status: ('A' for Active; 'I' for Inactive)
REMARK    1  A    between atoms: N1_2  and  N2_4 
REMARK    2  A    between atoms: N2_4  and  C2_6 
REMARK    3  A    between atoms: C5_15  and  N6_16 
REMARK    4  A    between atoms: N8_22  and  O1_23 
ROOT
HETATM    1  C2  UNL     1       1.274  -0.440  -0.168  1.00  0.00     0.726 A 
HETATM    2  N3  UNL     1       0.664   0.728  -0.237  1.00  0.00    -0.172 N 
ATOM      3  H3  UNL     1       1.201   1.550  -0.513  1.00  0.00     0.186 HD
HETATM    4  C3  UNL     1      -0.636   0.868   0.044  1.00  0.00     0.139 A 
HETATM    5  N4  UNL     1      -1.256   2.082  -0.032  1.00  0.00    -0.337 N 
ATOM      6  H4  UNL     1      -0.743   2.920  -0.306  1.00  0.00     0.168 HD
HETATM    7  C4  UNL     1      -2.564   2.134   0.266  1.00  0.00     0.183 A 
HETATM    8  N5  UNL     1      -3.277   1.053   0.631  1.00  0.00    -0.338 N 
ATOM      9  H5  UNL     1      -4.269   1.153   0.846  1.00  0.00     0.168 HD
HETATM   10  C5  UNL     1      -2.692  -0.168   0.716  1.00  0.00     0.117 A 
HETATM   11  C6  UNL     1      -1.346  -0.247   0.414  1.00  0.00     0.096 A 
HETATM   12  C7  UNL     1      -0.705  -1.477   0.487  1.00  0.00     0.180 A 
HETATM   13  N7  UNL     1      -1.401  -2.650   0.864  1.00  0.00    -0.078 NA
HETATM   14  N8  UNL     1       0.623  -1.557   0.189  1.00  0.00    -0.036 N 
ENDROOT
BRANCH   1  15
HETATM   15  N2  UNL     1       2.538  -0.574  -0.440  1.00  0.00    -0.135 N 
ATOM     16  H2  UNL     1       2.962  -1.499  -0.370  1.00  0.00     0.205 HD
BRANCH  15  17
HETATM   17  N1  UNL     1       3.335   0.509  -0.825  1.00  0.00    -0.327 N 
HETATM   18  C1  UNL     1       4.332   0.970   0.102  1.00  0.00     0.168 C 
ATOM     19  H1  UNL     1       3.213   0.957  -1.733  1.00  0.00     0.180 HD
ENDBRANCH  15  17
ENDBRANCH   1  15
BRANCH  14  20
HETATM   20  O1  UNL     1       1.264  -2.772   0.260  1.00  0.00    -0.268 OA
ATOM     21  H1  UNL     1       0.803  -3.563   0.513  1.00  0.00     0.246 HD
ENDBRANCH  14  20
BRANCH  10  22
HETATM   22  N6  UNL     1      -3.324  -1.223   1.056  1.00  0.00    -0.385 N 
ATOM     23  H62 UNL     1      -4.318  -1.165   1.279  1.00  0.00     0.157 HD
ATOM     24  H61 UNL     1      -2.884  -2.141   1.120  1.00  0.00     0.157 HD
ENDBRANCH  10  22
TORSDOF 4
