REMARK  1 active torsions:
REMARK  status: ('A' for Active; 'I' for Inactive)
REMARK    1  A    between atoms: C2_2  and  C3_3 
ROOT
HETATM    1  C3  UNL     1       0.392  -0.226  -0.112  1.00  0.00     0.361 C 
HETATM    2 CL1  UNL     1      -0.077   0.231  -1.769  1.00  0.00    -0.058 Cl
HETATM    3  N1  UNL     1      -0.453  -1.346   0.331  1.00  0.00    -0.026 N 
ATOM      4  H11 UNL     1      -0.429  -1.499   1.339  1.00  0.00     0.281 HD
ATOM      5  H12 UNL     1      -0.092  -2.260   0.058  1.00  0.00     0.281 HD
HETATM    6  C4  UNL     1      -1.777  -1.075  -0.179  1.00  0.00     0.238 C 
HETATM    7  C5  UNL     1      -2.268   0.210   0.374  1.00  0.00     0.055 C 
HETATM    8  C6  UNL     1      -1.268   1.305   0.456  1.00  0.00     0.238 C 
HETATM    9  N2  UNL     1       0.085   0.864   0.743  1.00  0.00    -0.026 N 
ATOM     10  H21 UNL     1       0.766   1.620   0.675  1.00  0.00     0.281 HD
ATOM     11  H22 UNL     1       0.224   0.640   1.728  1.00  0.00     0.281 HD
ENDROOT
BRANCH   1  12
HETATM   12  C2  UNL     1       1.801  -0.709  -0.093  1.00  0.00     0.082 C 
HETATM   13  C1  UNL     1       2.831   0.250  -0.546  1.00  0.00     0.011 C 
ENDBRANCH   1  12
TORSDOF 1
