REMARK  9 active torsions:
REMARK  status: ('A' for Active; 'I' for Inactive)
REMARK    1  A    between atoms: C2_2  and  O2_4 
REMARK    2  A    between atoms: O2_4  and  C3_5 
REMARK    3  A    between atoms: C4_6  and  C5_7 
REMARK    4  A    between atoms: C5_7  and  C6_8 
REMARK    5  A    between atoms: C6_8  and  C7_9 
REMARK    6  A    between atoms: C6_8  and  C11_13 
REMARK    7  A    between atoms: C11_13  and  C12_14 
REMARK    8  A    between atoms: C27_29  and  O3_31 
REMARK    9  A    between atoms: C29_33  and  O4_34 
ROOT
HETATM    1  C3  UNL     1      -1.099  -1.231   0.412  1.00  0.00     0.179 C 
HETATM    2  C4  UNL     1       0.190  -0.816  -0.342  1.00  0.00     0.000 C 
HETATM    3  C16 UNL     1       0.739  -2.093  -0.943  1.00  0.00     0.040 C 
HETATM    4  C17 UNL     1      -0.420  -2.926  -1.455  1.00  0.00    -0.023 C 
HETATM    5  C18 UNL     1      -1.637  -2.537  -1.778  1.00  0.00    -0.080 C 
HETATM    6  C19 UNL     1      -2.556  -3.572  -2.247  1.00  0.00     0.043 C 
HETATM    7  C20 UNL     1      -2.195  -1.152  -1.728  1.00  0.00     0.054 C 
HETATM    8  C21 UNL     1      -1.204  -0.318  -2.418  1.00  0.00     0.021 C 
HETATM    9  C22 UNL     1      -0.125   0.121  -1.445  1.00  0.00     0.020 C 
HETATM   10  C23 UNL     1      -0.540   1.478  -0.990  1.00  0.00    -0.025 C 
HETATM   11  C24 UNL     1      -1.713   2.055  -0.726  1.00  0.00    -0.023 C 
HETATM   12  C25 UNL     1      -3.096   1.501  -0.800  1.00  0.00     0.041 C 
HETATM   13  C26 UNL     1      -4.006   2.581  -0.195  1.00  0.00     0.017 C 
HETATM   14  C27 UNL     1      -3.102   0.317   0.143  1.00  0.00     0.095 C 
HETATM   15  C28 UNL     1      -4.604   0.102   0.430  1.00  0.00     0.050 C 
HETATM   16  C29 UNL     1      -2.385  -0.886  -0.264  1.00  0.00     0.123 C 
ENDROOT
BRANCH   2  17
HETATM   17  C5  UNL     1       1.094  -0.197   0.647  1.00  0.00     0.025 C 
BRANCH  17  18
HETATM   18  C6  UNL     1       2.412   0.303   0.647  1.00  0.00     0.032 C 
BRANCH  18  19
HETATM   19  C7  UNL     1       2.703   0.817   2.092  1.00  0.00    -0.016 C 
HETATM   20  C8  UNL     1       3.344   0.124   2.984  1.00  0.00    -0.091 C 
HETATM   21  C9  UNL     1       3.850  -1.233   2.670  1.00  0.00     0.042 C 
HETATM   22  C10 UNL     1       3.599   0.661   4.367  1.00  0.00     0.042 C 
ENDBRANCH  18  19
BRANCH  18  23
HETATM   23  C11 UNL     1       3.135   1.273  -0.184  1.00  0.00    -0.018 C 
BRANCH  23  24
HETATM   24  C12 UNL     1       3.385   1.065  -1.601  1.00  0.00    -0.001 C 
HETATM   25  C13 UNL     1       3.217   1.891  -2.612  1.00  0.00    -0.088 C 
HETATM   26  C14 UNL     1       3.544   1.458  -4.032  1.00  0.00     0.043 C 
HETATM   27  C15 UNL     1       2.729   3.271  -2.381  1.00  0.00     0.043 C 
ENDBRANCH  23  24
ENDBRANCH  18  23
ENDBRANCH  17  18
ENDBRANCH   2  17
BRANCH   1  28
HETATM   28  O2  UNL     1      -1.061  -0.831   1.772  1.00  0.00    -0.312 OA
BRANCH  28  29
HETATM   29  C2  UNL     1      -1.086  -1.686   2.859  1.00  0.00     0.255 C 
HETATM   30  C1  UNL     1      -1.038  -1.094   4.215  1.00  0.00     0.126 C 
HETATM   31  O1  UNL     1      -1.146  -2.911   2.654  1.00  0.00    -0.266 OA
ENDBRANCH  28  29
ENDBRANCH   1  28
BRANCH  16  32
HETATM   32  O4  UNL     1      -3.294  -1.942   0.118  1.00  0.00    -0.383 OA
ATOM     33  H4  UNL     1      -4.112  -1.723  -0.312  1.00  0.00     0.210 HD
ENDBRANCH  16  32
BRANCH  14  34
HETATM   34  O3  UNL     1      -2.613   0.850   1.349  1.00  0.00    -0.386 OA
ATOM     35  H3  UNL     1      -2.617   0.107   1.941  1.00  0.00     0.210 HD
ENDBRANCH  14  34
TORSDOF 9
