REMARK  9 active torsions:
REMARK  status: ('A' for Active; 'I' for Inactive)
REMARK    1  A    between atoms: C2_2  and  C3_3 
REMARK    2  A    between atoms: C2_2  and  C6_7 
REMARK    3  A    between atoms: C3_3  and  C4_4 
REMARK    4  A    between atoms: C9_10  and  C10_11 
REMARK    5  A    between atoms: C10_11  and  O2_12 
REMARK    6  A    between atoms: C14_17  and  O3_18 
REMARK    7  A    between atoms: C20_25  and  C21_26 
REMARK    8  A    between atoms: C20_25  and  C23_28 
REMARK    9  A    between atoms: C23_28  and  C24_29 
ROOT
HETATM    1  C6  UNL     1      -3.399  -0.199   0.146  1.00  0.00     0.014 C 
HETATM    2  C7  UNL     1      -2.544   0.886   0.682  1.00  0.00     0.010 C 
HETATM    3  C8  UNL     1      -1.091   0.629   0.770  1.00  0.00     0.015 C 
HETATM    4  C9  UNL     1      -0.666  -0.787   0.917  1.00  0.00     0.012 C 
HETATM    5  C11 UNL     1      -1.603  -1.786   0.328  1.00  0.00     0.002 C 
HETATM    6  C12 UNL     1      -3.024  -1.502   0.765  1.00  0.00     0.014 C 
HETATM    7  C13 UNL     1      -1.607  -1.739  -1.185  1.00  0.00     0.037 C 
HETATM    8  C14 UNL     1      -0.555  -2.719  -1.637  1.00  0.00     0.122 C 
HETATM    9  C15 UNL     1       0.713  -2.009  -1.888  1.00  0.00     0.017 C 
HETATM   10  C16 UNL     1       1.859  -2.979  -1.818  1.00  0.00     0.013 C 
HETATM   11  C17 UNL     1       0.959  -0.784  -1.004  1.00  0.00     0.022 C 
HETATM   12  C18 UNL     1       2.427  -0.443  -1.308  1.00  0.00     0.009 C 
HETATM   13  C19 UNL     1       2.646   0.984  -1.018  1.00  0.00     0.020 C 
HETATM   14  C20 UNL     1       3.200   1.234   0.386  1.00  0.00     0.048 C 
HETATM   15  C26 UNL     1       2.282   0.764   1.422  1.00  0.00     0.268 C 
HETATM   16  O4  UNL     1       2.166   1.546   2.400  1.00  0.00    -0.264 OA
HETATM   17  O5  UNL     1       1.604  -0.419   1.350  1.00  0.00    -0.314 OA
HETATM   18  C27 UNL     1       0.771  -1.006   0.427  1.00  0.00     0.147 C 
ENDROOT
BRANCH   1  19
HETATM   19  C2  UNL     1      -4.850   0.131   0.448  1.00  0.00    -0.078 C 
HETATM   20  C1  UNL     1      -5.519  -0.718   1.157  1.00  0.00     0.015 C 
BRANCH  19  21
HETATM   21  C3  UNL     1      -5.331   1.377  -0.109  1.00  0.00     0.111 C 
BRANCH  21  22
HETATM   22  C4  UNL     1      -6.730   1.748   0.082  1.00  0.00     0.127 C 
HETATM   23  C5  UNL     1      -7.128   3.092  -0.535  1.00  0.00     0.091 C 
HETATM   24  O1  UNL     1      -7.624   1.187   0.636  1.00  0.00    -0.298 OA
ENDBRANCH  21  22
ENDBRANCH  19  21
ENDBRANCH   1  19
BRANCH   4  25
HETATM   25  C10 UNL     1      -0.591  -1.101   2.420  1.00  0.00     0.176 C 
BRANCH  25  26
HETATM   26  O2  UNL     1      -0.187  -2.447   2.496  1.00  0.00    -0.400 OA
ATOM     27  H2  UNL     1      -0.141  -2.641   3.425  1.00  0.00     0.209 HD
ENDBRANCH  25  26
ENDBRANCH   4  25
BRANCH   8  28
HETATM   28  O3  UNL     1      -1.021  -3.332  -2.810  1.00  0.00    -0.395 OA
ATOM     29  H3  UNL     1      -0.358  -3.950  -3.095  1.00  0.00     0.210 HD
ENDBRANCH   8  28
BRANCH  14  30
HETATM   30  C21 UNL     1       3.399   2.731   0.444  1.00  0.00     0.015 C 
HETATM   31  C22 UNL     1       3.931   3.275   1.689  1.00  0.00     0.006 C 
ENDBRANCH  14  30
BRANCH  14  32
HETATM   32  C23 UNL     1       4.515   0.545   0.572  1.00  0.00     0.019 C 
BRANCH  32  33
HETATM   33  C24 UNL     1       5.576   1.004  -0.400  1.00  0.00    -0.003 C 
HETATM   34  C25 UNL     1       6.865   0.246  -0.130  1.00  0.00     0.005 C 
ENDBRANCH  32  33
ENDBRANCH  14  32
TORSDOF 9
