REMARK  1 active torsions:
REMARK  status: ('A' for Active; 'I' for Inactive)
REMARK       I    between atoms: C2_2  and  N1_4 
REMARK    1  A    between atoms: N1_4  and  C3_6 
ROOT
HETATM    1  C3  UNL     1      -0.336  -0.537   0.102  1.00  0.00     0.171 C 
HETATM    2  C4  UNL     1      -0.458  -1.960  -0.147  1.00  0.00     0.102 C 
HETATM    3  N2  UNL     1      -0.573  -3.089  -0.345  1.00  0.00    -0.194 NA
HETATM    4  C5  UNL     1      -1.445   0.036   0.915  1.00  0.00     0.059 C 
HETATM    5  C6  UNL     1      -2.556   0.432  -0.020  1.00  0.00     0.014 C 
HETATM    6  C7  UNL     1      -1.910   1.418  -1.003  1.00  0.00     0.077 C 
HETATM    7  S1  UNL     1      -0.462   0.414  -1.466  1.00  0.00    -0.123 SA
ENDROOT
BRANCH   1   8
HETATM    8  N1  UNL     1       0.941  -0.188   0.679  1.00  0.00    -0.331 N 
HETATM    9  C2  UNL     1       2.168  -0.448   0.019  1.00  0.00     0.215 C 
HETATM   10  C1  UNL     1       3.460  -0.075   0.644  1.00  0.00     0.117 C 
HETATM   11  O1  UNL     1       2.204  -1.000  -1.114  1.00  0.00    -0.274 OA
ATOM     12  H1  UNL     1       0.961   0.262   1.594  1.00  0.00     0.165 HD
ENDBRANCH   1   8
TORSDOF 1
