REMARK  9 active torsions:
REMARK  status: ('A' for Active; 'I' for Inactive)
REMARK    1  A    between atoms: O1_2  and  C2_3 
REMARK    2  A    between atoms: C3_4  and  C4_5 
REMARK    3  A    between atoms: C4_5  and  O2_6 
REMARK    4  A    between atoms: O2_6  and  C5_7 
REMARK    5  A    between atoms: C7_11  and  O4_12 
REMARK    6  A    between atoms: C8_14  and  N2_15 
REMARK    7  A    between atoms: C16_25  and  O5_26 
REMARK    8  A    between atoms: C21_36  and  O6_37 
REMARK    9  A    between atoms: O6_37  and  C22_38 
ROOT
HETATM    1  C2  UNL     1      -3.048  -0.205   0.101  1.00  0.00     0.197 A 
HETATM    2  C3  UNL     1      -1.941   0.759  -0.166  1.00  0.00     0.037 A 
HETATM    3  C6  UNL     1      -0.781  -0.025  -0.510  1.00  0.00     0.042 A 
HETATM    4  C7  UNL     1       0.522   0.308  -0.837  1.00  0.00     0.107 A 
HETATM    5  C8  UNL     1       1.480  -0.668  -1.139  1.00  0.00     0.094 A 
HETATM    6  C15 UNL     1       1.109  -1.989  -1.108  1.00  0.00     0.111 A 
HETATM    7  N3  UNL     1       2.104  -2.956  -1.418  1.00  0.00    -0.097 NA
HETATM    8  C16 UNL     1      -0.184  -2.344  -0.785  1.00  0.00     0.120 A 
HETATM    9  C17 UNL     1      -1.134  -1.391  -0.486  1.00  0.00     0.082 A 
HETATM   10  N4  UNL     1      -2.508  -1.515  -0.130  1.00  0.00    -0.338 N 
HETATM   11  C18 UNL     1      -3.390  -2.630   0.036  1.00  0.00     0.162 C 
HETATM   12  C19 UNL     1      -4.485  -2.368   1.038  1.00  0.00     0.237 A 
HETATM   13  N5  UNL     1      -5.479  -1.360   0.789  1.00  0.00    -0.058 N 
ATOM     14  H51 UNL     1      -6.498  -1.326   0.753  1.00  0.00     0.278 HD
ATOM     15  H52 UNL     1      -5.799  -0.828  -0.020  1.00  0.00     0.278 HD
HETATM   16  C20 UNL     1      -4.468  -1.198   1.807  1.00  0.00     0.253 A 
HETATM   17  C21 UNL     1      -3.406  -0.145   1.563  1.00  0.00     0.224 C 
ENDROOT
BRANCH   5  18
HETATM   18  N2  UNL     1       2.790  -0.295  -1.468  1.00  0.00    -0.359 N 
HETATM   19  C9  UNL     1       3.736  -0.036  -0.657  1.00  0.00    -0.013 C 
HETATM   20  C10 UNL     1       3.520  -0.111   0.797  1.00  0.00     0.052 C 
HETATM   21  C14 UNL     1       5.057   0.343  -1.181  1.00  0.00     0.052 C 
HETATM   22  C11 UNL     1       4.455   0.953   1.395  1.00  0.00     0.006 C 
HETATM   23  C12 UNL     1       5.860   0.426   1.216  1.00  0.00     0.001 C 
HETATM   24  C13 UNL     1       6.172   0.162  -0.215  1.00  0.00     0.006 C 
ATOM     25  H2  UNL     1       3.008  -0.224  -2.462  1.00  0.00     0.165 HD
ENDBRANCH   5  18
BRANCH   4  26
HETATM   26  O4  UNL     1       0.900   1.622  -0.871  1.00  0.00    -0.357 OA
ATOM     27  H4  UNL     1       1.794   1.851  -1.095  1.00  0.00     0.217 HD
ENDBRANCH   4  26
BRANCH   8  28
HETATM   28  O5  UNL     1      -0.481  -3.701  -0.774  1.00  0.00    -0.357 OA
ATOM     29  H5  UNL     1      -1.372  -3.946  -0.552  1.00  0.00     0.218 HD
ENDBRANCH   8  28
BRANCH   2  30
HETATM   30  C4  UNL     1      -2.098   2.047  -0.083  1.00  0.00     0.160 C 
BRANCH  30  31
HETATM   31  O2  UNL     1      -1.221   3.060  -0.286  1.00  0.00    -0.275 OA
BRANCH  31  32
HETATM   32  C5  UNL     1      -1.530   4.395  -0.163  1.00  0.00     0.377 C 
HETATM   33  N1  UNL     1      -0.563   5.432  -0.390  1.00  0.00    -0.032 NA
HETATM   34  O3  UNL     1      -2.715   4.681   0.163  1.00  0.00    -0.242 OA
ENDBRANCH  31  32
ENDBRANCH  30  31
ENDBRANCH   2  30
BRANCH   1  35
HETATM   35  O1  UNL     1      -4.149   0.068  -0.711  1.00  0.00    -0.359 OA
HETATM   36  C1  UNL     1      -3.822  -0.022  -2.061  1.00  0.00     0.205 C 
ENDBRANCH   1  35
BRANCH  17  37
HETATM   37  O6  UNL     1      -2.234  -0.437   2.307  1.00  0.00    -0.315 OA
BRANCH  37  38
HETATM   38  C22 UNL     1      -1.745   0.419   3.255  1.00  0.00     0.398 C 
HETATM   39  O7  UNL     1      -2.345   1.495   3.482  1.00  0.00    -0.276 OA
ENDBRANCH  37  38
ENDBRANCH  17  37
TORSDOF 9
