REMARK  5 active torsions:
REMARK  status: ('A' for Active; 'I' for Inactive)
REMARK    1  A    between atoms: N1_2  and  C3_4 
REMARK    2  A    between atoms: C3_4  and  C4_5 
REMARK    3  A    between atoms: C5_10  and  N4_11 
REMARK       I    between atoms: N4_11  and  C6_13 
REMARK    4  A    between atoms: C7_18  and  N7_19 
REMARK    5  A    between atoms: N7_19  and  N8_21 
ROOT
HETATM    1  C4  UNL     1      -0.897  -0.065   0.745  1.00  0.00     0.126 A 
HETATM    2  N2  UNL     1      -0.548   1.046   1.412  1.00  0.00    -0.286 N 
ATOM      3  H2  UNL     1      -1.271   1.553   1.923  1.00  0.00     0.188 HD
HETATM    4  N3  UNL     1       0.683   1.512   1.438  1.00  0.00    -0.281 N 
ATOM      5  H3  UNL     1       0.878   2.362   1.966  1.00  0.00     0.188 HD
HETATM    6  C5  UNL     1       1.705   0.895   0.782  1.00  0.00     0.169 A 
HETATM    7  C7  UNL     1       1.384  -0.241   0.092  1.00  0.00     0.167 A 
HETATM    8  N9  UNL     1       0.106  -0.683   0.094  1.00  0.00    -0.325 N 
ATOM      9  H9  UNL     1      -0.110  -1.533  -0.427  1.00  0.00     0.169 HD
ENDROOT
BRANCH   6  10
HETATM   10  N4  UNL     1       2.888   1.370   0.825  1.00  0.00    -0.313 N 
HETATM   11  C6  UNL     1       4.044   0.873   0.219  1.00  0.00     0.187 C 
HETATM   12  N5  UNL     1       4.381   1.301  -0.950  1.00  0.00    -0.373 N 
HETATM   13  N6  UNL     1       4.885  -0.089   0.844  1.00  0.00    -0.064 NA
ATOM     14  H52 UNL     1       3.778   1.991  -1.398  1.00  0.00     0.158 HD
ATOM     15  H51 UNL     1       5.225   0.938  -1.393  1.00  0.00     0.158 HD
ATOM     16  H4  UNL     1       3.005   2.223   1.372  1.00  0.00     0.170 HD
ENDBRANCH   6  10
BRANCH   7  17
HETATM   17  N7  UNL     1       2.244  -0.916  -0.565  1.00  0.00    -0.289 N 
ATOM     18  H7  UNL     1       3.213  -0.596  -0.577  1.00  0.00     0.188 HD
BRANCH  17  19
HETATM   19  N8  UNL     1       1.914  -2.065  -1.262  1.00  0.00    -0.344 N 
ATOM     20  H82 UNL     1       0.941  -2.370  -1.239  1.00  0.00     0.176 HD
ATOM     21  H81 UNL     1       2.602  -2.605  -1.787  1.00  0.00     0.176 HD
ENDBRANCH  17  19
ENDBRANCH   7  17
BRANCH   1  22
HETATM   22  C3  UNL     1      -2.242  -0.642   0.671  1.00  0.00     0.349 C 
BRANCH  22  23
HETATM   23  N1  UNL     1      -3.022  -0.137  -0.443  1.00  0.00     0.086 N 
HETATM   24  C1  UNL     1      -3.176   1.316  -0.323  1.00  0.00     0.309 C 
HETATM   25  C2  UNL     1      -4.355  -0.699  -0.294  1.00  0.00     0.309 C 
ENDBRANCH  22  23
ENDBRANCH   1  22
TORSDOF 5
