REMARK  4 active torsions:
REMARK  status: ('A' for Active; 'I' for Inactive)
REMARK    1  A    between atoms: N1_1  and  C1_4 
REMARK    2  A    between atoms: C2_7  and  N3_8 
REMARK    3  A    between atoms: N3_8  and  O1_9 
REMARK    4  A    between atoms: N3_8  and  C3_11 
ROOT
HETATM    1  N3  UNL     1       0.457  -1.169   0.545  1.00  0.00    -0.089 NA
ENDROOT
BRANCH   1   2
HETATM    2  C2  UNL     1      -0.893  -0.863   0.265  1.00  0.00     0.131 A 
HETATM    3  N2  UNL     1      -1.346   0.279  -0.267  1.00  0.00    -0.179 N 
HETATM    4  C1  UNL     1      -2.643   0.520  -0.515  1.00  0.00     0.676 A 
ATOM      5  H2  UNL     1      -0.668   1.006  -0.496  1.00  0.00     0.185 HD
HETATM    6  N7  UNL     1      -3.592  -0.390  -0.238  1.00  0.00    -0.202 N 
HETATM    7  C7  UNL     1      -3.194  -1.544   0.293  1.00  0.00     0.109 A 
ATOM      8  H7  UNL     1      -4.577  -0.204  -0.427  1.00  0.00     0.183 HD
HETATM    9  C6  UNL     1      -1.878  -1.814   0.555  1.00  0.00     0.063 A 
BRANCH   4  10
HETATM   10  N1  UNL     1      -2.991   1.645  -1.028  1.00  0.00    -0.234 N 
ATOM     11  H12 UNL     1      -2.271   2.336  -1.238  1.00  0.00     0.174 HD
ATOM     12  H11 UNL     1      -3.977   1.828  -1.216  1.00  0.00     0.174 HD
ENDBRANCH   4  10
ENDBRANCH   1   2
BRANCH   1  13
HETATM   13  O1  UNL     1       0.593  -1.495   1.862  1.00  0.00    -0.300 OA
ATOM     14  H1  UNL     1       1.501  -1.701   2.050  1.00  0.00     0.238 HD
ENDBRANCH   1  13
BRANCH   1  15
HETATM   15  C3  UNL     1       1.382  -0.154   0.221  1.00  0.00     0.197 A 
HETATM   16  N4  UNL     1       1.055   1.028  -0.314  1.00  0.00    -0.280 N 
HETATM   17  N5  UNL     1       1.894   1.980  -0.621  1.00  0.00    -0.250 N 
ATOM     18  H4  UNL     1       0.066   1.200  -0.498  1.00  0.00     0.188 HD
HETATM   19  C4  UNL     1       3.218   1.809  -0.400  1.00  0.00     0.341 A 
ATOM     20  H5  UNL     1       1.552   2.851  -1.027  1.00  0.00     0.192 HD
HETATM   21  O2  UNL     1       4.014   2.745  -0.706  1.00  0.00    -0.245 OA
HETATM   22  N6  UNL     1       3.606   0.657   0.129  1.00  0.00    -0.272 N 
HETATM   23  C5  UNL     1       2.754  -0.330   0.449  1.00  0.00     0.291 A 
ATOM     24  H6  UNL     1       4.601   0.513   0.301  1.00  0.00     0.174 HD
HETATM   25  O3  UNL     1       3.144  -1.428   0.955  1.00  0.00    -0.264 OA
ENDBRANCH   1  15
TORSDOF 4
