REMARK  8 active torsions:
REMARK  status: ('A' for Active; 'I' for Inactive)
REMARK    1  A    between atoms: N1_1  and  C1_4 
REMARK    2  A    between atoms: C2_7  and  N3_8 
REMARK    3  A    between atoms: N6_16  and  C4_17 
REMARK    4  A    between atoms: C4_17  and  C5_18 
REMARK    5  A    between atoms: C5_18  and  N7_19 
REMARK    6  A    between atoms: N7_19  and  C6_22 
REMARK    7  A    between atoms: C6_22  and  C7_23 
REMARK    8  A    between atoms: C7_23  and  O1_24 
ROOT
HETATM    1  C1  UNL     1      -3.398   1.005   0.494  1.00  0.00     0.679 A 
HETATM    2  N2  UNL     1      -4.338   0.212  -0.070  1.00  0.00    -0.175 N 
ATOM      3  H2  UNL     1      -5.280   0.560  -0.247  1.00  0.00     0.186 HD
HETATM    4  C2  UNL     1      -3.996  -1.044  -0.390  1.00  0.00     0.147 A 
HETATM    5  C3  UNL     1      -2.710  -1.484  -0.137  1.00  0.00     0.140 A 
HETATM    6  N4  UNL     1      -2.067  -2.655  -0.337  1.00  0.00    -0.279 N 
ATOM      7  H4  UNL     1      -2.477  -3.492  -0.751  1.00  0.00     0.189 HD
HETATM    8  N5  UNL     1      -0.824  -2.543   0.089  1.00  0.00    -0.238 N 
ATOM      9  H5  UNL     1      -0.128  -3.287   0.049  1.00  0.00     0.208 HD
HETATM   10  N6  UNL     1      -0.606  -1.342   0.572  1.00  0.00    -0.258 N 
HETATM   11  C8  UNL     1      -1.771  -0.659   0.441  1.00  0.00     0.171 A 
HETATM   12  N8  UNL     1      -2.140   0.599   0.751  1.00  0.00    -0.173 N 
ATOM     13  H8  UNL     1      -1.471   1.240   1.178  1.00  0.00     0.186 HD
ENDROOT
BRANCH  10  14
HETATM   14  C4  UNL     1       0.648  -0.853   1.127  1.00  0.00     0.180 C 
BRANCH  14  15
HETATM   15  C5  UNL     1       1.411  -0.269  -0.036  1.00  0.00     0.254 C 
BRANCH  15  16
HETATM   16  N7  UNL     1       2.681   0.266   0.420  1.00  0.00    -0.072 N 
ATOM     17  H72 UNL     1       2.555   1.004   1.113  1.00  0.00     0.277 HD
ATOM     18  H71 UNL     1       3.187  -0.403   1.000  1.00  0.00     0.277 HD
BRANCH  16  19
HETATM   19  C6  UNL     1       3.482   0.717  -0.711  1.00  0.00     0.258 C 
BRANCH  19  20
HETATM   20  C7  UNL     1       4.662   1.497  -0.169  1.00  0.00     0.191 C 
BRANCH  20  21
HETATM   21  O1  UNL     1       5.448   0.726   0.677  1.00  0.00    -0.399 OA
ATOM     22  H1  UNL     1       6.188   1.215   1.017  1.00  0.00     0.209 HD
ENDBRANCH  20  21
ENDBRANCH  19  20
ENDBRANCH  16  19
ENDBRANCH  15  16
ENDBRANCH  14  15
ENDBRANCH  10  14
BRANCH   4  23
HETATM   23  N3  UNL     1      -4.835  -1.865  -0.948  1.00  0.00    -0.383 N 
ATOM     24  H32 UNL     1      -5.784  -1.540  -1.135  1.00  0.00     0.157 HD
ATOM     25  H31 UNL     1      -4.575  -2.821  -1.191  1.00  0.00     0.157 HD
ENDBRANCH   4  23
BRANCH   1  26
HETATM   26  N1  UNL     1      -3.737   2.216   0.801  1.00  0.00    -0.234 N 
ATOM     27  H12 UNL     1      -4.690   2.524   0.606  1.00  0.00     0.174 HD
ATOM     28  H11 UNL     1      -3.028   2.814   1.226  1.00  0.00     0.174 HD
ENDBRANCH   1  26
TORSDOF 8
