REMARK  4 active torsions:
REMARK  status: ('A' for Active; 'I' for Inactive)
REMARK    1  A    between atoms: C4_7  and  N3_8 
REMARK    2  A    between atoms: N3_8  and  C5_10 
REMARK    3  A    between atoms: C13_25  and  N7_26 
REMARK    4  A    between atoms: N7_26  and  C14_28 
ROOT
HETATM    1  N1  UNL     1      -3.399  -0.079  -4.589  1.00  0.00    -0.191 NA
HETATM    2  C1  UNL     1      -2.731  -0.070  -3.634  1.00  0.00     0.104 C 
HETATM    3  C2  UNL     1      -1.919  -0.069  -2.450  1.00  0.00     0.105 A 
HETATM    4  C3  UNL     1      -0.528  -0.134  -2.581  1.00  0.00     0.132 A 
HETATM    5  N2  UNL     1       0.287  -0.137  -1.509  1.00  0.00    -0.200 N 
ATOM      6  H2  UNL     1       1.299  -0.186  -1.629  1.00  0.00     0.183 HD
HETATM    7  C4  UNL     1      -0.251  -0.075  -0.277  1.00  0.00     0.684 A 
HETATM    8  N6  UNL     1      -1.585  -0.013  -0.145  1.00  0.00    -0.175 N 
ATOM      9  H6  UNL     1      -1.973   0.032   0.797  1.00  0.00     0.186 HD
HETATM   10  C13 UNL     1      -2.435  -0.007  -1.176  1.00  0.00     0.143 A 
ENDROOT
BRANCH  10  11
HETATM   11  N7  UNL     1      -3.699   0.053  -1.026  1.00  0.00    -0.341 N 
ATOM     12  H7  UNL     1      -4.267   0.052  -1.873  1.00  0.00     0.167 HD
BRANCH  11  13
HETATM   13  C14 UNL     1      -4.380   0.121   0.201  1.00  0.00     0.033 A 
HETATM   14  C15 UNL     1      -4.352   1.222   1.027  1.00  0.00     0.029 A 
HETATM   15  C16 UNL     1      -5.042   1.247   2.235  1.00  0.00     0.002 A 
HETATM   16  C17 UNL     1      -5.780   0.152   2.635  1.00  0.00     0.000 A 
HETATM   17  C18 UNL     1      -5.817  -0.954   1.820  1.00  0.00     0.002 A 
HETATM   18  C19 UNL     1      -5.121  -0.963   0.614  1.00  0.00     0.029 A 
ENDBRANCH  11  13
ENDBRANCH  10  11
BRANCH   7  19
HETATM   19  N3  UNL     1       0.534  -0.077   0.774  1.00  0.00    -0.192 N 
ATOM     20  H3  UNL     1       0.134  -0.030   1.711  1.00  0.00     0.184 HD
BRANCH  19  21
HETATM   21  C5  UNL     1       1.943  -0.145   0.603  1.00  0.00     0.051 A 
HETATM   22  C6  UNL     1       2.666  -1.313   0.683  1.00  0.00     0.032 A 
HETATM   23  C7  UNL     1       4.036  -1.321   0.508  1.00  0.00     0.034 A 
HETATM   24  C8  UNL     1       4.724  -0.158   0.248  1.00  0.00     0.062 A 
HETATM   25  N4  UNL     1       6.074  -0.154   0.074  1.00  0.00    -0.320 N 
HETATM   26  C11 UNL     1       4.015   1.021   0.165  1.00  0.00     0.061 A 
HETATM   27  C9  UNL     1       6.760   0.975  -0.181  1.00  0.00     0.261 A 
ATOM     28  H4  UNL     1       6.582  -1.036   0.139  1.00  0.00     0.169 HD
HETATM   29  O1  UNL     1       8.016   0.949  -0.338  1.00  0.00    -0.267 OA
HETATM   30  C10 UNL     1       6.038   2.148  -0.262  1.00  0.00     0.163 A 
HETATM   31  N5  UNL     1       4.703   2.152  -0.091  1.00  0.00    -0.359 N 
ATOM     32  H5  UNL     1       4.198   3.035  -0.157  1.00  0.00     0.165 HD
HETATM   33  C12 UNL     1       2.641   1.020   0.341  1.00  0.00     0.061 A 
ENDBRANCH  19  21
ENDBRANCH   7  19
TORSDOF 4
