REMARK  0 active torsions:
REMARK  status: ('A' for Active; 'I' for Inactive)
REMARK       I    between atoms: C1_4  and  N3_6 
REMARK       I    between atoms: C2_8  and  N5_10 
ROOT
HETATM    1  N1  UNL     1       4.121  -1.178  -0.703  1.00  0.00    -0.373 N 
ATOM      2  H11 UNL     1       3.580  -1.110  -1.565  1.00  0.00     0.158 HD
ATOM      3  H12 UNL     1       5.033  -1.632  -0.751  1.00  0.00     0.158 HD
HETATM    4  C1  UNL     1       3.656  -0.707   0.384  1.00  0.00     0.188 C 
HETATM    5  N2  UNL     1       4.417  -0.803   1.596  1.00  0.00    -0.064 NA
HETATM    6  N3  UNL     1       2.403  -0.084   0.450  1.00  0.00    -0.305 N 
ATOM      7  H3  UNL     1       2.196   0.460   1.288  1.00  0.00     0.171 HD
HETATM    8  C2  UNL     1       1.491  -0.139  -0.455  1.00  0.00     0.194 C 
HETATM    9  N4  UNL     1       1.669  -0.871  -1.671  1.00  0.00    -0.063 NA
HETATM   10  N5  UNL     1       0.284   0.560  -0.205  1.00  0.00    -0.323 N 
HETATM   11  C3  UNL     1      -0.025   1.903  -0.646  1.00  0.00     0.158 C 
HETATM   12  C4  UNL     1      -1.226   2.302   0.183  1.00  0.00     0.295 C 
HETATM   13  N6  UNL     1      -1.850   1.063   0.513  1.00  0.00     0.113 N 
HETATM   14  C5  UNL     1      -3.035   0.750  -0.184  1.00  0.00     0.275 C 
HETATM   15  C6  UNL     1      -2.864  -0.014  -1.456  1.00  0.00     0.030 C 
HETATM   16  C7  UNL     1      -2.007  -1.241  -1.279  1.00  0.00     0.005 C 
HETATM   17  C8  UNL     1      -1.310  -1.288   0.043  1.00  0.00     0.058 C 
HETATM   18  C9  UNL     1      -0.837   0.056   0.528  1.00  0.00     0.326 C 
ENDROOT
TORSDOF 0
