REMARK  0 active torsions:
REMARK  status: ('A' for Active; 'I' for Inactive)
REMARK       I    between atoms: C1_4  and  N3_6 
REMARK       I    between atoms: N4_12  and  C7_13 
ROOT
HETATM    1  N1  UNL     1       3.869   0.136   1.789  1.00  0.00    -0.374 N 
ATOM      2  H11 UNL     1       3.183  -0.219   2.455  1.00  0.00     0.158 HD
ATOM      3  H12 UNL     1       4.820   0.392   2.055  1.00  0.00     0.158 HD
HETATM    4  C1  UNL     1       3.502   0.260   0.557  1.00  0.00     0.183 C 
HETATM    5  N2  UNL     1       4.454   0.752  -0.368  1.00  0.00    -0.064 NA
HETATM    6  N3  UNL     1       2.177  -0.097   0.187  1.00  0.00    -0.355 N 
HETATM    7  C2  UNL     1       1.752  -0.357  -1.178  1.00  0.00     0.126 C 
HETATM    8  C3  UNL     1       0.402  -1.012  -1.028  1.00  0.00     0.033 C 
HETATM    9  C4  UNL     1      -0.157  -0.274   0.185  1.00  0.00    -0.005 C 
HETATM   10  C5  UNL     1      -0.630   1.101  -0.153  1.00  0.00     0.033 C 
HETATM   11  C6  UNL     1      -2.121   1.128   0.074  1.00  0.00     0.128 C 
HETATM   12  N4  UNL     1      -2.515  -0.253   0.315  1.00  0.00    -0.336 N 
HETATM   13  C7  UNL     1      -3.811  -0.770   0.118  1.00  0.00     0.330 C 
HETATM   14  N5  UNL     1      -4.856   0.054  -0.345  1.00  0.00    -0.040 NA
HETATM   15  O1  UNL     1      -4.036  -1.972   0.358  1.00  0.00    -0.251 OA
HETATM   16  C8  UNL     1      -1.335  -0.963   0.784  1.00  0.00     0.138 C 
HETATM   17  C9  UNL     1       1.055  -0.258   1.092  1.00  0.00     0.136 C 
ENDROOT
TORSDOF 0
