REMARK  4 active torsions:
REMARK  status: ('A' for Active; 'I' for Inactive)
REMARK    1  A    between atoms: C2_2  and  C3_3 
REMARK    2  A    between atoms: C3_3  and  N1_4 
REMARK    3  A    between atoms: N1_4  and  C4_6 
REMARK    4  A    between atoms: C7_14  and  N4_15 
REMARK       I    between atoms: N4_15  and  C8_17 
ROOT
HETATM    1  C4  UNL     1      -1.930  -0.911  -0.373  1.00  0.00     0.682 A 
HETATM    2  N2  UNL     1      -1.437  -0.473   0.778  1.00  0.00    -0.154 N 
ATOM      3  H2  UNL     1      -2.104  -0.323   1.535  1.00  0.00     0.187 HD
HETATM    4  C5  UNL     1      -0.166  -0.210   1.045  1.00  0.00     0.289 A 
HETATM    5  O1  UNL     1       0.142   0.198   2.186  1.00  0.00    -0.265 OA
HETATM    6  C6  UNL     1       0.802  -0.401   0.024  1.00  0.00     0.138 A 
HETATM    7  N3  UNL     1       2.103  -0.195   0.097  1.00  0.00    -0.330 N 
ATOM      8  H3  UNL     1       2.529   0.141   0.961  1.00  0.00     0.168 HD
HETATM    9  C7  UNL     1       2.848  -0.434  -0.977  1.00  0.00     0.153 A 
HETATM   10  S1  UNL     1       1.705  -0.962  -2.128  1.00  0.00    -0.033 SA
HETATM   11  C10 UNL     1       0.302  -0.851  -1.164  1.00  0.00     0.126 A 
HETATM   12  N5  UNL     1      -1.027  -1.102  -1.369  1.00  0.00    -0.183 N 
ATOM     13  H5  UNL     1      -1.343  -1.436  -2.279  1.00  0.00     0.185 HD
ENDROOT
BRANCH   1  14
HETATM   14  N1  UNL     1      -3.149  -1.166  -0.635  1.00  0.00    -0.223 N 
ATOM     15  H1  UNL     1      -3.380  -1.497  -1.572  1.00  0.00     0.178 HD
BRANCH  14  16
HETATM   16  C3  UNL     1      -4.213  -1.015   0.308  1.00  0.00     0.164 C 
BRANCH  16  17
HETATM   17  C2  UNL     1      -4.750   0.389   0.298  1.00  0.00    -0.017 C 
HETATM   18  C1  UNL     1      -4.276   1.329  -0.494  1.00  0.00     0.008 C 
ENDBRANCH  16  17
ENDBRANCH  14  16
ENDBRANCH   1  14
BRANCH   9  19
HETATM   19  N4  UNL     1       4.152  -0.292  -1.103  1.00  0.00    -0.307 N 
HETATM   20  C8  UNL     1       4.962   0.156  -0.059  1.00  0.00     0.219 C 
HETATM   21  C9  UNL     1       5.445   1.537   0.124  1.00  0.00     0.117 C 
HETATM   22  O2  UNL     1       5.318  -0.702   0.816  1.00  0.00    -0.274 OA
ATOM     23  H4  UNL     1       4.586  -0.518  -1.998  1.00  0.00     0.171 HD
ENDBRANCH   9  19
TORSDOF 4
