REMARK  3 active torsions:
REMARK  status: ('A' for Active; 'I' for Inactive)
REMARK    1  A    between atoms: O1_2  and  C2_3 
REMARK    2  A    between atoms: C2_3  and  C3_5 
REMARK    3  A    between atoms: C3_5  and  C4_6 
ROOT
HETATM    1  C3  UNL     1       1.448   0.783   0.090  1.00  0.00     0.369 C 
HETATM    2  N2  UNL     1       0.346   0.209  -0.657  1.00  0.00    -0.012 N 
ATOM      3  H21 UNL     1       0.555  -0.731  -0.994  1.00  0.00     0.282 HD
ATOM      4  H22 UNL     1       0.215   0.661  -1.562  1.00  0.00     0.282 HD
HETATM    5  C5  UNL     1      -0.846   0.247   0.149  1.00  0.00     0.202 C 
HETATM    6  C6  UNL     1      -1.917   0.793  -0.736  1.00  0.00     0.061 C 
HETATM    7  C7  UNL     1      -3.270   0.419  -0.217  1.00  0.00     0.004 C 
HETATM    8  C8  UNL     1      -3.404  -1.085  -0.385  1.00  0.00     0.000 C 
HETATM    9  C9  UNL     1      -2.277  -1.858   0.200  1.00  0.00     0.004 C 
HETATM   10  C10 UNL     1      -1.182  -1.086   0.790  1.00  0.00     0.061 C 
HETATM   11  N3  UNL     1      -0.513   1.060   1.285  1.00  0.00    -0.325 N 
ATOM     12  H3  UNL     1      -1.160   1.587   1.871  1.00  0.00     0.165 HD
HETATM   13  C11 UNL     1       0.880   0.985   1.427  1.00  0.00     0.276 C 
HETATM   14  O4  UNL     1       1.532   1.033   2.545  1.00  0.00    -0.269 OA
ENDROOT
BRANCH   1  15
HETATM   15  C2  UNL     1       2.673   0.009  -0.073  1.00  0.00     0.314 C 
HETATM   16  O2  UNL     1       3.523   0.482  -0.826  1.00  0.00    -0.261 OA
BRANCH  15  17
HETATM   17  O1  UNL     1       2.808  -1.176   0.536  1.00  0.00    -0.324 OA
HETATM   18  C1  UNL     1       3.914  -2.044   0.404  1.00  0.00     0.213 C 
ENDBRANCH  15  17
ENDBRANCH   1  15
BRANCH   1  19
HETATM   19  C4  UNL     1       1.642   2.236  -0.354  1.00  0.00     0.288 C 
HETATM   20  N1  UNL     1       1.947   2.668  -1.642  1.00  0.00    -0.059 NA
HETATM   21  O3  UNL     1       1.541   3.182   0.510  1.00  0.00    -0.273 OA
ENDBRANCH   1  19
TORSDOF 3
