REMARK  6 active torsions:
REMARK  status: ('A' for Active; 'I' for Inactive)
REMARK    1  A    between atoms: O1_2  and  N1_3 
REMARK    2  A    between atoms: N1_3  and  N2_5 
REMARK    3  A    between atoms: C3_10  and  N4_11 
REMARK    4  A    between atoms: N5_14  and  O2_15 
REMARK    5  A    between atoms: C4_17  and  C5_18 
REMARK    6  A    between atoms: N6_19  and  O3_21 
ROOT
HETATM    1  N2  UNL     1      -0.764  -0.097  -0.473  1.00  0.00    -0.171 N 
HETATM    2  C2  UNL     1      -0.924   1.133  -0.979  1.00  0.00     0.216 C 
HETATM    3  S1  UNL     1      -2.081   1.363  -2.115  1.00  0.00    -0.038 SA
HETATM    4  N3  UNL     1      -0.202   2.213  -0.644  1.00  0.00    -0.162 N 
ATOM      5  H3  UNL     1      -0.626   3.115  -0.861  1.00  0.00     0.187 HD
HETATM    6  C3  UNL     1       1.019   2.263  -0.054  1.00  0.00     0.705 C 
HETATM    7  N5  UNL     1       1.871   1.230   0.204  1.00  0.00    -0.046 N 
HETATM    8  C4  UNL     1       1.598  -0.087   0.241  1.00  0.00     0.168 C 
HETATM    9  C6  UNL     1       0.322  -0.642   0.151  1.00  0.00     0.301 C 
HETATM   10  O4  UNL     1       0.202  -1.748   0.710  1.00  0.00    -0.263 OA
ENDROOT
BRANCH   8  11
HETATM   11  C5  UNL     1       2.701  -1.019   0.382  1.00  0.00     0.152 C 
HETATM   12  N6  UNL     1       2.704  -2.265   0.435  1.00  0.00    -0.278 N 
ATOM     13  H6  UNL     1       1.849  -2.819   0.376  1.00  0.00     0.193 HD
BRANCH  12  14
HETATM   14  O3  UNL     1       3.985  -2.853   0.583  1.00  0.00    -0.290 OA
ATOM     15  H3  UNL     1       3.987  -3.802   0.623  1.00  0.00     0.244 HD
ENDBRANCH  12  14
ENDBRANCH   8  11
BRANCH   7  16
HETATM   16  O2  UNL     1       3.185   1.531   0.450  1.00  0.00    -0.269 OA
ATOM     17  H2  UNL     1       3.779   0.811   0.630  1.00  0.00     0.245 HD
ENDBRANCH   7  16
BRANCH   6  18
HETATM   18  N4  UNL     1       1.433   3.399   0.299  1.00  0.00    -0.232 N 
ATOM     19  H42 UNL     1       0.796   4.172   0.106  1.00  0.00     0.174 HD
ATOM     20  H41 UNL     1       2.351   3.437   0.742  1.00  0.00     0.174 HD
ENDBRANCH   6  18
BRANCH   1  21
HETATM   21  N1  UNL     1      -1.862  -0.928  -0.604  1.00  0.00    -0.196 N 
ATOM     22  H1  UNL     1      -2.152  -1.272  -1.519  1.00  0.00     0.216 HD
BRANCH  21  23
HETATM   23  O1  UNL     1      -2.530  -1.267   0.497  1.00  0.00    -0.269 OA
HETATM   24  C1  UNL     1      -3.881  -1.050   0.303  1.00  0.00     0.239 C 
ENDBRANCH  21  23
ENDBRANCH   1  21
TORSDOF 6
