REMARK  10 active torsions:
REMARK  status: ('A' for Active; 'I' for Inactive)
REMARK    1  A    between atoms: C3_4  and  C4_5 
REMARK    2  A    between atoms: C4_5  and  O1_6 
REMARK    3  A    between atoms: C4_5  and  N2_8 
REMARK    4  A    between atoms: N2_8  and  N3_10 
REMARK    5  A    between atoms: N3_10  and  N4_11 
REMARK    6  A    between atoms: N5_14  and  C5_15 
REMARK    7  A    between atoms: C7_19  and  C8_20 
REMARK    8  A    between atoms: C8_20  and  O2_21 
REMARK    9  A    between atoms: C8_20  and  C9_23 
REMARK   10  A    between atoms: C9_23  and  O3_24 
ROOT
HETATM    1  N1  UNL     1      -5.704  -0.566  -0.011  1.00  0.00    -0.191 NA
HETATM    2  C1  UNL     1      -4.667  -0.909  -0.430  1.00  0.00     0.107 C 
HETATM    3  C2  UNL     1      -3.429  -1.338  -0.976  1.00  0.00     0.144 A 
HETATM    4  C3  UNL     1      -2.209  -0.828  -0.500  1.00  0.00     0.140 A 
HETATM    5  N5  UNL     1      -1.103  -1.275  -1.089  1.00  0.00    -0.088 N 
HETATM    6  C10 UNL     1      -1.168  -2.184  -2.108  1.00  0.00     0.348 A 
HETATM    7  O4  UNL     1      -0.100  -2.564  -2.620  1.00  0.00    -0.245 OA
HETATM    8  N9  UNL     1      -2.321  -2.662  -2.554  1.00  0.00    -0.273 N 
ATOM      9  H9  UNL     1      -2.326  -3.339  -3.317  1.00  0.00     0.173 HD
HETATM   10  C11 UNL     1      -3.481  -2.264  -2.013  1.00  0.00     0.272 A 
HETATM   11  O5  UNL     1      -4.592  -2.715  -2.431  1.00  0.00    -0.266 OA
ENDROOT
BRANCH   4  12
HETATM   12  C4  UNL     1      -2.217   0.094   0.611  1.00  0.00     0.183 C 
BRANCH  12  13
HETATM   13  O1  UNL     1      -3.241  -0.114   1.417  1.00  0.00    -0.344 OA
ATOM     14  H1  UNL     1      -3.246   0.493   2.148  1.00  0.00     0.219 HD
ENDBRANCH  12  13
BRANCH  12  15
HETATM   15  N2  UNL     1      -1.352   1.125   0.943  1.00  0.00    -0.262 N 
ATOM     16  H2  UNL     1      -0.553   1.332   0.344  1.00  0.00     0.186 HD
BRANCH  15  17
HETATM   17  N3  UNL     1      -1.578   1.895   2.118  1.00  0.00    -0.028 NA
BRANCH  17  18
HETATM   18  N4  UNL     1      -2.594   2.813   1.955  1.00  0.00    -0.329 N 
ATOM     19  H42 UNL     1      -3.115   2.916   1.084  1.00  0.00     0.174 HD
ATOM     20  H41 UNL     1      -2.756   3.365   2.797  1.00  0.00     0.174 HD
ENDBRANCH  17  18
ENDBRANCH  15  17
ENDBRANCH  12  15
ENDBRANCH   4  12
BRANCH   5  21
HETATM   21  C5  UNL     1       0.212  -0.881  -0.680  1.00  0.00     0.708 A 
HETATM   22  N6  UNL     1       0.753  -1.193   0.495  1.00  0.00    -0.198 N 
HETATM   23  C6  UNL     1       2.012  -0.798   0.766  1.00  0.00     0.135 A 
ATOM     24  H6  UNL     1       0.220  -1.725   1.183  1.00  0.00     0.183 HD
HETATM   25  C7  UNL     1       2.762  -0.080  -0.138  1.00  0.00     0.073 A 
HETATM   26  N7  UNL     1       2.174   0.216  -1.330  1.00  0.00    -0.287 N 
HETATM   27  N8  UNL     1       0.940  -0.176  -1.581  1.00  0.00    -0.131 N 
ATOM     28  H7  UNL     1       2.691   0.744  -2.033  1.00  0.00     0.187 HD
ATOM     29  H8  UNL     1       0.520   0.058  -2.481  1.00  0.00     0.205 HD
BRANCH  25  30
HETATM   30  C8  UNL     1       4.135   0.367   0.145  1.00  0.00     0.194 C 
BRANCH  30  31
HETATM   31  O2  UNL     1       4.926  -0.615   0.717  1.00  0.00    -0.387 OA
ATOM     32  H2  UNL     1       5.812  -0.326   0.900  1.00  0.00     0.210 HD
ENDBRANCH  30  31
BRANCH  30  33
HETATM   33  C9  UNL     1       4.113   1.611   0.993  1.00  0.00     0.202 C 
BRANCH  33  34
HETATM   34  O3  UNL     1       3.291   2.546   0.333  1.00  0.00    -0.398 OA
ATOM     35  H3  UNL     1       3.277   3.331   0.868  1.00  0.00     0.209 HD
ENDBRANCH  33  34
ENDBRANCH  30  33
ENDBRANCH  25  30
ENDBRANCH   5  21
TORSDOF 10
