REMARK  6 active torsions:
REMARK  status: ('A' for Active; 'I' for Inactive)
REMARK       I    between atoms: N1_1  and  C1_5 
REMARK       I    between atoms: C1_5  and  N2_6 
REMARK       I    between atoms: C1_5  and  N3_10 
REMARK       I    between atoms: N3_10  and  C2_12 
REMARK    1  A    between atoms: C2_12  and  C3_14 
REMARK    2  A    between atoms: C4_18  and  O2_19 
REMARK    3  A    between atoms: C5_21  and  O3_22 
REMARK    4  A    between atoms: C6_24  and  N5_25 
REMARK    5  A    between atoms: C7_26  and  N6_27 
REMARK    6  A    between atoms: N6_27  and  O4_29 
ROOT
HETATM    1  C3  UNL     1       0.983  -1.204  -0.033  1.00  0.00     0.419 C 
HETATM    2  N4  UNL     1       0.578  -2.197   0.935  1.00  0.00    -0.011 N 
ATOM      3  H41 UNL     1       0.395  -1.760   1.838  1.00  0.00     0.284 HD
ATOM      4  H42 UNL     1       1.367  -2.792   1.187  1.00  0.00     0.284 HD
HETATM    5  C4  UNL     1      -0.535  -2.991   0.531  1.00  0.00     0.355 C 
HETATM    6  C5  UNL     1      -1.459  -2.110  -0.333  1.00  0.00     0.223 C 
HETATM    7  C6  UNL     1      -1.265  -0.733   0.161  1.00  0.00     0.270 C 
HETATM    8  O7  UNL     1      -0.001  -0.236  -0.232  1.00  0.00    -0.323 OA
ENDROOT
BRANCH   1   9
HETATM    9  C2  UNL     1       2.150  -0.474   0.584  1.00  0.00     0.277 C 
HETATM   10  N3  UNL     1       2.746   0.575  -0.185  1.00  0.00    -0.308 N 
HETATM   11  C1  UNL     1       3.867   1.309   0.357  1.00  0.00     0.482 C 
ATOM     12  H3  UNL     1       2.382   0.803  -1.110  1.00  0.00     0.166 HD
HETATM   13  N1  UNL     1       5.025   1.273  -0.477  1.00  0.00    -0.033 N 
HETATM   14  N2  UNL     1       3.468   2.702   0.534  1.00  0.00    -0.033 N 
ATOM     15  H13 UNL     1       4.884   1.756  -1.364  1.00  0.00     0.278 HD
ATOM     16  H12 UNL     1       5.783   1.855  -0.120  1.00  0.00     0.278 HD
ATOM     17  H11 UNL     1       5.304   0.300  -0.601  1.00  0.00     0.278 HD
ATOM     18  H23 UNL     1       4.226   3.284   0.891  1.00  0.00     0.278 HD
ATOM     19  H22 UNL     1       3.327   3.185  -0.353  1.00  0.00     0.278 HD
ATOM     20  H21 UNL     1       2.641   2.728   1.130  1.00  0.00     0.278 HD
HETATM   21  O1  UNL     1       2.600  -0.751   1.716  1.00  0.00    -0.269 OA
ENDBRANCH   1   9
BRANCH   5  22
HETATM   22  O2  UNL     1      -0.219  -4.100  -0.219  1.00  0.00    -0.368 OA
ATOM     23  H2  UNL     1      -0.961  -4.629  -0.488  1.00  0.00     0.212 HD
ENDBRANCH   5  22
BRANCH   7  24
HETATM   24  N5  UNL     1      -2.263   0.239  -0.066  1.00  0.00    -0.253 N 
HETATM   25  C7  UNL     1      -2.165   1.387   0.651  1.00  0.00     0.138 A 
HETATM   26  C8  UNL     1      -3.083   2.408   0.513  1.00  0.00     0.125 A 
HETATM   27  C9  UNL     1      -4.138   2.273  -0.376  1.00  0.00     0.252 A 
HETATM   28  O5  UNL     1      -5.001   3.198  -0.524  1.00  0.00    -0.268 OA
HETATM   29  N7  UNL     1      -4.207   1.127  -1.069  1.00  0.00    -0.275 N 
HETATM   30  C10 UNL     1      -3.287   0.131  -0.916  1.00  0.00     0.333 A 
ATOM     31  H7  UNL     1      -4.971   0.996  -1.731  1.00  0.00     0.173 HD
HETATM   32  O6  UNL     1      -3.477  -0.892  -1.634  1.00  0.00    -0.246 OA
BRANCH  25  33
HETATM   33  N6  UNL     1      -1.115   1.613   1.587  1.00  0.00    -0.253 N 
ATOM     34  H6  UNL     1      -0.948   0.912   2.309  1.00  0.00     0.196 HD
BRANCH  33  35
HETATM   35  O4  UNL     1      -0.394   2.623   1.565  1.00  0.00    -0.288 OA
ATOM     36  H4  UNL     1       0.306   2.774   2.189  1.00  0.00     0.244 HD
ENDBRANCH  33  35
ENDBRANCH  25  33
ENDBRANCH   7  24
BRANCH   6  37
HETATM   37  O3  UNL     1      -1.001  -2.314  -1.637  1.00  0.00    -0.387 OA
ATOM     38  H3  UNL     1      -1.570  -1.771  -2.169  1.00  0.00     0.210 HD
ENDBRANCH   6  37
TORSDOF 6
