REMARK  12 active torsions:
REMARK  status: ('A' for Active; 'I' for Inactive)
REMARK    1  A    between atoms: C2_2  and  C3_3 
REMARK       I    between atoms: C3_3  and  N1_5 
REMARK    2  A    between atoms: N1_5  and  C4_7 
REMARK    3  A    between atoms: C6_9  and  C7_10 
REMARK    4  A    between atoms: C7_10  and  C9_12 
REMARK    5  A    between atoms: C9_12  and  C10_13 
REMARK    6  A    between atoms: C10_13  and  C11_14 
REMARK    7  A    between atoms: C18_22  and  C19_23 
REMARK    8  A    between atoms: C19_23  and  C20_24 
REMARK    9  A    between atoms: C26_32  and  O5_33 
REMARK   10  A    between atoms: O5_33  and  C27_34 
REMARK   11  A    between atoms: C27_34  and  C28_36 
REMARK   12  A    between atoms: C28_36  and  C30_38 
ROOT
HETATM    1  C4  UNL     1       0.436  -1.340   0.326  1.00  0.00     0.134 C 
HETATM    2  C5  UNL     1      -0.075   0.041   0.449  1.00  0.00     0.038 C 
HETATM    3  C6  UNL     1       0.713   1.161  -0.212  1.00  0.00     0.022 C 
HETATM    4  C15 UNL     1      -0.480   1.430  -1.055  1.00  0.00     0.030 C 
HETATM    5  C16 UNL     1      -1.197   0.197  -0.570  1.00  0.00     0.058 C 
HETATM    6  C17 UNL     1      -1.051  -0.999  -1.409  1.00  0.00     0.176 C 
HETATM    7  O2  UNL     1      -1.240  -1.083  -2.590  1.00  0.00    -0.294 OA
HETATM    8  C18 UNL     1      -0.623  -2.076  -0.494  1.00  0.00     0.155 C 
HETATM    9  O3  UNL     1      -1.680  -2.416   0.417  1.00  0.00    -0.300 OA
HETATM   10  C24 UNL     1      -2.999  -1.996   0.328  1.00  0.00     0.262 C 
HETATM   11  O4  UNL     1      -3.862  -2.730   0.869  1.00  0.00    -0.265 OA
HETATM   12  C25 UNL     1      -3.459  -0.763  -0.348  1.00  0.00     0.144 C 
HETATM   13  C26 UNL     1      -2.550   0.423   0.005  1.00  0.00     0.157 C 
ENDROOT
BRANCH   3  14
HETATM   14  C7  UNL     1       1.955   0.767  -0.850  1.00  0.00    -0.084 C 
HETATM   15  C8  UNL     1       2.078   0.580  -2.142  1.00  0.00     0.014 C 
BRANCH  14  16
HETATM   16  C9  UNL     1       3.193   0.578  -0.016  1.00  0.00     0.037 C 
BRANCH  16  17
HETATM   17  C10 UNL     1       3.564   1.886   0.673  1.00  0.00     0.031 C 
BRANCH  17  18
HETATM   18  C11 UNL     1       4.792   1.619   1.470  1.00  0.00    -0.024 C 
HETATM   19  C12 UNL     1       5.916   2.262   1.251  1.00  0.00    -0.091 C 
HETATM   20  C13 UNL     1       7.119   1.958   2.077  1.00  0.00     0.042 C 
HETATM   21  C14 UNL     1       5.962   3.286   0.172  1.00  0.00     0.042 C 
ENDBRANCH  17  18
ENDBRANCH  16  17
ENDBRANCH  14  16
ENDBRANCH   3  14
BRANCH   1  22
HETATM   22  N1  UNL     1       0.647  -2.012   1.591  1.00  0.00    -0.349 N 
HETATM   23  C3  UNL     1       1.741  -2.774   1.972  1.00  0.00     0.240 C 
HETATM   24  O1  UNL     1       2.701  -2.958   1.196  1.00  0.00    -0.269 OA
ATOM     25  H1  UNL     1      -0.096  -1.913   2.283  1.00  0.00     0.163 HD
BRANCH  23  26
HETATM   26  C2  UNL     1       1.788  -3.378   3.292  1.00  0.00     0.064 C 
HETATM   27  C1  UNL     1       2.794  -4.111   3.718  1.00  0.00     0.017 C 
ENDBRANCH  23  26
ENDBRANCH   1  22
BRANCH   8  28
HETATM   28  C19 UNL     1      -0.063  -3.289  -1.156  1.00  0.00     0.076 C 
BRANCH  28  29
HETATM   29  C20 UNL     1      -1.158  -3.973  -1.937  1.00  0.00    -0.021 C 
HETATM   30  C21 UNL     1      -1.527  -5.207  -1.657  1.00  0.00    -0.091 C 
HETATM   31  C22 UNL     1      -2.598  -5.856  -2.430  1.00  0.00     0.042 C 
HETATM   32  C23 UNL     1      -0.860  -5.933  -0.559  1.00  0.00     0.042 C 
ENDBRANCH  28  29
ENDBRANCH   8  28
BRANCH  13  33
HETATM   33  O5  UNL     1      -3.218   1.559  -0.545  1.00  0.00    -0.314 OA
BRANCH  33  34
HETATM   34  C27 UNL     1      -3.738   2.561   0.252  1.00  0.00     0.263 C 
HETATM   35  O6  UNL     1      -3.590   2.417   1.497  1.00  0.00    -0.265 OA
BRANCH  34  36
HETATM   36  C28 UNL     1      -4.432   3.750  -0.245  1.00  0.00     0.081 C 
HETATM   37  C29 UNL     1      -4.894   4.627   0.897  1.00  0.00     0.020 C 
BRANCH  36  38
HETATM   38  C30 UNL     1      -3.600   4.601  -1.180  1.00  0.00     0.010 C 
HETATM   39  C31 UNL     1      -4.483   5.780  -1.590  1.00  0.00     0.006 C 
ENDBRANCH  36  38
ENDBRANCH  34  36
ENDBRANCH  33  34
ENDBRANCH  13  33
TORSDOF 12
