REMARK  5 active torsions:
REMARK  status: ('A' for Active; 'I' for Inactive)
REMARK    1  A    between atoms: C3_3  and  C4_4 
REMARK    2  A    between atoms: C4_4  and  N1_5 
REMARK    3  A    between atoms: N1_5  and  C5_7 
REMARK    4  A    between atoms: C5_7  and  C6_9 
REMARK    5  A    between atoms: C6_9  and  N2_10 
ROOT
HETATM    1  C1  UNL     1      -3.266   2.085   0.588  1.00  0.00     0.012 C 
HETATM    2  C2  UNL     1      -3.192   0.880   0.593  1.00  0.00    -0.116 C 
HETATM    3  C3  UNL     1      -3.086  -0.603   0.595  1.00  0.00     0.112 C 
ENDROOT
BRANCH   3   4
HETATM    4  C4  UNL     1      -2.684  -0.990  -0.803  1.00  0.00     0.132 C 
BRANCH   4   5
HETATM    5  N1  UNL     1      -1.424  -0.362  -1.111  1.00  0.00    -0.382 N 
ATOM      6  H1  UNL     1      -1.432   0.404  -1.785  1.00  0.00     0.160 HD
BRANCH   5   7
HETATM    7  C5  UNL     1      -0.182  -0.724  -0.554  1.00  0.00     0.091 C 
HETATM    8  S1  UNL     1      -0.076  -1.959   0.495  1.00  0.00    -0.064 SA
BRANCH   7   9
HETATM    9  C6  UNL     1       1.065   0.011  -0.937  1.00  0.00     0.191 C 
BRANCH   9  10
HETATM   10  N2  UNL     1       2.228  -0.583  -0.346  1.00  0.00    -0.360 N 
HETATM   11  C7  UNL     1       3.114  -0.045   0.377  1.00  0.00     0.197 C 
HETATM   12  N3  UNL     1       4.229  -0.797   0.894  1.00  0.00    -0.067 NA
HETATM   13  N4  UNL     1       3.041   1.327   0.705  1.00  0.00    -0.067 NA
ATOM     14  H2  UNL     1       2.358  -1.577  -0.535  1.00  0.00     0.162 HD
ENDBRANCH   9  10
ENDBRANCH   7   9
ENDBRANCH   5   7
ENDBRANCH   4   5
ENDBRANCH   3   4
TORSDOF 5
