REMARK  9 active torsions:
REMARK  status: ('A' for Active; 'I' for Inactive)
REMARK    1  A    between atoms: C6_7  and  C7_8 
REMARK    2  A    between atoms: C7_8  and  N1_9 
REMARK    3  A    between atoms: N1_9  and  C8_10 
REMARK    4  A    between atoms: C9_13  and  N3_14 
REMARK    5  A    between atoms: N3_14  and  C10_16 
REMARK    6  A    between atoms: C10_16  and  C11_17 
REMARK    7  A    between atoms: N4_20  and  C14_21 
REMARK    8  A    between atoms: C14_21  and  C15_22 
REMARK    9  A    between atoms: N6_32  and  C23_34 
ROOT
HETATM    1  C8  UNL     1      -3.291  -1.633  -0.138  1.00  0.00     0.287 A 
HETATM    2  N2  UNL     1      -1.972  -1.578  -0.528  1.00  0.00    -0.148 N 
ATOM      3  H2  UNL     1      -1.515  -2.427  -0.860  1.00  0.00     0.188 HD
HETATM    4  C9  UNL     1      -1.276  -0.436  -0.482  1.00  0.00     0.696 A 
HETATM    5  N5  UNL     1      -1.892   0.659  -0.056  1.00  0.00    -0.022 N 
ATOM      6  H5  UNL     1      -1.351   1.523  -0.028  1.00  0.00     0.203 HD
HETATM    7  C22 UNL     1      -3.168   0.717   0.340  1.00  0.00     0.696 A 
HETATM    8  N6  UNL     1      -3.873   1.739   0.441  1.00  0.00    -0.221 N 
ATOM      9  H6  UNL     1      -4.813   1.559   0.792  1.00  0.00     0.178 HD
HETATM   10  N7  UNL     1      -3.854  -0.507   0.289  1.00  0.00    -0.148 N 
ATOM     11  H7  UNL     1      -4.827  -0.533   0.593  1.00  0.00     0.188 HD
ENDROOT
BRANCH   4  12
HETATM   12  N3  UNL     1      -0.070  -0.587  -0.831  1.00  0.00    -0.225 N 
ATOM     13  H3  UNL     1       0.188  -1.537  -1.096  1.00  0.00     0.177 HD
BRANCH  12  14
HETATM   14  C10 UNL     1       0.958   0.348  -0.908  1.00  0.00     0.143 C 
BRANCH  14  15
HETATM   15  C11 UNL     1       2.256  -0.456  -1.114  1.00  0.00     0.010 C 
HETATM   16  C12 UNL     1       2.554  -1.357   0.011  1.00  0.00     0.051 C 
HETATM   17  C13 UNL     1       3.826  -1.010   0.743  1.00  0.00     0.063 C 
HETATM   18  N4  UNL     1       4.911  -0.644  -0.073  1.00  0.00    -0.373 N 
HETATM   19  C20 UNL     1       4.623  -0.261  -1.418  1.00  0.00     0.127 C 
HETATM   20  C21 UNL     1       3.346   0.541  -1.371  1.00  0.00     0.027 C 
BRANCH  18  21
HETATM   21  C14 UNL     1       6.204  -1.075   0.202  1.00  0.00     0.067 C 
BRANCH  21  22
HETATM   22  C15 UNL     1       7.261  -0.358  -0.603  1.00  0.00     0.024 C 
HETATM   23  C16 UNL     1       7.179   1.138  -0.273  1.00  0.00     0.010 C 
HETATM   24  C17 UNL     1       7.967   1.336   0.991  1.00  0.00     0.001 C 
HETATM   25  C18 UNL     1       8.715   0.072   1.269  1.00  0.00     0.001 C 
HETATM   26  C19 UNL     1       8.609  -0.707  -0.028  1.00  0.00     0.010 C 
ENDBRANCH  21  22
ENDBRANCH  18  21
ENDBRANCH  14  15
ENDBRANCH  12  14
ENDBRANCH   4  12
BRANCH   1  27
HETATM   27  N1  UNL     1      -3.850  -2.682  -0.343  1.00  0.00    -0.382 NA
BRANCH  27  28
HETATM   28  C7  UNL     1      -4.501  -3.860  -0.566  1.00  0.00     0.201 C 
BRANCH  28  29
HETATM   29  C6  UNL     1      -5.183  -4.110   0.776  1.00  0.00     0.031 A 
HETATM   30  C1  UNL     1      -6.513  -4.264   0.790  1.00  0.00     0.129 A 
HETATM   31  F1  UNL     1      -7.197  -4.307  -0.366  1.00  0.00    -0.205 F 
HETATM   32  C2  UNL     1      -7.152  -4.366   2.030  1.00  0.00     0.043 A 
HETATM   33  C3  UNL     1      -6.375  -4.302   3.178  1.00  0.00     0.003 A 
HETATM   34  C4  UNL     1      -5.026  -4.155   3.139  1.00  0.00     0.001 A 
HETATM   35  C5  UNL     1      -4.387  -4.051   1.862  1.00  0.00     0.017 A 
ENDBRANCH  28  29
ENDBRANCH  27  28
ENDBRANCH   1  27
BRANCH   8  36
HETATM   36  C23 UNL     1      -3.611   3.136   0.154  1.00  0.00     0.099 C 
HETATM   37  C24 UNL     1      -4.750   3.919   0.719  1.00  0.00     0.026 C 
HETATM   38  C25 UNL     1      -5.717   4.503  -0.260  1.00  0.00     0.002 C 
HETATM   39  C26 UNL     1      -5.034   5.165  -1.450  1.00  0.00     0.000 C 
HETATM   40  C27 UNL     1      -4.105   4.236  -2.138  1.00  0.00     0.002 C 
HETATM   41  C28 UNL     1      -3.614   3.125  -1.377  1.00  0.00     0.026 C 
ENDBRANCH   8  36
TORSDOF 9
