REMARK  4 active torsions:
REMARK  status: ('A' for Active; 'I' for Inactive)
REMARK    1  A    between atoms: C2_2  and  C3_3 
REMARK    2  A    between atoms: N1_9  and  C9_10 
REMARK    3  A    between atoms: C9_10  and  C10_11 
REMARK    4  A    between atoms: C13_14  and  C14_15 
ROOT
HETATM    1  C3  UNL     1      -1.947  -1.193  -0.126  1.00  0.00     0.014 C 
HETATM    2  C4  UNL     1      -2.940  -1.487   1.016  1.00  0.00     0.013 C 
HETATM    3  C5  UNL     1      -4.270  -0.866   0.785  1.00  0.00     0.001 C 
HETATM    4  C6  UNL     1      -4.017   0.571   0.380  1.00  0.00     0.002 C 
HETATM    5  C7  UNL     1      -2.593   0.993   0.673  1.00  0.00     0.037 C 
HETATM    6  C8  UNL     1      -1.661   0.222  -0.274  1.00  0.00     0.235 C 
HETATM    7  N1  UNL     1      -0.278   0.725  -0.117  1.00  0.00     0.125 N 
HETATM    8  C13 UNL     1       0.622  -0.301   0.123  1.00  0.00     0.424 C 
HETATM    9  N2  UNL     1       0.293  -1.560  -0.589  1.00  0.00    -0.042 N 
ATOM     10  H21 UNL     1       1.084  -2.191  -0.714  1.00  0.00     0.279 HD
ATOM     11  H22 UNL     1       0.090  -1.441  -1.582  1.00  0.00     0.279 HD
HETATM   12  C20 UNL     1      -0.794  -2.115   0.177  1.00  0.00     0.246 C 
ENDROOT
BRANCH   8  13
HETATM   13  C14 UNL     1       2.065  -0.255   0.186  1.00  0.00     0.047 C 
HETATM   14  C15 UNL     1       2.652   0.468   1.376  1.00  0.00     0.008 C 
HETATM   15  C16 UNL     1       4.151   0.612   1.181  1.00  0.00     0.000 C 
HETATM   16  C17 UNL     1       4.720  -0.779   1.341  1.00  0.00     0.000 C 
HETATM   17  C18 UNL     1       4.156  -1.626   0.227  1.00  0.00     0.000 C 
HETATM   18  C19 UNL     1       2.653  -1.695   0.337  1.00  0.00     0.008 C 
ENDBRANCH   8  13
BRANCH   7  19
HETATM   19  C9  UNL     1      -0.091   1.719  -1.111  1.00  0.00     0.279 C 
BRANCH  19  20
HETATM   20  C10 UNL     1       1.041   2.648  -1.103  1.00  0.00     0.006 C 
HETATM   21  C11 UNL     1       0.989   3.610  -2.327  1.00  0.00     0.011 C 
HETATM   22  C12 UNL     1       0.957   3.687   0.037  1.00  0.00     0.011 C 
ENDBRANCH  19  20
ENDBRANCH   7  19
BRANCH   1  23
HETATM   23  C2  UNL     1      -2.597  -1.736  -1.393  1.00  0.00     0.009 C 
HETATM   24  C1  UNL     1      -2.888  -3.188  -1.392  1.00  0.00     0.006 C 
ENDBRANCH   1  23
TORSDOF 4
