REMARK  5 active torsions:
REMARK  status: ('A' for Active; 'I' for Inactive)
REMARK    1  A    between atoms: C14_14  and  C15_15 
REMARK    2  A    between atoms: C15_15  and  C16_16 
REMARK    3  A    between atoms: C16_16  and  C17_17 
REMARK    4  A    between atoms: C17_17  and  C18_18 
REMARK    5  A    between atoms: C18_18  and  O1_19 
ROOT
HETATM    1  C1  UNL     1       3.630   1.975   0.500  1.00  0.00     0.015 C 
HETATM    2  C2  UNL     1       2.947   1.139  -0.589  1.00  0.00    -0.048 C 
HETATM    3  C3  UNL     1       3.761   1.362  -1.859  1.00  0.00     0.015 C 
HETATM    4  C4  UNL     1       1.556   1.579  -0.855  1.00  0.00     0.009 C 
HETATM    5  C5  UNL     1       0.612   0.450  -1.259  1.00  0.00     0.007 C 
HETATM    6  C6  UNL     1       0.042  -0.102  -0.007  1.00  0.00     0.003 C 
HETATM    7  C7  UNL     1       0.919  -1.216   0.581  1.00  0.00    -0.035 C 
HETATM    8  C8  UNL     1       2.273  -0.707   0.975  1.00  0.00     0.011 C 
HETATM    9  C9  UNL     1       3.104  -0.298  -0.188  1.00  0.00     0.009 C 
HETATM   10  C10 UNL     1       1.014  -2.419  -0.279  1.00  0.00     0.014 C 
HETATM   11  C11 UNL     1      -0.241  -3.190  -0.469  1.00  0.00    -0.013 C 
HETATM   12  C12 UNL     1      -1.005  -2.641  -1.654  1.00  0.00     0.005 C 
HETATM   13  C13 UNL     1      -1.693  -1.349  -1.325  1.00  0.00     0.011 C 
HETATM   14  C14 UNL     1      -1.290  -0.726  -0.040  1.00  0.00    -0.032 C 
HETATM   15  C19 UNL     1      -1.260  -1.698   1.131  1.00  0.00    -0.005 C 
HETATM   16  C20 UNL     1      -1.196  -3.131   0.685  1.00  0.00     0.010 C 
HETATM   17  C21 UNL     1       0.068  -1.457   1.827  1.00  0.00     0.015 C 
ENDROOT
BRANCH  14  18
HETATM   18  C15 UNL     1      -2.386   0.277   0.363  1.00  0.00     0.010 C 
BRANCH  18  19
HETATM   19  C16 UNL     1      -2.470   1.459  -0.495  1.00  0.00     0.003 C 
BRANCH  19  20
HETATM   20  C17 UNL     1      -3.554   2.454  -0.201  1.00  0.00     0.026 C 
BRANCH  20  21
HETATM   21  C18 UNL     1      -3.518   3.094   1.152  1.00  0.00     0.164 C 
BRANCH  21  22
HETATM   22  O1  UNL     1      -3.651   2.217   2.208  1.00  0.00    -0.401 OA
ATOM     23  H1  UNL     1      -3.628   2.623   3.067  1.00  0.00     0.209 HD
ENDBRANCH  21  22
ENDBRANCH  20  21
ENDBRANCH  19  20
ENDBRANCH  18  19
ENDBRANCH  14  18
TORSDOF 5
