REMARK  2 active torsions:
REMARK  status: ('A' for Active; 'I' for Inactive)
REMARK       I    between atoms: N1_2  and  C2_4 
REMARK       I    between atoms: C2_4  and  N2_6 
REMARK    1  A    between atoms: N2_6  and  C3_8 
REMARK    2  A    between atoms: C7_14  and  N4_15 
ROOT
HETATM    1  C3  UNL     1       3.611  -0.609   0.597  1.00  0.00     0.687 A 
HETATM    2  N3  UNL     1       3.271   0.260  -0.368  1.00  0.00    -0.189 N 
ATOM      3  H3  UNL     1       3.846   1.036  -0.697  1.00  0.00     0.184 HD
HETATM    4  C4  UNL     1       2.050  -0.059  -0.830  1.00  0.00     0.076 A 
HETATM    5  C5  UNL     1       1.248   0.509  -1.814  1.00  0.00     0.034 A 
HETATM    6  C6  UNL     1       0.035  -0.068  -2.047  1.00  0.00     0.032 A 
HETATM    7  C7  UNL     1      -0.441  -1.181  -1.363  1.00  0.00     0.035 A 
HETATM    8  C15 UNL     1       0.363  -1.723  -0.402  1.00  0.00     0.061 A 
HETATM    9  C16 UNL     1       1.609  -1.165  -0.134  1.00  0.00     0.078 A 
HETATM   10  N9  UNL     1       2.582  -1.464   0.718  1.00  0.00    -0.189 N 
ATOM     11  H9  UNL     1       2.552  -2.241   1.378  1.00  0.00     0.184 HD
ENDROOT
BRANCH   7  12
HETATM   12  N4  UNL     1      -1.713  -1.662  -1.715  1.00  0.00    -0.353 N 
HETATM   13  C8  UNL     1      -2.826  -1.323  -1.235  1.00  0.00     0.087 A 
HETATM   14  C9  UNL     1      -3.983  -1.898  -1.698  1.00  0.00     0.051 A 
HETATM   15  C12 UNL     1      -2.897  -0.375  -0.242  1.00  0.00     0.108 A 
HETATM   16  C10 UNL     1      -3.992  -2.935  -2.775  1.00  0.00     0.072 C 
HETATM   17  N5  UNL     1      -5.135  -1.485  -1.135  1.00  0.00    -0.301 N 
HETATM   18  N6  UNL     1      -5.219  -0.583  -0.188  1.00  0.00    -0.283 N 
ATOM     19  H5  UNL     1      -6.003  -1.904  -1.469  1.00  0.00     0.186 HD
HETATM   20  C11 UNL     1      -4.114   0.007   0.297  1.00  0.00     0.152 A 
ATOM     21  H6  UNL     1      -6.133  -0.326   0.185  1.00  0.00     0.188 HD
HETATM   22  N8  UNL     1      -3.924   0.947   1.251  1.00  0.00    -0.331 N 
HETATM   23  C13 UNL     1      -2.597   1.165   1.324  1.00  0.00     0.184 A 
HETATM   24  C14 UNL     1      -4.980   1.574   2.026  1.00  0.00     0.158 C 
HETATM   25  N7  UNL     1      -1.984   0.375   0.432  1.00  0.00    -0.347 N 
ATOM     26  H7  UNL     1      -0.976   0.341   0.280  1.00  0.00     0.167 HD
ATOM     27  H4  UNL     1      -1.738  -2.371  -2.448  1.00  0.00     0.166 HD
ENDBRANCH   7  12
BRANCH   1  28
HETATM   28  N2  UNL     1       4.722  -0.597   1.260  1.00  0.00    -0.141 N 
HETATM   29  C2  UNL     1       5.703   0.395   0.990  1.00  0.00     0.334 C 
HETATM   30  N1  UNL     1       6.129   1.233   2.043  1.00  0.00    -0.347 N 
HETATM   31  O1  UNL     1       6.207   0.555  -0.152  1.00  0.00    -0.247 OA
HETATM   32  C1  UNL     1       7.125   2.243   1.780  1.00  0.00     0.151 C 
ATOM     33  H1  UNL     1       5.737   1.126   2.979  1.00  0.00     0.163 HD
ATOM     34  H2  UNL     1       4.894  -1.301   1.978  1.00  0.00     0.189 HD
ENDBRANCH   1  28
TORSDOF 2
