REMARK  13 active torsions:
REMARK  status: ('A' for Active; 'I' for Inactive)
REMARK    1  A    between atoms: C3_3  and  O1_4 
REMARK    2  A    between atoms: C7_9  and  C8_10 
REMARK    3  A    between atoms: C8_10  and  S1_11 
REMARK    4  A    between atoms: S1_11  and  C9_12 
REMARK    5  A    between atoms: C9_12  and  S2_18 
REMARK    6  A    between atoms: N1_13  and  N2_15 
REMARK    7  A    between atoms: S2_18  and  C10_19 
REMARK    8  A    between atoms: C10_19  and  C11_20 
REMARK    9  A    between atoms: C11_20  and  C12_21 
REMARK   10  A    between atoms: C12_21  and  C13_22 
REMARK   11  A    between atoms: C13_22  and  N3_23 
REMARK   12  A    between atoms: C14_27  and  O2_28 
REMARK   13  A    between atoms: C17_35  and  O4_36 
ROOT
HETATM    1  C1  UNL     1      -6.920   0.274   1.543  1.00  0.00     0.054 C 
HETATM    2  C2  UNL     1      -5.686  -0.023   0.763  1.00  0.00     0.007 A 
HETATM    3  C3  UNL     1      -4.654  -0.753   1.263  1.00  0.00     0.081 A 
HETATM    4  C4  UNL     1      -3.435  -0.901   0.567  1.00  0.00    -0.015 A 
HETATM    5  C5  UNL     1      -2.418  -1.806   1.069  1.00  0.00     0.052 C 
HETATM    6  C6  UNL     1      -3.314  -0.278  -0.641  1.00  0.00     0.012 A 
HETATM    7  C7  UNL     1      -2.094  -0.224  -1.288  1.00  0.00     0.004 A 
HETATM    8  C14 UNL     1      -2.010   0.532  -2.450  1.00  0.00     0.142 A 
HETATM    9  C15 UNL     1      -3.053   1.225  -2.973  1.00  0.00     0.279 A 
HETATM   10  O3  UNL     1      -2.906   1.877  -4.045  1.00  0.00    -0.265 OA
HETATM   11  N4  UNL     1      -4.211   1.176  -2.323  1.00  0.00    -0.318 N 
ATOM     12  H4  UNL     1      -5.004   1.695  -2.699  1.00  0.00     0.169 HD
HETATM   13  C16 UNL     1      -4.379   0.485  -1.212  1.00  0.00     0.080 A 
HETATM   14  C17 UNL     1      -5.568   0.600  -0.496  1.00  0.00     0.102 A 
ENDROOT
BRANCH   7  15
HETATM   15  C8  UNL     1      -0.897  -0.805  -0.665  1.00  0.00     0.124 C 
BRANCH  15  16
HETATM   16  S1  UNL     1       0.091   0.675  -0.051  1.00  0.00    -0.099 SA
BRANCH  16  17
HETATM   17  C9  UNL     1       1.640   0.266   0.668  1.00  0.00     0.122 C 
HETATM   18  N1  UNL     1       1.965   0.881   1.710  1.00  0.00    -0.295 N 
ATOM     19  H1  UNL     1       1.225   1.540   1.951  1.00  0.00     0.187 HD
BRANCH  18  20
HETATM   20  N2  UNL     1       2.931   0.974   2.605  1.00  0.00    -0.344 N 
ATOM     21  H22 UNL     1       3.656   0.307   2.341  1.00  0.00     0.176 HD
ATOM     22  H21 UNL     1       3.196   1.475   3.453  1.00  0.00     0.176 HD
ENDBRANCH  18  20
BRANCH  17  23
HETATM   23  S2  UNL     1       2.635  -1.020  -0.105  1.00  0.00    -0.104 SA
BRANCH  23  24
HETATM   24  C10 UNL     1       4.365  -0.846   0.409  1.00  0.00     0.081 C 
BRANCH  24  25
HETATM   25  C11 UNL     1       4.884   0.457  -0.193  1.00  0.00     0.012 C 
BRANCH  25  26
HETATM   26  C12 UNL     1       6.359   0.623   0.218  1.00  0.00     0.028 C 
BRANCH  26  27
HETATM   27  C13 UNL     1       7.179  -0.540  -0.297  1.00  0.00     0.229 C 
BRANCH  27  28
HETATM   28  N3  UNL     1       8.575  -0.464   0.070  1.00  0.00    -0.079 N 
ATOM     29  H33 UNL     1       8.980   0.424  -0.227  1.00  0.00     0.274 HD
ATOM     30  H32 UNL     1       8.679  -0.367   1.080  1.00  0.00     0.274 HD
ATOM     31  H31 UNL     1       9.128  -1.248  -0.277  1.00  0.00     0.274 HD
ENDBRANCH  27  28
ENDBRANCH  26  27
ENDBRANCH  25  26
ENDBRANCH  24  25
ENDBRANCH  23  24
ENDBRANCH  17  23
ENDBRANCH  16  17
ENDBRANCH  15  16
ENDBRANCH   7  15
BRANCH   8  32
HETATM   32  O2  UNL     1      -0.742   0.522  -3.048  1.00  0.00    -0.355 OA
ATOM     33  H2  UNL     1      -0.685   1.039  -3.843  1.00  0.00     0.218 HD
ENDBRANCH   8  32
BRANCH   3  34
HETATM   34  O1  UNL     1      -4.727  -1.386   2.466  1.00  0.00    -0.359 OA
ATOM     35  H1  UNL     1      -4.006  -1.896   2.815  1.00  0.00     0.217 HD
ENDBRANCH   3  34
BRANCH  14  36
HETATM   36  O4  UNL     1      -6.627   1.307  -0.983  1.00  0.00    -0.358 OA
ATOM     37  H4  UNL     1      -6.547   1.727  -1.831  1.00  0.00     0.217 HD
ENDBRANCH  14  36
TORSDOF 13
