REMARK  14 active torsions:
REMARK  status: ('A' for Active; 'I' for Inactive)
REMARK    1  A    between atoms: C2_2  and  N1_3 
REMARK    2  A    between atoms: N1_3  and  C3_5 
REMARK    3  A    between atoms: C3_5  and  S1_9 
REMARK    4  A    between atoms: S1_9  and  C4_10 
REMARK    5  A    between atoms: C4_10  and  C5_11 
REMARK    6  A    between atoms: C5_11  and  C6_12 
REMARK    7  A    between atoms: C6_12  and  S2_13 
REMARK    8  A    between atoms: S2_13  and  C7_14 
REMARK    9  A    between atoms: C7_14  and  C8_15 
REMARK   10  A    between atoms: C9_17  and  S4_18 
REMARK   11  A    between atoms: S4_18  and  C10_19 
REMARK   12  A    between atoms: C11_24  and  O1_25 
REMARK   13  A    between atoms: C12_27  and  O2_28 
REMARK   14  A    between atoms: C13_30  and  O3_31 
ROOT
HETATM    1  C8  UNL     1      -2.538   1.222  -0.881  1.00  0.00     0.089 C 
HETATM    2  S3  UNL     1      -3.942   2.153  -0.128  1.00  0.00    -0.142 SA
HETATM    3  C9  UNL     1      -4.999   0.855   0.648  1.00  0.00     0.147 C 
HETATM    4  C11 UNL     1      -3.986   0.060   1.487  1.00  0.00     0.173 C 
HETATM    5  C12 UNL     1      -3.044  -0.704   0.633  1.00  0.00     0.178 C 
HETATM    6  C13 UNL     1      -1.979   0.213   0.054  1.00  0.00     0.164 C 
ENDROOT
BRANCH   1   7
HETATM    7  C7  UNL     1      -1.569   2.168  -1.481  1.00  0.00     0.091 C 
BRANCH   7   8
HETATM    8  S2  UNL     1      -0.164   1.428  -2.224  1.00  0.00    -0.168 SA
BRANCH   8   9
HETATM    9  C6  UNL     1       1.117   0.769  -1.204  1.00  0.00     0.075 C 
BRANCH   9  10
HETATM   10  C5  UNL     1       1.849   1.844  -0.400  1.00  0.00     0.021 C 
BRANCH  10  11
HETATM   11  C4  UNL     1       2.908   1.129   0.419  1.00  0.00     0.083 C 
BRANCH  11  12
HETATM   12  S1  UNL     1       4.087   0.246  -0.625  1.00  0.00    -0.095 SA
BRANCH  12  13
HETATM   13  C3  UNL     1       5.291  -0.570   0.394  1.00  0.00     0.133 C 
HETATM   14  N2  UNL     1       5.205  -0.467   1.670  1.00  0.00    -0.380 N 
ATOM     15  H22 UNL     1       5.897  -0.936   2.255  1.00  0.00     0.158 HD
ATOM     16  H21 UNL     1       4.463   0.071   2.118  1.00  0.00     0.158 HD
BRANCH  13  17
HETATM   17  N1  UNL     1       6.320  -1.317  -0.227  1.00  0.00    -0.371 N 
ATOM     18  H1  UNL     1       6.099  -2.084  -0.862  1.00  0.00     0.161 HD
BRANCH  17  19
HETATM   19  C2  UNL     1       7.710  -0.961   0.066  1.00  0.00     0.117 C 
HETATM   20  C1  UNL     1       8.658  -1.853  -0.673  1.00  0.00     0.026 C 
ENDBRANCH  17  19
ENDBRANCH  13  17
ENDBRANCH  12  13
ENDBRANCH  11  12
ENDBRANCH  10  11
ENDBRANCH   9  10
ENDBRANCH   8   9
ENDBRANCH   7   8
ENDBRANCH   1   7
BRANCH   6  21
HETATM   21  O3  UNL     1      -1.304   0.820   1.078  1.00  0.00    -0.392 OA
ATOM     22  H3  UNL     1      -0.946   0.174   1.676  1.00  0.00     0.210 HD
ENDBRANCH   6  21
BRANCH   3  23
HETATM   23  S4  UNL     1      -5.696  -0.086  -0.698  1.00  0.00    -0.080 SA
BRANCH  23  24
HETATM   24  C10 UNL     1      -6.895  -1.282  -0.284  1.00  0.00     0.149 C 
HETATM   25  N3  UNL     1      -7.427  -1.473   0.856  1.00  0.00    -0.382 N 
ATOM     26  H32 UNL     1      -7.088  -0.864   1.600  1.00  0.00     0.157 HD
ATOM     27  H31 UNL     1      -8.128  -2.173   1.098  1.00  0.00     0.157 HD
HETATM   28  N4  UNL     1      -7.375  -2.145  -1.338  1.00  0.00    -0.075 NA
ENDBRANCH  23  24
ENDBRANCH   3  23
BRANCH   5  29
HETATM   29  O2  UNL     1      -3.603  -1.516  -0.321  1.00  0.00    -0.390 OA
ATOM     30  H2  UNL     1      -3.000  -2.005  -0.868  1.00  0.00     0.210 HD
ENDBRANCH   5  29
BRANCH   4  31
HETATM   31  O1  UNL     1      -4.559  -0.641   2.517  1.00  0.00    -0.391 OA
ATOM     32  H1  UNL     1      -3.933  -1.132   3.036  1.00  0.00     0.210 HD
ENDBRANCH   4  31
TORSDOF 14
