REMARK  2 active torsions:
REMARK  status: ('A' for Active; 'I' for Inactive)
REMARK    1  A    between atoms: C4_5  and  N2_6 
REMARK    2  A    between atoms: N2_6  and  C5_8 
REMARK       I    between atoms: N6_27  and  C18_29 
ROOT
HETATM    1  C1  UNL     1       3.953   0.425   1.556  1.00  0.00     0.175 C 
HETATM    2  N1  UNL     1       2.816   1.082   0.979  1.00  0.00    -0.196 N 
HETATM    3  C2  UNL     1       1.656   0.441   0.878  1.00  0.00     0.127 A 
HETATM    4  C3  UNL     1       0.590   1.113   0.310  1.00  0.00     0.069 A 
HETATM    5  C4  UNL     1      -0.657   0.463   0.191  1.00  0.00     0.122 A 
HETATM    6  N3  UNL     1      -1.679   1.137  -0.359  1.00  0.00    -0.338 N 
ATOM      7  H3  UNL     1      -2.580   0.666  -0.444  1.00  0.00     0.168 HD
HETATM    8  C15 UNL     1      -1.574   2.402  -0.803  1.00  0.00     0.183 A 
HETATM    9  N4  UNL     1      -0.377   3.070  -0.704  1.00  0.00    -0.337 N 
ATOM     10  H4  UNL     1      -0.277   4.030  -1.033  1.00  0.00     0.168 HD
HETATM   11  C16 UNL     1       0.670   2.401  -0.150  1.00  0.00     0.137 A 
HETATM   12  N5  UNL     1       1.885   3.020  -0.021  1.00  0.00    -0.175 N 
ATOM     13  H5  UNL     1       2.005   3.980  -0.343  1.00  0.00     0.186 HD
HETATM   14  C17 UNL     1       2.932   2.354   0.537  1.00  0.00     0.688 A 
HETATM   15  N6  UNL     1       4.054   2.971   0.649  1.00  0.00    -0.163 N 
ATOM     16  H6  UNL     1       4.815   2.444   1.078  1.00  0.00     0.187 HD
HETATM   17  C18 UNL     1       4.356   4.274   0.254  1.00  0.00     0.200 C 
HETATM   18  N7  UNL     1       4.515   5.206   1.146  1.00  0.00    -0.373 N 
ATOM     19  H71 UNL     1       4.736   6.159   0.857  1.00  0.00     0.158 HD
ATOM     20  H72 UNL     1       4.419   4.963   2.132  1.00  0.00     0.158 HD
HETATM   21  N8  UNL     1       4.492   4.618  -1.139  1.00  0.00    -0.063 NA
ENDROOT
BRANCH   5  22
HETATM   22  N2  UNL     1      -0.719  -0.713   0.633  1.00  0.00    -0.341 N 
ATOM     23  H2  UNL     1       0.155  -1.058   1.029  1.00  0.00     0.167 HD
BRANCH  22  24
HETATM   24  C5  UNL     1      -1.775  -1.636   0.679  1.00  0.00     0.044 A 
HETATM   25  C6  UNL     1      -2.397  -1.909   1.909  1.00  0.00     0.030 A 
HETATM   26  C7  UNL     1      -3.435  -2.807   2.023  1.00  0.00     0.003 A 
HETATM   27  C8  UNL     1      -3.888  -3.461   0.915  1.00  0.00     0.012 A 
HETATM   28  C9  UNL     1      -3.315  -3.234  -0.323  1.00  0.00    -0.024 A 
HETATM   29  C10 UNL     1      -3.795  -3.913  -1.421  1.00  0.00     0.012 A 
HETATM   30  C14 UNL     1      -2.258  -2.313  -0.410  1.00  0.00     0.001 A 
HETATM   31  C11 UNL     1      -3.231  -3.694  -2.652  1.00  0.00     0.001 A 
HETATM   32  C12 UNL     1      -2.198  -2.805  -2.784  1.00  0.00     0.001 A 
HETATM   33  C13 UNL     1      -1.728  -2.133  -1.677  1.00  0.00     0.014 A 
ENDBRANCH  22  24
ENDBRANCH   5  22
TORSDOF 2
