REMARK  15 active torsions:
REMARK  status: ('A' for Active; 'I' for Inactive)
REMARK    1  A    between atoms: O1_2  and  C2_3 
REMARK    2  A    between atoms: C4_5  and  C5_6 
REMARK    3  A    between atoms: C5_6  and  O2_7 
REMARK    4  A    between atoms: C5_6  and  N1_9 
REMARK    5  A    between atoms: N1_9  and  C6_11 
REMARK    6  A    between atoms: C6_11  and  C7_12 
REMARK    7  A    between atoms: C7_12  and  C8_13 
REMARK    8  A    between atoms: C8_13  and  N2_14 
REMARK    9  A    between atoms: C16_22  and  N3_23 
REMARK   10  A    between atoms: N3_23  and  C17_25 
REMARK   11  A    between atoms: C21_37  and  N8_38 
REMARK   12  A    between atoms: N8_38  and  C22_39 
REMARK   13  A    between atoms: C22_39  and  C23_40 
REMARK   14  A    between atoms: C23_40  and  C24_41 
REMARK   15  A    between atoms: C24_41  and  N9_42 
ROOT
HETATM    1  N3  UNL     1      -2.251   0.433   0.381  1.00  0.00    -0.339 N 
ATOM      2  H3  UNL     1      -2.977   0.650  -0.302  1.00  0.00     0.167 HD
ENDROOT
BRANCH   1   3
HETATM    3  C16 UNL     1      -0.866   0.761   0.199  1.00  0.00     0.067 A 
HETATM    4  C2  UNL     1      -0.066  -0.402  -0.086  1.00  0.00     0.095 A 
HETATM    5  C3  UNL     1       1.282  -0.328  -0.132  1.00  0.00     0.054 A 
HETATM    6  C4  UNL     1       1.948   0.903   0.101  1.00  0.00     0.017 A 
HETATM    7  C14 UNL     1       1.167   1.987   0.356  1.00  0.00     0.018 A 
HETATM    8  C15 UNL     1      -0.237   1.918   0.402  1.00  0.00     0.033 A 
BRANCH   4   9
HETATM    9  O1  UNL     1      -0.759  -1.576  -0.297  1.00  0.00    -0.354 OA
HETATM   10  C1  UNL     1      -0.104  -2.789  -0.585  1.00  0.00     0.210 C 
ENDBRANCH   4   9
BRANCH   6  11
HETATM   11  C5  UNL     1       3.373   0.847   0.268  1.00  0.00     0.146 C 
BRANCH  11  12
HETATM   12  O2  UNL     1       3.793   0.192   1.352  1.00  0.00    -0.346 OA
ATOM     13  H2  UNL     1       4.736   0.155   1.462  1.00  0.00     0.219 HD
ENDBRANCH  11  12
BRANCH  11  14
HETATM   14  N1  UNL     1       4.393   1.356  -0.518  1.00  0.00    -0.370 N 
ATOM     15  H1  UNL     1       4.202   1.884  -1.370  1.00  0.00     0.161 HD
BRANCH  14  16
HETATM   16  C6  UNL     1       5.808   1.088  -0.047  1.00  0.00     0.123 C 
BRANCH  16  17
HETATM   17  C7  UNL     1       6.046  -0.376  -0.169  1.00  0.00     0.050 C 
BRANCH  17  18
HETATM   18  C8  UNL     1       7.269  -0.838   0.557  1.00  0.00     0.274 C 
BRANCH  18  19
HETATM   19  N2  UNL     1       8.439  -0.189   0.210  1.00  0.00     0.088 N 
HETATM   20  C9  UNL     1       9.003  -0.459  -1.059  1.00  0.00     0.272 C 
HETATM   21  C10 UNL     1      10.047   0.647  -1.307  1.00  0.00     0.030 C 
HETATM   22  C11 UNL     1       9.960   1.707  -0.185  1.00  0.00     0.003 C 
HETATM   23  C12 UNL     1      10.188   1.076   1.168  1.00  0.00     0.030 C 
HETATM   24  C13 UNL     1       9.472  -0.267   1.222  1.00  0.00     0.272 C 
ENDBRANCH  18  19
ENDBRANCH  17  18
ENDBRANCH  16  17
ENDBRANCH  14  16
ENDBRANCH  11  14
ENDBRANCH   6  11
ENDBRANCH   1   3
BRANCH   1  25
HETATM   25  C17 UNL     1      -2.488  -0.186   1.539  1.00  0.00     0.125 A 
HETATM   26  N4  UNL     1      -1.494  -0.415   2.418  1.00  0.00    -0.338 N 
HETATM   27  C18 UNL     1      -1.613  -1.280   3.466  1.00  0.00     0.183 A 
ATOM     28  H4  UNL     1      -0.611   0.081   2.295  1.00  0.00     0.168 HD
HETATM   29  N5  UNL     1      -2.759  -1.915   3.622  1.00  0.00    -0.338 N 
HETATM   30  C19 UNL     1      -3.799  -1.736   2.785  1.00  0.00     0.126 A 
ATOM     31  H5  UNL     1      -2.861  -2.563   4.403  1.00  0.00     0.168 HD
HETATM   32  N6  UNL     1      -4.900  -2.494   2.989  1.00  0.00    -0.338 N 
HETATM   33  C29 UNL     1      -3.662  -0.856   1.728  1.00  0.00     0.110 A 
HETATM   34  C20 UNL     1      -5.902  -2.386   2.120  1.00  0.00     0.184 A 
ATOM     35  H6  UNL     1      -4.961  -3.129   3.785  1.00  0.00     0.168 HD
HETATM   36  N7  UNL     1      -5.834  -1.553   1.085  1.00  0.00    -0.326 N 
HETATM   37  C21 UNL     1      -4.711  -0.735   0.831  1.00  0.00     0.196 A 
ATOM     38  H7  UNL     1      -6.628  -1.503   0.447  1.00  0.00     0.169 HD
BRANCH  37  39
HETATM   39  N8  UNL     1      -4.773   0.060  -0.070  1.00  0.00    -0.403 NA
BRANCH  39  40
HETATM   40  C22 UNL     1      -4.832   0.946  -1.069  1.00  0.00     0.159 C 
BRANCH  40  41
HETATM   41  C23 UNL     1      -6.136   0.985  -1.895  1.00  0.00     0.089 C 
BRANCH  41  42
HETATM   42  C24 UNL     1      -7.293   1.227  -1.023  1.00  0.00     0.278 C 
BRANCH  42  43
HETATM   43  N9  UNL     1      -8.584   1.356  -1.684  1.00  0.00     0.088 N 
HETATM   44  C25 UNL     1      -9.021   0.202  -2.401  1.00  0.00     0.272 C 
HETATM   45  C26 UNL     1      -9.071  -0.934  -1.431  1.00  0.00     0.032 C 
HETATM   46  C27 UNL     1      -9.509  -0.183  -0.162  1.00  0.00     0.032 C 
HETATM   47  C28 UNL     1      -9.553   1.293  -0.545  1.00  0.00     0.272 C 
ENDBRANCH  42  43
ENDBRANCH  41  42
ENDBRANCH  40  41
ENDBRANCH  39  40
ENDBRANCH  37  39
ENDBRANCH   1  25
TORSDOF 15
