REMARK  15 active torsions:
REMARK  status: ('A' for Active; 'I' for Inactive)
REMARK    1  A    between atoms: C2_2  and  C3_3 
REMARK    2  A    between atoms: C3_3  and  C4_4 
REMARK    3  A    between atoms: C4_4  and  C5_5 
REMARK    4  A    between atoms: C5_5  and  C6_6 
REMARK    5  A    between atoms: C6_6  and  C7_7 
REMARK    6  A    between atoms: C7_7  and  C8_8 
REMARK    7  A    between atoms: C8_8  and  C9_9 
REMARK    8  A    between atoms: C9_9  and  C10_10 
REMARK    9  A    between atoms: C10_10  and  C11_12 
REMARK   10  A    between atoms: C17_19  and  O3_20 
REMARK   11  A    between atoms: C19_23  and  O4_24 
REMARK   12  A    between atoms: C20_26  and  O5_27 
REMARK   13  A    between atoms: C27_36  and  C29_38 
REMARK   14  A    between atoms: C29_38  and  C30_39 
REMARK   15  A    between atoms: C30_39  and  O7_41 
ROOT
HETATM    1  C11 UNL     1       0.885  -0.318   0.872  1.00  0.00     0.133 A 
HETATM    2  C12 UNL     1       0.017  -0.561   2.091  1.00  0.00     0.144 A 
HETATM    3  O2  UNL     1       0.117  -0.032   3.178  1.00  0.00    -0.297 OA
HETATM    4  C13 UNL     1      -0.725  -1.509   1.320  1.00  0.00     0.074 A 
HETATM    5  C14 UNL     1       0.038  -1.270   0.060  1.00  0.00     0.038 A 
HETATM    6  C15 UNL     1      -0.725  -0.750  -1.058  1.00  0.00    -0.021 C 
HETATM    7  C16 UNL     1      -1.793   0.044  -1.171  1.00  0.00     0.008 C 
HETATM    8  C17 UNL     1      -2.506   0.631  -0.055  1.00  0.00     0.094 C 
HETATM    9  C18 UNL     1      -2.992  -0.439   0.887  1.00  0.00     0.065 C 
HETATM   10  C19 UNL     1      -3.629   0.427   1.904  1.00  0.00     0.155 C 
HETATM   11  C20 UNL     1      -4.500   1.309   0.967  1.00  0.00     0.161 C 
HETATM   12  C21 UNL     1      -3.816   1.275  -0.385  1.00  0.00     0.054 C 
HETATM   13  C22 UNL     1      -4.683   0.489  -1.317  1.00  0.00     0.287 C 
HETATM   14  N1  UNL     1      -5.433   1.457  -2.098  1.00  0.00     0.085 N 
HETATM   15  C23 UNL     1      -6.857   1.184  -2.079  1.00  0.00     0.309 C 
HETATM   16  C24 UNL     1      -5.253   2.753  -1.431  1.00  0.00     0.277 C 
HETATM   17  C25 UNL     1      -3.784   2.626  -0.984  1.00  0.00     0.026 C 
HETATM   18  C26 UNL     1      -2.987   2.714  -2.239  1.00  0.00     0.012 C 
HETATM   19  C27 UNL     1      -2.195  -1.590   1.197  1.00  0.00    -0.015 C 
HETATM   20  C28 UNL     1      -2.427  -2.691   0.133  1.00  0.00     0.017 C 
ENDROOT
BRANCH   1  21
HETATM   21  C10 UNL     1       2.290  -0.776   1.073  1.00  0.00     0.138 C 
HETATM   22  O1  UNL     1       2.556  -1.300   2.141  1.00  0.00    -0.297 OA
BRANCH  21  23
HETATM   23  C9  UNL     1       3.355  -0.637   0.074  1.00  0.00     0.079 C 
BRANCH  23  24
HETATM   24  C8  UNL     1       3.898  -1.996  -0.308  1.00  0.00     0.007 C 
BRANCH  24  25
HETATM   25  C7  UNL     1       5.003  -1.850  -1.341  1.00  0.00     0.000 C 
BRANCH  25  26
HETATM   26  C6  UNL     1       6.149  -1.038  -0.821  1.00  0.00     0.000 C 
BRANCH  26  27
HETATM   27  C5  UNL     1       7.236  -0.907  -1.861  1.00  0.00     0.000 C 
BRANCH  27  28
HETATM   28  C4  UNL     1       8.407  -0.101  -1.352  1.00  0.00     0.000 C 
BRANCH  28  29
HETATM   29  C3  UNL     1       8.056   1.293  -0.946  1.00  0.00    -0.000 C 
BRANCH  29  30
HETATM   30  C2  UNL     1       9.337   1.964  -0.457  1.00  0.00    -0.005 C 
HETATM   31  C1  UNL     1       8.968   3.380  -0.044  1.00  0.00     0.005 C 
ENDBRANCH  29  30
ENDBRANCH  28  29
ENDBRANCH  27  28
ENDBRANCH  26  27
ENDBRANCH  25  26
ENDBRANCH  24  25
ENDBRANCH  23  24
ENDBRANCH  21  23
ENDBRANCH   1  21
BRANCH  19  32
HETATM   32  C29 UNL     1      -2.673  -2.243   2.477  1.00  0.00     0.121 C 
BRANCH  32  33
HETATM   33  C30 UNL     1      -4.093  -2.513   2.585  1.00  0.00     0.259 C 
HETATM   34  O6  UNL     1      -4.542  -2.753   3.761  1.00  0.00    -0.265 OA
BRANCH  33  35
HETATM   35  O7  UNL     1      -5.042  -2.553   1.589  1.00  0.00    -0.326 OA
HETATM   36  C31 UNL     1      -6.406  -2.830   1.808  1.00  0.00     0.213 C 
ENDBRANCH  33  35
ENDBRANCH  32  33
ENDBRANCH  19  32
BRANCH   8  37
HETATM   37  O3  UNL     1      -1.775   1.654   0.554  1.00  0.00    -0.384 OA
ATOM     38  H3  UNL     1      -2.243   2.039   1.286  1.00  0.00     0.211 HD
ENDBRANCH   8  37
BRANCH  10  39
HETATM   39  O4  UNL     1      -2.823   1.342   2.557  1.00  0.00    -0.392 OA
ATOM     40  H4  UNL     1      -3.232   1.898   3.210  1.00  0.00     0.210 HD
ENDBRANCH  10  39
BRANCH  11  41
HETATM   41  O5  UNL     1      -4.538   2.622   1.411  1.00  0.00    -0.392 OA
ATOM     42  H5  UNL     1      -5.071   3.161   0.838  1.00  0.00     0.210 HD
ENDBRANCH  11  41
TORSDOF 15
