REMARK  12 active torsions:
REMARK  status: ('A' for Active; 'I' for Inactive)
REMARK    1  A    between atoms: O1_2  and  C2_3 
REMARK    2  A    between atoms: C5_6  and  N1_7 
REMARK    3  A    between atoms: N1_7  and  C6_8 
REMARK    4  A    between atoms: N3_12  and  C8_14 
REMARK    5  A    between atoms: C8_14  and  C9_15 
REMARK    6  A    between atoms: C9_15  and  C10_16 
REMARK    7  A    between atoms: C10_16  and  N4_17 
REMARK    8  A    between atoms: N5_20  and  C13_21 
REMARK    9  A    between atoms: C13_21  and  C14_22 
REMARK   10  A    between atoms: C14_22  and  C15_23 
REMARK   11  A    between atoms: C20_32  and  O2_33 
REMARK   12  A    between atoms: C22_35  and  O3_36 
ROOT
HETATM    1  C6  UNL     1      -2.491   0.060   0.273  1.00  0.00     0.206 A 
HETATM    2  N2  UNL     1      -1.212  -0.325   0.614  1.00  0.00    -0.163 N 
ATOM      3  H2  UNL     1      -1.040  -1.320   0.756  1.00  0.00     0.187 HD
HETATM    4  C7  UNL     1      -0.193   0.502   0.770  1.00  0.00     0.681 A 
HETATM    5  N3  UNL     1       0.979   0.179   1.169  1.00  0.00    -0.226 N 
ATOM      6  H3  UNL     1       1.666   0.930   1.237  1.00  0.00     0.177 HD
HETATM    7  N7  UNL     1      -0.384   1.850   0.584  1.00  0.00    -0.191 N 
ATOM      8  H7  UNL     1       0.391   2.503   0.699  1.00  0.00     0.184 HD
HETATM    9  C18 UNL     1      -1.598   2.291   0.251  1.00  0.00     0.067 A 
HETATM   10  C19 UNL     1      -1.781   3.666   0.083  1.00  0.00     0.070 A 
HETATM   11  C20 UNL     1      -3.017   4.173  -0.244  1.00  0.00     0.103 A 
HETATM   12  C22 UNL     1      -4.106   3.300  -0.412  1.00  0.00     0.102 A 
HETATM   13  C24 UNL     1      -3.904   1.949  -0.241  1.00  0.00     0.058 A 
HETATM   14  C25 UNL     1      -2.657   1.435   0.090  1.00  0.00     0.053 A 
ENDROOT
BRANCH   5  15
HETATM   15  C8  UNL     1       1.414  -1.118   1.525  1.00  0.00     0.140 C 
BRANCH  15  16
HETATM   16  C9  UNL     1       2.650  -1.646   0.883  1.00  0.00     0.050 C 
BRANCH  16  17
HETATM   17  C10 UNL     1       3.883  -0.816   1.100  1.00  0.00     0.274 C 
BRANCH  17  18
HETATM   18  N4  UNL     1       3.774   0.489   0.499  1.00  0.00     0.091 N 
HETATM   19  C11 UNL     1       4.919   1.319   0.795  1.00  0.00     0.291 C 
HETATM   20  C12 UNL     1       5.932   1.305  -0.351  1.00  0.00     0.147 C 
HETATM   21  N5  UNL     1       6.031  -0.049  -0.789  1.00  0.00    -0.409 N 
HETATM   22  C16 UNL     1       4.855  -0.425  -1.494  1.00  0.00     0.147 C 
HETATM   23  C17 UNL     1       3.665   0.382  -0.965  1.00  0.00     0.291 C 
BRANCH  21  24
HETATM   24  C13 UNL     1       7.260  -0.539  -1.231  1.00  0.00     0.123 C 
BRANCH  24  25
HETATM   25  C14 UNL     1       8.239  -0.609  -0.043  1.00  0.00     0.086 C 
BRANCH  25  26
HETATM   26  C15 UNL     1       9.549  -1.141  -0.474  1.00  0.00     0.092 C 
HETATM   27  N6  UNL     1      10.588  -1.287   0.464  1.00  0.00    -0.095 NA
HETATM   28  S1  UNL     1       9.764  -1.556  -2.030  1.00  0.00    -0.069 SA
ENDBRANCH  25  26
ENDBRANCH  24  25
ENDBRANCH  21  24
ENDBRANCH  17  18
ENDBRANCH  16  17
ENDBRANCH  15  16
ENDBRANCH   5  15
BRANCH   1  29
HETATM   29  N1  UNL     1      -3.398  -0.679   0.157  1.00  0.00    -0.386 NA
BRANCH  29  30
HETATM   30  C5  UNL     1      -4.425  -1.487   0.022  1.00  0.00     0.110 A 
HETATM   31  C4  UNL     1      -5.205  -1.681  -1.121  1.00  0.00     0.047 A 
HETATM   32  C3  UNL     1      -6.269  -2.547  -1.156  1.00  0.00     0.040 A 
HETATM   33  C2  UNL     1      -6.616  -3.270  -0.047  1.00  0.00     0.074 A 
HETATM   34  C27 UNL     1      -5.878  -3.122   1.114  1.00  0.00    -0.025 A 
HETATM   35  C26 UNL     1      -4.818  -2.259   1.147  1.00  0.00     0.054 A 
HETATM   36  C28 UNL     1      -6.210  -3.890   2.347  1.00  0.00     0.051 C 
BRANCH  33  37
HETATM   37  O1  UNL     1      -7.667  -4.150  -0.002  1.00  0.00    -0.355 OA
HETATM   38  C1  UNL     1      -8.532  -4.433  -1.085  1.00  0.00     0.210 C 
ENDBRANCH  33  37
ENDBRANCH  29  30
ENDBRANCH   1  29
BRANCH  11  39
HETATM   39  O2  UNL     1      -3.272   5.496  -0.421  1.00  0.00    -0.353 OA
HETATM   40  C21 UNL     1      -2.276   6.469  -0.277  1.00  0.00     0.210 C 
ENDBRANCH  11  39
BRANCH  12  41
HETATM   41  O3  UNL     1      -5.337   3.832  -0.743  1.00  0.00    -0.353 OA
HETATM   42  C23 UNL     1      -6.423   2.956  -0.931  1.00  0.00     0.210 C 
ENDBRANCH  12  41
TORSDOF 12
