REMARK  15 active torsions:
REMARK  status: ('A' for Active; 'I' for Inactive)
REMARK    1  A    between atoms: C2_3  and  C3_5 
REMARK    2  A    between atoms: C3_5  and  O2_6 
REMARK    3  A    between atoms: O2_6  and  C4_7 
REMARK    4  A    between atoms: C5_10  and  C6_11 
REMARK    5  A    between atoms: C6_11  and  C7_12 
REMARK    6  A    between atoms: C7_12  and  O3_13 
REMARK    7  A    between atoms: C7_12  and  N3_15 
REMARK    8  A    between atoms: N3_15  and  C8_17 
REMARK    9  A    between atoms: C8_17  and  C9_18 
REMARK   10  A    between atoms: C8_17  and  C16_26 
REMARK   11  A    between atoms: C9_18  and  C10_19 
REMARK   12  A    between atoms: C10_19  and  C11_20 
REMARK   13  A    between atoms: C11_20  and  C12_22 
REMARK   14  A    between atoms: C16_26  and  O6_28 
REMARK   15  A    between atoms: C19_31  and  C20_32 
ROOT
HETATM    1  C1  UNL     1      -6.023   3.953  -2.831  1.00  0.00     0.264 C 
HETATM    2  N1  UNL     1      -6.030   4.140  -1.441  1.00  0.00    -0.419 NA
HETATM    3  C2  UNL     1      -6.054   4.330  -0.113  1.00  0.00     0.310 C 
HETATM    4  O1  UNL     1      -6.871   4.983   0.574  1.00  0.00    -0.255 OA
ENDROOT
BRANCH   3   5
HETATM    5  C3  UNL     1      -4.866   3.626   0.632  1.00  0.00     0.297 C 
BRANCH   5   6
HETATM    6  O2  UNL     1      -4.645   2.439   0.060  1.00  0.00    -0.310 OA
BRANCH   6   7
HETATM    7  C4  UNL     1      -3.798   1.414   0.145  1.00  0.00     0.240 A 
HETATM    8  N2  UNL     1      -2.668   1.207   0.926  1.00  0.00    -0.308 N 
HETATM    9  C5  UNL     1      -2.140   0.027   0.683  1.00  0.00     0.116 A 
ATOM     10  H2  UNL     1      -2.298   1.880   1.598  1.00  0.00     0.170 HD
HETATM   11  N4  UNL     1      -2.981  -0.534  -0.292  1.00  0.00    -0.285 N 
HETATM   12  N5  UNL     1      -3.938   0.298  -0.592  1.00  0.00    -0.264 N 
ATOM     13  H4  UNL     1      -2.860  -1.459  -0.705  1.00  0.00     0.188 HD
ATOM     14  H5  UNL     1      -4.675   0.130  -1.276  1.00  0.00     0.190 HD
BRANCH   9  15
HETATM   15  C6  UNL     1      -0.959  -0.790   1.042  1.00  0.00     0.092 A 
HETATM   16  C18 UNL     1      -1.029  -1.638   2.267  1.00  0.00     0.037 A 
HETATM   17  C19 UNL     1      -1.059  -2.233   0.832  1.00  0.00     0.045 A 
BRANCH  15  18
HETATM   18  C7  UNL     1       0.360  -0.180   0.837  1.00  0.00     0.129 C 
BRANCH  18  19
HETATM   19  O3  UNL     1       1.338  -1.071   1.188  1.00  0.00    -0.349 OA
ATOM     20  H3  UNL     1       2.192  -0.676   1.055  1.00  0.00     0.219 HD
ENDBRANCH  18  19
BRANCH  18  21
HETATM   21  N3  UNL     1       0.824   1.043   0.392  1.00  0.00    -0.360 N 
ATOM     22  H3  UNL     1       0.186   1.784   0.102  1.00  0.00     0.162 HD
BRANCH  21  23
HETATM   23  C8  UNL     1       2.254   1.221   0.357  1.00  0.00     0.183 C 
BRANCH  23  24
HETATM   24  C9  UNL     1       2.768   2.429  -0.301  1.00  0.00     0.043 C 
BRANCH  24  25
HETATM   25  C10 UNL     1       4.225   2.631  -0.282  1.00  0.00     0.081 C 
BRANCH  25  26
HETATM   26  C11 UNL     1       5.035   1.618  -0.988  1.00  0.00     0.134 C 
HETATM   27  O4  UNL     1       4.396   0.759  -1.646  1.00  0.00    -0.297 OA
BRANCH  26  28
HETATM   28  C12 UNL     1       6.504   1.480  -1.013  1.00  0.00     0.009 C 
HETATM   29  C13 UNL     1       7.072   2.811  -1.572  1.00  0.00     0.022 C 
HETATM   30  C14 UNL     1       7.129   1.285   0.338  1.00  0.00     0.022 C 
HETATM   31  C15 UNL     1       6.939   0.395  -1.938  1.00  0.00     0.022 C 
ENDBRANCH  26  28
ENDBRANCH  25  26
ENDBRANCH  24  25
ENDBRANCH  23  24
BRANCH  23  32
HETATM   32  C16 UNL     1       2.635   1.175   1.849  1.00  0.00     0.281 C 
HETATM   33  O5  UNL     1       1.841   1.692   2.638  1.00  0.00    -0.263 OA
BRANCH  32  34
HETATM   34  O6  UNL     1       3.777   0.568   2.198  1.00  0.00    -0.325 OA
HETATM   35  C17 UNL     1       4.295   0.382   3.492  1.00  0.00     0.213 C 
ENDBRANCH  32  34
ENDBRANCH  23  32
ENDBRANCH  21  23
ENDBRANCH  18  21
ENDBRANCH  15  18
BRANCH  17  36
HETATM   36  C20 UNL     1      -2.145  -3.133   0.533  1.00  0.00    -0.040 A 
HETATM   37  C21 UNL     1      -1.896  -3.840  -0.738  1.00  0.00    -0.054 A 
HETATM   38  C22 UNL     1      -0.750  -3.407  -1.577  1.00  0.00     0.049 C 
HETATM   39  C23 UNL     1      -2.745  -4.808  -1.137  1.00  0.00     0.014 A 
HETATM   40  C24 UNL     1      -3.867  -5.189  -0.421  1.00  0.00    -0.061 A 
HETATM   41  C25 UNL     1      -4.746  -6.280  -0.937  1.00  0.00     0.048 C 
HETATM   42  C26 UNL     1      -4.087  -4.521   0.764  1.00  0.00     0.014 A 
HETATM   43  C27 UNL     1      -3.228  -3.510   1.230  1.00  0.00    -0.054 A 
HETATM   44  C28 UNL     1      -3.608  -3.018   2.576  1.00  0.00     0.049 C 
ENDBRANCH  17  36
ENDBRANCH   9  15
ENDBRANCH   6   7
ENDBRANCH   5   6
ENDBRANCH   3   5
TORSDOF 14
