REMARK  11 active torsions:
REMARK  status: ('A' for Active; 'I' for Inactive)
REMARK    1  A    between atoms: O1_2  and  C2_3 
REMARK    2  A    between atoms: C2_3  and  C3_4 
REMARK    3  A    between atoms: C3_4  and  O2_5 
REMARK    4  A    between atoms: O2_5  and  C4_6 
REMARK    5  A    between atoms: C6_8  and  N1_9 
REMARK    6  A    between atoms: N1_9  and  C7_11 
REMARK    7  A    between atoms: C8_14  and  C9_15 
REMARK    8  A    between atoms: C19_31  and  C20_32 
REMARK    9  A    between atoms: C20_32  and  C21_33 
REMARK   10  A    between atoms: C21_33  and  N6_34 
REMARK       I    between atoms: N6_34  and  C23_36 
REMARK   11  A    between atoms: C25_39  and  C26_40 
ROOT
HETATM    1  C4  UNL     1      -2.058  -2.359  -0.179  1.00  0.00     0.071 A 
HETATM    2  C5  UNL     1      -1.054  -1.779   0.548  1.00  0.00     0.066 A 
HETATM    3  C6  UNL     1      -0.815  -0.432   0.523  1.00  0.00     0.043 A 
HETATM    4  C19 UNL     1      -1.626   0.393  -0.276  1.00  0.00    -0.018 A 
HETATM    5  C25 UNL     1      -2.640  -0.134  -1.022  1.00  0.00    -0.012 A 
HETATM    6  C29 UNL     1      -2.829  -1.528  -0.947  1.00  0.00     0.049 A 
ENDROOT
BRANCH   3   7
HETATM    7  N1  UNL     1       0.225   0.095   1.295  1.00  0.00    -0.341 N 
ATOM      8  H1  UNL     1      -0.045   0.430   2.220  1.00  0.00     0.167 HD
BRANCH   7   9
HETATM    9  C7  UNL     1       1.450   0.216   1.013  1.00  0.00     0.115 A 
HETATM   10  N2  UNL     1       2.054  -0.147  -0.134  1.00  0.00    -0.327 N 
HETATM   11  C8  UNL     1       3.370   0.027  -0.344  1.00  0.00     0.124 A 
ATOM     12  H2  UNL     1       1.491  -0.570  -0.872  1.00  0.00     0.169 HD
HETATM   13  N5  UNL     1       4.114   0.586   0.632  1.00  0.00    -0.344 N 
HETATM   14  C13 UNL     1       3.604   0.978   1.802  1.00  0.00     0.021 A 
ATOM     15  H5  UNL     1       5.113   0.715   0.469  1.00  0.00     0.167 HD
HETATM   16  C14 UNL     1       2.254   0.794   2.004  1.00  0.00     0.009 A 
HETATM   17  C18 UNL     1       4.392   1.597   2.895  1.00  0.00     0.058 C 
HETATM   18  C15 UNL     1       1.702   1.235   3.307  1.00  0.00     0.044 C 
HETATM   19  C16 UNL     1       2.573   0.743   4.417  1.00  0.00     0.005 C 
HETATM   20  C17 UNL     1       4.043   0.873   4.177  1.00  0.00     0.006 C 
BRANCH  11  21
HETATM   21  C9  UNL     1       3.990  -0.383  -1.606  1.00  0.00     0.094 A 
HETATM   22  C10 UNL     1       5.320  -0.262  -1.948  1.00  0.00     0.130 A 
HETATM   23  N3  UNL     1       5.505  -0.757  -3.206  1.00  0.00    -0.304 N 
HETATM   24  C11 UNL     1       6.800  -0.775  -3.858  1.00  0.00     0.177 C 
HETATM   25  N4  UNL     1       4.333  -1.168  -3.626  1.00  0.00    -0.264 N 
HETATM   26  C12 UNL     1       3.373  -0.964  -2.691  1.00  0.00     0.275 A 
ATOM     27  H4  UNL     1       4.165  -1.588  -4.540  1.00  0.00     0.190 HD
HETATM   28  O3  UNL     1       2.150  -1.238  -2.761  1.00  0.00    -0.266 OA
ENDBRANCH  11  21
ENDBRANCH   7   9
ENDBRANCH   3   7
BRANCH   4  29
HETATM   29  C20 UNL     1      -1.317   1.823  -0.223  1.00  0.00     0.061 C 
BRANCH  29  30
HETATM   30  C21 UNL     1      -1.816   2.472   1.059  1.00  0.00     0.130 C 
BRANCH  30  31
HETATM   31  N6  UNL     1      -1.474   3.887   1.054  1.00  0.00    -0.356 N 
HETATM   32  C22 UNL     1      -0.199   4.282   1.628  1.00  0.00     0.152 C 
HETATM   33  C23 UNL     1      -2.337   4.874   0.515  1.00  0.00     0.215 C 
HETATM   34  C24 UNL     1      -3.652   4.562  -0.087  1.00  0.00     0.117 C 
HETATM   35  O4  UNL     1      -1.962   6.072   0.554  1.00  0.00    -0.274 OA
ENDBRANCH  30  31
ENDBRANCH  29  30
ENDBRANCH   4  29
BRANCH   1  36
HETATM   36  O2  UNL     1      -2.282  -3.749  -0.133  1.00  0.00    -0.349 OA
BRANCH  36  37
HETATM   37  C3  UNL     1      -3.348  -4.235  -0.924  1.00  0.00     0.201 C 
BRANCH  37  38
HETATM   38  C2  UNL     1      -3.517  -5.724  -0.816  1.00  0.00     0.193 C 
BRANCH  38  39
HETATM   39  O1  UNL     1      -3.778  -6.144   0.472  1.00  0.00    -0.394 OA
HETATM   40  C1  UNL     1      -3.925  -7.529   0.496  1.00  0.00     0.201 C 
ENDBRANCH  38  39
ENDBRANCH  37  38
ENDBRANCH  36  37
ENDBRANCH   1  36
BRANCH   5  41
HETATM   41  C26 UNL     1      -3.505   0.636  -1.888  1.00  0.00     0.009 A 
HETATM   42  C27 UNL     1      -3.172   1.486  -2.899  1.00  0.00     0.120 A 
HETATM   43  N7  UNL     1      -4.317   1.993  -3.438  1.00  0.00    -0.311 N 
HETATM   44  N8  UNL     1      -5.346   1.462  -2.768  1.00  0.00    -0.311 N 
ATOM     45  H7  UNL     1      -4.378   2.656  -4.211  1.00  0.00     0.186 HD
HETATM   46  C28 UNL     1      -4.879   0.629  -1.815  1.00  0.00     0.120 A 
ATOM     47  H8  UNL     1      -6.331   1.657  -2.949  1.00  0.00     0.186 HD
ENDBRANCH   5  41
TORSDOF 11
