REMARK  7 active torsions:
REMARK  status: ('A' for Active; 'I' for Inactive)
REMARK       I    between atoms: N1_2  and  C2_4 
REMARK    1  A    between atoms: C2_4  and  C3_6 
REMARK    2  A    between atoms: N2_7  and  C4_8 
REMARK    3  A    between atoms: C4_8  and  N3_10 
REMARK    4  A    between atoms: N3_10  and  C5_12 
REMARK    5  A    between atoms: C5_12  and  C6_13 
REMARK    6  A    between atoms: C5_12  and  C8_17 
REMARK    7  A    between atoms: C6_13  and  C7_14 
ROOT
HETATM    1  C4  UNL     1      -0.283  -1.550   0.760  1.00  0.00     0.187 C 
HETATM    2  S1  UNL     1       0.545  -2.856   1.385  1.00  0.00    -0.040 SA
ENDROOT
BRANCH   1   3
HETATM    3  N2  UNL     1       0.422  -0.587  -0.001  1.00  0.00    -0.254 N 
HETATM    4  C3  UNL     1       1.824  -0.475  -0.397  1.00  0.00     0.224 C 
HETATM    5  C9  UNL     1       1.493   0.686  -1.261  1.00  0.00     0.074 C 
HETATM    6  N4  UNL     1       0.177   0.606  -0.656  1.00  0.00    -0.123 NA
HETATM    7  C10 UNL     1       1.514   0.452  -2.750  1.00  0.00     0.038 C 
HETATM    8  C11 UNL     1       2.172   1.991  -0.931  1.00  0.00     0.038 C 
BRANCH   4   9
HETATM    9  C2  UNL     1       2.741  -0.246   0.748  1.00  0.00     0.243 C 
HETATM   10  N1  UNL     1       4.142  -0.180   0.567  1.00  0.00    -0.364 N 
HETATM   11  C1  UNL     1       4.974   0.044   1.732  1.00  0.00     0.149 C 
ATOM     12  H1  UNL     1       4.556  -0.287  -0.359  1.00  0.00     0.161 HD
HETATM   13  O1  UNL     1       2.276  -0.105   1.911  1.00  0.00    -0.271 OA
ENDBRANCH   4   9
ENDBRANCH   1   3
BRANCH   1  14
HETATM   14  N3  UNL     1      -1.655  -1.521   1.054  1.00  0.00    -0.351 N 
ATOM     15  H3  UNL     1      -2.043  -2.270   1.627  1.00  0.00     0.163 HD
BRANCH  14  16
HETATM   16  C5  UNL     1      -2.573  -0.452   0.572  1.00  0.00     0.195 C 
BRANCH  16  17
HETATM   17  C6  UNL     1      -3.875  -0.579   1.278  1.00  0.00     0.149 C 
BRANCH  17  18
HETATM   18  C7  UNL     1      -4.885   0.432   0.973  1.00  0.00     0.175 C 
HETATM   19  O2  UNL     1      -4.769   1.452   0.263  1.00  0.00    -0.648 OA
HETATM   20  O3  UNL     1      -6.199   0.296   1.529  1.00  0.00    -0.648 OA
ENDBRANCH  17  18
ENDBRANCH  16  17
BRANCH  16  21
HETATM   21  C8  UNL     1      -2.779  -0.668  -0.884  1.00  0.00     0.197 C 
HETATM   22  O4  UNL     1      -2.273  -1.737  -1.389  1.00  0.00    -0.646 OA
HETATM   23  O5  UNL     1      -3.447   0.171  -1.693  1.00  0.00    -0.646 OA
ENDBRANCH  16  21
ENDBRANCH  14  16
ENDBRANCH   1  14
TORSDOF 7
