REMARK  4 active torsions:
REMARK  status: ('A' for Active; 'I' for Inactive)
REMARK    1  A    between atoms: O1_1  and  C1_3 
REMARK    2  A    between atoms: C1_3  and  C2_4 
REMARK    3  A    between atoms: C2_4  and  O2_5 
REMARK    4  A    between atoms: C5_12  and  O3_13 
ROOT
HETATM    1  C2  UNL     1       2.042  -0.235   0.141  1.00  0.00     0.132 C 
HETATM    2  C3  UNL     1       0.803  -0.080   1.000  1.00  0.00     0.084 C 
HETATM    3  C4  UNL     1      -0.307  -0.069  -0.022  1.00  0.00     0.139 C 
HETATM    4  N1  UNL     1       0.277  -0.107  -1.318  1.00  0.00    -0.036 N 
ATOM      5  H11 UNL     1      -0.291   0.309  -2.057  1.00  0.00     0.281 HD
ATOM      6  H12 UNL     1       0.325  -1.034  -1.740  1.00  0.00     0.281 HD
HETATM    7  C5  UNL     1       1.580   0.542  -1.099  1.00  0.00     0.356 C 
HETATM    8  C6  UNL     1      -1.195   1.103   0.241  1.00  0.00     0.023 C 
HETATM    9  C7  UNL     1      -2.406   0.986  -0.654  1.00  0.00     0.012 C 
HETATM   10  C8  UNL     1      -3.010  -0.338  -0.182  1.00  0.00    -0.009 C 
HETATM   11  C9  UNL     1      -2.245  -1.520  -0.792  1.00  0.00     0.012 C 
HETATM   12  C10 UNL     1      -1.199  -1.260   0.281  1.00  0.00     0.027 C 
HETATM   13  C11 UNL     1      -2.325  -0.672   1.112  1.00  0.00    -0.004 C 
HETATM   14  C12 UNL     1      -1.804   0.668   1.585  1.00  0.00     0.012 C 
ENDROOT
BRANCH   1  15
HETATM   15  C1  UNL     1       3.238   0.445   0.769  1.00  0.00     0.206 C 
BRANCH  15  16
HETATM   16  O1  UNL     1       4.307   0.457  -0.094  1.00  0.00    -0.398 OA
ATOM     17  H1  UNL     1       5.058   0.884   0.300  1.00  0.00     0.209 HD
ENDBRANCH  15  16
ENDBRANCH   1  15
BRANCH   1  18
HETATM   18  O2  UNL     1       2.287  -1.550  -0.209  1.00  0.00    -0.383 OA
ATOM     19  H2  UNL     1       1.536  -1.977  -0.603  1.00  0.00     0.210 HD
ENDBRANCH   1  18
BRANCH   7  20
HETATM   20  O3  UNL     1       2.428   0.397  -2.158  1.00  0.00    -0.367 OA
ATOM     21  H3  UNL     1       2.142   0.878  -2.926  1.00  0.00     0.212 HD
ENDBRANCH   7  20
TORSDOF 4
