REMARK  4 active torsions:
REMARK  status: ('A' for Active; 'I' for Inactive)
REMARK    1  A    between atoms: C1_2  and  C2_4 
REMARK    2  A    between atoms: C4_6  and  O3_7 
REMARK    3  A    between atoms: C5_9  and  O4_10 
REMARK    4  A    between atoms: C11_17  and  O5_18 
ROOT
HETATM    1  C2  UNL     1      -0.985  -1.100   0.192  1.00  0.00     0.124 C 
HETATM    2  C3  UNL     1      -2.157  -0.159   0.272  1.00  0.00     0.052 C 
HETATM    3  C4  UNL     1      -1.774   1.239   0.643  1.00  0.00     0.148 C 
HETATM    4  C5  UNL     1      -0.692   1.751  -0.240  1.00  0.00     0.153 C 
HETATM    5  C6  UNL     1       0.495   0.857  -0.365  1.00  0.00     0.052 C 
HETATM    6  C7  UNL     1       1.413   1.107   0.798  1.00  0.00     0.010 C 
HETATM    7  C8  UNL     1       2.709   0.357   0.714  1.00  0.00     0.001 C 
HETATM    8  C9  UNL     1       2.673  -0.652  -0.403  1.00  0.00     0.003 C 
HETATM    9  C10 UNL     1       1.385  -1.443  -0.245  1.00  0.00     0.039 C 
HETATM   10  C11 UNL     1       0.167  -0.585  -0.576  1.00  0.00     0.077 C 
ENDROOT
BRANCH   1  11
HETATM   11  C1  UNL     1      -1.495  -2.361  -0.413  1.00  0.00     0.180 C 
HETATM   12  O1  UNL     1      -1.085  -2.860  -1.465  1.00  0.00    -0.648 OA
HETATM   13  O2  UNL     1      -2.515  -3.028   0.267  1.00  0.00    -0.648 OA
ENDBRANCH   1  11
BRANCH  10  14
HETATM   14  O5  UNL     1      -0.099  -0.750  -1.951  1.00  0.00    -0.388 OA
ATOM     15  H5  UNL     1       0.642  -0.419  -2.445  1.00  0.00     0.210 HD
ENDBRANCH  10  14
BRANCH   3  16
HETATM   16  O3  UNL     1      -2.898   2.046   0.504  1.00  0.00    -0.393 OA
ATOM     17  H3  UNL     1      -2.655   2.934   0.740  1.00  0.00     0.210 HD
ENDBRANCH   3  16
BRANCH   4  18
HETATM   18  O4  UNL     1      -0.273   2.989   0.262  1.00  0.00    -0.393 OA
ATOM     19  H4  UNL     1       0.418   3.316  -0.302  1.00  0.00     0.210 HD
ENDBRANCH   4  18
TORSDOF 4
