REMARK  4 active torsions:
REMARK  status: ('A' for Active; 'I' for Inactive)
REMARK    1  A    between atoms: C2_2  and  N1_3 
REMARK    2  A    between atoms: N1_3  and  C3_4 
REMARK    3  A    between atoms: N1_3  and  C12_20 
REMARK    4  A    between atoms: C5_6  and  N2_7 
REMARK       I    between atoms: N2_7  and  C6_8 
ROOT
HETATM    1  C3  UNL     1      -0.490   0.285  -0.380  1.00  0.00     0.108 A 
HETATM    2  C4  UNL     1       0.454  -0.677  -0.085  1.00  0.00     0.095 A 
HETATM    3  C5  UNL     1       1.794  -0.347   0.164  1.00  0.00     0.145 A 
HETATM    4  C8  UNL     1       2.085   1.022   0.091  1.00  0.00     0.127 A 
HETATM    5  N3  UNL     1       3.212   1.723   0.263  1.00  0.00    -0.334 N 
ATOM      6  H3  UNL     1       4.122   1.325   0.495  1.00  0.00     0.168 HD
HETATM    7  C9  UNL     1       2.960   3.039   0.083  1.00  0.00     0.122 A 
HETATM    8  C10 UNL     1       3.951   4.154   0.187  1.00  0.00     0.098 C 
HETATM    9  O2  UNL     1       1.687   3.115  -0.197  1.00  0.00    -0.279 OA
HETATM   10  C11 UNL     1       1.104   1.939  -0.207  1.00  0.00     0.181 A 
HETATM   11  N4  UNL     1      -0.173   1.557  -0.440  1.00  0.00    -0.321 N 
ATOM     12  H4  UNL     1      -0.885   2.253  -0.661  1.00  0.00     0.169 HD
ENDROOT
BRANCH   1  13
HETATM   13  N1  UNL     1      -1.824  -0.165  -0.592  1.00  0.00    -0.363 N 
BRANCH  13  14
HETATM   14  C2  UNL     1      -2.601   0.414  -1.628  1.00  0.00     0.120 C 
HETATM   15  C1  UNL     1      -3.774   1.233  -1.242  1.00  0.00     0.026 C 
ENDBRANCH  13  14
BRANCH  13  16
HETATM   16  C12 UNL     1      -2.287  -1.210   0.278  1.00  0.00     0.077 C 
HETATM   17  C13 UNL     1      -2.546  -2.523  -0.384  1.00  0.00     0.032 C 
HETATM   18  C14 UNL     1      -3.586  -0.825   0.993  1.00  0.00     0.032 C 
ENDBRANCH  13  16
ENDBRANCH   1  13
BRANCH   3  19
HETATM   19  N2  UNL     1       2.618  -1.172   0.400  1.00  0.00    -0.368 NA
HETATM   20  C6  UNL     1       3.578  -2.015   0.665  1.00  0.00     0.288 C 
HETATM   21  C7  UNL     1       3.973  -3.230  -0.162  1.00  0.00     0.135 C 
HETATM   22  O1  UNL     1       4.319  -1.885   1.709  1.00  0.00    -0.258 OA
ENDBRANCH   3  19
TORSDOF 4
