REMARK  0 active torsions:
REMARK  status: ('A' for Active; 'I' for Inactive)
ROOT
HETATM    1  C1  UNL     1      -1.326   1.486  -0.138  1.00  0.00     0.000 C 
HETATM    2  C2  UNL     1       0.030   1.513  -0.740  1.00  0.00     0.000 C 
HETATM    3  C3  UNL     1       1.168   1.226   0.175  1.00  0.00     0.002 C 
HETATM    4  C4  UNL     1       2.207   0.329  -0.509  1.00  0.00     0.021 C 
HETATM    5  C5  UNL     1       2.386  -0.938   0.318  1.00  0.00     0.139 C 
HETATM    6  N1  UNL     1       1.085  -1.361   0.835  1.00  0.00    -0.341 N 
ATOM      7  H1  UNL     1       0.891  -1.438   1.833  1.00  0.00     0.179 HD
HETATM    8  N2  UNL     1       0.247  -1.615  -0.019  1.00  0.00    -0.341 N 
ATOM      9  H2  UNL     1       0.541  -1.508  -0.990  1.00  0.00     0.179 HD
HETATM   10  C6  UNL     1      -1.083  -2.041   0.193  1.00  0.00     0.139 C 
HETATM   11  C7  UNL     1      -2.084  -0.925  -0.156  1.00  0.00     0.021 C 
HETATM   12  C8  UNL     1      -1.701   0.290   0.650  1.00  0.00     0.002 C 
ENDROOT
TORSDOF 0
