REMARK  1 active torsions:
REMARK  status: ('A' for Active; 'I' for Inactive)
REMARK    1  A    between atoms: C1_4  and  C2_6 
ROOT
HETATM    1  C2  UNL     1      -0.283  -0.158  -0.058  1.00  0.00     0.161 A 
HETATM    2  O1  UNL     1       0.131  -1.385  -0.250  1.00  0.00    -0.232 OA
HETATM    3  N2  UNL     1       1.397  -1.516  -0.179  1.00  0.00    -0.247 N 
ATOM      4  H2  UNL     1       1.919  -2.384  -0.297  1.00  0.00     0.196 HD
HETATM    5  C3  UNL     1       1.918  -0.312   0.078  1.00  0.00     0.148 A 
HETATM    6 CL2  UNL     1       3.635   0.018   0.266  1.00  0.00    -0.061 Cl
HETATM    7  C4  UNL     1       0.868   0.571   0.160  1.00  0.00     0.113 A 
HETATM    8 CL3  UNL     1       1.042   2.277   0.482  1.00  0.00    -0.078 Cl
ENDROOT
BRANCH   1   9
HETATM    9  C1  UNL     1      -1.650   0.347  -0.069  1.00  0.00     0.135 C 
HETATM   10  N1  UNL     1      -2.641  -0.439  -0.285  1.00  0.00    -0.387 N 
ATOM     11  H12 UNL     1      -3.598  -0.086  -0.293  1.00  0.00     0.157 HD
ATOM     12  H11 UNL     1      -2.446  -1.427  -0.449  1.00  0.00     0.157 HD
HETATM   13 CL1  UNL     1      -1.983   2.036   0.212  1.00  0.00    -0.062 Cl
ENDBRANCH   1   9
TORSDOF 1
