REMARK  0 active torsions:
REMARK  status: ('A' for Active; 'I' for Inactive)
ROOT
HETATM    1  C1  UNL     1       3.171  -0.080  -0.045  1.00  0.00     0.076 C 
HETATM    2  C2  UNL     1       1.669  -0.117   0.115  1.00  0.00     0.050 A 
HETATM    3  N1  UNL     1       0.746   0.344  -0.713  1.00  0.00    -0.338 N 
ATOM      4  H1  UNL     1       1.023   0.791  -1.587  1.00  0.00     0.168 HD
HETATM    5  C3  UNL     1      -0.512   0.228  -0.415  1.00  0.00     0.142 A 
HETATM    6  N2  UNL     1      -1.711   0.565  -0.991  1.00  0.00    -0.317 N 
ATOM      7  H2  UNL     1      -1.833   1.036  -1.888  1.00  0.00     0.170 HD
HETATM    8  C4  UNL     1      -2.696   0.168  -0.170  1.00  0.00     0.178 A 
HETATM    9  S1  UNL     1      -4.312   0.371  -0.461  1.00  0.00    -0.040 SA
HETATM   10  N3  UNL     1      -2.195  -0.420   0.929  1.00  0.00    -0.324 N 
ATOM     11  H3  UNL     1      -2.715  -0.812   1.714  1.00  0.00     0.169 HD
HETATM   12  C5  UNL     1      -0.835  -0.379   0.768  1.00  0.00     0.122 A 
HETATM   13  S2  UNL     1       0.717  -0.749   1.385  1.00  0.00    -0.056 SA
ENDROOT
TORSDOF 0
