REMARK  0 active torsions:
REMARK  status: ('A' for Active; 'I' for Inactive)
ROOT
HETATM    1  S1  UNL     1       4.572  -0.561  -0.499  1.00  0.00    -0.052 SA
HETATM    2  C1  UNL     1       2.913  -0.455  -0.515  1.00  0.00     0.144 A 
HETATM    3  N1  UNL     1       2.166   0.483   0.066  1.00  0.00    -0.327 N 
ATOM      4  H1  UNL     1       2.593   1.246   0.592  1.00  0.00     0.169 HD
HETATM    5  C2  UNL     1       0.854   0.393  -0.061  1.00  0.00     0.116 A 
HETATM    6  C3  UNL     1       0.362  -0.655  -0.778  1.00  0.00     0.029 A 
HETATM    7  S2  UNL     1       1.771  -1.481  -1.250  1.00  0.00    -0.061 SA
HETATM    8  C4  UNL     1      -1.129  -0.807  -0.957  1.00  0.00     0.052 C 
HETATM    9  C5  UNL     1      -1.761  -0.640   0.431  1.00  0.00     0.025 C 
HETATM   10  C6  UNL     1      -1.459   0.737   0.915  1.00  0.00     0.121 C 
HETATM   11  N2  UNL     1      -0.189   1.268   0.467  1.00  0.00    -0.375 N 
ATOM     12  H2  UNL     1      -0.019   2.272   0.521  1.00  0.00     0.161 HD
ENDROOT
TORSDOF 0
