REMARK  2 active torsions:
REMARK  status: ('A' for Active; 'I' for Inactive)
REMARK    1  A    between atoms: S1_2  and  C2_3 
REMARK    2  A    between atoms: N4_12  and  C4_13 
ROOT
HETATM    1  C2  UNL     1       2.254   0.084   0.049  1.00  0.00     0.177 A 
HETATM    2  N1  UNL     1       3.320   0.826   0.372  1.00  0.00    -0.265 N 
ATOM      3  H1  UNL     1       4.209   0.445   0.694  1.00  0.00     0.189 HD
HETATM    4  N2  UNL     1       3.078   2.095   0.223  1.00  0.00    -0.130 N 
ATOM      5  H2  UNL     1       3.730   2.858   0.404  1.00  0.00     0.205 HD
HETATM    6  C3  UNL     1       1.769   2.223  -0.228  1.00  0.00     0.695 A 
HETATM    7  N3  UNL     1       1.281   3.360  -0.473  1.00  0.00    -0.233 N 
ATOM      8  H31 UNL     1       0.321   3.454  -0.804  1.00  0.00     0.174 HD
ATOM      9  H32 UNL     1       1.648   4.309  -0.400  1.00  0.00     0.174 HD
HETATM   10  N4  UNL     1       1.283   0.967  -0.325  1.00  0.00    -0.153 N 
ENDROOT
BRANCH  10  11
HETATM   11  C4  UNL     1      -0.027   0.571  -0.742  1.00  0.00     0.142 C 
HETATM   12  C5  UNL     1      -1.050   1.655  -0.872  1.00  0.00     0.259 C 
HETATM   13  N5  UNL     1      -2.305   0.863  -0.710  1.00  0.00    -0.069 N 
HETATM   14  C6  UNL     1      -1.940   0.335   0.621  1.00  0.00     0.192 C 
ATOM     15  H52 UNL     1      -3.196   1.351  -0.805  1.00  0.00     0.277 HD
ATOM     16  H51 UNL     1      -2.548   0.195  -1.441  1.00  0.00     0.277 HD
HETATM   17  C7  UNL     1      -2.864  -0.720   1.096  1.00  0.00     0.033 C 
HETATM   18  C10 UNL     1      -0.693  -0.462   0.163  1.00  0.00     0.042 C 
HETATM   19  C8  UNL     1      -2.678  -1.829   0.094  1.00  0.00     0.002 C 
HETATM   20  C9  UNL     1      -1.374  -1.533  -0.626  1.00  0.00     0.009 C 
ENDBRANCH  10  11
BRANCH   1  21
HETATM   21  S1  UNL     1       2.129  -1.697   0.064  1.00  0.00    -0.096 SA
HETATM   22  C1  UNL     1       3.681  -2.422   0.591  1.00  0.00     0.099 C 
ENDBRANCH   1  21
TORSDOF 2
