REMARK  2 active torsions:
REMARK  status: ('A' for Active; 'I' for Inactive)
REMARK    1  A    between atoms: C2_2  and  C3_3 
REMARK    2  A    between atoms: C3_3  and  C4_4 
ROOT
HETATM    1  C4  UNL     1       1.153   0.303   0.695  1.00  0.00     0.008 C 
HETATM    2  C5  UNL     1       0.040  -0.345   1.443  1.00  0.00     0.035 C 
HETATM    3  C6  UNL     1      -1.252   0.392   1.433  1.00  0.00     0.125 C 
HETATM    4  C7  UNL     1      -2.354  -0.370   2.054  1.00  0.00     0.149 C 
HETATM    5  N1  UNL     1      -2.923  -1.438   1.309  1.00  0.00    -0.362 N 
ATOM      6  H1  UNL     1      -3.010  -2.308   1.834  1.00  0.00     0.162 HD
HETATM    7  C8  UNL     1      -3.349  -1.515   0.098  1.00  0.00     0.190 C 
HETATM    8  N2  UNL     1      -3.873  -2.758  -0.352  1.00  0.00    -0.063 NA
HETATM    9  N3  UNL     1      -3.331  -0.426  -0.838  1.00  0.00    -0.304 N 
ATOM     10  H3  UNL     1      -4.027  -0.458  -1.583  1.00  0.00     0.171 HD
HETATM   11  C9  UNL     1      -2.525   0.600  -0.843  1.00  0.00     0.209 C 
HETATM   12  N4  UNL     1      -2.722   1.537  -1.886  1.00  0.00    -0.062 NA
HETATM   13  N5  UNL     1      -1.483   0.854   0.092  1.00  0.00    -0.262 N 
HETATM   14  N6  UNL     1      -0.547   1.710  -0.449  1.00  0.00    -0.131 NA
HETATM   15  C10 UNL     1       0.800   1.244  -0.378  1.00  0.00     0.099 C 
HETATM   16  C11 UNL     1       1.672   2.507  -0.327  1.00  0.00     0.030 C 
ENDROOT
BRANCH   1  17
HETATM   17  C3  UNL     1       2.047  -0.841   0.219  1.00  0.00     0.006 C 
BRANCH  17  18
HETATM   18  C2  UNL     1       3.232  -0.345  -0.561  1.00  0.00    -0.004 C 
HETATM   19  C1  UNL     1       4.028  -1.580  -0.969  1.00  0.00     0.005 C 
ENDBRANCH  17  18
ENDBRANCH   1  17
TORSDOF 2
