REMARK  3 active torsions:
REMARK  status: ('A' for Active; 'I' for Inactive)
REMARK    1  A    between atoms: C2_2  and  C5_5 
REMARK    2  A    between atoms: C5_5  and  N1_6 
REMARK    3  A    between atoms: N1_6  and  C6_8 
ROOT
HETATM    1  C6  UNL     1       1.648   0.050  -0.259  1.00  0.00     0.082 A 
HETATM    2  C7  UNL     1       2.091  -0.063   1.020  1.00  0.00     0.122 A 
HETATM    3  N2  UNL     1       3.423  -0.065   1.274  1.00  0.00    -0.341 N 
ATOM      4  H2  UNL     1       3.775  -0.148   2.228  1.00  0.00     0.167 HD
HETATM    5  C8  UNL     1       4.266   0.046   0.232  1.00  0.00     0.176 A 
HETATM    6  S1  UNL     1       5.868   0.043   0.548  1.00  0.00    -0.041 SA
HETATM    7  N3  UNL     1       3.848   0.159  -1.040  1.00  0.00    -0.322 N 
ATOM      8  H3  UNL     1       4.531   0.241  -1.793  1.00  0.00     0.169 HD
HETATM    9  C9  UNL     1       2.535   0.164  -1.324  1.00  0.00     0.130 A 
HETATM   10  S2  UNL     1       2.001   0.299  -2.860  1.00  0.00    -0.058 SA
ENDROOT
BRANCH   1  11
HETATM   11  N1  UNL     1       0.259   0.052  -0.522  1.00  0.00    -0.386 N 
ATOM     12  H1  UNL     1      -0.079   0.136  -1.481  1.00  0.00     0.159 HD
BRANCH  11  13
HETATM   13  C5  UNL     1      -0.669  -0.064   0.556  1.00  0.00     0.128 C 
BRANCH  13  14
HETATM   14  C2  UNL     1      -2.095  -0.037   0.017  1.00  0.00    -0.035 C 
HETATM   15  C1  UNL     1      -2.332  -1.179  -0.945  1.00  0.00     0.016 C 
HETATM   16  C3  UNL     1      -2.263   1.303  -0.672  1.00  0.00     0.016 C 
HETATM   17  C4  UNL     1      -3.087  -0.210   1.157  1.00  0.00     0.016 C 
ENDBRANCH  13  14
ENDBRANCH  11  13
ENDBRANCH   1  11
TORSDOF 3
