REMARK  2 active torsions:
REMARK  status: ('A' for Active; 'I' for Inactive)
REMARK       I    between atoms: C1_4  and  N2_5 
REMARK       I    between atoms: C1_4  and  N3_12 
REMARK    1  A    between atoms: N2_5  and  C2_7 
REMARK    2  A    between atoms: N3_12  and  C6_14 
ROOT
HETATM    1  N1  UNL     1       0.646  -1.661  -1.689  1.00  0.00    -0.235 N 
ATOM      2  H11 UNL     1      -0.362  -1.774  -1.799  1.00  0.00     0.174 HD
ATOM      3  H12 UNL     1       1.269  -1.867  -2.470  1.00  0.00     0.174 HD
HETATM    4  C1  UNL     1       1.128  -1.266  -0.585  1.00  0.00     0.672 C 
HETATM    5  N2  UNL     1       2.518  -1.110  -0.433  1.00  0.00    -0.192 N 
ATOM      6  H2  UNL     1       3.056  -1.867  -0.012  1.00  0.00     0.184 HD
HETATM    7  N3  UNL     1       0.268  -0.981   0.494  1.00  0.00    -0.222 N 
ATOM      8  H3  UNL     1       0.671  -0.962   1.431  1.00  0.00     0.178 HD
ENDROOT
BRANCH   5   9
HETATM    9  C2  UNL     1       3.212   0.093  -0.856  1.00  0.00     0.056 A 
HETATM   10  C3  UNL     1       4.543   0.272  -0.724  1.00  0.00     0.037 A 
HETATM   11  C4  UNL     1       5.064   1.453  -1.164  1.00  0.00     0.052 A 
HETATM   12  S1  UNL     1       3.704   2.285  -1.748  1.00  0.00    -0.111 SA
HETATM   13  C5  UNL     1       2.503   1.121  -1.424  1.00  0.00     0.079 A 
ENDBRANCH   5   9
BRANCH   7  14
HETATM   14  C6  UNL     1      -1.141  -0.715   0.363  1.00  0.00     0.099 C 
HETATM   15  C7  UNL     1      -1.452   0.480  -0.491  1.00  0.00     0.026 C 
HETATM   16  C8  UNL     1      -2.981   0.602  -0.520  1.00  0.00     0.002 C 
HETATM   17  C9  UNL     1      -3.382   1.015   0.886  1.00  0.00     0.000 C 
HETATM   18  C10 UNL     1      -3.139  -0.161   1.787  1.00  0.00     0.002 C 
HETATM   19  C11 UNL     1      -1.749  -0.691   1.716  1.00  0.00     0.026 C 
ENDBRANCH   7  14
TORSDOF 2
