REMARK  6 active torsions:
REMARK  status: ('A' for Active; 'I' for Inactive)
REMARK    1  A    between atoms: C2_2  and  S1_3 
REMARK    2  A    between atoms: S1_3  and  C3_4 
REMARK    3  A    between atoms: C3_4  and  N1_6 
REMARK    4  A    between atoms: N2_9  and  C6_10 
REMARK    5  A    between atoms: C10_19  and  C11_20 
REMARK    6  A    between atoms: C11_20  and  C12_22 
ROOT
HETATM    1  C6  UNL     1      -0.870  -1.852  -0.527  1.00  0.00     0.118 A 
HETATM    2  N3  UNL     1      -0.258  -3.057  -0.266  1.00  0.00    -0.338 N 
ATOM      3  H3  UNL     1       0.710  -3.034   0.054  1.00  0.00     0.168 HD
HETATM    4  C7  UNL     1      -0.826  -4.236  -0.398  1.00  0.00     0.182 A 
HETATM    5  N4  UNL     1      -2.094  -4.272  -0.818  1.00  0.00    -0.346 N 
ATOM      6  H4  UNL     1      -2.571  -5.166  -0.934  1.00  0.00     0.167 HD
HETATM    7  C8  UNL     1      -2.751  -3.099  -1.093  1.00  0.00     0.089 A 
HETATM    8  S3  UNL     1      -4.342  -2.804  -1.639  1.00  0.00    -0.082 SA
HETATM    9  C9  UNL     1      -4.305  -1.135  -1.712  1.00  0.00     0.068 A 
HETATM   10  C10 UNL     1      -2.997  -0.795  -1.293  1.00  0.00     0.037 A 
HETATM   11  C15 UNL     1      -2.192  -1.840  -0.969  1.00  0.00     0.056 A 
ENDROOT
BRANCH   1  12
HETATM   12  N2  UNL     1      -0.059  -0.764  -0.249  1.00  0.00    -0.363 N 
HETATM   13  C5  UNL     1      -0.257   0.087   0.887  1.00  0.00     0.144 C 
HETATM   14  C4  UNL     1       0.973   0.048   1.799  1.00  0.00     0.144 C 
HETATM   15  N1  UNL     1       2.218   0.059   0.976  1.00  0.00    -0.363 N 
HETATM   16  C17 UNL     1       2.010   0.535  -0.359  1.00  0.00     0.144 C 
HETATM   17  C16 UNL     1       1.108  -0.496  -1.058  1.00  0.00     0.144 C 
BRANCH  15  18
HETATM   18  C3  UNL     1       3.358  -0.409   1.609  1.00  0.00     0.136 C 
HETATM   19  S2  UNL     1       3.146  -0.945   3.207  1.00  0.00    -0.053 SA
BRANCH  18  20
HETATM   20  S1  UNL     1       4.967  -0.524   1.002  1.00  0.00    -0.101 SA
BRANCH  20  21
HETATM   21  C2  UNL     1       5.468   0.296  -0.463  1.00  0.00     0.077 C 
HETATM   22  C1  UNL     1       5.503   1.815  -0.321  1.00  0.00     0.016 C 
ENDBRANCH  20  21
ENDBRANCH  18  20
ENDBRANCH  15  18
ENDBRANCH   1  12
BRANCH  10  23
HETATM   23  C11 UNL     1      -2.652   0.641  -1.377  1.00  0.00     0.184 C 
HETATM   24  O1  UNL     1      -1.794   1.015  -2.214  1.00  0.00    -0.287 OA
BRANCH  23  25
HETATM   25  C12 UNL     1      -3.238   1.663  -0.566  1.00  0.00     0.074 C 
HETATM   26  C13 UNL     1      -4.096   1.620   0.399  1.00  0.00     0.011 C 
HETATM   27  C14 UNL     1      -4.504   2.927   1.041  1.00  0.00     0.062 C 
HETATM   28 CL1  UNL     1      -4.795   0.195   1.071  1.00  0.00    -0.089 Cl
ENDBRANCH  23  25
ENDBRANCH  10  23
TORSDOF 6
