REMARK  5 active torsions:
REMARK  status: ('A' for Active; 'I' for Inactive)
REMARK    1  A    between atoms: C2_2  and  C3_3 
REMARK    2  A    between atoms: C8_8  and  C9_9 
REMARK    3  A    between atoms: C9_9  and  N1_10 
REMARK       I    between atoms: N1_10  and  C10_12 
REMARK       I    between atoms: C10_12  and  N2_14 
REMARK    4  A    between atoms: N2_14  and  C11_16 
REMARK    5  A    between atoms: C11_16  and  C12_17 
ROOT
HETATM    1  N1  UNL     1       0.607  -0.153   0.523  1.00  0.00    -0.343 N 
ATOM      2  H1  UNL     1       0.314  -0.853   1.205  1.00  0.00     0.164 HD
HETATM    3  C10 UNL     1       1.897  -0.237  -0.068  1.00  0.00     0.316 C 
HETATM    4  O1  UNL     1       2.247   0.639  -0.914  1.00  0.00    -0.247 OA
HETATM    5  N2  UNL     1       2.793  -1.278   0.270  1.00  0.00    -0.335 N 
ATOM      6  H2  UNL     1       2.490  -1.974   0.951  1.00  0.00     0.164 HD
ENDROOT
BRANCH   1   7
HETATM    7  C9  UNL     1      -0.284   0.910   0.166  1.00  0.00     0.130 C 
BRANCH   7   8
HETATM    8  C8  UNL     1      -1.610   0.914   0.797  1.00  0.00     0.016 C 
HETATM    9  C3  UNL     1      -2.512  -0.264   0.528  1.00  0.00     0.017 C 
HETATM   10  C4  UNL     1      -3.724   0.457  -0.011  1.00  0.00    -0.006 C 
HETATM   11  C5  UNL     1      -3.871   1.656   0.899  1.00  0.00     0.010 C 
HETATM   12  C7  UNL     1      -3.052   1.453  -0.974  1.00  0.00     0.010 C 
HETATM   13  C6  UNL     1      -2.500   2.033   0.314  1.00  0.00    -0.007 C 
BRANCH   9  14
HETATM   14  C2  UNL     1      -2.027  -1.252  -0.426  1.00  0.00    -0.031 C 
HETATM   15  C1  UNL     1      -1.883  -2.506  -0.065  1.00  0.00     0.007 C 
ENDBRANCH   9  14
ENDBRANCH   7   8
ENDBRANCH   1   7
BRANCH   5  16
HETATM   16  C11 UNL     1       4.110  -1.407  -0.296  1.00  0.00     0.223 C 
BRANCH  16  17
HETATM   17  C12 UNL     1       4.988  -0.262  -0.025  1.00  0.00     0.248 C 
HETATM   18  N3  UNL     1       6.324  -0.270  -0.540  1.00  0.00    -0.061 NA
HETATM   19  O2  UNL     1       4.657   0.749   0.638  1.00  0.00    -0.275 OA
ENDBRANCH  16  17
ENDBRANCH   5  16
TORSDOF 5
