REMARK  9 active torsions:
REMARK  status: ('A' for Active; 'I' for Inactive)
REMARK    1  A    between atoms: C3_3  and  C4_4 
REMARK    2  A    between atoms: C5_5  and  C6_6 
REMARK    3  A    between atoms: C6_6  and  C7_7 
REMARK    4  A    between atoms: C7_7  and  C8_8 
REMARK    5  A    between atoms: C7_7  and  C17_31 
REMARK    6  A    between atoms: N2_13  and  C11_14 
REMARK    7  A    between atoms: C12_17  and  N4_18 
REMARK    8  A    between atoms: C14_25  and  N7_26 
REMARK    9  A    between atoms: C17_31  and  C19_33 
ROOT
HETATM    1  C1  UNL     1       5.174   4.424  -1.576  1.00  0.00     0.113 C 
HETATM    2  C2  UNL     1       4.469   3.392  -0.798  1.00  0.00    -0.097 C 
HETATM    3  C3  UNL     1       3.867   2.547  -0.170  1.00  0.00    -0.015 C 
ENDROOT
BRANCH   3   4
HETATM    4  C4  UNL     1       3.143   1.542   0.553  1.00  0.00    -0.015 C 
HETATM    5  C5  UNL     1       2.553   0.680   1.146  1.00  0.00    -0.088 C 
BRANCH   5   6
HETATM    6  C6  UNL     1       1.828  -0.389   1.848  1.00  0.00     0.130 C 
BRANCH   6   7
HETATM    7  C7  UNL     1       1.110  -1.256   0.888  1.00  0.00    -0.051 C 
BRANCH   7   8
HETATM    8  C8  UNL     1       0.060  -0.675   0.030  1.00  0.00     0.015 A 
HETATM    9  C9  UNL     1      -0.333  -1.043  -1.255  1.00  0.00     0.035 A 
HETATM   10  C10 UNL     1       0.322  -1.978  -2.194  1.00  0.00     0.070 C 
HETATM   11  N1  UNL     1      -1.429  -0.314  -1.540  1.00  0.00    -0.296 N 
HETATM   12  N2  UNL     1      -1.779   0.468  -0.597  1.00  0.00    -0.240 N 
ATOM     13  H1  UNL     1      -1.931  -0.381  -2.426  1.00  0.00     0.187 HD
HETATM   14  C15 UNL     1      -0.884   0.289   0.412  1.00  0.00     0.045 A 
HETATM   15  C16 UNL     1      -0.949   0.999   1.724  1.00  0.00     0.071 C 
BRANCH  12  16
HETATM   16  C11 UNL     1      -2.898   1.360  -0.509  1.00  0.00     0.179 A 
HETATM   17  N3  UNL     1      -2.814   2.689  -0.431  1.00  0.00    -0.172 N 
HETATM   18  C12 UNL     1      -3.847   3.537  -0.313  1.00  0.00     0.678 A 
ATOM     19  H3  UNL     1      -1.880   3.097  -0.464  1.00  0.00     0.186 HD
HETATM   20  N5  UNL     1      -5.084   2.964  -0.273  1.00  0.00    -0.176 N 
HETATM   21  C13 UNL     1      -5.293   1.648  -0.343  1.00  0.00     0.168 A 
ATOM     22  H5  UNL     1      -5.895   3.576  -0.185  1.00  0.00     0.185 HD
HETATM   23  N6  UNL     1      -6.602   1.060  -0.295  1.00  0.00    -0.079 NA
HETATM   24  C14 UNL     1      -4.187   0.831  -0.463  1.00  0.00     0.190 A 
BRANCH  18  25
HETATM   25  N4  UNL     1      -3.659   4.813  -0.245  1.00  0.00    -0.234 N 
ATOM     26  H42 UNL     1      -2.734   5.242  -0.275  1.00  0.00     0.174 HD
ATOM     27  H41 UNL     1      -4.444   5.458  -0.155  1.00  0.00     0.174 HD
ENDBRANCH  18  25
BRANCH  24  28
HETATM   28  N7  UNL     1      -4.353  -0.560  -0.554  1.00  0.00    -0.108 N 
HETATM   29  O1  UNL     1      -4.058  -1.345   0.366  1.00  0.00    -0.532 OA
HETATM   30  O2  UNL     1      -4.860  -1.167  -1.693  1.00  0.00    -0.532 OA
ENDBRANCH  24  28
ENDBRANCH  12  16
ENDBRANCH   7   8
BRANCH   7  31
HETATM   31  C17 UNL     1       1.740  -2.534   0.553  1.00  0.00     0.012 C 
HETATM   32  C18 UNL     1       1.846  -3.337   1.892  1.00  0.00     0.015 C 
BRANCH  31  33
HETATM   33  C19 UNL     1       3.119  -2.541  -0.045  1.00  0.00     0.004 C 
HETATM   34  C20 UNL     1       3.472  -4.008  -0.272  1.00  0.00     0.006 C 
ENDBRANCH  31  33
ENDBRANCH   7  31
ENDBRANCH   6   7
ENDBRANCH   5   6
ENDBRANCH   3   4
TORSDOF 9
