REMARK  15 active torsions:
REMARK  status: ('A' for Active; 'I' for Inactive)
REMARK    1  A    between atoms: C2_2  and  C3_3 
REMARK    2  A    between atoms: C3_3  and  C4_4 
REMARK    3  A    between atoms: C4_4  and  C5_5 
REMARK    4  A    between atoms: C7_10  and  C8_11 
REMARK    5  A    between atoms: C8_11  and  C9_12 
REMARK    6  A    between atoms: C9_12  and  C10_13 
REMARK    7  A    between atoms: C13_19  and  C14_20 
REMARK    8  A    between atoms: C14_20  and  C15_21 
REMARK    9  A    between atoms: C18_26  and  O3_27 
REMARK   10  A    between atoms: C19_29  and  C20_30 
REMARK   11  A    between atoms: C20_30  and  C21_31 
REMARK   12  A    between atoms: C24_36  and  O4_37 
REMARK   13  A    between atoms: C25_39  and  C26_40 
REMARK   14  A    between atoms: C30_47  and  C31_48 
REMARK   15  A    between atoms: C34_53  and  O6_54 
ROOT
HETATM    1  C5  UNL     1       3.507   1.491   0.490  1.00  0.00     0.177 C 
HETATM    2  N1  UNL     1       2.690   0.675  -0.370  1.00  0.00    -0.346 N 
ATOM      3  H1  UNL     1       2.762   0.925  -1.356  1.00  0.00     0.163 HD
HETATM    4  C6  UNL     1       1.826  -0.381  -0.128  1.00  0.00     0.241 C 
HETATM    5  O1  UNL     1       0.561  -0.155  -0.255  1.00  0.00    -0.271 OA
HETATM    6  C7  UNL     1       2.128  -1.783   0.266  1.00  0.00     0.176 C 
HETATM    7  N2  UNL     1       1.222  -2.308   1.250  1.00  0.00    -0.346 N 
ATOM      8  H2  UNL     1       1.338  -1.911   2.183  1.00  0.00     0.163 HD
HETATM    9  C12 UNL     1       0.203  -3.274   1.152  1.00  0.00     0.241 C 
HETATM   10  O2  UNL     1       0.309  -4.291   1.919  1.00  0.00    -0.271 OA
HETATM   11  C13 UNL     1      -0.991  -3.291   0.294  1.00  0.00     0.175 C 
HETATM   12  N3  UNL     1      -2.166  -2.877   1.104  1.00  0.00    -0.359 N 
ATOM     13  H3  UNL     1      -2.502  -3.582   1.760  1.00  0.00     0.162 HD
HETATM   14  C18 UNL     1      -2.879  -1.690   1.113  1.00  0.00     0.135 C 
HETATM   15  C19 UNL     1      -3.708  -1.024   0.081  1.00  0.00     0.158 C 
HETATM   16  N4  UNL     1      -2.977  -0.305  -0.932  1.00  0.00    -0.357 N 
ATOM     17  H4  UNL     1      -2.371  -0.919  -1.476  1.00  0.00     0.162 HD
HETATM   18  C24 UNL     1      -2.895   0.989  -1.343  1.00  0.00     0.160 C 
HETATM   19  C25 UNL     1      -3.601   2.250  -1.072  1.00  0.00     0.066 C 
HETATM   20  N5  UNL     1      -2.921   3.417  -1.596  1.00  0.00    -0.325 N 
ATOM     21  H5  UNL     1      -2.905   3.426  -2.616  1.00  0.00     0.169 HD
HETATM   22  C29 UNL     1      -2.290   4.518  -1.058  1.00  0.00     0.245 C 
HETATM   23  O5  UNL     1      -2.700   5.687  -1.321  1.00  0.00    -0.271 OA
HETATM   24  C30 UNL     1      -1.096   4.645  -0.133  1.00  0.00     0.181 C 
HETATM   25  N6  UNL     1      -0.200   3.531  -0.315  1.00  0.00    -0.343 N 
ATOM     26  H6  UNL     1      -0.526   2.674   0.133  1.00  0.00     0.164 HD
HETATM   27  C34 UNL     1       1.022   3.378  -0.976  1.00  0.00     0.220 C 
HETATM   28  N7  UNL     1       2.363   3.561  -0.583  1.00  0.00    -0.291 N 
ATOM     29  H7  UNL     1       2.865   4.264  -1.124  1.00  0.00     0.172 HD
HETATM   30  C35 UNL     1       3.126   2.953   0.413  1.00  0.00     0.247 C 
HETATM   31  O7  UNL     1       3.579   3.654   1.384  1.00  0.00    -0.271 OA
ENDROOT
BRANCH   1  32
HETATM   32  C4  UNL     1       4.979   1.484   0.111  1.00  0.00     0.035 C 
BRANCH  32  33
HETATM   33  C3  UNL     1       5.234   1.983  -1.277  1.00  0.00     0.002 C 
BRANCH  33  34
HETATM   34  C2  UNL     1       6.706   1.966  -1.628  1.00  0.00    -0.004 C 
HETATM   35  C1  UNL     1       7.285   0.573  -1.547  1.00  0.00     0.005 C 
ENDBRANCH  33  34
ENDBRANCH  32  33
ENDBRANCH   1  32
BRANCH   6  36
HETATM   36  C8  UNL     1       3.579  -1.859   0.787  1.00  0.00     0.035 C 
BRANCH  36  37
HETATM   37  C9  UNL     1       3.891  -3.282   1.192  1.00  0.00     0.002 C 
BRANCH  37  38
HETATM   38  C10 UNL     1       5.287  -3.433   1.711  1.00  0.00    -0.004 C 
HETATM   39  C11 UNL     1       5.563  -2.588   2.922  1.00  0.00     0.005 C 
ENDBRANCH  37  38
ENDBRANCH  36  37
ENDBRANCH   6  36
BRANCH  27  40
HETATM   40  O6  UNL     1       0.923   2.979  -2.222  1.00  0.00    -0.332 OA
ATOM     41  H6  UNL     1       1.754   2.875  -2.671  1.00  0.00     0.220 HD
ENDBRANCH  27  40
BRANCH  24  42
HETATM   42  C31 UNL     1      -0.411   5.965  -0.195  1.00  0.00     0.009 C 
HETATM   43  C32 UNL     1      -1.284   7.154   0.111  1.00  0.00     0.012 C 
HETATM   44  C33 UNL     1       0.710   6.034   0.858  1.00  0.00     0.012 C 
ENDBRANCH  24  42
BRANCH  11  45
HETATM   45  C14 UNL     1      -1.267  -4.632  -0.304  1.00  0.00     0.038 C 
BRANCH  45  46
HETATM   46  C15 UNL     1      -0.281  -5.248  -1.208  1.00  0.00    -0.020 C 
HETATM   47  C16 UNL     1       1.071  -5.589  -0.726  1.00  0.00     0.009 C 
HETATM   48  C17 UNL     1      -0.925  -6.407  -1.974  1.00  0.00     0.009 C 
ENDBRANCH  45  46
ENDBRANCH  11  45
BRANCH  14  49
HETATM   49  O3  UNL     1      -2.834  -1.008   2.227  1.00  0.00    -0.348 OA
ATOM     50  H3  UNL     1      -3.323  -0.194   2.233  1.00  0.00     0.219 HD
ENDBRANCH  14  49
BRANCH  19  51
HETATM   51  C26 UNL     1      -4.299   2.434   0.209  1.00  0.00     0.032 C 
HETATM   52  C27 UNL     1      -3.529   2.375   1.475  1.00  0.00     0.016 C 
HETATM   53  C28 UNL     1      -4.908   3.852   0.179  1.00  0.00     0.016 C 
ENDBRANCH  19  51
BRANCH  15  54
HETATM   54  C20 UNL     1      -4.592  -2.067  -0.662  1.00  0.00     0.037 C 
BRANCH  54  55
HETATM   55  C21 UNL     1      -5.505  -2.768   0.296  1.00  0.00    -0.020 C 
HETATM   56  C22 UNL     1      -6.349  -3.766  -0.423  1.00  0.00     0.009 C 
HETATM   57  C23 UNL     1      -6.339  -1.718   1.006  1.00  0.00     0.009 C 
ENDBRANCH  54  55
ENDBRANCH  15  54
BRANCH  18  58
HETATM   58  O4  UNL     1      -1.938   1.191  -2.217  1.00  0.00    -0.345 OA
ATOM     59  H4  UNL     1      -1.881   2.095  -2.504  1.00  0.00     0.219 HD
ENDBRANCH  18  58
TORSDOF 15
