REMARK  11 active torsions:
REMARK  status: ('A' for Active; 'I' for Inactive)
REMARK    1  A    between atoms: C1_2  and  C2_3 
REMARK       I    between atoms: C1_2  and  N1_6 
REMARK    2  A    between atoms: N2_9  and  C7_10 
REMARK    3  A    between atoms: C7_10  and  C8_11 
REMARK    4  A    between atoms: C8_11  and  O2_12 
REMARK    5  A    between atoms: C8_11  and  C9_14 
REMARK    6  A    between atoms: C9_14  and  N3_15 
REMARK    7  A    between atoms: C13_19  and  C14_20 
REMARK    8  A    between atoms: C14_20  and  O3_21 
REMARK    9  A    between atoms: N4_23  and  O4_25 
REMARK   10  A    between atoms: C15_27  and  C16_28 
REMARK   11  A    between atoms: C16_28  and  C17_29 
ROOT
HETATM    1  N3  UNL     1      -2.323   0.051   0.494  1.00  0.00    -0.385 N 
HETATM    2  C10 UNL     1      -2.108   0.521   1.823  1.00  0.00     0.122 C 
HETATM    3  C11 UNL     1      -2.925  -0.267   2.846  1.00  0.00     0.021 C 
HETATM    4  C12 UNL     1      -4.351   0.154   2.649  1.00  0.00     0.016 C 
HETATM    5  C13 UNL     1      -4.603   0.423   1.158  1.00  0.00     0.085 C 
HETATM    6  C15 UNL     1      -3.665  -0.441   0.350  1.00  0.00     0.100 C 
ENDROOT
BRANCH   1   7
HETATM    7  C9  UNL     1      -1.752   0.736  -0.547  1.00  0.00     0.091 C 
BRANCH   7   8
HETATM    8  C8  UNL     1      -0.299   0.565  -0.837  1.00  0.00     0.174 C 
BRANCH   8   9
HETATM    9  C7  UNL     1       0.658   0.871   0.271  1.00  0.00     0.159 C 
BRANCH   9  10
HETATM   10  N2  UNL     1       2.019   0.762  -0.111  1.00  0.00    -0.387 N 
HETATM   11  C6  UNL     1       2.555  -0.492  -0.404  1.00  0.00     0.078 C 
HETATM   12  C5  UNL     1       4.029  -0.651  -0.482  1.00  0.00     0.169 C 
HETATM   13  N1  UNL     1       4.760   0.576  -0.442  1.00  0.00    -0.346 N 
HETATM   14  C1  UNL     1       6.105   0.684  -0.895  1.00  0.00     0.224 C 
HETATM   15  C19 UNL     1       4.169   1.772   0.127  1.00  0.00     0.146 C 
HETATM   16  O1  UNL     1       6.580   1.881  -0.943  1.00  0.00    -0.273 OA
HETATM   17  C18 UNL     1       2.759   1.923  -0.433  1.00  0.00     0.141 C 
BRANCH  14  18
HETATM   18  C2  UNL     1       7.027  -0.371  -1.314  1.00  0.00     0.078 A 
HETATM   19  C3  UNL     1       7.705  -1.125  -0.112  1.00  0.00     0.015 A 
HETATM   20  C4  UNL     1       6.908  -1.805  -1.237  1.00  0.00     0.015 A 
ENDBRANCH  14  18
ENDBRANCH   9  10
ENDBRANCH   8   9
BRANCH   8  21
HETATM   21  O2  UNL     1       0.051   1.419  -1.926  1.00  0.00    -0.389 OA
ATOM     22  H2  UNL     1      -0.557   1.225  -2.630  1.00  0.00     0.210 HD
ENDBRANCH   8  21
ENDBRANCH   7   8
ENDBRANCH   1   7
BRANCH   6  23
HETATM   23  C16 UNL     1      -4.144  -0.742  -1.012  1.00  0.00     0.097 C 
BRANCH  23  24
HETATM   24  C17 UNL     1      -3.398  -1.790  -1.766  1.00  0.00     0.355 C 
HETATM   25  F1  UNL     1      -3.413  -3.025  -1.140  1.00  0.00    -0.214 F 
HETATM   26  F2  UNL     1      -3.962  -1.920  -3.043  1.00  0.00    -0.214 F 
ENDBRANCH  23  24
ENDBRANCH   6  23
BRANCH   5  27
HETATM   27  C14 UNL     1      -6.033   0.113   0.923  1.00  0.00     0.141 C 
HETATM   28  N4  UNL     1      -6.902   0.951   0.469  1.00  0.00    -0.251 N 
ATOM     29  H4  UNL     1      -7.858   0.617   0.350  1.00  0.00     0.196 HD
BRANCH  27  30
HETATM   30  O3  UNL     1      -6.484  -1.165   1.210  1.00  0.00    -0.348 OA
ATOM     31  H3  UNL     1      -7.401  -1.364   1.059  1.00  0.00     0.219 HD
ENDBRANCH  27  30
BRANCH  28  32
HETATM   32  O4  UNL     1      -6.644   2.246   0.136  1.00  0.00    -0.288 OA
ATOM     33  H4  UNL     1      -7.284   2.863  -0.198  1.00  0.00     0.244 HD
ENDBRANCH  28  32
ENDBRANCH   5  27
TORSDOF 11
