REMARK  6 active torsions:
REMARK  status: ('A' for Active; 'I' for Inactive)
REMARK    1  A    between atoms: C1_2  and  C2_4 
REMARK    2  A    between atoms: C2_4  and  C3_5 
REMARK    3  A    between atoms: C3_5  and  N1_6 
REMARK       I    between atoms: N1_6  and  C4_8 
REMARK    4  A    between atoms: C4_8  and  C5_10 
REMARK       I    between atoms: N3_17  and  C8_18 
REMARK    5  A    between atoms: C8_18  and  C9_20 
REMARK    6  A    between atoms: C9_20  and  C10_21 
ROOT
HETATM    1  C5  UNL     1       0.353  -0.609  -0.646  1.00  0.00     0.220 C 
HETATM    2  C6  UNL     1      -0.287  -1.972  -0.538  1.00  0.00     0.189 C 
HETATM    3 BR1  UNL     1      -0.503  -2.835  -2.236  1.00  0.00    -0.066 Br
HETATM    4  N2  UNL     1       0.553  -2.720   0.374  1.00  0.00    -0.350 N 
ATOM      5  H2  UNL     1       0.312  -3.610   0.811  1.00  0.00     0.163 HD
HETATM    6  C7  UNL     1       1.774  -2.004   0.560  1.00  0.00     0.178 C 
HETATM    7  S1  UNL     1       3.045  -2.656   1.349  1.00  0.00    -0.041 SA
HETATM    8  N3  UNL     1       1.654  -0.719  -0.034  1.00  0.00    -0.278 N 
HETATM    9  C8  UNL     1       2.646   0.299  -0.035  1.00  0.00     0.228 C 
HETATM   10  O4  UNL     1       2.452   1.411  -0.590  1.00  0.00    -0.273 OA
ENDROOT
BRANCH   1  11
HETATM   11  C4  UNL     1      -0.520   0.356   0.052  1.00  0.00     0.244 C 
HETATM   12  N1  UNL     1      -1.834   0.603  -0.397  1.00  0.00    -0.359 N 
ATOM     13  H1  UNL     1      -2.183   0.105  -1.216  1.00  0.00     0.162 HD
HETATM   14  O3  UNL     1      -0.080   0.958   1.053  1.00  0.00    -0.271 OA
BRANCH  12  15
HETATM   15  C3  UNL     1      -2.701   1.549   0.279  1.00  0.00     0.133 C 
BRANCH  15  16
HETATM   16  C2  UNL     1      -4.046   1.652  -0.366  1.00  0.00     0.133 C 
BRANCH  16  17
HETATM   17  C1  UNL     1      -4.780   0.375  -0.388  1.00  0.00     0.174 C 
HETATM   18  O1  UNL     1      -5.915   0.326  -0.899  1.00  0.00    -0.648 OA
HETATM   19  O2  UNL     1      -4.228  -0.765   0.149  1.00  0.00    -0.648 OA
ENDBRANCH  16  17
ENDBRANCH  15  16
ENDBRANCH  12  15
ENDBRANCH   1  11
BRANCH   9  20
HETATM   20  C9  UNL     1       3.963   0.099   0.623  1.00  0.00     0.130 C 
BRANCH  20  21
HETATM   21  C10 UNL     1       4.837   1.323   0.481  1.00  0.00     0.138 C 
HETATM   22 BR2  UNL     1       4.026   2.874   1.280  1.00  0.00    -0.079 Br
HETATM   23 BR3  UNL     1       6.542   0.906   1.325  1.00  0.00    -0.079 Br
ENDBRANCH  20  21
ENDBRANCH   9  20
TORSDOF 6
