REMARK  10 active torsions:
REMARK  status: ('A' for Active; 'I' for Inactive)
REMARK    1  A    between atoms: O1_2  and  C2_3 
REMARK       I    between atoms: C2_3  and  N1_5 
REMARK    2  A    between atoms: C4_7  and  C5_8 
REMARK    3  A    between atoms: C5_8  and  C6_9 
REMARK    4  A    between atoms: C5_8  and  C12_18 
REMARK    5  A    between atoms: C10_13  and  N2_14 
REMARK    6  A    between atoms: C12_18  and  C13_19 
REMARK    7  A    between atoms: C12_18  and  C15_23 
REMARK    8  A    between atoms: C13_19  and  C14_20 
REMARK    9  A    between atoms: C18_26  and  C19_27 
REMARK   10  A    between atoms: C24_32  and  C25_33 
ROOT
HETATM    1  C5  UNL     1       1.775  -1.122   0.618  1.00  0.00     0.015 C 
ENDROOT
BRANCH   1   2
HETATM    2  C4  UNL     1       1.892   0.320   0.291  1.00  0.00     0.079 A 
HETATM    3  C3  UNL     1       2.756   1.243   0.800  1.00  0.00     0.155 A 
HETATM    4  N1  UNL     1       2.513   2.426   0.215  1.00  0.00    -0.194 N 
HETATM    5  C2  UNL     1       3.184   3.644   0.464  1.00  0.00     0.386 C 
HETATM    6  N4  UNL     1       1.526   2.222  -0.628  1.00  0.00    -0.232 N 
HETATM    7  O2  UNL     1       2.827   4.687  -0.181  1.00  0.00    -0.236 OA
HETATM    8  N3  UNL     1       1.136   0.960  -0.599  1.00  0.00    -0.284 N 
ATOM      9  H4  UNL     1       1.116   2.941  -1.224  1.00  0.00     0.209 HD
ATOM     10  H3  UNL     1       0.389   0.549  -1.159  1.00  0.00     0.188 HD
BRANCH   5  11
HETATM   11  O1  UNL     1       4.220   3.809   1.367  1.00  0.00    -0.307 OA
HETATM   12  C1  UNL     1       4.838   5.075   1.558  1.00  0.00     0.215 C 
ENDBRANCH   5  11
ENDBRANCH   1   2
BRANCH   1  13
HETATM   13  C6  UNL     1       2.422  -1.970  -0.409  1.00  0.00    -0.020 A 
HETATM   14  C7  UNL     1       1.960  -2.123  -1.698  1.00  0.00     0.012 A 
HETATM   15  C8  UNL     1       2.545  -2.896  -2.671  1.00  0.00     0.003 A 
HETATM   16  C9  UNL     1       3.704  -3.598  -2.361  1.00  0.00     0.036 A 
HETATM   17  C10 UNL     1       4.215  -3.486  -1.092  1.00  0.00     0.103 A 
HETATM   18  C11 UNL     1       3.594  -2.701  -0.156  1.00  0.00     0.048 A 
BRANCH  17  19
HETATM   19  N2  UNL     1       5.407  -4.226  -0.795  1.00  0.00    -0.116 N 
HETATM   20  O3  UNL     1       5.920  -4.177   0.364  1.00  0.00    -0.532 OA
HETATM   21  O4  UNL     1       6.032  -5.003  -1.722  1.00  0.00    -0.532 OA
ENDBRANCH  17  19
ENDBRANCH   1  13
BRANCH   1  22
HETATM   22  C12 UNL     1       0.462  -1.499   1.167  1.00  0.00    -0.006 C 
BRANCH  22  23
HETATM   23  C13 UNL     1       0.152  -2.882   1.547  1.00  0.00     0.097 C 
BRANCH  23  24
HETATM   24  C14 UNL     1       0.169  -4.008   0.680  1.00  0.00     0.199 C 
HETATM   25  O5  UNL     1       1.060  -4.918   0.843  1.00  0.00    -0.644 OA
HETATM   26  O6  UNL     1      -0.674  -4.289  -0.369  1.00  0.00    -0.644 OA
ENDBRANCH  23  24
ENDBRANCH  22  23
BRANCH  22  27
HETATM   27  C15 UNL     1      -0.723  -0.685   0.748  1.00  0.00    -0.025 A 
HETATM   28  C16 UNL     1      -1.249   0.352   1.535  1.00  0.00     0.013 A 
HETATM   29  C17 UNL     1      -2.351   1.089   1.191  1.00  0.00     0.013 A 
HETATM   30  C18 UNL     1      -3.033   0.856   0.020  1.00  0.00    -0.025 A 
HETATM   31  C26 UNL     1      -2.547  -0.158  -0.787  1.00  0.00     0.013 A 
HETATM   32  C27 UNL     1      -1.441  -0.872  -0.406  1.00  0.00     0.013 A 
BRANCH  30  33
HETATM   33  C19 UNL     1      -4.212   1.615  -0.360  1.00  0.00    -0.014 A 
HETATM   34  C20 UNL     1      -4.233   2.273  -1.594  1.00  0.00     0.013 A 
HETATM   35  C21 UNL     1      -5.321   3.023  -1.965  1.00  0.00     0.001 A 
HETATM   36  C22 UNL     1      -6.404   3.144  -1.141  1.00  0.00     0.001 A 
HETATM   37  C23 UNL     1      -6.403   2.510   0.065  1.00  0.00     0.013 A 
HETATM   38  C24 UNL     1      -5.292   1.736   0.458  1.00  0.00     0.017 A 
BRANCH  38  39
HETATM   39  C25 UNL     1      -5.412   1.069   1.746  1.00  0.00     0.387 C 
HETATM   40  F1  UNL     1      -5.584   2.034   2.754  1.00  0.00    -0.209 F 
HETATM   41  F2  UNL     1      -6.610   0.336   1.735  1.00  0.00    -0.209 F 
ENDBRANCH  38  39
ENDBRANCH  30  33
ENDBRANCH  22  27
ENDBRANCH   1  22
TORSDOF 10
