REMARK  8 active torsions:
REMARK  status: ('A' for Active; 'I' for Inactive)
REMARK    1  A    between atoms: C4_4  and  N1_5 
REMARK       I    between atoms: N1_5  and  C5_7 
REMARK    2  A    between atoms: C5_7  and  C6_9 
REMARK    3  A    between atoms: C6_9  and  C7_10 
REMARK    4  A    between atoms: C7_10  and  C8_11 
REMARK    5  A    between atoms: C8_11  and  C9_12 
REMARK    6  A    between atoms: C9_12  and  C10_13 
REMARK    7  A    between atoms: C10_13  and  C11_14 
REMARK    8  A    between atoms: C11_14  and  C12_15 
REMARK       I    between atoms: C12_15  and  N2_17 
ROOT
HETATM    1  C10 UNL     1       0.323   2.307   2.230  1.00  0.00     0.009 C 
ENDROOT
BRANCH   1   2
HETATM    2  C9  UNL     1       1.338   3.303   1.810  1.00  0.00     0.000 C 
BRANCH   2   3
HETATM    3  C8  UNL     1       2.481   2.659   1.089  1.00  0.00     0.000 C 
BRANCH   3   4
HETATM    4  C7  UNL     1       3.158   1.659   1.966  1.00  0.00     0.009 C 
BRANCH   4   5
HETATM    5  C6  UNL     1       4.341   1.000   1.261  1.00  0.00     0.103 C 
BRANCH   5   6
HETATM    6  C5  UNL     1       4.991   0.020   2.153  1.00  0.00     0.223 C 
HETATM    7  N1  UNL     1       6.125  -0.703   1.930  1.00  0.00    -0.312 N 
ATOM      8  H1  UNL     1       6.422  -1.263   2.729  1.00  0.00     0.170 HD
HETATM    9  O1  UNL     1       4.391  -0.157   3.281  1.00  0.00    -0.273 OA
BRANCH   7  10
HETATM   10  C4  UNL     1       6.874  -0.811   0.926  1.00  0.00     0.124 A 
HETATM   11  C3  UNL     1       6.784  -0.216  -0.300  1.00  0.00     0.076 A 
HETATM   12  C2  UNL     1       7.874  -0.682  -1.042  1.00  0.00     0.025 A 
HETATM   13  C1  UNL     1       8.134  -0.267  -2.438  1.00  0.00     0.070 C 
HETATM   14  N4  UNL     1       8.572  -1.519  -0.268  1.00  0.00    -0.304 N 
HETATM   15  N3  UNL     1       8.003  -1.609   0.890  1.00  0.00    -0.285 N 
ATOM     16  H4  UNL     1       9.421  -2.010  -0.547  1.00  0.00     0.186 HD
ATOM     17  H3  UNL     1       8.338  -2.184   1.663  1.00  0.00     0.188 HD
ENDBRANCH   7  10
ENDBRANCH   5   6
ENDBRANCH   4   5
ENDBRANCH   3   4
ENDBRANCH   2   3
ENDBRANCH   1   2
BRANCH   1  18
HETATM   18  C11 UNL     1      -0.245   1.564   1.042  1.00  0.00     0.103 C 
BRANCH  18  19
HETATM   19  C12 UNL     1      -1.275   0.581   1.524  1.00  0.00     0.219 C 
HETATM   20  O2  UNL     1      -1.533   0.520   2.751  1.00  0.00    -0.273 OA
HETATM   21  N2  UNL     1      -1.933  -0.254   0.587  1.00  0.00    -0.351 N 
HETATM   22  C13 UNL     1      -1.611  -0.162  -0.825  1.00  0.00     0.131 C 
HETATM   23  C20 UNL     1      -2.922  -1.191   1.064  1.00  0.00     0.135 C 
HETATM   24  C14 UNL     1      -2.800  -0.333  -1.707  1.00  0.00     0.013 C 
HETATM   25  C15 UNL     1      -2.604  -1.590  -2.538  1.00  0.00     0.007 C 
HETATM   26  C21 UNL     1      -4.095  -0.400  -0.923  1.00  0.00    -0.026 C 
HETATM   27  C16 UNL     1      -2.627  -2.824  -1.664  1.00  0.00     0.001 C 
HETATM   28  C17 UNL     1      -3.705  -2.827  -0.643  1.00  0.00     0.011 C 
HETATM   29  C18 UNL     1      -3.972  -1.539   0.051  1.00  0.00    -0.020 C 
HETATM   30  C19 UNL     1      -5.278  -1.728   0.835  1.00  0.00     0.018 C 
HETATM   31  C22 UNL     1      -4.328   0.920  -0.279  1.00  0.00     0.011 C 
HETATM   32  C25 UNL     1      -5.242  -0.580  -1.874  1.00  0.00     0.011 C 
HETATM   33  C23 UNL     1      -5.553   1.546  -0.907  1.00  0.00     0.001 C 
HETATM   34  C24 UNL     1      -6.333   0.341  -1.372  1.00  0.00     0.001 C 
ENDBRANCH  18  19
ENDBRANCH   1  18
TORSDOF 8
