REMARK  12 active torsions:
REMARK  status: ('A' for Active; 'I' for Inactive)
REMARK    1  A    between atoms: N3_4  and  C2_6 
REMARK    2  A    between atoms: C2_6  and  C3_7 
REMARK    3  A    between atoms: C3_7  and  C4_8 
REMARK    4  A    between atoms: C4_8  and  C5_9 
REMARK    5  A    between atoms: C5_9  and  N4_10 
REMARK       I    between atoms: C6_12  and  N6_14 
REMARK    6  A    between atoms: N6_14  and  C7_16 
REMARK    7  A    between atoms: C7_16  and  C8_17 
REMARK    8  A    between atoms: C8_17  and  C9_18 
REMARK    9  A    between atoms: C8_17  and  N8_32 
REMARK       I    between atoms: C9_18  and  N7_20 
REMARK   10  A    between atoms: C11_22  and  O2_23 
REMARK   11  A    between atoms: C12_25  and  O3_26 
REMARK   12  A    between atoms: C13_28  and  O4_29 
ROOT
HETATM    1  C8  UNL     1      -1.888   0.142   0.505  1.00  0.00     0.074 C 
ENDROOT
BRANCH   1   2
HETATM    2  C7  UNL     1      -0.405  -0.072   0.356  1.00  0.00     0.179 C 
BRANCH   2   3
HETATM    3  N6  UNL     1       0.356   1.077   0.780  1.00  0.00    -0.359 N 
HETATM    4  C6  UNL     1       1.777   1.089   0.660  1.00  0.00     0.184 C 
HETATM    5  N4  UNL     1       2.395   0.049   0.211  1.00  0.00    -0.365 N 
HETATM    6  N5  UNL     1       2.489   2.261   1.038  1.00  0.00    -0.064 NA
ATOM      7  H4  UNL     1       1.875  -0.787  -0.056  1.00  0.00     0.162 HD
ATOM      8  H6  UNL     1      -0.126   1.888   1.169  1.00  0.00     0.162 HD
BRANCH   5   9
HETATM    9  C5  UNL     1       3.816   0.085   0.094  1.00  0.00     0.122 C 
BRANCH   9  10
HETATM   10  C4  UNL     1       4.485  -1.251   0.252  1.00  0.00     0.025 C 
BRANCH  10  11
HETATM   11  C3  UNL     1       5.998  -0.984   0.086  1.00  0.00     0.046 C 
BRANCH  11  12
HETATM   12  C2  UNL     1       6.775  -2.250   0.225  1.00  0.00     0.063 C 
BRANCH  12  13
HETATM   13  N3  UNL     1       8.160  -2.038   0.076  1.00  0.00    -0.347 N 
HETATM   14  C1  UNL     1       8.844  -1.008  -0.115  1.00  0.00     0.200 C 
HETATM   15  N1  UNL     1       8.412   0.332  -0.246  1.00  0.00    -0.067 NA
HETATM   16  N2  UNL     1      10.276  -1.210  -0.216  1.00  0.00    -0.067 NA
ATOM     17  H3  UNL     1       8.714  -2.892   0.136  1.00  0.00     0.167 HD
ENDBRANCH  12  13
ENDBRANCH  11  12
ENDBRANCH  10  11
ENDBRANCH   9  10
ENDBRANCH   5   9
ENDBRANCH   2   3
ENDBRANCH   1   2
BRANCH   1  18
HETATM   18  C9  UNL     1      -2.456   1.234  -0.265  1.00  0.00     0.262 C 
HETATM   19  O1  UNL     1      -1.689   2.211  -0.633  1.00  0.00    -0.267 OA
HETATM   20  N7  UNL     1      -3.795   1.399  -0.693  1.00  0.00    -0.342 N 
HETATM   21  C10 UNL     1      -4.201   2.562  -1.507  1.00  0.00     0.160 C 
HETATM   22  C14 UNL     1      -4.879   0.500  -0.377  1.00  0.00     0.160 C 
HETATM   23  C11 UNL     1      -4.987   3.488  -0.634  1.00  0.00     0.167 C 
HETATM   24  C12 UNL     1      -5.877   2.709   0.280  1.00  0.00     0.178 C 
HETATM   25  C13 UNL     1      -6.152   1.359  -0.291  1.00  0.00     0.167 C 
BRANCH  23  26
HETATM   26  O2  UNL     1      -5.723   4.410  -1.402  1.00  0.00    -0.391 OA
ATOM     27  H2  UNL     1      -6.222   4.998  -0.848  1.00  0.00     0.210 HD
ENDBRANCH  23  26
BRANCH  24  28
HETATM   28  O3  UNL     1      -7.077   3.415   0.424  1.00  0.00    -0.390 OA
ATOM     29  H3  UNL     1      -7.643   2.920   1.005  1.00  0.00     0.210 HD
ENDBRANCH  24  28
BRANCH  25  30
HETATM   30  O4  UNL     1      -6.782   1.485  -1.519  1.00  0.00    -0.391 OA
ATOM     31  H4  UNL     1      -6.957   0.625  -1.883  1.00  0.00     0.210 HD
ENDBRANCH  25  30
ENDBRANCH   1  18
BRANCH   1  32
HETATM   32  N8  UNL     1      -2.562  -1.112   0.501  1.00  0.00    -0.278 NA
HETATM   33  C15 UNL     1      -2.271  -1.951   1.630  1.00  0.00     0.123 C 
HETATM   34  C16 UNL     1      -1.765  -3.279   1.159  1.00  0.00     0.247 C 
HETATM   35  N9  UNL     1      -2.703  -3.972   0.295  1.00  0.00    -0.073 N 
HETATM   36  C17 UNL     1      -3.217  -3.098  -0.742  1.00  0.00     0.247 C 
ATOM     37  H92 UNL     1      -2.292  -4.818  -0.100  1.00  0.00     0.277 HD
ATOM     38  H91 UNL     1      -3.458  -4.399   0.831  1.00  0.00     0.277 HD
HETATM   39  C18 UNL     1      -2.417  -1.825  -0.756  1.00  0.00     0.123 C 
ENDBRANCH   1  32
TORSDOF 12
