REMARK  9 active torsions:
REMARK  status: ('A' for Active; 'I' for Inactive)
REMARK    1  A    between atoms: N1_1  and  C1_5 
REMARK    2  A    between atoms: C3_7  and  C4_8 
REMARK       I    between atoms: C4_8  and  N2_10 
REMARK    3  A    between atoms: N2_10  and  C5_12 
REMARK    4  A    between atoms: C5_12  and  C6_13 
REMARK    5  A    between atoms: C5_12  and  C13_25 
REMARK    6  A    between atoms: C6_13  and  C7_14 
REMARK    7  A    between atoms: C9_16  and  C10_17 
REMARK    8  A    between atoms: C10_17  and  S1_18 
REMARK    9  A    between atoms: S1_18  and  C11_19 
ROOT
HETATM    1  C4  UNL     1      -1.640   0.184   1.371  1.00  0.00     0.223 C 
HETATM    2  O1  UNL     1      -0.887   0.628   2.313  1.00  0.00    -0.273 OA
HETATM    3  N2  UNL     1      -1.118  -0.906   0.647  1.00  0.00    -0.346 N 
ATOM      4  H2  UNL     1      -1.663  -1.311  -0.115  1.00  0.00     0.163 HD
ENDROOT
BRANCH   3   5
HETATM    5  C5  UNL     1       0.195  -1.466   0.972  1.00  0.00     0.188 C 
BRANCH   5   6
HETATM    6  C6  UNL     1       1.119  -1.259  -0.198  1.00  0.00     0.068 C 
BRANCH   6   7
HETATM    7  C7  UNL     1       2.494  -1.782   0.001  1.00  0.00     0.124 C 
HETATM    8  C8  UNL     1       3.384  -1.527  -1.208  1.00  0.00     0.039 C 
HETATM    9  C9  UNL     1       4.223  -0.360  -0.742  1.00  0.00     0.021 C 
HETATM   10  C12 UNL     1       4.036  -0.327   0.738  1.00  0.00     0.173 C 
HETATM   11  O2  UNL     1       3.155  -1.314   1.106  1.00  0.00    -0.385 OA
BRANCH   9  12
HETATM   12  C10 UNL     1       5.684  -0.557  -1.127  1.00  0.00     0.089 C 
BRANCH  12  13
HETATM   13  S1  UNL     1       6.726   0.810  -0.591  1.00  0.00    -0.055 SA
BRANCH  13  14
HETATM   14  C11 UNL     1       6.327   2.337  -1.462  1.00  0.00     0.443 C 
HETATM   15  F1  UNL     1       6.635   2.231  -2.823  1.00  0.00    -0.160 F 
HETATM   16  F2  UNL     1       5.023   2.711  -1.299  1.00  0.00    -0.160 F 
HETATM   17  F3  UNL     1       7.142   3.381  -0.999  1.00  0.00    -0.160 F 
ENDBRANCH  13  14
ENDBRANCH  12  13
ENDBRANCH   9  12
ENDBRANCH   6   7
ENDBRANCH   5   6
BRANCH   5  18
HETATM   18  C13 UNL     1       0.069  -2.858   1.422  1.00  0.00     0.196 C 
HETATM   19  O3  UNL     1      -1.105  -3.361   1.406  1.00  0.00    -0.646 OA
HETATM   20  O4  UNL     1       1.099  -3.665   1.860  1.00  0.00    -0.646 OA
ENDBRANCH   5  18
ENDBRANCH   3   5
BRANCH   1  21
HETATM   21  C3  UNL     1      -2.931   0.810   1.124  1.00  0.00     0.086 C 
HETATM   22  C2  UNL     1      -4.131  -0.090   1.225  1.00  0.00     0.050 C 
HETATM   23  C1  UNL     1      -5.245   0.848   0.802  1.00  0.00     0.213 C 
HETATM   24  C17 UNL     1      -4.585   1.938  -0.030  1.00  0.00     0.156 C 
HETATM   25  C14 UNL     1      -3.133   1.500  -0.169  1.00  0.00     0.032 C 
HETATM   26  O5  UNL     1      -5.126   1.968  -1.278  1.00  0.00    -0.383 OA
HETATM   27  C15 UNL     1      -3.213   0.641  -1.389  1.00  0.00     0.034 C 
HETATM   28  C16 UNL     1      -4.292   1.344  -2.185  1.00  0.00     0.168 C 
BRANCH  23  29
HETATM   29  N1  UNL     1      -5.784   1.438   2.029  1.00  0.00    -0.073 N 
ATOM     30  H13 UNL     1      -6.081   0.743   2.714  1.00  0.00     0.274 HD
ATOM     31  H12 UNL     1      -5.074   1.890   2.605  1.00  0.00     0.274 HD
ATOM     32  H11 UNL     1      -6.533   2.069   1.744  1.00  0.00     0.274 HD
ENDBRANCH  23  29
ENDBRANCH   1  21
TORSDOF 9
