REMARK  11 active torsions:
REMARK  status: ('A' for Active; 'I' for Inactive)
REMARK    1  A    between atoms: O1_2  and  C2_3 
REMARK    2  A    between atoms: C2_3  and  C3_5 
REMARK    3  A    between atoms: C5_7  and  C6_8 
REMARK    4  A    between atoms: C6_8  and  N1_14 
REMARK    5  A    between atoms: C7_9  and  C8_10 
REMARK    6  A    between atoms: C9_11  and  C10_12 
REMARK    7  A    between atoms: N1_14  and  C11_16 
REMARK    8  A    between atoms: C11_16  and  C12_17 
REMARK       I    between atoms: C12_17  and  N2_19 
REMARK    9  A    between atoms: N2_19  and  C13_21 
REMARK   10  A    between atoms: C18_26  and  C23_31 
REMARK   11  A    between atoms: C23_31  and  O4_32 
ROOT
HETATM    1  C6  UNL     1       0.104   1.551  -0.003  1.00  0.00     0.010 C 
HETATM    2  C7  UNL     1      -0.047   2.838   0.071  1.00  0.00     0.025 C 
ENDROOT
BRANCH   1   3
HETATM    3  C5  UNL     1       1.429   0.923   0.087  1.00  0.00     0.041 C 
HETATM    4  C4  UNL     1       1.518   0.073   1.358  1.00  0.00     0.026 C 
HETATM    5  C3  UNL     1       2.923  -0.504   1.132  1.00  0.00     0.091 C 
HETATM    6  C19 UNL     1       3.026  -1.084  -0.237  1.00  0.00     0.016 C 
HETATM    7  C18 UNL     1       3.228  -0.125  -1.359  1.00  0.00     0.032 C 
HETATM    8  C20 UNL     1       1.698  -1.367  -0.852  1.00  0.00    -0.017 A 
HETATM    9  C17 UNL     1       1.804   0.130  -1.124  1.00  0.00     0.013 C 
HETATM   10  C21 UNL     1       2.537  -2.203  -1.896  1.00  0.00     0.038 A 
HETATM   11  C22 UNL     1       1.617  -1.530  -2.321  1.00  0.00     0.038 A 
HETATM   12  C23 UNL     1       3.118  -1.066  -2.545  1.00  0.00     0.072 A 
BRANCH   5  13
HETATM   13  C2  UNL     1       3.168  -1.465   2.205  1.00  0.00     0.263 C 
HETATM   14  O2  UNL     1       2.338  -1.723   3.115  1.00  0.00    -0.265 OA
BRANCH  13  15
HETATM   15  O1  UNL     1       4.381  -2.173   2.280  1.00  0.00    -0.326 OA
HETATM   16  C1  UNL     1       4.613  -3.109   3.331  1.00  0.00     0.213 C 
ENDBRANCH  13  15
ENDBRANCH   5  13
BRANCH  12  17
HETATM   17  O4  UNL     1       3.377  -0.759  -3.799  1.00  0.00    -0.389 OA
ATOM     18  H4  UNL     1       3.308  -1.348  -4.541  1.00  0.00     0.210 HD
ENDBRANCH  12  17
ENDBRANCH   1   3
BRANCH   1  19
HETATM   19  N1  UNL     1      -1.079   0.734  -0.179  1.00  0.00    -0.384 N 
ATOM     20  H1  UNL     1      -1.004  -0.283  -0.169  1.00  0.00     0.160 HD
BRANCH  19  21
HETATM   21  C11 UNL     1      -2.349   1.357  -0.366  1.00  0.00     0.222 C 
BRANCH  21  22
HETATM   22  C12 UNL     1      -3.490   0.457  -0.545  1.00  0.00     0.235 C 
HETATM   23  O3  UNL     1      -4.642   1.000  -0.714  1.00  0.00    -0.272 OA
HETATM   24  N2  UNL     1      -3.483  -0.949  -0.555  1.00  0.00    -0.352 N 
ATOM     25  H2  UNL     1      -2.594  -1.432  -0.425  1.00  0.00     0.163 HD
BRANCH  24  26
HETATM   26  C13 UNL     1      -4.683  -1.745  -0.742  1.00  0.00     0.022 C 
HETATM   27  C14 UNL     1      -5.705  -1.472   0.334  1.00  0.00     0.037 C 
HETATM   28  C15 UNL     1      -5.296  -1.490  -2.095  1.00  0.00     0.037 C 
HETATM   29  C16 UNL     1      -4.316  -3.206  -0.641  1.00  0.00     0.037 C 
ENDBRANCH  24  26
ENDBRANCH  21  22
ENDBRANCH  19  21
ENDBRANCH   1  19
BRANCH   2  30
HETATM   30  C8  UNL     1       1.009   3.838   0.247  1.00  0.00    -0.001 C 
HETATM   31  C9  UNL     1       0.704   5.137   0.307  1.00  0.00    -0.016 C 
BRANCH  31  32
HETATM   32  C10 UNL     1       1.786   6.132   0.485  1.00  0.00     0.112 C 
HETATM   33 BR1  UNL     1       1.773   7.335  -1.042  1.00  0.00    -0.092 Br
ENDBRANCH  31  32
ENDBRANCH   2  30
TORSDOF 11
