REMARK  9 active torsions:
REMARK  status: ('A' for Active; 'I' for Inactive)
REMARK    1  A    between atoms: O1_2  and  C2_3 
REMARK       I    between atoms: C2_3  and  N1_5 
REMARK    2  A    between atoms: N1_5  and  C3_7 
REMARK    3  A    between atoms: C3_7  and  C4_8 
REMARK    4  A    between atoms: C4_8  and  C6_10 
REMARK    5  A    between atoms: C6_10  and  N2_12 
REMARK    6  A    between atoms: N2_12  and  N3_14 
REMARK       I    between atoms: N3_14  and  C7_16 
REMARK    7  A    between atoms: C7_16  and  C8_18 
REMARK    8  A    between atoms: N4_20  and  C10_21 
REMARK    9  A    between atoms: C15_35  and  N9_36 
ROOT
HETATM    1  C8  UNL     1      -0.428  -1.466   0.094  1.00  0.00     0.133 A 
HETATM    2  C9  UNL     1      -1.245  -0.559  -0.538  1.00  0.00     0.152 A 
HETATM    3  N4  UNL     1      -2.155  -0.102   0.339  1.00  0.00    -0.231 N 
HETATM    4  N11 UNL     1      -1.909  -0.711   1.488  1.00  0.00    -0.013 NA
HETATM    5  N12 UNL     1      -0.865  -1.543   1.360  1.00  0.00    -0.277 N 
ATOM      6  H12 UNL     1      -0.472  -2.131   2.095  1.00  0.00     0.184 HD
ENDROOT
BRANCH   3   7
HETATM    7  C10 UNL     1      -3.194   0.840   0.112  1.00  0.00     0.142 C 
HETATM    8  C11 UNL     1      -3.216   1.446  -1.136  1.00  0.00     0.140 C 
HETATM    9  N5  UNL     1      -4.311   1.932  -1.791  1.00  0.00    -0.347 N 
HETATM   10  C12 UNL     1      -5.609   1.891  -1.405  1.00  0.00     0.138 A 
ATOM     11  H5  UNL     1      -4.128   2.384  -2.687  1.00  0.00     0.167 HD
HETATM   12  N6  UNL     1      -6.695   2.051  -2.187  1.00  0.00    -0.283 N 
HETATM   13  C14 UNL     1      -6.099   1.676  -0.121  1.00  0.00     0.098 A 
HETATM   14  N7  UNL     1      -7.795   1.943  -1.438  1.00  0.00    -0.283 N 
ATOM     15  H6  UNL     1      -6.679   2.227  -3.192  1.00  0.00     0.188 HD
HETATM   16  C13 UNL     1      -7.482   1.711  -0.157  1.00  0.00     0.131 A 
ATOM     17  H7  UNL     1      -8.747   2.026  -1.794  1.00  0.00     0.188 HD
HETATM   18  N8  UNL     1      -8.254   1.548   0.863  1.00  0.00    -0.384 N 
ATOM     19  H82 UNL     1      -9.273   1.574   0.836  1.00  0.00     0.157 HD
ATOM     20  H81 UNL     1      -8.016   1.371   1.839  1.00  0.00     0.157 HD
HETATM   21  C15 UNL     1      -5.360   1.460   1.016  1.00  0.00     0.118 C 
HETATM   22  N10 UNL     1      -4.070   1.073   1.106  1.00  0.00    -0.326 N 
ATOM     23  H10 UNL     1      -3.712   0.940   2.052  1.00  0.00     0.169 HD
BRANCH  21  24
HETATM   24  N9  UNL     1      -5.951   1.642   2.139  1.00  0.00    -0.385 N 
ATOM     25  H92 UNL     1      -6.926   1.934   2.071  1.00  0.00     0.157 HD
ATOM     26  H91 UNL     1      -5.402   1.482   2.984  1.00  0.00     0.157 HD
ENDBRANCH  21  24
ENDBRANCH   3   7
BRANCH   1  27
HETATM   27  C7  UNL     1       0.700  -2.221  -0.461  1.00  0.00     0.289 C 
HETATM   28  N3  UNL     1       1.433  -3.151   0.311  1.00  0.00    -0.264 N 
ATOM     29  H3  UNL     1       1.178  -3.309   1.286  1.00  0.00     0.190 HD
HETATM   30  O3  UNL     1       1.025  -2.034  -1.659  1.00  0.00    -0.264 OA
BRANCH  28  31
HETATM   31  N2  UNL     1       2.489  -3.848  -0.238  1.00  0.00    -0.291 N 
ATOM     32  H2  UNL     1       2.305  -4.790  -0.583  1.00  0.00     0.187 HD
BRANCH  31  33
HETATM   33  C6  UNL     1       3.809  -3.351  -0.358  1.00  0.00     0.097 C 
HETATM   34  S1  UNL     1       5.000  -4.255  -1.031  1.00  0.00    -0.064 SA
BRANCH  33  35
HETATM   35  C4  UNL     1       4.114  -1.990   0.138  1.00  0.00     0.062 C 
HETATM   36  C5  UNL     1       4.142  -2.079   1.672  1.00  0.00     0.019 C 
BRANCH  35  37
HETATM   37  C3  UNL     1       5.541  -1.659  -0.315  1.00  0.00     0.136 C 
BRANCH  37  38
HETATM   38  N1  UNL     1       6.020  -0.416   0.225  1.00  0.00    -0.336 N 
HETATM   39  C2  UNL     1       5.388   0.822  -0.034  1.00  0.00     0.360 C 
HETATM   40  O2  UNL     1       4.367   0.926  -0.752  1.00  0.00    -0.239 OA
ATOM     41  H1  UNL     1       6.849  -0.428   0.819  1.00  0.00     0.164 HD
BRANCH  39  42
HETATM   42  O1  UNL     1       5.902   2.011   0.525  1.00  0.00    -0.309 OA
HETATM   43  C1  UNL     1       5.239   3.214   0.239  1.00  0.00     0.215 C 
ENDBRANCH  39  42
ENDBRANCH  37  38
ENDBRANCH  35  37
ENDBRANCH  33  35
ENDBRANCH  31  33
ENDBRANCH  28  31
ENDBRANCH   1  27
TORSDOF 9
