REMARK  11 active torsions:
REMARK  status: ('A' for Active; 'I' for Inactive)
REMARK    1  A    between atoms: C3_3  and  O1_4 
REMARK    2  A    between atoms: O1_4  and  C4_5 
REMARK    3  A    between atoms: C7_9  and  O2_10 
REMARK    4  A    between atoms: C9_14  and  C10_15 
REMARK    5  A    between atoms: C16_23  and  O5_24 
REMARK    6  A    between atoms: C17_26  and  C18_27 
REMARK    7  A    between atoms: C18_27  and  C19_28 
REMARK    8  A    between atoms: C20_29  and  C22_31 
REMARK    9  A    between atoms: C22_31  and  C23_32 
REMARK   10  A    between atoms: C23_32  and  C24_33 
REMARK   11  A    between atoms: C28_37  and  O6_38 
ROOT
HETATM    1  C1  UNL     1      -6.827   0.688   0.261  1.00  0.00     0.019 C 
HETATM    2  C2  UNL     1      -5.603   0.218   0.118  1.00  0.00    -0.033 C 
HETATM    3  C3  UNL     1      -4.573   0.610  -0.944  1.00  0.00     0.166 C 
HETATM    4  C6  UNL     1      -3.300   0.479  -0.252  1.00  0.00     0.127 C 
HETATM    5  C7  UNL     1      -2.187  -0.282  -0.967  1.00  0.00     0.206 C 
HETATM    6  O3  UNL     1      -2.821  -1.507  -1.151  1.00  0.00    -0.341 OA
HETATM    7  C8  UNL     1      -3.313  -1.864   0.094  1.00  0.00     0.170 A 
HETATM    8  C9  UNL     1      -4.796  -2.099   0.200  1.00  0.00     0.049 A 
HETATM    9  C12 UNL     1      -4.969  -0.810   0.982  1.00  0.00     0.103 A 
HETATM   10 CL1  UNL     1      -5.645  -0.979   2.593  1.00  0.00    -0.110 Cl
HETATM   11  C13 UNL     1      -3.561  -0.560   0.822  1.00  0.00     0.132 A 
HETATM   12  O4  UNL     1      -2.666  -0.391   1.849  1.00  0.00    -0.334 OA
HETATM   13  C14 UNL     1      -1.314  -0.446   1.405  1.00  0.00     0.087 A 
HETATM   14  C15 UNL     1      -0.278  -0.542   2.301  1.00  0.00     0.074 A 
HETATM   15  C16 UNL     1       1.042  -0.596   1.825  1.00  0.00     0.077 A 
HETATM   16  C17 UNL     1       1.306  -0.554   0.469  1.00  0.00     0.012 A 
HETATM   17  C28 UNL     1       0.238  -0.459  -0.390  1.00  0.00     0.089 A 
HETATM   18  C29 UNL     1      -1.087  -0.402   0.061  1.00  0.00     0.071 A 
ENDROOT
BRANCH  16  19
HETATM   19  C18 UNL     1       2.723  -0.619   0.059  1.00  0.00     0.072 C 
BRANCH  19  20
HETATM   20  C19 UNL     1       3.471   0.649   0.224  1.00  0.00    -0.020 C 
HETATM   21  C20 UNL     1       4.223   1.197  -0.707  1.00  0.00    -0.087 C 
HETATM   22  C21 UNL     1       4.364   0.533  -2.024  1.00  0.00     0.043 C 
BRANCH  21  23
HETATM   23  C22 UNL     1       4.918   2.486  -0.404  1.00  0.00     0.037 C 
BRANCH  23  24
HETATM   24  C23 UNL     1       6.424   2.293  -0.497  1.00  0.00     0.031 C 
BRANCH  24  25
HETATM   25  C24 UNL     1       6.860   1.272   0.512  1.00  0.00    -0.024 C 
HETATM   26  C25 UNL     1       7.773   1.691   1.407  1.00  0.00    -0.091 C 
HETATM   27  C26 UNL     1       8.331   3.046   1.426  1.00  0.00     0.042 C 
HETATM   28  C27 UNL     1       8.234   0.695   2.423  1.00  0.00     0.042 C 
ENDBRANCH  24  25
ENDBRANCH  23  24
ENDBRANCH  21  23
ENDBRANCH  19  20
ENDBRANCH  16  19
BRANCH  15  29
HETATM   29  O5  UNL     1       2.084  -0.694   2.720  1.00  0.00    -0.360 OA
ATOM     30  H5  UNL     1       2.977  -0.731   2.398  1.00  0.00     0.217 HD
ENDBRANCH  15  29
BRANCH  17  31
HETATM   31  O6  UNL     1       0.492  -0.416  -1.756  1.00  0.00    -0.359 OA
ATOM     32  H6  UNL     1      -0.246  -0.350  -2.350  1.00  0.00     0.217 HD
ENDBRANCH  17  31
BRANCH   5  33
HETATM   33  O2  UNL     1      -1.750   0.310  -2.112  1.00  0.00    -0.361 OA
ATOM     34  H2  UNL     1      -1.057  -0.164  -2.557  1.00  0.00     0.213 HD
ENDBRANCH   5  33
BRANCH   3  35
HETATM   35  O1  UNL     1      -4.796  -0.143  -2.089  1.00  0.00    -0.365 OA
BRANCH  35  36
HETATM   36  C4  UNL     1      -5.368   0.642  -3.097  1.00  0.00     0.189 C 
HETATM   37  C5  UNL     1      -6.832   0.268  -3.304  1.00  0.00     0.052 C 
HETATM   38 BR1  UNL     1      -4.393   0.558  -4.721  1.00  0.00    -0.062 Br
ENDBRANCH  35  36
ENDBRANCH   3  35
BRANCH   8  39
HETATM   39  C10 UNL     1      -5.159  -3.313   1.057  1.00  0.00     0.005 C 
HETATM   40  C11 UNL     1      -4.558  -4.577   0.471  1.00  0.00     0.005 C 
ENDBRANCH   8  39
TORSDOF 11
