REMARK  6 active torsions:
REMARK  status: ('A' for Active; 'I' for Inactive)
REMARK    1  A    between atoms: N2_5  and  C3_6 
REMARK    2  A    between atoms: C3_6  and  C4_7 
REMARK    3  A    between atoms: C4_7  and  N4_10 
REMARK       I    between atoms: N4_10  and  C6_12 
REMARK    4  A    between atoms: C6_12  and  C7_14 
REMARK    5  A    between atoms: C7_14  and  C8_15 
REMARK    6  A    between atoms: C11_21  and  N6_22 
ROOT
HETATM    1  C4  UNL     1       0.138   0.999   1.209  1.00  0.00     0.210 C 
HETATM    2  C5  UNL     1       0.900   0.994   2.410  1.00  0.00     0.086 C 
HETATM    3  N3  UNL     1       1.534   0.986   3.367  1.00  0.00    -0.195 NA
ENDROOT
BRANCH   1   4
HETATM    4  C3  UNL     1       0.873   1.322  -0.088  1.00  0.00     0.175 C 
BRANCH   4   5
HETATM    5  N2  UNL     1       1.963   0.467  -0.419  1.00  0.00    -0.279 N 
HETATM    6  C2  UNL     1       1.777  -0.759  -0.967  1.00  0.00     0.331 A 
HETATM    7  N1  UNL     1       2.946  -1.344  -1.179  1.00  0.00    -0.286 N 
HETATM    8  O1  UNL     1       0.673  -1.332  -1.267  1.00  0.00    -0.246 OA
HETATM    9  C1  UNL     1       3.200  -2.670  -1.750  1.00  0.00     0.163 C 
HETATM   10  C13 UNL     1       3.897  -0.486  -0.769  1.00  0.00     0.159 A 
HETATM   11  C12 UNL     1       3.295   0.660  -0.291  1.00  0.00     0.162 A 
HETATM   12  N8  UNL     1       5.252  -0.600  -0.795  1.00  0.00    -0.301 N 
HETATM   13  N9  UNL     1       4.055   1.706   0.154  1.00  0.00    -0.297 N 
HETATM   14  C15 UNL     1       5.411   1.553   0.111  1.00  0.00     0.317 A 
HETATM   15  C16 UNL     1       3.479   2.947   0.547  1.00  0.00     0.161 C 
HETATM   16  C14 UNL     1       6.016   0.410  -0.357  1.00  0.00     0.315 A 
HETATM   17  O5  UNL     1       6.097   2.519   0.526  1.00  0.00    -0.262 OA
HETATM   18  O4  UNL     1       7.271   0.380  -0.348  1.00  0.00    -0.262 OA
ATOM     19  H8  UNL     1       5.686  -1.453  -1.147  1.00  0.00     0.171 HD
ENDBRANCH   4   5
ENDBRANCH   1   4
BRANCH   1  20
HETATM   20  N4  UNL     1      -0.753  -0.139   1.096  1.00  0.00    -0.342 N 
HETATM   21  C6  UNL     1      -2.121  -0.034   0.809  1.00  0.00     0.224 C 
HETATM   22  O2  UNL     1      -2.719   1.058   0.619  1.00  0.00    -0.273 OA
ATOM     23  H4  UNL     1      -0.361  -1.071   1.233  1.00  0.00     0.163 HD
BRANCH  21  24
HETATM   24  C7  UNL     1      -2.965  -1.263   0.711  1.00  0.00     0.160 C 
BRANCH  24  25
HETATM   25  C8  UNL     1      -4.382  -0.950   0.401  1.00  0.00     0.040 A 
HETATM   26  C9  UNL     1      -5.312  -0.730   1.414  1.00  0.00     0.101 A 
HETATM   27  C10 UNL     1      -6.603  -0.446   1.037  1.00  0.00     0.261 A 
HETATM   28  O3  UNL     1      -7.483  -0.239   1.901  1.00  0.00    -0.268 OA
HETATM   29  N5  UNL     1      -6.938  -0.386  -0.282  1.00  0.00    -0.156 N 
HETATM   30  C11 UNL     1      -6.019  -0.602  -1.235  1.00  0.00     0.678 A 
ATOM     31  H5  UNL     1      -7.900  -0.174  -0.548  1.00  0.00     0.187 HD
HETATM   32  N7  UNL     1      -4.748  -0.883  -0.888  1.00  0.00    -0.195 N 
ATOM     33  H7  UNL     1      -4.053  -1.047  -1.616  1.00  0.00     0.184 HD
BRANCH  30  34
HETATM   34  N6  UNL     1      -6.380  -0.536  -2.460  1.00  0.00    -0.234 N 
ATOM     35  H62 UNL     1      -7.342  -0.323  -2.723  1.00  0.00     0.174 HD
ATOM     36  H61 UNL     1      -5.681  -0.700  -3.185  1.00  0.00     0.174 HD
ENDBRANCH  30  34
ENDBRANCH  24  25
ENDBRANCH  21  24
ENDBRANCH   1  20
TORSDOF 6
