REMARK  10 active torsions:
REMARK  status: ('A' for Active; 'I' for Inactive)
REMARK    1  A    between atoms: C3_4  and  C4_5 
REMARK    2  A    between atoms: C4_5  and  N2_6 
REMARK    3  A    between atoms: C4_5  and  C5_10 
REMARK    4  A    between atoms: C5_10  and  C6_11 
REMARK       I    between atoms: C6_11  and  N3_13 
REMARK    5  A    between atoms: N3_13  and  N4_15 
REMARK    6  A    between atoms: C8_18  and  O2_19 
REMARK    7  A    between atoms: C8_18  and  N6_21 
REMARK    8  A    between atoms: N6_21  and  C9_22 
REMARK    9  A    between atoms: C9_22  and  C10_23 
REMARK   10  A    between atoms: C10_23  and  N7_24 
ROOT
HETATM    1  C6  UNL     1      -1.588   0.247   1.505  1.00  0.00     0.240 C 
HETATM    2  O1  UNL     1      -1.623   1.483   1.488  1.00  0.00    -0.272 OA
HETATM    3  N3  UNL     1      -0.469  -0.514   1.178  1.00  0.00    -0.233 N 
ATOM      4  H3  UNL     1      -0.631  -1.519   1.245  1.00  0.00     0.193 HD
ENDROOT
BRANCH   3   5
HETATM    5  N4  UNL     1       0.799  -0.197   0.787  1.00  0.00    -0.069 N 
HETATM    6  N5  UNL     1       1.674  -1.006   0.366  1.00  0.00    -0.287 NA
HETATM    7  C7  UNL     1       2.717  -1.447  -0.047  1.00  0.00     0.266 A 
HETATM    8  C8  UNL     1       3.937  -1.963  -0.531  1.00  0.00     0.263 C 
HETATM    9  C11 UNL     1       3.370   0.113   0.001  1.00  0.00     0.298 A 
HETATM   10  O3  UNL     1       4.518   0.176  -0.363  1.00  0.00    -0.264 OA
HETATM   11  N8  UNL     1       2.652   1.070   0.395  1.00  0.00    -0.269 N 
HETATM   12  C12 UNL     1       1.353   1.051   0.815  1.00  0.00     0.374 A 
ATOM     13  H8  UNL     1       3.103   1.985   0.401  1.00  0.00     0.174 HD
HETATM   14  O4  UNL     1       0.787   2.033   1.166  1.00  0.00    -0.242 OA
BRANCH   8  15
HETATM   15  O2  UNL     1       3.638  -3.364  -0.683  1.00  0.00    -0.333 OA
ATOM     16  H2  UNL     1       4.460  -3.712  -1.009  1.00  0.00     0.220 HD
ENDBRANCH   8  15
BRANCH   8  17
HETATM   17  N6  UNL     1       5.140  -1.806  -0.892  1.00  0.00    -0.393 NA
BRANCH  17  18
HETATM   18  C9  UNL     1       6.265  -1.632  -1.262  1.00  0.00     0.185 C 
BRANCH  18  19
HETATM   19  C10 UNL     1       7.427  -2.325  -0.613  1.00  0.00     0.288 C 
BRANCH  19  20
HETATM   20  N7  UNL     1       8.032  -1.468   0.373  1.00  0.00    -0.074 N 
ATOM     21  H73 UNL     1       8.298  -0.565  -0.020  1.00  0.00     0.274 HD
ATOM     22  H72 UNL     1       7.353  -1.139   1.060  1.00  0.00     0.274 HD
ATOM     23  H71 UNL     1       8.822  -1.939   0.814  1.00  0.00     0.274 HD
ENDBRANCH  19  20
ENDBRANCH  18  19
ENDBRANCH  17  18
ENDBRANCH   8  17
ENDBRANCH   3   5
BRANCH   1  24
HETATM   24  C5  UNL     1      -2.835  -0.518   1.899  1.00  0.00     0.142 C 
BRANCH  24  25
HETATM   25  C4  UNL     1      -4.037   0.343   1.871  1.00  0.00     0.232 C 
BRANCH  25  26
HETATM   26  C3  UNL     1      -4.301   0.896   0.544  1.00  0.00     0.056 A 
HETATM   27  C2  UNL     1      -3.679   0.393  -0.574  1.00  0.00     0.110 A 
HETATM   28  N1  UNL     1      -3.904   0.867  -1.830  1.00  0.00    -0.313 N 
HETATM   29  C1  UNL     1      -3.213   0.271  -2.978  1.00  0.00     0.160 C 
HETATM   30  C14 UNL     1      -4.774   1.872  -1.985  1.00  0.00     0.328 A 
HETATM   31  N9  UNL     1      -5.407   2.391  -0.897  1.00  0.00    -0.275 N 
HETATM   32  O6  UNL     1      -4.986   2.312  -3.141  1.00  0.00    -0.246 OA
HETATM   33  C13 UNL     1      -5.195   1.937   0.336  1.00  0.00     0.259 A 
ATOM     34  H9  UNL     1      -6.068   3.156  -1.032  1.00  0.00     0.173 HD
HETATM   35  O5  UNL     1      -5.789   2.431   1.323  1.00  0.00    -0.267 OA
ENDBRANCH  25  26
BRANCH  25  36
HETATM   36  N2  UNL     1      -4.044   1.346   2.911  1.00  0.00    -0.070 N 
ATOM     37  H23 UNL     1      -3.392   2.100   2.694  1.00  0.00     0.275 HD
ATOM     38  H22 UNL     1      -4.917   1.873   2.903  1.00  0.00     0.275 HD
ATOM     39  H21 UNL     1      -3.860   0.960   3.837  1.00  0.00     0.275 HD
ENDBRANCH  25  36
ENDBRANCH  24  25
ENDBRANCH   1  24
TORSDOF 10
