REMARK  4 active torsions:
REMARK  status: ('A' for Active; 'I' for Inactive)
REMARK    1  A    between atoms: N1_1  and  N2_4 
REMARK    2  A    between atoms: C6_14  and  C7_15 
REMARK    3  A    between atoms: C7_15  and  N4_16 
REMARK    4  A    between atoms: N4_16  and  C8_18 
ROOT
HETATM    1  N2  UNL     1      -2.732  -1.685  -0.422  1.00  0.00    -0.311 N 
ATOM      2  H2  UNL     1      -2.054  -2.047  -1.093  1.00  0.00     0.185 HD
HETATM    3  C1  UNL     1      -2.336  -0.716   0.280  1.00  0.00     0.054 C 
HETATM    4  C2  UNL     1      -3.334  -0.222   1.232  1.00  0.00     0.171 C 
HETATM    5  N3  UNL     1      -4.234   0.709   0.651  1.00  0.00    -0.416 N 
ATOM      6  H3  UNL     1      -5.185   0.829   0.999  1.00  0.00     0.153 HD
HETATM    7  C3  UNL     1      -3.731   1.467  -0.447  1.00  0.00     0.116 C 
HETATM    8  C4  UNL     1      -2.341   1.971  -0.318  1.00  0.00     0.045 C 
HETATM    9  C5  UNL     1      -1.427   1.499  -1.422  1.00  0.00     0.170 C 
HETATM   10  O1  UNL     1      -0.972   0.224  -1.322  1.00  0.00    -0.375 OA
HETATM   11  C6  UNL     1      -0.935  -0.313  -0.037  1.00  0.00     0.208 C 
ENDROOT
BRANCH  11  12
HETATM   12  C7  UNL     1      -0.065  -1.542  -0.104  1.00  0.00     0.093 C 
BRANCH  12  13
HETATM   13  N4  UNL     1       1.262  -1.410  -0.499  1.00  0.00    -0.395 N 
ATOM     14  H4  UNL     1       1.522  -1.778  -1.414  1.00  0.00     0.159 HD
BRANCH  13  15
HETATM   15  C8  UNL     1       2.258  -0.813   0.263  1.00  0.00     0.080 C 
HETATM   16  C9  UNL     1       2.079   0.648   0.506  1.00  0.00     0.025 C 
HETATM   17  C10 UNL     1       3.417   1.386   0.507  1.00  0.00     0.002 C 
HETATM   18  C11 UNL     1       4.442   0.618   1.272  1.00  0.00     0.000 C 
HETATM   19  C12 UNL     1       4.738  -0.666   0.518  1.00  0.00     0.002 C 
HETATM   20  C13 UNL     1       3.606  -1.014  -0.428  1.00  0.00     0.025 C 
ENDBRANCH  13  15
ENDBRANCH  12  13
ENDBRANCH  11  12
BRANCH   1  21
HETATM   21  N1  UNL     1      -3.943  -2.318  -0.409  1.00  0.00    -0.345 N 
ATOM     22  H12 UNL     1      -4.606  -1.942   0.268  1.00  0.00     0.176 HD
ATOM     23  H11 UNL     1      -4.263  -3.102  -0.977  1.00  0.00     0.176 HD
ENDBRANCH   1  21
TORSDOF 4
