REMARK  3 active torsions:
REMARK  status: ('A' for Active; 'I' for Inactive)
REMARK    1  A    between atoms: C3_6  and  C4_7 
REMARK    2  A    between atoms: C4_7  and  N2_8 
REMARK    3  A    between atoms: N2_8  and  C6_10 
ROOT
HETATM    1  C1  UNL     1      -3.875  -0.448   1.593  1.00  0.00     0.050 C 
HETATM    2  C2  UNL     1      -3.187   0.639   0.804  1.00  0.00     0.273 C 
HETATM    3  N1  UNL     1      -1.810   0.257   0.477  1.00  0.00    -0.055 N 
ATOM      4  H11 UNL     1      -1.549  -0.621   0.925  1.00  0.00     0.278 HD
ATOM      5  H12 UNL     1      -1.133   0.871   0.930  1.00  0.00     0.278 HD
HETATM    6  C3  UNL     1      -1.608   0.206  -0.929  1.00  0.00     0.232 C 
HETATM    7  C11 UNL     1      -2.679  -0.745  -1.517  1.00  0.00     0.157 C 
HETATM    8  N4  UNL     1      -3.895   0.058  -1.489  1.00  0.00    -0.357 N 
ATOM      9  H4  UNL     1      -4.621  -0.022  -2.201  1.00  0.00     0.162 HD
HETATM   10  C12 UNL     1      -3.992   0.956  -0.401  1.00  0.00     0.248 C 
HETATM   11  O1  UNL     1      -4.708   1.969  -0.425  1.00  0.00    -0.271 OA
ENDROOT
BRANCH   6  12
HETATM   12  C4  UNL     1      -0.304  -0.299  -1.387  1.00  0.00     0.309 C 
BRANCH  12  13
HETATM   13  N2  UNL     1       0.899   0.374  -1.052  1.00  0.00     0.108 N 
HETATM   14  C5  UNL     1       1.992  -0.157  -1.919  1.00  0.00     0.312 C 
BRANCH  13  15
HETATM   15  C6  UNL     1       1.356   0.205   0.336  1.00  0.00     0.317 C 
HETATM   16  C7  UNL     1       2.356   1.299   0.667  1.00  0.00     0.057 C 
HETATM   17  C8  UNL     1       3.274   0.845   1.767  1.00  0.00     0.006 C 
HETATM   18  C9  UNL     1       4.078  -0.303   1.232  1.00  0.00     0.019 C 
HETATM   19  C10 UNL     1       3.202  -1.373   0.633  1.00  0.00     0.116 C 
HETATM   20  N3  UNL     1       1.815  -1.106   0.610  1.00  0.00    -0.393 N 
ATOM     21  H3  UNL     1       1.147  -1.855   0.790  1.00  0.00     0.155 HD
ENDBRANCH  13  15
ENDBRANCH  12  13
ENDBRANCH   6  12
TORSDOF 3
