REMARK  6 active torsions:
REMARK  status: ('A' for Active; 'I' for Inactive)
REMARK    1  A    between atoms: N1_1  and  C1_4 
REMARK    2  A    between atoms: C2_9  and  N4_10 
REMARK    3  A    between atoms: N4_10  and  C3_12 
REMARK    4  A    between atoms: C3_12  and  C4_13 
REMARK    5  A    between atoms: C3_12  and  C5_18 
REMARK    6  A    between atoms: C4_13  and  N5_14 
REMARK       I    between atoms: C5_18  and  N6_20 
ROOT
HETATM    1  C3  UNL     1       0.493  -1.093   0.092  1.00  0.00     0.201 C 
ENDROOT
BRANCH   1   2
HETATM    2  N4  UNL     1       1.058  -0.214   1.029  1.00  0.00    -0.354 N 
ATOM      3  H4  UNL     1       0.537   0.022   1.874  1.00  0.00     0.162 HD
BRANCH   2   4
HETATM    4  C2  UNL     1       2.370   0.364   0.816  1.00  0.00     0.163 A 
HETATM    5  N3  UNL     1       2.986   1.254   1.571  1.00  0.00    -0.278 N 
HETATM    6  N2  UNL     1       4.169   1.626   1.247  1.00  0.00    -0.278 N 
ATOM      7  H3  UNL     1       2.529   1.639   2.398  1.00  0.00     0.189 HD
HETATM    8  C1  UNL     1       4.730   1.089   0.155  1.00  0.00     0.160 A 
ATOM      9  H2  UNL     1       4.672   2.315   1.807  1.00  0.00     0.189 HD
HETATM   10  S1  UNL     1       3.514   0.034  -0.387  1.00  0.00    -0.016 SA
BRANCH   8  11
HETATM   11  N1  UNL     1       5.914   1.367  -0.328  1.00  0.00    -0.379 N 
ATOM     12  H12 UNL     1       6.644   2.000  -0.003  1.00  0.00     0.158 HD
ATOM     13  H11 UNL     1       6.341   0.958  -1.159  1.00  0.00     0.158 HD
ENDBRANCH   8  11
ENDBRANCH   2   4
ENDBRANCH   1   2
BRANCH   1  14
HETATM   14  C4  UNL     1       0.329  -0.688  -1.317  1.00  0.00     0.264 C 
BRANCH  14  15
HETATM   15  N5  UNL     1      -0.224  -1.859  -2.073  1.00  0.00    -0.077 N 
ATOM     16  H53 UNL     1       0.343  -2.700  -1.967  1.00  0.00     0.274 HD
ATOM     17  H52 UNL     1      -1.085  -2.222  -1.664  1.00  0.00     0.274 HD
ATOM     18  H51 UNL     1      -0.337  -1.579  -3.047  1.00  0.00     0.274 HD
ENDBRANCH  14  15
ENDBRANCH   1  14
BRANCH   1  19
HETATM   19  C5  UNL     1      -0.874  -1.407   0.694  1.00  0.00     0.248 C 
HETATM   20  O1  UNL     1      -1.190  -2.637   0.827  1.00  0.00    -0.271 OA
HETATM   21  N6  UNL     1      -1.674  -0.346   1.081  1.00  0.00    -0.295 N 
HETATM   22  C6  UNL     1      -2.751   0.072   0.659  1.00  0.00     0.212 C 
ATOM     23  H6  UNL     1      -1.300   0.190   1.864  1.00  0.00     0.172 HD
HETATM   24  N7  UNL     1      -3.583  -0.392  -0.384  1.00  0.00    -0.256 N 
HETATM   25  N10 UNL     1      -3.462   1.202   1.233  1.00  0.00    -0.256 N 
HETATM   26  N8  UNL     1      -4.792   0.241  -0.325  1.00  0.00    -0.006 NA
ATOM     27  H7  UNL     1      -3.321  -1.094  -1.076  1.00  0.00     0.187 HD
HETATM   28  N9  UNL     1      -4.768   1.152   0.726  1.00  0.00    -0.006 NA
ATOM     29  H10 UNL     1      -3.085   1.896   1.878  1.00  0.00     0.187 HD
ENDBRANCH   1  19
TORSDOF 6
