REMARK  8 active torsions:
REMARK  status: ('A' for Active; 'I' for Inactive)
REMARK    1  A    between atoms: O1_2  and  C2_3 
REMARK    2  A    between atoms: C7_8  and  C8_9 
REMARK    3  A    between atoms: C8_9  and  O2_10 
REMARK    4  A    between atoms: O2_10  and  C9_11 
REMARK    5  A    between atoms: C9_11  and  C12_14 
REMARK    6  A    between atoms: C15_19  and  N2_20 
REMARK    7  A    between atoms: C16_25  and  N4_26 
REMARK    8  A    between atoms: C17_29  and  O3_30 
ROOT
HETATM    1  C9  UNL     1      -1.833  -0.578   0.081  1.00  0.00     0.086 C 
HETATM    2  C10 UNL     1      -1.722  -1.084   1.480  1.00  0.00     0.051 C 
HETATM    3  C11 UNL     1      -1.755  -1.620  -1.008  1.00  0.00     0.051 C 
ENDROOT
BRANCH   1   4
HETATM    4  O2  UNL     1      -0.634   0.171  -0.113  1.00  0.00    -0.371 OA
BRANCH   4   5
HETATM    5  C8  UNL     1       0.448  -0.678   0.046  1.00  0.00     0.210 C 
BRANCH   5   6
HETATM    6  C7  UNL     1       1.758  -0.049  -0.113  1.00  0.00     0.002 A 
HETATM    7  C6  UNL     1       2.007   1.276  -0.392  1.00  0.00     0.019 A 
HETATM    8  C4  UNL     1       3.308   1.768  -0.521  1.00  0.00    -0.059 A 
HETATM    9  C3  UNL     1       4.392   0.929  -0.370  1.00  0.00     0.046 A 
HETATM   10  C5  UNL     1       3.578   3.188  -0.821  1.00  0.00     0.048 C 
HETATM   11  C2  UNL     1       4.162  -0.395  -0.091  1.00  0.00     0.102 A 
HETATM   12  C17 UNL     1       2.871  -0.853   0.031  1.00  0.00     0.110 A 
BRANCH  11  13
HETATM   13  O1  UNL     1       5.237  -1.243   0.062  1.00  0.00    -0.353 OA
HETATM   14  C1  UNL     1       6.539  -0.720  -0.074  1.00  0.00     0.210 C 
ENDBRANCH  11  13
BRANCH  12  15
HETATM   15  O3  UNL     1       2.682  -2.191   0.311  1.00  0.00    -0.352 OA
HETATM   16  C18 UNL     1       2.624  -2.584   1.670  1.00  0.00     0.210 C 
ENDBRANCH  12  15
ENDBRANCH   5   6
ENDBRANCH   4   5
ENDBRANCH   1   4
BRANCH   1  17
HETATM   17  C12 UNL     1      -3.006   0.261  -0.165  1.00  0.00     0.042 A 
HETATM   18  C13 UNL     1      -4.263  -0.247  -0.032  1.00  0.00     0.035 A 
HETATM   19  C14 UNL     1      -4.569  -1.593   0.359  1.00  0.00     0.069 C 
HETATM   20  N1  UNL     1      -5.315   0.581  -0.280  1.00  0.00    -0.195 N 
HETATM   21  C15 UNL     1      -5.204   1.848  -0.644  1.00  0.00     0.677 A 
ATOM     22  H1  UNL     1      -6.255   0.197  -0.178  1.00  0.00     0.184 HD
HETATM   23  N3  UNL     1      -3.994   2.367  -0.780  1.00  0.00    -0.177 N 
HETATM   24  C16 UNL     1      -2.896   1.607  -0.551  1.00  0.00     0.126 A 
ATOM     25  H3  UNL     1      -3.888   3.343  -1.058  1.00  0.00     0.185 HD
BRANCH  21  26
HETATM   26  N2  UNL     1      -6.266   2.565  -0.860  1.00  0.00    -0.234 N 
ATOM     27  H22 UNL     1      -7.198   2.165  -0.755  1.00  0.00     0.174 HD
ATOM     28  H21 UNL     1      -6.180   3.542  -1.141  1.00  0.00     0.174 HD
ENDBRANCH  21  26
BRANCH  24  29
HETATM   29  N4  UNL     1      -1.748   2.129  -0.690  1.00  0.00    -0.384 N 
ATOM     30  H42 UNL     1      -0.921   1.557  -0.518  1.00  0.00     0.157 HD
ATOM     31  H41 UNL     1      -1.668   3.106  -0.970  1.00  0.00     0.157 HD
ENDBRANCH  24  29
ENDBRANCH   1  17
TORSDOF 8
