REMARK  9 active torsions:
REMARK  status: ('A' for Active; 'I' for Inactive)
REMARK    1  A    between atoms: C2_2  and  C3_4 
REMARK    2  A    between atoms: C11_12  and  O1_13 
REMARK    3  A    between atoms: O1_13  and  C12_14 
REMARK    4  A    between atoms: C12_14  and  C13_16 
REMARK    5  A    between atoms: C13_16  and  C14_17 
REMARK    6  A    between atoms: C14_17  and  C17_20 
REMARK    7  A    between atoms: C17_20  and  O4_22 
REMARK    8  A    between atoms: C19_24  and  C20_25 
REMARK    9  A    between atoms: C28_33  and  O5_34 
ROOT
HETATM    1  C3  UNL     1      -5.671   1.044   0.167  1.00  0.00     0.040 C 
HETATM    2  C4  UNL     1      -5.805   0.002   1.276  1.00  0.00     0.011 C 
HETATM    3  C5  UNL     1      -5.203  -1.218   0.622  1.00  0.00     0.007 C 
HETATM    4  C6  UNL     1      -4.397  -0.758  -0.567  1.00  0.00     0.002 C 
HETATM    5  C7  UNL     1      -2.962  -1.145  -0.309  1.00  0.00     0.001 C 
HETATM    6  C8  UNL     1      -2.141  -1.091  -1.551  1.00  0.00     0.033 C 
HETATM    7  C9  UNL     1      -0.691  -1.076  -1.148  1.00  0.00    -0.020 C 
HETATM    8  C10 UNL     1      -0.248  -0.673  -0.010  1.00  0.00    -0.045 C 
HETATM    9  C11 UNL     1       1.213  -0.694   0.305  1.00  0.00     0.166 C 
HETATM   10  C19 UNL     1       1.341  -1.904   1.177  1.00  0.00     0.023 C 
HETATM   11  C23 UNL     1       0.288  -1.968   2.229  1.00  0.00     0.009 C 
HETATM   12  C24 UNL     1      -0.741  -0.939   2.318  1.00  0.00     0.014 C 
HETATM   13  C25 UNL     1      -1.111  -0.171   1.072  1.00  0.00    -0.012 C 
HETATM   14  C26 UNL     1      -0.656   1.271   1.357  1.00  0.00     0.021 C 
HETATM   15  C27 UNL     1      -2.553  -0.169   0.757  1.00  0.00     0.032 C 
HETATM   16  C28 UNL     1      -3.114   1.122   0.207  1.00  0.00     0.133 C 
HETATM   17  C29 UNL     1      -4.379   0.779  -0.491  1.00  0.00    -0.005 C 
HETATM   18  C30 UNL     1      -4.457   1.354  -1.899  1.00  0.00     0.019 C 
ENDROOT
BRANCH   9  19
HETATM   19  O1  UNL     1       1.996  -0.663  -0.842  1.00  0.00    -0.311 OA
BRANCH  19  20
HETATM   20  C12 UNL     1       2.802   0.446  -1.145  1.00  0.00     0.263 C 
HETATM   21  O2  UNL     1       2.783   1.401  -0.344  1.00  0.00    -0.265 OA
BRANCH  20  22
HETATM   22  C13 UNL     1       3.638   0.507  -2.349  1.00  0.00     0.155 C 
BRANCH  22  23
HETATM   23  C14 UNL     1       5.081   0.343  -2.113  1.00  0.00     0.022 C 
HETATM   24  C15 UNL     1       5.659  -0.709  -2.667  1.00  0.00    -0.017 C 
HETATM   25  C16 UNL     1       7.088  -1.025  -2.536  1.00  0.00     0.036 C 
BRANCH  23  26
HETATM   26  C17 UNL     1       5.805   1.323  -1.332  1.00  0.00     0.289 C 
HETATM   27  O3  UNL     1       7.046   1.156  -1.156  1.00  0.00    -0.260 OA
BRANCH  26  28
HETATM   28  O4  UNL     1       5.274   2.453  -0.746  1.00  0.00    -0.323 OA
HETATM   29  C18 UNL     1       6.094   3.334  -0.011  1.00  0.00     0.213 C 
ENDBRANCH  26  28
ENDBRANCH  23  26
ENDBRANCH  22  23
ENDBRANCH  20  22
ENDBRANCH  19  20
ENDBRANCH   9  19
BRANCH  10  30
HETATM   30  C20 UNL     1       2.696  -2.278   1.638  1.00  0.00    -0.016 C 
HETATM   31  C21 UNL     1       3.608  -2.587   0.475  1.00  0.00     0.010 C 
HETATM   32  C22 UNL     1       3.324  -1.329   2.616  1.00  0.00     0.010 C 
ENDBRANCH  10  30
BRANCH  16  33
HETATM   33  O5  UNL     1      -2.253   1.668  -0.762  1.00  0.00    -0.394 OA
ATOM     34  H5  UNL     1      -2.606   2.480  -1.108  1.00  0.00     0.210 HD
ENDBRANCH  16  33
BRANCH   1  35
HETATM   35  C2  UNL     1      -5.994   2.388   0.635  1.00  0.00     0.007 C 
HETATM   36  C1  UNL     1      -7.025   3.034   0.093  1.00  0.00     0.032 C 
HETATM   37 CL1  UNL     1      -5.125   3.167   1.922  1.00  0.00    -0.089 Cl
ENDBRANCH   1  35
TORSDOF 9
