REMARK  13 active torsions:
REMARK  status: ('A' for Active; 'I' for Inactive)
REMARK    1  A    between atoms: C3_4  and  O2_5 
REMARK    2  A    between atoms: O2_5  and  C4_6 
REMARK    3  A    between atoms: C6_8  and  O3_9 
REMARK    4  A    between atoms: O3_9  and  C7_10 
REMARK    5  A    between atoms: C8_12  and  C9_13 
REMARK    6  A    between atoms: C9_13  and  N1_14 
REMARK    7  A    between atoms: C10_18  and  O5_19 
REMARK    8  A    between atoms: C12_22  and  N2_23 
REMARK    9  A    between atoms: N2_23  and  O6_24 
REMARK   10  A    between atoms: C13_26  and  N3_27 
REMARK   11  A    between atoms: C15_32  and  N4_33 
REMARK   12  A    between atoms: C16_37  and  O7_38 
REMARK   13  A    between atoms: C17_41  and  O9_42 
ROOT
HETATM    1  C4  UNL     1      -1.847  -1.072   0.499  1.00  0.00     0.157 C 
HETATM    2  C5  UNL     1      -0.639  -0.559  -0.263  1.00  0.00     0.068 C 
HETATM    3  C6  UNL     1       0.640  -1.097   0.342  1.00  0.00     0.157 C 
HETATM    4  C13 UNL     1       0.662  -2.586   0.411  1.00  0.00     0.214 C 
HETATM    5  C14 UNL     1      -0.642  -3.213  -0.035  1.00  0.00     0.070 C 
HETATM    6  C15 UNL     1      -1.842  -2.568   0.622  1.00  0.00     0.214 C 
ENDROOT
BRANCH   3   7
HETATM    7  O3  UNL     1       1.694  -0.675  -0.491  1.00  0.00    -0.352 OA
BRANCH   7   8
HETATM    8  C7  UNL     1       2.550   0.179   0.194  1.00  0.00     0.282 C 
HETATM    9  O4  UNL     1       3.815  -0.423   0.206  1.00  0.00    -0.350 OA
HETATM   10  C8  UNL     1       4.718   0.355   0.947  1.00  0.00     0.178 C 
HETATM   11  C10 UNL     1       4.815   1.747   0.424  1.00  0.00     0.150 C 
HETATM   12  C11 UNL     1       4.058   1.817  -0.908  1.00  0.00     0.063 C 
HETATM   13  C12 UNL     1       2.599   1.491  -0.576  1.00  0.00     0.164 C 
BRANCH  10  14
HETATM   14  C9  UNL     1       6.056  -0.329   0.847  1.00  0.00     0.264 C 
BRANCH  14  15
HETATM   15  N1  UNL     1       7.101   0.340   1.586  1.00  0.00    -0.077 N 
ATOM     16  H13 UNL     1       7.173   1.318   1.305  1.00  0.00     0.274 HD
ATOM     17  H12 UNL     1       6.831   0.464   2.562  1.00  0.00     0.274 HD
ATOM     18  H11 UNL     1       8.007  -0.123   1.518  1.00  0.00     0.274 HD
ENDBRANCH  14  15
ENDBRANCH  10  14
BRANCH  11  19
HETATM   19  O5  UNL     1       6.146   2.068   0.195  1.00  0.00    -0.393 OA
ATOM     20  H5  UNL     1       6.208   2.955  -0.138  1.00  0.00     0.210 HD
ENDBRANCH  11  19
BRANCH  13  21
HETATM   21  N2  UNL     1       1.816   1.417  -1.792  1.00  0.00    -0.094 NA
BRANCH  21  22
HETATM   22  O6  UNL     1       2.277   0.455  -2.599  1.00  0.00    -0.295 OA
ATOM     23  H6  UNL     1       1.763   0.406  -3.397  1.00  0.00     0.238 HD
ENDBRANCH  21  22
ENDBRANCH  13  21
ENDBRANCH   7   8
ENDBRANCH   3   7
BRANCH   4  24
HETATM   24  N3  UNL     1       1.712  -3.164  -0.431  1.00  0.00    -0.072 N 
ATOM     25  H33 UNL     1       1.632  -2.841  -1.395  1.00  0.00     0.274 HD
ATOM     26  H32 UNL     1       2.625  -2.771  -0.204  1.00  0.00     0.274 HD
ATOM     27  H31 UNL     1       1.727  -4.183  -0.384  1.00  0.00     0.274 HD
ENDBRANCH   4  24
BRANCH   1  28
HETATM   28  O2  UNL     1      -2.957  -0.562  -0.146  1.00  0.00    -0.349 OA
BRANCH  28  29
HETATM   29  C3  UNL     1      -3.631   0.305   0.708  1.00  0.00     0.315 C 
HETATM   30  O1  UNL     1      -3.727   1.585   0.195  1.00  0.00    -0.346 OA
HETATM   31  C2  UNL     1      -4.606   1.707  -0.858  1.00  0.00     0.175 C 
HETATM   32  C1  UNL     1      -5.043   3.160  -0.913  1.00  0.00     0.044 C 
HETATM   33  C17 UNL     1      -5.838   0.871  -0.740  1.00  0.00     0.288 C 
HETATM   34  O8  UNL     1      -5.607  -0.419  -0.288  1.00  0.00    -0.324 OA
HETATM   35  C16 UNL     1      -5.003  -0.302   0.969  1.00  0.00     0.315 C 
BRANCH  33  36
HETATM   36  O9  UNL     1      -6.411   0.761  -2.025  1.00  0.00    -0.369 OA
ATOM     37  H9  UNL     1      -7.195   0.229  -1.950  1.00  0.00     0.212 HD
ENDBRANCH  33  36
BRANCH  35  38
HETATM   38  O7  UNL     1      -5.723   0.639   1.715  1.00  0.00    -0.367 OA
ATOM     39  H7  UNL     1      -6.579   0.260   1.878  1.00  0.00     0.212 HD
ENDBRANCH  35  38
ENDBRANCH  28  29
ENDBRANCH   1  28
BRANCH   6  40
HETATM   40  N4  UNL     1      -3.013  -3.085  -0.055  1.00  0.00    -0.072 N 
ATOM     41  H43 UNL     1      -3.879  -2.666   0.284  1.00  0.00     0.274 HD
ATOM     42  H42 UNL     1      -3.077  -2.771  -1.023  1.00  0.00     0.274 HD
ATOM     43  H41 UNL     1      -3.010  -4.102   0.029  1.00  0.00     0.274 HD
ENDBRANCH   6  40
TORSDOF 13
