REMARK  6 active torsions:
REMARK  status: ('A' for Active; 'I' for Inactive)
REMARK    1  A    between atoms: C2_3  and  N2_4 
REMARK    2  A    between atoms: N2_4  and  O1_6 
REMARK    3  A    between atoms: C4_12  and  N4_13 
REMARK    4  A    between atoms: N4_13  and  N5_15 
REMARK    5  A    between atoms: C5_17  and  C6_18 
REMARK    6  A    between atoms: N7_25  and  N8_26 
ROOT
HETATM    1  N1  UNL     1      -4.044   1.530  -0.017  1.00  0.00    -0.077 NA
HETATM    2  C1  UNL     1      -3.178   0.411  -0.089  1.00  0.00     0.189 A 
HETATM    3  C2  UNL     1      -3.559  -0.748  -0.713  1.00  0.00     0.166 A 
HETATM    4  C3  UNL     1      -2.713  -1.808  -0.769  1.00  0.00     0.291 A 
HETATM    5  O2  UNL     1      -3.045  -2.883  -1.339  1.00  0.00    -0.265 OA
HETATM    6  N3  UNL     1      -1.487  -1.717  -0.205  1.00  0.00    -0.151 N 
ATOM      7  H3  UNL     1      -0.846  -2.510  -0.244  1.00  0.00     0.188 HD
HETATM    8  C4  UNL     1      -1.115  -0.582   0.406  1.00  0.00     0.722 A 
HETATM    9  N7  UNL     1      -1.940   0.467   0.467  1.00  0.00    -0.075 N 
ENDROOT
BRANCH   8  10
HETATM   10  N4  UNL     1       0.059  -0.465   0.958  1.00  0.00    -0.130 N 
ATOM     11  H4  UNL     1       0.288   0.421   1.408  1.00  0.00     0.205 HD
BRANCH  10  12
HETATM   12  N5  UNL     1       0.996  -1.444   0.973  1.00  0.00    -0.297 N 
HETATM   13  C5  UNL     1       2.208  -1.474   0.691  1.00  0.00     0.119 C 
ATOM     14  H5  UNL     1       0.631  -2.346   1.280  1.00  0.00     0.186 HD
BRANCH  13  15
HETATM   15  C6  UNL     1       3.053  -0.403   0.228  1.00  0.00    -0.017 A 
HETATM   16  C7  UNL     1       4.409  -0.687  -0.026  1.00  0.00     0.030 A 
HETATM   17  C8  UNL     1       5.288   0.263  -0.467  1.00  0.00     0.088 A 
HETATM   18  N6  UNL     1       4.856   1.518  -0.670  1.00  0.00    -0.375 N 
HETATM   19  C9  UNL     1       3.577   1.837  -0.442  1.00  0.00     0.088 A 
ATOM     20  H6  UNL     1       5.506   2.232  -1.000  1.00  0.00     0.164 HD
HETATM   21  C10 UNL     1       2.667   0.893   0.005  1.00  0.00     0.030 A 
ENDBRANCH  13  15
ENDBRANCH  10  12
ENDBRANCH   8  10
BRANCH   9  22
HETATM   22  N8  UNL     1      -1.590   1.656   1.090  1.00  0.00    -0.323 N 
ATOM     23  H82 UNL     1      -2.220   2.457   1.137  1.00  0.00     0.178 HD
ATOM     24  H81 UNL     1      -0.660   1.698   1.508  1.00  0.00     0.178 HD
ENDBRANCH   9  22
BRANCH   3  25
HETATM   25  N2  UNL     1      -4.869  -0.782  -1.290  1.00  0.00    -0.261 N 
ATOM     26  H2  UNL     1      -4.992  -0.613  -2.288  1.00  0.00     0.194 HD
BRANCH  25  27
HETATM   27  O1  UNL     1      -5.860  -1.019  -0.568  1.00  0.00    -0.289 OA
ATOM     28  H1  UNL     1      -6.729  -1.042  -0.951  1.00  0.00     0.244 HD
ENDBRANCH  25  27
ENDBRANCH   3  25
TORSDOF 6
