REMARK  3 active torsions:
REMARK  status: ('A' for Active; 'I' for Inactive)
REMARK    1  A    between atoms: N1_1  and  N2_4 
REMARK    2  A    between atoms: N2_4  and  C1_6 
REMARK    3  A    between atoms: C2_9  and  C3_10 
ROOT
HETATM    1  C1  UNL     1      -1.523  -0.642   0.547  1.00  0.00     0.167 A 
HETATM    2  N3  UNL     1      -0.209  -0.860   0.399  1.00  0.00    -0.330 N 
ATOM      3  H3  UNL     1       0.114  -1.814   0.561  1.00  0.00     0.168 HD
HETATM    4  C2  UNL     1       0.724   0.033   0.063  1.00  0.00     0.129 A 
HETATM    5  C4  UNL     1       0.515   1.369  -0.201  1.00  0.00     0.135 A 
HETATM    6  N5  UNL     1       1.607   2.215  -0.551  1.00  0.00    -0.095 NA
HETATM    7  C5  UNL     1      -0.726   1.991  -0.154  1.00  0.00     0.243 A 
HETATM    8  O2  UNL     1      -0.805   3.215  -0.412  1.00  0.00    -0.278 OA
HETATM    9  S1  UNL     1      -2.027   0.965   0.267  1.00  0.00    -0.009 SA
ENDROOT
BRANCH   1  10
HETATM   10  N2  UNL     1      -2.337  -1.604   0.880  1.00  0.00    -0.286 N 
ATOM     11  H2  UNL     1      -2.006  -2.555   1.040  1.00  0.00     0.188 HD
BRANCH  10  12
HETATM   12  N1  UNL     1      -3.700  -1.260   1.007  1.00  0.00    -0.343 N 
ATOM     13  H12 UNL     1      -4.015  -0.304   0.843  1.00  0.00     0.176 HD
ATOM     14  H11 UNL     1      -4.337  -2.013   1.268  1.00  0.00     0.176 HD
ENDBRANCH  10  12
ENDBRANCH   1  10
BRANCH   4  15
HETATM   15  C3  UNL     1       2.124  -0.440  -0.041  1.00  0.00     0.283 C 
HETATM   16  N4  UNL     1       2.471  -1.781   0.203  1.00  0.00    -0.056 NA
HETATM   17  O1  UNL     1       3.012   0.366  -0.352  1.00  0.00    -0.269 OA
ENDBRANCH   4  15
TORSDOF 3
