REMARK  7 active torsions:
REMARK  status: ('A' for Active; 'I' for Inactive)
REMARK    1  A    between atoms: C2_2  and  N1_3 
REMARK    2  A    between atoms: N1_3  and  C3_4 
REMARK    3  A    between atoms: N1_3  and  C9_12 
REMARK    4  A    between atoms: C3_4  and  C4_5 
REMARK    5  A    between atoms: C4_5  and  N2_6 
REMARK    6  A    between atoms: C9_12  and  C10_13 
REMARK    7  A    between atoms: C11_18  and  C12_19 
ROOT
HETATM    1  C10 UNL     1      -0.921  -0.943  -0.145  1.00  0.00     0.116 A 
HETATM    2  N3  UNL     1      -1.054  -1.065  -1.449  1.00  0.00    -0.286 N 
ATOM      3  H3  UNL     1      -0.328  -1.388  -2.089  1.00  0.00     0.188 HD
HETATM    4  N4  UNL     1      -2.267  -0.706  -1.795  1.00  0.00    -0.283 N 
ATOM      5  H4  UNL     1      -2.628  -0.708  -2.749  1.00  0.00     0.188 HD
HETATM    6  C11 UNL     1      -2.958  -0.338  -0.716  1.00  0.00     0.134 A 
HETATM    7  N6  UNL     1      -2.091  -0.495   0.317  1.00  0.00    -0.328 N 
ATOM      8  H6  UNL     1      -2.301  -0.301   1.296  1.00  0.00     0.169 HD
ENDROOT
BRANCH   1   9
HETATM    9  C9  UNL     1       0.252  -1.223   0.729  1.00  0.00     0.205 C 
BRANCH   9  10
HETATM   10  N1  UNL     1       1.495  -0.739   0.213  1.00  0.00    -0.362 N 
BRANCH  10  11
HETATM   11  C2  UNL     1       1.611   0.629   0.012  1.00  0.00     0.059 C 
HETATM   12  C1  UNL     1       1.512   1.120  -1.410  1.00  0.00     0.055 C 
ENDBRANCH  10  11
BRANCH  10  13
HETATM   13  C3  UNL     1       2.422  -1.675  -0.198  1.00  0.00     0.107 C 
BRANCH  13  14
HETATM   14  C4  UNL     1       3.711  -1.658   0.521  1.00  0.00     0.102 C 
BRANCH  14  15
HETATM   15  N2  UNL     1       4.527  -0.513   0.467  1.00  0.00    -0.385 N 
HETATM   16  C5  UNL     1       5.137  -0.217  -0.779  1.00  0.00     0.148 C 
HETATM   17  C6  UNL     1       6.428   0.531  -0.729  1.00  0.00     0.187 C 
HETATM   18  O1  UNL     1       7.189   0.037   0.356  1.00  0.00    -0.388 OA
HETATM   19  C7  UNL     1       6.518   0.552   1.489  1.00  0.00     0.187 C 
HETATM   20  C8  UNL     1       5.262  -0.219   1.649  1.00  0.00     0.148 C 
ENDBRANCH  14  15
ENDBRANCH  13  14
ENDBRANCH  10  13
ENDBRANCH   9  10
ENDBRANCH   1   9
BRANCH   6  21
HETATM   21  C12 UNL     1      -4.332   0.145  -0.605  1.00  0.00     0.039 A 
HETATM   22  C13 UNL     1      -5.280   0.383  -1.549  1.00  0.00     0.020 A 
HETATM   23  C14 UNL     1      -5.129   0.214  -3.002  1.00  0.00     0.069 C 
HETATM   24  N5  UNL     1      -6.423   0.821  -0.972  1.00  0.00    -0.362 N 
HETATM   25  C15 UNL     1      -6.243   0.874   0.350  1.00  0.00     0.012 A 
ATOM     26  H5  UNL     1      -7.280   1.070  -1.465  1.00  0.00     0.165 HD
HETATM   27  C16 UNL     1      -7.285   1.312   1.326  1.00  0.00     0.068 C 
HETATM   28  C17 UNL     1      -4.942   0.457   0.616  1.00  0.00    -0.024 A 
HETATM   29  C18 UNL     1      -4.310   0.357   1.952  1.00  0.00     0.051 C 
ENDBRANCH   6  21
TORSDOF 7
