REMARK  19 active torsions:
REMARK  status: ('A' for Active; 'I' for Inactive)
REMARK    1  A    between atoms: O1_2  and  C2_3 
REMARK    2  A    between atoms: C2_3  and  C3_5 
REMARK    3  A    between atoms: C3_5  and  C4_6 
REMARK    4  A    between atoms: C4_6  and  N1_7 
REMARK    5  A    between atoms: C4_6  and  C19_44 
REMARK    6  A    between atoms: N1_7  and  C5_9 
REMARK    7  A    between atoms: C5_9  and  C6_10 
REMARK    8  A    between atoms: C5_9  and  C12_29 
REMARK       I    between atoms: C6_10  and  N2_12 
REMARK    9  A    between atoms: N2_12  and  C7_14 
REMARK   10  A    between atoms: C7_14  and  C8_15 
REMARK   11  A    between atoms: C7_14  and  C9_20 
REMARK       I    between atoms: C8_15  and  N3_16 
REMARK   12  A    between atoms: C9_20  and  N4_21 
REMARK   13  A    between atoms: C9_20  and  C10_25 
REMARK   14  A    between atoms: C10_25  and  O5_27 
REMARK   15  A    between atoms: C12_29  and  C13_31 
REMARK   16  A    between atoms: C14_33  and  C15_34 
REMARK   17  A    between atoms: C15_34  and  O8_36 
REMARK   18  A    between atoms: C17_38  and  O9_39 
REMARK   19  A    between atoms: C18_41  and  O10_42 
ROOT
HETATM    1  C5  UNL     1      -0.305   0.746  -0.401  1.00  0.00     0.243 C 
ENDROOT
BRANCH   1   2
HETATM    2  N1  UNL     1      -0.025   1.950   0.355  1.00  0.00    -0.390 N 
ATOM      3  H1  UNL     1       0.912   2.351   0.308  1.00  0.00     0.155 HD
BRANCH   2   4
HETATM    4  C4  UNL     1      -0.970   2.572   1.131  1.00  0.00     0.189 C 
BRANCH   4   5
HETATM    5  C3  UNL     1      -1.989   3.491   0.559  1.00  0.00     0.146 C 
BRANCH   5   6
HETATM    6  C2  UNL     1      -1.362   4.722  -0.020  1.00  0.00     0.260 C 
HETATM    7  O2  UNL     1      -0.154   4.885  -0.251  1.00  0.00    -0.265 OA
BRANCH   6   8
HETATM    8  O1  UNL     1      -2.244   5.756  -0.282  1.00  0.00    -0.326 OA
HETATM    9  C1  UNL     1      -1.827   7.025  -0.781  1.00  0.00     0.213 C 
ENDBRANCH   6   8
ENDBRANCH   5   6
ENDBRANCH   4   5
BRANCH   4  10
HETATM   10  C19 UNL     1      -0.215   3.243   2.276  1.00  0.00     0.196 C 
HETATM   11  O11 UNL     1       1.022   3.171   2.325  1.00  0.00    -0.646 OA
HETATM   12  O12 UNL     1      -0.898   3.937   3.277  1.00  0.00    -0.646 OA
ENDBRANCH   4  10
ENDBRANCH   2   4
ENDBRANCH   1   2
BRANCH   1  13
HETATM   13  C6  UNL     1       1.156   0.485  -0.884  1.00  0.00     0.248 C 
HETATM   14  O3  UNL     1       1.516   0.933  -1.995  1.00  0.00    -0.271 OA
HETATM   15  N2  UNL     1       2.014  -0.205  -0.016  1.00  0.00    -0.344 N 
ATOM     16  H2  UNL     1       1.573  -0.568   0.829  1.00  0.00     0.163 HD
BRANCH  15  17
HETATM   17  C7  UNL     1       3.411  -0.477  -0.133  1.00  0.00     0.209 C 
BRANCH  17  18
HETATM   18  C8  UNL     1       3.957   0.524  -1.179  1.00  0.00     0.240 C 
HETATM   19  N3  UNL     1       4.675   0.106  -2.271  1.00  0.00    -0.368 N 
ATOM     20  H32 UNL     1       4.874  -0.884  -2.411  1.00  0.00     0.159 HD
ATOM     21  H31 UNL     1       5.035   0.766  -2.961  1.00  0.00     0.159 HD
HETATM   22  O4  UNL     1       3.708   1.761  -1.004  1.00  0.00    -0.271 OA
ENDBRANCH  17  18
BRANCH  17  23
HETATM   23  C9  UNL     1       3.883  -1.811  -0.409  1.00  0.00     0.243 C 
BRANCH  23  24
HETATM   24  N4  UNL     1       3.283  -2.786   0.521  1.00  0.00    -0.070 N 
ATOM     25  H43 UNL     1       3.441  -2.525   1.494  1.00  0.00     0.274 HD
ATOM     26  H42 UNL     1       2.264  -2.738   0.511  1.00  0.00     0.274 HD
ATOM     27  H41 UNL     1       3.617  -3.730   0.326  1.00  0.00     0.274 HD
ENDBRANCH  23  24
BRANCH  23  28
HETATM   28  C10 UNL     1       5.400  -1.880  -0.031  1.00  0.00     0.147 C 
HETATM   29  C11 UNL     1       5.445  -1.808   1.516  1.00  0.00     0.041 C 
BRANCH  28  30
HETATM   30  O5  UNL     1       5.948  -3.086  -0.332  1.00  0.00    -0.394 OA
ATOM     31  H5  UNL     1       6.869  -3.128  -0.103  1.00  0.00     0.210 HD
ENDBRANCH  28  30
ENDBRANCH  23  28
ENDBRANCH  17  23
ENDBRANCH  15  17
ENDBRANCH   1  13
BRANCH   1  32
HETATM   32  C12 UNL     1      -0.823  -0.391   0.264  1.00  0.00     0.189 C 
HETATM   33  O6  UNL     1      -0.889  -0.453   1.480  1.00  0.00    -0.292 OA
BRANCH  32  34
HETATM   34  C13 UNL     1      -1.338  -1.583  -0.473  1.00  0.00     0.225 C 
HETATM   35  O7  UNL     1      -2.006  -2.441   0.401  1.00  0.00    -0.365 OA
HETATM   36  C14 UNL     1      -3.359  -2.358   0.066  1.00  0.00     0.182 C 
HETATM   37  C17 UNL     1      -3.247  -2.382  -1.491  1.00  0.00     0.181 C 
HETATM   38  C18 UNL     1      -2.238  -1.268  -1.623  1.00  0.00     0.185 C 
BRANCH  36  39
HETATM   39  C15 UNL     1      -4.168  -3.523   0.511  1.00  0.00     0.145 C 
HETATM   40  C16 UNL     1      -4.015  -3.924   1.933  1.00  0.00     0.042 C 
BRANCH  39  41
HETATM   41  O8  UNL     1      -5.510  -3.339   0.210  1.00  0.00    -0.393 OA
ATOM     42  H8  UNL     1      -6.027  -4.084   0.494  1.00  0.00     0.210 HD
ENDBRANCH  39  41
ENDBRANCH  36  39
BRANCH  37  43
HETATM   43  O9  UNL     1      -4.423  -2.210  -2.128  1.00  0.00    -0.390 OA
ATOM     44  H9  UNL     1      -4.355  -2.225  -3.075  1.00  0.00     0.210 HD
ENDBRANCH  37  43
BRANCH  38  45
HETATM   45  O10 UNL     1      -2.947  -0.073  -1.478  1.00  0.00    -0.390 OA
ATOM     46  H10 UNL     1      -3.519   0.127  -2.209  1.00  0.00     0.210 HD
ENDBRANCH  38  45
ENDBRANCH  32  34
ENDBRANCH   1  32
TORSDOF 19
