REMARK  3 active torsions:
REMARK  status: ('A' for Active; 'I' for Inactive)
REMARK    1  A    between atoms: O1_1  and  C1_3 
REMARK    2  A    between atoms: C1_3  and  C2_4 
REMARK    3  A    between atoms: C2_4  and  C3_7 
ROOT
HETATM    1  C1  UNL     1      -1.528   0.083  -0.780  1.00  0.00     0.132 C 
HETATM    2  C4  UNL     1      -0.712   1.297  -0.536  1.00  0.00     0.044 C 
HETATM    3  C5  UNL     1       0.012   1.530   0.693  1.00  0.00     0.003 C 
HETATM    4  C6  UNL     1       1.367   2.206   0.410  1.00  0.00     0.000 C 
HETATM    5  C7  UNL     1       2.516   1.302   0.850  1.00  0.00     0.000 C 
HETATM    6  C8  UNL     1       2.675   0.113  -0.037  1.00  0.00     0.000 C 
HETATM    7  C9  UNL     1       2.257  -1.188   0.593  1.00  0.00     0.000 C 
HETATM    8  C10 UNL     1       1.434  -2.022  -0.349  1.00  0.00     0.000 C 
HETATM    9  C11 UNL     1      -0.072  -1.905  -0.053  1.00  0.00     0.003 C 
HETATM   10  C12 UNL     1      -0.795  -1.171  -1.076  1.00  0.00     0.044 C 
ENDROOT
BRANCH   1  11
HETATM   11  O1  UNL     1      -1.973   0.397  -2.135  1.00  0.00    -0.383 OA
ATOM     12  H1  UNL     1      -1.114   0.464  -2.536  1.00  0.00     0.210 HD
ENDBRANCH   1  11
BRANCH   1  13
HETATM   13  C2  UNL     1      -2.853  -0.021  -0.161  1.00  0.00     0.369 C 
HETATM   14  F1  UNL     1      -3.482   1.230  -0.329  1.00  0.00    -0.193 F 
HETATM   15  F2  UNL     1      -3.649  -0.881  -0.952  1.00  0.00    -0.193 F 
BRANCH  13  16
HETATM   16  C3  UNL     1      -3.088  -0.433   1.213  1.00  0.00     0.457 C 
HETATM   17  F3  UNL     1      -2.520   0.333   2.212  1.00  0.00    -0.165 F 
HETATM   18  F4  UNL     1      -2.996  -1.785   1.471  1.00  0.00    -0.165 F 
HETATM   19  F5  UNL     1      -4.473  -0.195   1.424  1.00  0.00    -0.165 F 
ENDBRANCH  13  16
ENDBRANCH   1  13
TORSDOF 3
