REMARK  1 active torsions:
REMARK  status: ('A' for Active; 'I' for Inactive)
REMARK    1  A    between atoms: C6_6  and  C7_8 
ROOT
HETATM    1  C1  UNL     1       2.304   0.280  -1.571  1.00  0.00     0.037 C 
HETATM    2  C2  UNL     1       1.394   0.091  -0.358  1.00  0.00     0.019 C 
HETATM    3  C3  UNL     1       2.263   0.395   0.869  1.00  0.00     0.037 C 
HETATM    4  C4  UNL     1       1.080  -1.384  -0.291  1.00  0.00     0.033 C 
HETATM    5  C5  UNL     1       0.016  -1.597   0.725  1.00  0.00     0.054 C 
HETATM    6  C6  UNL     1      -1.197  -0.732   0.524  1.00  0.00     0.185 C 
HETATM    7  F1  UNL     1      -1.880  -0.752   1.751  1.00  0.00    -0.234 F 
HETATM    8  C8  UNL     1      -0.901   0.676   0.185  1.00  0.00     0.060 C 
HETATM    9  C9  UNL     1      -2.024   1.298  -0.665  1.00  0.00     0.041 C 
HETATM   10  C10 UNL     1      -0.926   1.523   1.470  1.00  0.00     0.041 C 
HETATM   11  N1  UNL     1       0.308   0.947  -0.470  1.00  0.00    -0.402 N 
ATOM     12  H1  UNL     1       0.391   1.789  -1.040  1.00  0.00     0.154 HD
ENDROOT
BRANCH   6  13
HETATM   13  C7  UNL     1      -2.119  -1.430  -0.445  1.00  0.00     0.395 C 
HETATM   14  F2  UNL     1      -1.559  -1.659  -1.666  1.00  0.00    -0.211 F 
HETATM   15  F3  UNL     1      -2.367  -2.694   0.111  1.00  0.00    -0.211 F 
ENDBRANCH   6  13
TORSDOF 1
