REMARK  4 active torsions:
REMARK  status: ('A' for Active; 'I' for Inactive)
REMARK    1  A    between atoms: O1_2  and  C2_3 
REMARK    2  A    between atoms: C8_9  and  O2_10 
REMARK    3  A    between atoms: C18_23  and  N2_24 
REMARK    4  A    between atoms: N2_24  and  N3_25 
ROOT
HETATM    1  C2  UNL     1      -1.146  -2.091   0.980  1.00  0.00     0.102 A 
HETATM    2  C3  UNL     1      -0.131  -1.256   0.640  1.00  0.00     0.055 A 
HETATM    3  C4  UNL     1      -0.412   0.051   0.307  1.00  0.00     0.023 A 
HETATM    4  C5  UNL     1      -1.737   0.538   0.309  1.00  0.00     0.009 A 
HETATM    5  C6  UNL     1      -2.779  -0.291   0.655  1.00  0.00    -0.013 A 
HETATM    6  C7  UNL     1      -4.160   0.142   0.764  1.00  0.00     0.052 C 
HETATM    7  C8  UNL     1      -2.429  -1.608   0.983  1.00  0.00     0.108 A 
HETATM    8  C10 UNL     1      -2.090   1.884  -0.104  1.00  0.00     0.017 C 
HETATM    9  C11 UNL     1      -3.371   2.239  -0.722  1.00  0.00     0.069 C 
HETATM   10  N1  UNL     1      -1.447   2.945   0.656  1.00  0.00    -0.358 N 
ATOM     11  H1  UNL     1      -2.049   3.594   1.162  1.00  0.00     0.166 HD
HETATM   12  C12 UNL     1      -0.020   3.148   0.747  1.00  0.00     0.046 A 
HETATM   13  C13 UNL     1       0.333   4.430   1.163  1.00  0.00     0.033 A 
HETATM   14  C14 UNL     1       1.662   4.749   1.276  1.00  0.00     0.044 A 
HETATM   15  C15 UNL     1       2.676   3.836   0.990  1.00  0.00     0.117 A 
HETATM   16  F1  UNL     1       3.997   4.181   1.110  1.00  0.00    -0.206 F 
HETATM   17  C16 UNL     1       2.316   2.571   0.580  1.00  0.00     0.059 A 
HETATM   18  C17 UNL     1       0.987   2.244   0.465  1.00  0.00     0.037 A 
HETATM   19  C18 UNL     1       0.846   0.815   0.046  1.00  0.00     0.154 C 
ENDROOT
BRANCH  19  20
HETATM   20  N2  UNL     1       1.746   0.240  -0.477  1.00  0.00    -0.327 NA
BRANCH  20  21
HETATM   21  N3  UNL     1       2.761  -0.324  -1.041  1.00  0.00    -0.263 N 
HETATM   22  C19 UNL     1       3.913  -1.098  -0.506  1.00  0.00     0.157 C 
HETATM   23  C20 UNL     1       3.917  -2.332  -1.372  1.00  0.00     0.024 C 
HETATM   24  C21 UNL     1       3.324  -1.846  -2.675  1.00  0.00     0.024 C 
HETATM   25  C22 UNL     1       3.073  -0.354  -2.495  1.00  0.00     0.157 C 
ENDBRANCH  20  21
ENDBRANCH  19  20
BRANCH   1  26
HETATM   26  O1  UNL     1      -0.858  -3.422   1.317  1.00  0.00    -0.353 OA
HETATM   27  C1  UNL     1       0.478  -3.890   1.302  1.00  0.00     0.210 C 
ENDBRANCH   1  26
BRANCH   7  28
HETATM   28  O2  UNL     1      -3.473  -2.451   1.329  1.00  0.00    -0.353 OA
HETATM   29  C9  UNL     1      -4.179  -3.236   0.392  1.00  0.00     0.210 C 
ENDBRANCH   7  28
TORSDOF 4
