REMARK  6 active torsions:
REMARK  status: ('A' for Active; 'I' for Inactive)
REMARK    1  A    between atoms: C2_2  and  O1_3 
REMARK    2  A    between atoms: C6_15  and  O3_16 
REMARK    3  A    between atoms: O3_16  and  C7_17 
REMARK    4  A    between atoms: C9_22  and  C10_23 
REMARK    5  A    between atoms: C10_23  and  O4_24 
REMARK    6  A    between atoms: O4_24  and  S1_25 
ROOT
HETATM    1  C1  UNL     1      -5.497   0.300  -0.417  1.00  0.00     0.081 C 
HETATM    2  C2  UNL     1      -4.323  -0.626  -0.192  1.00  0.00     0.191 C 
HETATM    3  O2  UNL     1      -3.410  -0.410  -1.188  1.00  0.00    -0.317 OA
HETATM    4  C3  UNL     1      -2.410   0.425  -0.722  1.00  0.00     0.381 C 
HETATM    5  N1  UNL     1      -2.939   1.016   0.518  1.00  0.00    -0.033 N 
ATOM      6  H11 UNL     1      -3.508   1.856   0.412  1.00  0.00     0.281 HD
ATOM      7  H12 UNL     1      -2.259   1.466   1.130  1.00  0.00     0.281 HD
HETATM    8  C4  UNL     1      -3.612  -0.154   1.054  1.00  0.00     0.275 C 
HETATM    9  C5  UNL     1      -2.568  -1.146   1.490  1.00  0.00     0.274 C 
HETATM   10  N2  UNL     1      -1.692  -1.561   0.423  1.00  0.00    -0.042 N 
ATOM     11  H21 UNL     1      -2.143  -2.223  -0.208  1.00  0.00     0.280 HD
ATOM     12  H22 UNL     1      -0.940  -2.164   0.757  1.00  0.00     0.280 HD
HETATM   13  C6  UNL     1      -1.188  -0.399  -0.277  1.00  0.00     0.380 C 
ENDROOT
BRANCH  13  14
HETATM   14  O3  UNL     1      -0.240   0.305   0.334  1.00  0.00    -0.323 OA
BRANCH  14  15
HETATM   15  C7  UNL     1       0.986   0.477  -0.155  1.00  0.00     0.291 C 
HETATM   16  C8  UNL     1       1.468   1.851  -0.444  1.00  0.00     0.296 C 
HETATM   17  N3  UNL     1       2.864   1.522  -0.808  1.00  0.00    -0.042 N 
HETATM   18  C9  UNL     1       3.164   0.651   0.333  1.00  0.00     0.348 C 
ATOM     19  H32 UNL     1       3.017   1.131  -1.738  1.00  0.00     0.280 HD
ATOM     20  H31 UNL     1       3.495   2.308  -0.965  1.00  0.00     0.280 HD
HETATM   21  O8  UNL     1       2.030  -0.074   0.589  1.00  0.00    -0.325 OA
BRANCH  18  22
HETATM   22  C10 UNL     1       4.370  -0.151   0.000  1.00  0.00     0.254 C 
BRANCH  22  23
HETATM   23  O4  UNL     1       5.427   0.733  -0.240  1.00  0.00    -0.253 OA
BRANCH  23  24
HETATM   24  S1  UNL     1       6.838  -0.052  -0.625  1.00  0.00     0.251 S 
HETATM   25  O5  UNL     1       7.199   0.057  -2.069  1.00  0.00    -0.572 OA
HETATM   26  O6  UNL     1       7.951   0.586   0.167  1.00  0.00    -0.572 OA
HETATM   27  O7  UNL     1       6.772  -1.660  -0.187  1.00  0.00    -0.572 OA
ENDBRANCH  23  24
ENDBRANCH  22  23
ENDBRANCH  18  22
ENDBRANCH  14  15
ENDBRANCH  13  14
BRANCH   2  28
HETATM   28  O1  UNL     1      -4.710  -1.946  -0.039  1.00  0.00    -0.364 OA
ATOM     29  H1  UNL     1      -3.972  -2.528   0.102  1.00  0.00     0.213 HD
ENDBRANCH   2  28
TORSDOF 6
