REMARK  10 active torsions:
REMARK  status: ('A' for Active; 'I' for Inactive)
REMARK    1  A    between atoms: C4_7  and  O4_8 
REMARK    2  A    between atoms: C5_11  and  C6_12 
REMARK    3  A    between atoms: C6_12  and  O6_13 
REMARK    4  A    between atoms: C6_12  and  C7_15 
REMARK    5  A    between atoms: C7_15  and  O7_16 
REMARK    6  A    between atoms: C7_15  and  C8_18 
REMARK    7  A    between atoms: C8_18  and  O8_19 
REMARK    8  A    between atoms: C8_18  and  C9_21 
REMARK    9  A    between atoms: C9_21  and  O9_22 
REMARK   10  A    between atoms: C9_21  and  O10_24 
ROOT
HETATM    1  C6  UNL     1       0.548   0.665  -0.293  1.00  0.00     0.189 C 
ENDROOT
BRANCH   1   2
HETATM    2  C5  UNL     1       0.047  -0.642  -0.767  1.00  0.00     0.232 C 
HETATM    3  O5  UNL     1      -1.137  -0.684  -1.397  1.00  0.00    -0.303 OA
HETATM    4  C3  UNL     1      -2.232  -0.569  -0.630  1.00  0.00     0.354 C 
HETATM    5  O2  UNL     1      -3.344  -0.933  -1.425  1.00  0.00    -0.316 OA
HETATM    6  O3  UNL     1      -2.497   0.674  -0.126  1.00  0.00    -0.285 OA
HETATM    7  S2  UNL     1      -2.134  -1.841   0.703  1.00  0.00     0.005 SA
HETATM    8  C2  UNL     1      -4.380  -1.390  -0.613  1.00  0.00     0.258 C 
HETATM    9  C1  UNL     1      -4.530  -0.412   0.492  1.00  0.00     0.204 C 
HETATM   10  O1  UNL     1      -5.469  -0.546   1.254  1.00  0.00    -0.290 OA
HETATM   11  C4  UNL     1      -3.595   0.704   0.699  1.00  0.00     0.337 C 
HETATM   12  S1  UNL     1       0.033  -1.902   0.578  1.00  0.00    -0.055 SA
BRANCH  11  13
HETATM   13  O4  UNL     1      -4.284   1.894   0.470  1.00  0.00    -0.364 OA
ATOM     14  H4  UNL     1      -3.680   2.615   0.604  1.00  0.00     0.213 HD
ENDBRANCH  11  13
ENDBRANCH   1   2
BRANCH   1  15
HETATM   15  O6  UNL     1       0.690   1.513  -1.374  1.00  0.00    -0.389 OA
ATOM     16  H6  UNL     1       1.012   2.353  -1.069  1.00  0.00     0.210 HD
ENDBRANCH   1  15
BRANCH   1  17
HETATM   17  C7  UNL     1       1.829   0.485   0.492  1.00  0.00     0.183 C 
BRANCH  17  18
HETATM   18  O7  UNL     1       2.182   1.768   0.940  1.00  0.00    -0.390 OA
ATOM     19  H7  UNL     1       2.986   1.655   1.433  1.00  0.00     0.210 HD
ENDBRANCH  17  18
BRANCH  17  20
HETATM   20  C8  UNL     1       2.939  -0.115  -0.340  1.00  0.00     0.204 C 
BRANCH  20  21
HETATM   21  O8  UNL     1       3.218   0.658  -1.460  1.00  0.00    -0.388 OA
ATOM     22  H8  UNL     1       3.916   0.281  -1.983  1.00  0.00     0.210 HD
ENDBRANCH  20  21
BRANCH  20  23
HETATM   23  C9  UNL     1       4.178  -0.260   0.518  1.00  0.00     0.285 C 
BRANCH  23  24
HETATM   24  O9  UNL     1       3.922  -1.032   1.649  1.00  0.00    -0.369 OA
ATOM     25  H9  UNL     1       4.699  -1.123   2.187  1.00  0.00     0.212 HD
ENDBRANCH  23  24
BRANCH  23  26
HETATM   26  O10 UNL     1       4.723   0.957   0.886  1.00  0.00    -0.369 OA
ATOM     27  H10 UNL     1       5.500   0.866   1.424  1.00  0.00     0.212 HD
ENDBRANCH  23  26
ENDBRANCH  20  23
ENDBRANCH  17  20
ENDBRANCH   1  17
TORSDOF 10
