REMARK  9 active torsions:
REMARK  status: ('A' for Active; 'I' for Inactive)
REMARK    1  A    between atoms: C2_2  and  O1_3 
REMARK    2  A    between atoms: O1_3  and  C3_4 
REMARK    3  A    between atoms: C3_4  and  N1_5 
REMARK    4  A    between atoms: C5_9  and  C6_10 
REMARK    5  A    between atoms: C7_13  and  N4_14 
REMARK    6  A    between atoms: C8_19  and  N6_20 
REMARK    7  A    between atoms: C9_22  and  O2_23 
REMARK    8  A    between atoms: N7_25  and  O3_26 
REMARK    9  A    between atoms: N9_33  and  N10_34 
ROOT
HETATM    1  N1  UNL     1       2.304   1.234  -0.488  1.00  0.00    -0.226 N 
HETATM    2  C4  UNL     1       1.001   1.016  -0.284  1.00  0.00     0.161 A 
HETATM    3  N2  UNL     1       0.017   0.113  -0.036  1.00  0.00    -0.322 N 
ATOM      4  H2  UNL     1       0.168  -0.890   0.072  1.00  0.00     0.169 HD
HETATM    5  C5  UNL     1      -1.163   0.705   0.047  1.00  0.00     0.156 A 
HETATM    6  N8  UNL     1      -0.942   2.014  -0.151  1.00  0.00    -0.332 N 
ATOM      7  H8  UNL     1      -1.663   2.735  -0.146  1.00  0.00     0.168 HD
HETATM    8  C10 UNL     1       0.383   2.239  -0.359  1.00  0.00     0.152 A 
HETATM    9  C11 UNL     1       1.365   3.165  -0.610  1.00  0.00     0.312 A 
HETATM   10  O4  UNL     1       1.156   4.397  -0.740  1.00  0.00    -0.262 OA
HETATM   11  N9  UNL     1       2.548   2.539  -0.689  1.00  0.00    -0.156 N 
ENDROOT
BRANCH   5  12
HETATM   12  C6  UNL     1      -2.488   0.135   0.298  1.00  0.00     0.210 A 
HETATM   13  N3  UNL     1      -3.590   0.897   0.349  1.00  0.00    -0.170 N 
HETATM   14  C7  UNL     1      -4.818   0.398   0.578  1.00  0.00     0.692 A 
ATOM     15  H3  UNL     1      -3.493   1.902   0.207  1.00  0.00     0.186 HD
HETATM   16  N5  UNL     1      -4.909  -0.922   0.760  1.00  0.00    -0.020 N 
HETATM   17  C8  UNL     1      -3.837  -1.730   0.720  1.00  0.00     0.726 A 
ATOM     18  H5  UNL     1      -5.826  -1.332   0.936  1.00  0.00     0.203 HD
HETATM   19  N7  UNL     1      -2.632  -1.185   0.487  1.00  0.00    -0.030 N 
BRANCH  14  20
HETATM   20  N4  UNL     1      -5.866   1.145   0.623  1.00  0.00    -0.234 N 
ATOM     21  H42 UNL     1      -5.797   2.153   0.484  1.00  0.00     0.174 HD
ATOM     22  H41 UNL     1      -6.797   0.767   0.797  1.00  0.00     0.174 HD
ENDBRANCH  14  20
BRANCH  17  23
HETATM   23  N6  UNL     1      -3.901  -3.136   0.909  1.00  0.00    -0.179 N 
HETATM   24  C9  UNL     1      -4.847  -3.857   0.433  1.00  0.00     0.240 C 
ATOM     25  H6  UNL     1      -3.163  -3.591   1.446  1.00  0.00     0.185 HD
BRANCH  24  26
HETATM   26  O2  UNL     1      -5.898  -3.361  -0.307  1.00  0.00    -0.356 OA
ATOM     27  H2  UNL     1      -6.599  -3.896  -0.660  1.00  0.00     0.218 HD
ENDBRANCH  24  26
ENDBRANCH  17  23
BRANCH  19  28
HETATM   28  O3  UNL     1      -1.501  -1.970   0.436  1.00  0.00    -0.268 OA
ATOM     29  H3  UNL     1      -1.603  -2.905   0.570  1.00  0.00     0.246 HD
ENDBRANCH  19  28
ENDBRANCH   5  12
BRANCH   1  30
HETATM   30  C3  UNL     1       3.326   0.217  -0.494  1.00  0.00     0.320 C 
BRANCH  30  31
HETATM   31  O1  UNL     1       3.862   0.022   0.795  1.00  0.00    -0.371 OA
BRANCH  31  32
HETATM   32  C2  UNL     1       4.828  -0.968   0.679  1.00  0.00     0.165 C 
HETATM   33  C1  UNL     1       4.254  -2.269   0.169  1.00  0.00     0.033 C 
ENDBRANCH  31  32
ENDBRANCH  30  31
ENDBRANCH   1  30
BRANCH  11  34
HETATM   34  N10 UNL     1       3.799   3.116  -0.931  1.00  0.00    -0.321 N 
ATOM     35 2H10 UNL     1       4.699   2.640  -0.991  1.00  0.00     0.179 HD
ATOM     36 1H10 UNL     1       3.984   4.107  -1.084  1.00  0.00     0.179 HD
ENDBRANCH  11  34
TORSDOF 9
