REMARK  10 active torsions:
REMARK  status: ('A' for Active; 'I' for Inactive)
REMARK    1  A    between atoms: S1_2  and  O4_5 
REMARK    2  A    between atoms: O4_5  and  C1_6 
REMARK    3  A    between atoms: C1_6  and  C2_7 
REMARK    4  A    between atoms: C4_9  and  O5_10 
REMARK    5  A    between atoms: O5_10  and  C5_11 
REMARK    6  A    between atoms: C7_14  and  O7_15 
REMARK    7  A    between atoms: C8_17  and  O8_18 
REMARK    8  A    between atoms: C9_20  and  O9_21 
REMARK    9  A    between atoms: C10_23  and  O10_24 
REMARK   10  A    between atoms: C11_26  and  O11_27 
ROOT
HETATM    1  C2  UNL     1       1.838  -0.233   0.797  1.00  0.00     0.045 C 
HETATM    2  C3  UNL     1       0.902   0.323  -0.224  1.00  0.00     0.044 C 
HETATM    3  C4  UNL     1      -0.428  -0.399  -0.123  1.00  0.00     0.156 C 
HETATM    4  C9  UNL     1      -0.292  -1.872  -0.437  1.00  0.00     0.178 C 
HETATM    5  C10 UNL     1       1.092  -2.397  -0.217  1.00  0.00     0.178 C 
HETATM    6  C11 UNL     1       1.792  -1.720   0.935  1.00  0.00     0.155 C 
ENDROOT
BRANCH   3   7
HETATM    7  O5  UNL     1      -1.322   0.193  -1.010  1.00  0.00    -0.351 OA
BRANCH   7   8
HETATM    8  C5  UNL     1      -2.351   0.745  -0.302  1.00  0.00     0.291 C 
HETATM    9  O6  UNL     1      -2.578   2.081  -0.559  1.00  0.00    -0.356 OA
HETATM   10  C6  UNL     1      -3.773   2.375   0.061  1.00  0.00     0.205 C 
HETATM   11  C7  UNL     1      -4.622   1.133   0.041  1.00  0.00     0.175 C 
HETATM   12  C8  UNL     1      -3.708   0.145  -0.695  1.00  0.00     0.204 C 
BRANCH  11  13
HETATM   13  O7  UNL     1      -4.735   0.671   1.352  1.00  0.00    -0.391 OA
ATOM     14  H7  UNL     1      -5.271  -0.113   1.339  1.00  0.00     0.210 HD
ENDBRANCH  11  13
BRANCH  12  15
HETATM   15  O8  UNL     1      -3.916   0.285  -2.067  1.00  0.00    -0.388 OA
ATOM     16  H8  UNL     1      -4.756  -0.086  -2.310  1.00  0.00     0.210 HD
ENDBRANCH  12  15
ENDBRANCH   7   8
ENDBRANCH   3   7
BRANCH   4  17
HETATM   17  O9  UNL     1      -1.255  -2.569   0.285  1.00  0.00    -0.390 OA
ATOM     18  H9  UNL     1      -1.170  -3.494   0.088  1.00  0.00     0.210 HD
ENDBRANCH   4  17
BRANCH   1  19
HETATM   19  C1  UNL     1       3.259   0.155   0.394  1.00  0.00     0.200 C 
BRANCH  19  20
HETATM   20  O4  UNL     1       3.405   1.533   0.337  1.00  0.00    -0.257 OA
BRANCH  20  21
HETATM   21  S1  UNL     1       4.994   1.847  -0.112  1.00  0.00     0.251 S 
HETATM   22  O1  UNL     1       5.919   1.443   1.018  1.00  0.00    -0.572 OA
HETATM   23  O2  UNL     1       5.389   0.977  -1.291  1.00  0.00    -0.572 OA
HETATM   24  O3  UNL     1       5.218   3.479  -0.483  1.00  0.00    -0.572 OA
ENDBRANCH  20  21
ENDBRANCH  19  20
ENDBRANCH   1  19
BRANCH   5  25
HETATM   25  O10 UNL     1       1.835  -2.228  -1.374  1.00  0.00    -0.390 OA
ATOM     26  H10 UNL     1       2.714  -2.561  -1.234  1.00  0.00     0.210 HD
ENDBRANCH   5  25
BRANCH   6  27
HETATM   27  O11 UNL     1       1.187  -2.034   2.145  1.00  0.00    -0.392 OA
ATOM     28  H11 UNL     1       1.158  -2.979   2.233  1.00  0.00     0.210 HD
ENDBRANCH   6  27
TORSDOF 10
