REMARK  2 active torsions:
REMARK  status: ('A' for Active; 'I' for Inactive)
REMARK    1  A    between atoms: N4_12  and  N5_14 
REMARK    2  A    between atoms: N5_14  and  C5_16 
ROOT
HETATM    1  O1  UNL     1      -1.575   1.087  -2.618  1.00  0.00    -0.267 OA
HETATM    2  C1  UNL     1      -2.086   0.693  -1.531  1.00  0.00     0.257 A 
HETATM    3  N1  UNL     1      -3.409   0.925  -1.071  1.00  0.00    -0.351 N 
ATOM      4  H1  UNL     1      -4.116   1.452  -1.583  1.00  0.00     0.163 HD
HETATM    5  C2  UNL     1      -3.618   0.315   0.218  1.00  0.00     0.182 A 
HETATM    6  C3  UNL     1      -2.317  -0.323   0.537  1.00  0.00     0.063 A 
HETATM    7  N2  UNL     1      -1.623  -1.060   1.455  1.00  0.00    -0.300 N 
ATOM      8  H2  UNL     1      -1.995  -1.397   2.343  1.00  0.00     0.186 HD
HETATM    9  N3  UNL     1      -0.396  -1.268   1.014  1.00  0.00    -0.283 N 
ATOM     10  H3  UNL     1       0.317  -1.794   1.519  1.00  0.00     0.188 HD
HETATM   11  C4  UNL     1      -0.211  -0.700  -0.180  1.00  0.00     0.153 A 
HETATM   12  N4  UNL     1       0.818  -0.658  -0.955  1.00  0.00    -0.269 N 
ATOM     13  H4  UNL     1       0.727  -0.155  -1.838  1.00  0.00     0.189 HD
HETATM   14  C6  UNL     1      -1.428  -0.097  -0.489  1.00  0.00     0.104 A 
ENDROOT
BRANCH  12  15
HETATM   15  N5  UNL     1       2.031  -1.244  -0.674  1.00  0.00    -0.128 N 
ATOM     16  H5  UNL     1       2.087  -2.261  -0.618  1.00  0.00     0.205 HD
BRANCH  15  17
HETATM   17  C5  UNL     1       3.093  -0.553  -0.480  1.00  0.00     0.728 A 
HETATM   18  N6  UNL     1       4.293  -1.104  -0.203  1.00  0.00    -0.114 N 
HETATM   19  N7  UNL     1       5.171  -0.138  -0.060  1.00  0.00    -0.213 N 
ATOM     20  H6  UNL     1       4.486  -2.102  -0.119  1.00  0.00     0.207 HD
HETATM   21  N8  UNL     1       4.544   1.006  -0.241  1.00  0.00    -0.213 N 
ATOM     22  H7  UNL     1       6.162  -0.253   0.153  1.00  0.00     0.210 HD
HETATM   23  N9  UNL     1       3.274   0.785  -0.499  1.00  0.00    -0.114 N 
ATOM     24  H8  UNL     1       4.979   1.927  -0.189  1.00  0.00     0.210 HD
ATOM     25  H9  UNL     1       2.560   1.491  -0.679  1.00  0.00     0.207 HD
ENDBRANCH  15  17
ENDBRANCH  12  15
TORSDOF 2
