REMARK  4 active torsions:
REMARK  status: ('A' for Active; 'I' for Inactive)
REMARK    1  A    between atoms: C2_2  and  C3_3 
REMARK    2  A    between atoms: C3_3  and  C4_4 
REMARK    3  A    between atoms: C8_9  and  N1_10 
REMARK    4  A    between atoms: C11_13  and  N2_14 
ROOT
HETATM    1  C4  UNL     1      -1.917   0.265  -0.309  1.00  0.00     0.046 C 
HETATM    2  C5  UNL     1      -2.518   0.056  -1.690  1.00  0.00     0.174 C 
HETATM    3  O1  UNL     1      -2.592   1.278  -2.370  1.00  0.00    -0.391 OA
HETATM    4  C6  UNL     1      -1.277   1.602  -2.696  1.00  0.00     0.169 C 
HETATM    5  C7  UNL     1      -0.464   1.787  -1.438  1.00  0.00     0.062 C 
HETATM    6  C8  UNL     1      -0.482   0.508  -0.581  1.00  0.00     0.231 C 
ENDROOT
BRANCH   6   7
HETATM    7  N1  UNL     1       0.443   0.691   0.449  1.00  0.00     0.095 N 
HETATM    8  C9  UNL     1       0.701  -0.343   1.373  1.00  0.00     0.275 C 
HETATM    9  C10 UNL     1       2.185  -0.306   1.748  1.00  0.00     0.065 C 
HETATM   10  C11 UNL     1       2.808   0.498   0.669  1.00  0.00     0.215 C 
HETATM   11  C13 UNL     1       1.723   1.047  -0.183  1.00  0.00     0.305 C 
BRANCH  10  12
HETATM   12  N2  UNL     1       3.731  -0.331  -0.075  1.00  0.00    -0.073 N 
HETATM   13  C12 UNL     1       4.819  -0.825   0.710  1.00  0.00     0.267 C 
ATOM     14  H22 UNL     1       3.238  -1.099  -0.531  1.00  0.00     0.277 HD
ATOM     15  H21 UNL     1       4.076   0.163  -0.898  1.00  0.00     0.277 HD
ENDBRANCH  10  12
ENDBRANCH   6   7
BRANCH   1  16
HETATM   16  C3  UNL     1      -2.346  -0.833   0.541  1.00  0.00     0.035 C 
BRANCH  16  17
HETATM   17  C2  UNL     1      -3.828  -0.869   0.656  1.00  0.00    -0.036 C 
HETATM   18  C1  UNL     1      -4.467  -0.717   1.836  1.00  0.00     0.007 C 
ENDBRANCH  16  17
ENDBRANCH   1  16
TORSDOF 4
