REMARK  7 active torsions:
REMARK  status: ('A' for Active; 'I' for Inactive)
REMARK    1  A    between atoms: C2_2  and  C5_5 
REMARK    2  A    between atoms: C6_10  and  S1_11 
REMARK    3  A    between atoms: S1_11  and  C7_12 
REMARK    4  A    between atoms: C7_12  and  C8_13 
REMARK       I    between atoms: C8_13  and  N3_15 
REMARK    5  A    between atoms: N3_15  and  C9_16 
REMARK    6  A    between atoms: N3_15  and  C14_22 
REMARK    7  A    between atoms: C9_16  and  C10_17 
ROOT
HETATM    1  C8  UNL     1       0.454  -0.320  -1.181  1.00  0.00     0.230 C 
HETATM    2  O1  UNL     1       0.198  -1.555  -1.002  1.00  0.00    -0.273 OA
HETATM    3  N3  UNL     1       1.507   0.289  -0.470  1.00  0.00    -0.344 N 
ENDROOT
BRANCH   1   4
HETATM    4  C7  UNL     1      -0.366   0.456  -2.138  1.00  0.00     0.185 C 
BRANCH   4   5
HETATM    5  S1  UNL     1      -1.672  -0.587  -2.863  1.00  0.00    -0.075 SA
BRANCH   5   6
HETATM    6  C6  UNL     1      -2.847  -1.024  -1.593  1.00  0.00     0.203 A 
HETATM    7  N2  UNL     1      -2.745  -2.113  -0.810  1.00  0.00    -0.272 N 
HETATM    8  N1  UNL     1      -3.777  -2.152   0.032  1.00  0.00    -0.280 N 
ATOM      9  H2  UNL     1      -1.994  -2.802  -0.854  1.00  0.00     0.189 HD
HETATM   10  C5  UNL     1      -4.519  -1.067  -0.243  1.00  0.00     0.148 A 
ATOM     11  H1  UNL     1      -3.965  -2.861   0.741  1.00  0.00     0.189 HD
HETATM   12  O3  UNL     1      -3.936  -0.408  -1.225  1.00  0.00    -0.271 OA
BRANCH  10  13
HETATM   13  C2  UNL     1      -5.768  -0.708   0.456  1.00  0.00     0.016 C 
HETATM   14  C1  UNL     1      -6.958  -0.706  -0.501  1.00  0.00     0.023 C 
HETATM   15  C3  UNL     1      -6.068  -1.696   1.559  1.00  0.00     0.023 C 
HETATM   16  C4  UNL     1      -5.708   0.674   1.062  1.00  0.00     0.023 C 
ENDBRANCH  10  13
ENDBRANCH   5   6
ENDBRANCH   4   5
ENDBRANCH   1   4
BRANCH   3  17
HETATM   17  C9  UNL     1       1.773   1.692  -0.692  1.00  0.00     0.158 C 
BRANCH  17  18
HETATM   18  C10 UNL     1       2.745   2.013  -1.766  1.00  0.00     0.139 C 
HETATM   19  C11 UNL     1       2.994   3.506  -1.755  1.00  0.00     0.035 C 
HETATM   20  C12 UNL     1       4.217   3.653  -0.913  1.00  0.00     0.029 C 
HETATM   21  C13 UNL     1       4.676   2.250  -0.653  1.00  0.00     0.168 C 
HETATM   22  O2  UNL     1       3.964   1.449  -1.503  1.00  0.00    -0.384 OA
ENDBRANCH  17  18
ENDBRANCH   3  17
BRANCH   3  23
HETATM   23  C14 UNL     1       2.275  -0.509   0.456  1.00  0.00     0.087 C 
HETATM   24  C15 UNL     1       1.472  -1.093   1.594  1.00  0.00     0.025 C 
HETATM   25  C16 UNL     1       2.482  -1.492   2.648  1.00  0.00     0.002 C 
HETATM   26  C17 UNL     1       3.650  -2.253   2.170  1.00  0.00     0.000 C 
HETATM   27  C18 UNL     1       4.105  -2.053   0.779  1.00  0.00     0.002 C 
HETATM   28  C19 UNL     1       3.004  -1.663  -0.184  1.00  0.00     0.025 C 
ENDBRANCH   3  23
TORSDOF 7
