REMARK  9 active torsions:
REMARK  status: ('A' for Active; 'I' for Inactive)
REMARK    1  A    between atoms: C2_2  and  C3_3 
REMARK    2  A    between atoms: C3_3  and  C5_5 
REMARK    3  A    between atoms: C5_5  and  O1_6 
REMARK    4  A    between atoms: C5_5  and  N1_8 
REMARK    5  A    between atoms: C8_11  and  C9_12 
REMARK    6  A    between atoms: N4_17  and  C10_18 
REMARK    7  A    between atoms: C10_18  and  C11_19 
REMARK    8  A    between atoms: C11_19  and  C12_20 
REMARK    9  A    between atoms: C17_25  and  C18_26 
ROOT
HETATM    1  C9  UNL     1       1.129   1.684  -0.630  1.00  0.00     0.117 A 
HETATM    2  N2  UNL     1       0.642   2.735  -1.269  1.00  0.00    -0.272 N 
ATOM      3  H2  UNL     1       1.083   3.650  -1.362  1.00  0.00     0.190 HD
HETATM    4  N3  UNL     1      -0.554   2.360  -1.775  1.00  0.00    -0.225 N 
ATOM      5  H3  UNL     1      -1.169   2.963  -2.322  1.00  0.00     0.210 HD
HETATM    6  N4  UNL     1      -0.808   1.143  -1.473  1.00  0.00    -0.218 N 
HETATM    7  N5  UNL     1       0.226   0.684  -0.757  1.00  0.00    -0.270 N 
ATOM      8  H5  UNL     1       0.317  -0.257  -0.374  1.00  0.00     0.190 HD
ENDROOT
BRANCH   1   9
HETATM    9  C8  UNL     1       2.427   1.591   0.123  1.00  0.00     0.059 C 
HETATM   10  C7  UNL     1       2.300   0.682   1.278  1.00  0.00     0.032 C 
HETATM   11  C6  UNL     1       3.154  -0.502   1.295  1.00  0.00     0.125 C 
HETATM   12  N1  UNL     1       4.507  -0.343   0.702  1.00  0.00    -0.362 N 
HETATM   13  C21 UNL     1       4.789   0.888   0.013  1.00  0.00     0.125 C 
HETATM   14  C20 UNL     1       3.510   1.182  -0.814  1.00  0.00     0.032 C 
BRANCH  12  15
HETATM   15  C5  UNL     1       5.329  -1.450   0.765  1.00  0.00     0.143 C 
BRANCH  15  16
HETATM   16  C3  UNL     1       6.688  -1.650   0.474  1.00  0.00    -0.015 C 
HETATM   17  C4  UNL     1       7.235  -3.099   0.426  1.00  0.00     0.052 C 
BRANCH  16  18
HETATM   18  C2  UNL     1       7.592  -0.743   0.169  1.00  0.00    -0.020 C 
HETATM   19  C1  UNL     1       8.986  -1.167  -0.192  1.00  0.00     0.036 C 
ENDBRANCH  16  18
ENDBRANCH  15  16
BRANCH  15  20
HETATM   20  O1  UNL     1       4.692  -2.536   1.175  1.00  0.00    -0.346 OA
ATOM     21  H1  UNL     1       3.773  -2.401   1.372  1.00  0.00     0.219 HD
ENDBRANCH  15  20
ENDBRANCH  12  15
ENDBRANCH   1   9
BRANCH   6  22
HETATM   22  C10 UNL     1      -1.992   0.317  -1.759  1.00  0.00     0.171 C 
BRANCH  22  23
HETATM   23  C11 UNL     1      -2.925   0.496  -0.574  1.00  0.00     0.028 C 
BRANCH  23  24
HETATM   24  C12 UNL     1      -4.185  -0.291  -0.636  1.00  0.00    -0.009 C 
HETATM   25  C13 UNL     1      -5.024   0.026  -1.821  1.00  0.00     0.005 C 
HETATM   26  C14 UNL     1      -6.386  -0.570  -1.800  1.00  0.00     0.000 C 
HETATM   27  C15 UNL     1      -6.820  -1.216  -0.544  1.00  0.00     0.000 C 
HETATM   28  C16 UNL     1      -6.132  -0.855   0.713  1.00  0.00     0.005 C 
HETATM   29  C17 UNL     1      -4.993   0.118   0.602  1.00  0.00    -0.011 C 
BRANCH  29  30
HETATM   30  C18 UNL     1      -5.517   1.518   0.507  1.00  0.00     0.000 C 
HETATM   31  C19 UNL     1      -6.279   1.820   1.800  1.00  0.00     0.005 C 
ENDBRANCH  29  30
ENDBRANCH  23  24
ENDBRANCH  22  23
ENDBRANCH   6  22
TORSDOF 9
