REMARK  6 active torsions:
REMARK  status: ('A' for Active; 'I' for Inactive)
REMARK    1  A    between atoms: O1_2  and  C2_3 
REMARK    2  A    between atoms: C7_9  and  N1_10 
REMARK       I    between atoms: N1_10  and  C8_12 
REMARK       I    between atoms: C8_12  and  N2_14 
REMARK    3  A    between atoms: C11_17  and  C12_18 
REMARK    4  A    between atoms: C12_18  and  C13_19 
REMARK       I    between atoms: C13_19  and  N3_21 
REMARK    5  A    between atoms: N3_21  and  C14_23 
REMARK    6  A    between atoms: C16_25  and  C17_26 
ROOT
HETATM    1  N1  UNL     1      -3.913   0.057   0.269  1.00  0.00    -0.306 N 
ATOM      2  H1  UNL     1      -3.718  -0.553  -0.525  1.00  0.00     0.171 HD
HETATM    3  C8  UNL     1      -2.794   0.435   1.019  1.00  0.00     0.323 C 
HETATM    4  O2  UNL     1      -2.945   1.200   2.035  1.00  0.00    -0.247 OA
HETATM    5  N2  UNL     1      -1.484   0.004   0.700  1.00  0.00    -0.334 N 
HETATM    6  C9  UNL     1      -1.187  -0.845  -0.393  1.00  0.00     0.128 C 
HETATM    7  C10 UNL     1      -0.317   0.004  -1.315  1.00  0.00     0.025 C 
HETATM    8  C11 UNL     1       0.975   0.398  -0.662  1.00  0.00    -0.003 C 
HETATM    9  C19 UNL     1       0.941   0.496   0.812  1.00  0.00     0.025 C 
HETATM   10  C20 UNL     1      -0.357   0.431   1.506  1.00  0.00     0.128 C 
ENDROOT
BRANCH   1  11
HETATM   11  C7  UNL     1      -5.276   0.396   0.450  1.00  0.00     0.071 A 
HETATM   12  C2  UNL     1      -6.218  -0.124  -0.466  1.00  0.00     0.095 A 
HETATM   13  C3  UNL     1      -7.533   0.201  -0.292  1.00  0.00     0.041 A 
HETATM   14  C4  UNL     1      -7.992   1.004   0.722  1.00  0.00     0.026 A 
HETATM   15  C5  UNL     1      -7.102   1.515   1.616  1.00  0.00     0.036 A 
HETATM   16 CL1  UNL     1      -7.630   2.546   2.933  1.00  0.00    -0.084 Cl
HETATM   17  C6  UNL     1      -5.738   1.195   1.459  1.00  0.00     0.056 A 
BRANCH  12  18
HETATM   18  O1  UNL     1      -5.795  -0.935  -1.500  1.00  0.00    -0.354 OA
HETATM   19  C1  UNL     1      -6.660  -1.495  -2.455  1.00  0.00     0.210 C 
ENDBRANCH  12  18
ENDBRANCH   1  11
BRANCH   8  20
HETATM   20  C12 UNL     1       2.041  -0.524  -1.211  1.00  0.00     0.107 C 
BRANCH  20  21
HETATM   21  C13 UNL     1       3.393  -0.255  -0.662  1.00  0.00     0.218 C 
HETATM   22  O3  UNL     1       3.546   0.680   0.158  1.00  0.00    -0.274 OA
HETATM   23  N3  UNL     1       4.484  -1.045  -1.063  1.00  0.00    -0.356 N 
ATOM     24  H3  UNL     1       4.313  -1.795  -1.733  1.00  0.00     0.162 HD
BRANCH  23  25
HETATM   25  C14 UNL     1       5.832  -0.857  -0.582  1.00  0.00     0.086 C 
HETATM   26  C15 UNL     1       6.303   0.556  -0.760  1.00  0.00     0.040 C 
HETATM   27  C16 UNL     1       6.629   0.622   0.704  1.00  0.00     0.090 C 
HETATM   28  C18 UNL     1       5.980  -0.708   0.904  1.00  0.00     0.040 C 
BRANCH  27  29
HETATM   29  C17 UNL     1       8.110   0.620   0.902  1.00  0.00     0.177 C 
HETATM   30  O4  UNL     1       8.612   1.615   1.482  1.00  0.00    -0.648 OA
HETATM   31  O5  UNL     1       8.815  -0.459   0.440  1.00  0.00    -0.648 OA
ENDBRANCH  27  29
ENDBRANCH  23  25
ENDBRANCH  20  21
ENDBRANCH   8  20
TORSDOF 6
