REMARK  6 active torsions:
REMARK  status: ('A' for Active; 'I' for Inactive)
REMARK    1  A    between atoms: C2_2  and  C3_3 
REMARK    2  A    between atoms: C2_2  and  C23_30 
REMARK    3  A    between atoms: C4_4  and  C5_6 
REMARK       I    between atoms: C5_6  and  N1_8 
REMARK    4  A    between atoms: N1_8  and  C6_10 
REMARK    5  A    between atoms: C11_15  and  C12_16 
REMARK    6  A    between atoms: C12_16  and  O2_18 
ROOT
HETATM    1  C6  UNL     1       0.025   0.276   0.390  1.00  0.00     0.042 C 
HETATM    2  C7  UNL     1      -0.733   1.204   1.359  1.00  0.00     0.038 C 
HETATM    3  C8  UNL     1      -2.084   0.775   1.745  1.00  0.00     0.012 C 
HETATM    4  C9  UNL     1      -1.943  -0.528   2.499  1.00  0.00     0.012 C 
HETATM    5  C10 UNL     1      -1.667  -1.410   1.260  1.00  0.00     0.005 C 
HETATM    6  C11 UNL     1      -0.265  -1.125   0.896  1.00  0.00     0.047 C 
HETATM    7  C14 UNL     1      -2.832  -1.004   0.449  1.00  0.00    -0.023 C 
HETATM    8  C15 UNL     1      -4.026  -1.520   1.315  1.00  0.00     0.017 C 
HETATM    9  C16 UNL     1      -3.067  -1.699  -0.831  1.00  0.00     0.017 C 
HETATM   10  C17 UNL     1      -2.893   0.465   0.498  1.00  0.00     0.091 C 
HETATM   11  N2  UNL     1      -2.618   1.238  -0.607  1.00  0.00    -0.403 N 
HETATM   12  C18 UNL     1      -3.377   2.454  -0.745  1.00  0.00     0.118 C 
HETATM   13  C19 UNL     1      -2.613   3.319  -1.693  1.00  0.00     0.021 C 
HETATM   14  C20 UNL     1      -1.277   2.668  -1.774  1.00  0.00     0.026 C 
HETATM   15  C21 UNL     1      -1.534   1.196  -1.411  1.00  0.00     0.082 C 
HETATM   16  C22 UNL     1      -0.266   0.547  -1.028  1.00  0.00     0.056 C 
ENDROOT
BRANCH   1  17
HETATM   17  N1  UNL     1       1.397   0.696   0.598  1.00  0.00    -0.345 N 
HETATM   18  C5  UNL     1       2.569   0.451  -0.133  1.00  0.00     0.280 C 
HETATM   19  O1  UNL     1       2.499  -0.208  -1.147  1.00  0.00    -0.265 OA
ATOM     20  H1  UNL     1       1.535   1.275   1.426  1.00  0.00     0.163 HD
BRANCH  18  21
HETATM   21  C4  UNL     1       3.826   0.979   0.324  1.00  0.00     0.184 C 
HETATM   22  C3  UNL     1       5.044   0.981  -0.030  1.00  0.00     0.065 C 
HETATM   23  F1  UNL     1       3.674   1.740   1.564  1.00  0.00    -0.200 F 
BRANCH  22  24
HETATM   24  C2  UNL     1       5.960   0.522  -1.021  1.00  0.00     0.034 C 
HETATM   25  C1  UNL     1       7.267   0.909  -0.799  1.00  0.00     0.030 C 
BRANCH  24  26
HETATM   26  C23 UNL     1       5.820  -0.260  -2.209  1.00  0.00     0.208 C 
HETATM   27  O3  UNL     1       4.856  -0.793  -2.762  1.00  0.00    -0.644 OA
HETATM   28  O4  UNL     1       7.021  -0.527  -2.982  1.00  0.00    -0.644 OA
ENDBRANCH  24  26
ENDBRANCH  22  24
ENDBRANCH  18  21
ENDBRANCH   1  17
BRANCH   6  29
HETATM   29  C12 UNL     1       0.503  -2.260   0.351  1.00  0.00     0.120 C 
HETATM   30  C13 UNL     1       0.057  -3.584   1.046  1.00  0.00     0.040 C 
BRANCH  29  31
HETATM   31  O2  UNL     1       0.318  -2.610  -0.971  1.00  0.00    -0.395 OA
ATOM     32  H2  UNL     1       0.813  -3.341  -1.322  1.00  0.00     0.210 HD
ENDBRANCH  29  31
ENDBRANCH   6  29
TORSDOF 6
