REMARK  3 active torsions:
REMARK  status: ('A' for Active; 'I' for Inactive)
REMARK    1  A    between atoms: N1_2  and  C1_4 
REMARK    2  A    between atoms: C3_8  and  N3_9 
REMARK    3  A    between atoms: N3_9  and  N4_11 
ROOT
HETATM    1  N3  UNL     1       0.914   0.382  -0.908  1.00  0.00    -0.280 N 
ATOM      2  H3  UNL     1       0.544   1.126  -1.500  1.00  0.00     0.189 HD
ENDROOT
BRANCH   1   3
HETATM    3  C3  UNL     1       2.200   0.328  -0.636  1.00  0.00     0.165 A 
HETATM    4  N2  UNL     1       3.150   1.161  -1.050  1.00  0.00    -0.343 N 
HETATM    5  C2  UNL     1       4.376   0.951  -0.678  1.00  0.00     0.134 A 
ATOM      6  H2  UNL     1       2.919   1.953  -1.650  1.00  0.00     0.167 HD
HETATM    7  C1  UNL     1       4.627  -0.126   0.127  1.00  0.00     0.162 A 
HETATM    8  S1  UNL     1       3.058  -0.797   0.314  1.00  0.00    -0.027 SA
BRANCH   7   9
HETATM    9  N1  UNL     1       5.884  -0.578   0.674  1.00  0.00    -0.107 N 
HETATM   10  O1  UNL     1       6.892   0.082   0.392  1.00  0.00    -0.531 OA
HETATM   11  O2  UNL     1       5.973  -1.674   1.463  1.00  0.00    -0.531 OA
ENDBRANCH   7   9
ENDBRANCH   1   3
BRANCH   1  12
HETATM   12  N4  UNL     1       0.058  -0.591  -0.378  1.00  0.00    -0.307 N 
HETATM   13  C4  UNL     1      -1.151  -0.332  -0.023  1.00  0.00     0.004 C 
HETATM   14  C5  UNL     1      -1.974  -1.435   0.527  1.00  0.00     0.054 C 
HETATM   15  C9  UNL     1      -1.772   1.011  -0.134  1.00  0.00     0.054 C 
HETATM   16  C6  UNL     1      -3.358  -1.388  -0.086  1.00  0.00     0.006 C 
HETATM   17  C7  UNL     1      -4.023  -0.059   0.075  1.00  0.00     0.001 C 
HETATM   18  C8  UNL     1      -3.091   1.022   0.573  1.00  0.00     0.006 C 
ATOM     19  H4  UNL     1       0.407  -1.543  -0.269  1.00  0.00     0.186 HD
ENDBRANCH   1  12
TORSDOF 3
