REMARK  6 active torsions:
REMARK  status: ('A' for Active; 'I' for Inactive)
REMARK    1  A    between atoms: C2_2  and  O1_4 
REMARK    2  A    between atoms: C2_2  and  C4_6 
REMARK    3  A    between atoms: C6_10  and  C7_11 
REMARK    4  A    between atoms: C7_11  and  O2_12 
REMARK    5  A    between atoms: N2_20  and  N3_21 
REMARK    6  A    between atoms: N3_21  and  O3_23 
ROOT
HETATM    1  C4  UNL     1      -2.359   0.267   1.122  1.00  0.00     0.060 C 
HETATM    2  C5  UNL     1      -1.075   0.183   0.838  1.00  0.00     0.124 A 
HETATM    3  N1  UNL     1      -0.071   0.045   1.878  1.00  0.00    -0.344 N 
ATOM      4  H1  UNL     1      -0.283   0.005   2.875  1.00  0.00     0.167 HD
HETATM    5  C6  UNL     1       1.107  -0.020   1.396  1.00  0.00     0.042 A 
HETATM    6  C8  UNL     1       1.061   0.068  -0.088  1.00  0.00     0.097 A 
HETATM    7  C9  UNL     1       1.480  -1.216  -0.748  1.00  0.00     0.040 C 
HETATM    8  C10 UNL     1       2.929  -1.413  -0.940  1.00  0.00     0.003 C 
HETATM    9  C11 UNL     1       3.720  -0.192  -1.257  1.00  0.00     0.000 C 
HETATM   10  C12 UNL     1       2.895   1.020  -1.554  1.00  0.00     0.003 C 
HETATM   11  C13 UNL     1       1.777   1.270  -0.610  1.00  0.00     0.040 C 
HETATM   12  N2  UNL     1      -0.355   0.194  -0.372  1.00  0.00    -0.242 N 
ENDROOT
BRANCH   1  13
HETATM   13  C2  UNL     1      -3.486   0.407   0.207  1.00  0.00     0.072 C 
HETATM   14  C1  UNL     1      -3.679  -0.857  -0.593  1.00  0.00     0.050 C 
HETATM   15  C3  UNL     1      -4.798   0.638   0.967  1.00  0.00     0.050 C 
BRANCH  13  16
HETATM   16  O1  UNL     1      -3.358   1.504  -0.666  1.00  0.00    -0.387 OA
ATOM     17  H1  UNL     1      -3.236   2.300  -0.162  1.00  0.00     0.211 HD
ENDBRANCH  13  16
ENDBRANCH   1  13
BRANCH  12  18
HETATM   18  N3  UNL     1      -0.886   0.305  -1.640  1.00  0.00    -0.205 N 
ATOM     19  H3  UNL     1      -1.876   0.076  -1.729  1.00  0.00     0.216 HD
BRANCH  18  20
HETATM   20  O3  UNL     1      -0.323   0.643  -2.672  1.00  0.00    -0.274 OA
ATOM     21  H3  UNL     1      -0.689   0.719  -3.545  1.00  0.00     0.246 HD
ENDBRANCH  18  20
ENDBRANCH  12  18
BRANCH   5  22
HETATM   22  C7  UNL     1       2.312  -0.164   2.267  1.00  0.00     0.219 C 
BRANCH  22  23
HETATM   23  O2  UNL     1       1.941  -0.197   3.607  1.00  0.00    -0.395 OA
ATOM     24  H2  UNL     1       2.707  -0.289   4.161  1.00  0.00     0.209 HD
ENDBRANCH  22  23
ENDBRANCH   5  22
TORSDOF 6
