REMARK  7 active torsions:
REMARK  status: ('A' for Active; 'I' for Inactive)
REMARK    1  A    between atoms: C1_2  and  C2_3 
REMARK    2  A    between atoms: C1_2  and  O2_13 
REMARK    3  A    between atoms: C2_3  and  C3_4 
REMARK    4  A    between atoms: C3_4  and  C4_5 
REMARK    5  A    between atoms: C4_5  and  C5_6 
REMARK    6  A    between atoms: C5_6  and  C6_7 
REMARK    7  A    between atoms: O2_13  and  C12_14 
ROOT
HETATM    1  C12 UNL     1       3.887   1.175   0.937  1.00  0.00     0.195 C 
HETATM    2  C13 UNL     1       4.534   0.032   1.696  1.00  0.00     0.218 C 
HETATM    3  C14 UNL     1       4.739  -1.201   0.883  1.00  0.00     0.044 C 
HETATM    4  C15 UNL     1       5.791  -0.988  -0.178  1.00  0.00     0.046 C 
HETATM    5  C16 UNL     1       5.244  -1.372  -1.538  1.00  0.00     0.239 C 
HETATM    6  N1  UNL     1       4.598  -0.071  -1.576  1.00  0.00    -0.068 N 
ATOM      7  H11 UNL     1       3.613   0.029  -1.329  1.00  0.00     0.277 HD
ATOM      8  H12 UNL     1       4.406   0.390  -2.466  1.00  0.00     0.277 HD
HETATM    9  C17 UNL     1       5.634   0.423  -0.697  1.00  0.00     0.224 C 
HETATM   10  C18 UNL     1       5.250   1.370   0.384  1.00  0.00     0.248 C 
HETATM   11  N2  UNL     1       5.759   0.851   1.669  1.00  0.00    -0.059 N 
ATOM     12  H21 UNL     1       6.687   0.436   1.753  1.00  0.00     0.278 HD
ATOM     13  H22 UNL     1       6.010   1.471   2.439  1.00  0.00     0.278 HD
ENDROOT
BRANCH   1  14
HETATM   14  O2  UNL     1       2.840   0.841   0.098  1.00  0.00    -0.312 OA
BRANCH  14  15
HETATM   15  C1  UNL     1       1.600   1.462   0.300  1.00  0.00     0.259 C 
HETATM   16  O1  UNL     1       1.433   2.299   1.218  1.00  0.00    -0.265 OA
BRANCH  15  17
HETATM   17  C2  UNL     1       0.409   1.159  -0.562  1.00  0.00     0.111 C 
BRANCH  17  18
HETATM   18  C3  UNL     1      -0.667   0.754   0.422  1.00  0.00     0.010 C 
BRANCH  18  19
HETATM   19  C4  UNL     1      -1.974   0.400  -0.242  1.00  0.00     0.001 C 
BRANCH  19  20
HETATM   20  C5  UNL     1      -2.902   0.000   0.905  1.00  0.00     0.004 C 
BRANCH  20  21
HETATM   21  C6  UNL     1      -4.270  -0.393   0.433  1.00  0.00    -0.014 C 
HETATM   22  C7  UNL     1      -4.937   0.745  -0.288  1.00  0.00     0.004 C 
HETATM   23  C8  UNL     1      -6.431   0.405  -0.308  1.00  0.00     0.000 C 
HETATM   24  C9  UNL     1      -6.632  -1.096  -0.488  1.00  0.00     0.000 C 
HETATM   25  C10 UNL     1      -5.496  -1.611  -1.318  1.00  0.00     0.000 C 
HETATM   26  C11 UNL     1      -4.240  -1.605  -0.471  1.00  0.00     0.004 C 
ENDBRANCH  20  21
ENDBRANCH  19  20
ENDBRANCH  18  19
ENDBRANCH  17  18
ENDBRANCH  15  17
ENDBRANCH  14  15
ENDBRANCH   1  14
TORSDOF 7
