REMARK  6 active torsions:
REMARK  status: ('A' for Active; 'I' for Inactive)
REMARK    1  A    between atoms: C2_2  and  C3_3 
REMARK    2  A    between atoms: C3_3  and  C4_4 
REMARK    3  A    between atoms: C4_4  and  N1_5 
REMARK       I    between atoms: N1_5  and  C5_7 
REMARK       I    between atoms: C5_7  and  N2_9 
REMARK    4  A    between atoms: N2_9  and  C6_11 
REMARK    5  A    between atoms: N3_14  and  C9_15 
REMARK    6  A    between atoms: C9_15  and  C10_16 
ROOT
HETATM    1  C6  UNL     1       0.777  -0.695   1.018  1.00  0.00     0.089 C 
HETATM    2  C7  UNL     1       0.589  -0.000   2.347  1.00  0.00     0.055 C 
HETATM    3  C8  UNL     1      -0.741   0.572   2.430  1.00  0.00     0.274 C 
HETATM    4  N3  UNL     1      -1.891  -0.124   1.899  1.00  0.00     0.088 N 
HETATM    5  C15 UNL     1      -1.595  -1.181   1.008  1.00  0.00     0.274 C 
HETATM    6  C16 UNL     1      -0.231  -1.821   1.085  1.00  0.00     0.055 C 
ENDROOT
BRANCH   1   7
HETATM    7  N2  UNL     1       2.108  -1.157   0.810  1.00  0.00    -0.338 N 
HETATM    8  C5  UNL     1       2.880  -0.794  -0.307  1.00  0.00     0.316 C 
HETATM    9  N1  UNL     1       4.196  -1.262  -0.507  1.00  0.00    -0.343 N 
HETATM   10  O1  UNL     1       2.337  -0.018  -1.137  1.00  0.00    -0.247 OA
ATOM     11  H1  UNL     1       4.593  -1.896   0.187  1.00  0.00     0.164 HD
ATOM     12  H2  UNL     1       2.520  -1.780   1.504  1.00  0.00     0.164 HD
BRANCH   9  13
HETATM   13  C4  UNL     1       5.002  -0.898  -1.625  1.00  0.00     0.124 C 
BRANCH  13  14
HETATM   14  C3  UNL     1       5.267   0.572  -1.679  1.00  0.00     0.019 C 
BRANCH  14  15
HETATM   15  C2  UNL     1       6.138   0.837  -2.893  1.00  0.00    -0.003 C 
HETATM   16  C1  UNL     1       5.377   0.362  -4.109  1.00  0.00     0.005 C 
ENDBRANCH  14  15
ENDBRANCH  13  14
ENDBRANCH   9  13
ENDBRANCH   1   7
BRANCH   4  17
HETATM   17  C9  UNL     1      -2.742   0.853   1.217  1.00  0.00     0.277 C 
BRANCH  17  18
HETATM   18  C10 UNL     1      -4.144   0.472   1.097  1.00  0.00     0.023 C 
HETATM   19  C11 UNL     1      -4.852   1.642   0.380  1.00  0.00     0.008 C 
HETATM   20  C12 UNL     1      -4.823   1.355  -1.117  1.00  0.00     0.010 C 
HETATM   21  C13 UNL     1      -6.092   0.587  -1.505  1.00  0.00     0.074 C 
HETATM   22  S1  UNL     1      -6.280  -0.648  -0.150  1.00  0.00    -0.169 SA
HETATM   23  C14 UNL     1      -4.541  -0.821   0.500  1.00  0.00     0.080 C 
ENDBRANCH  17  18
ENDBRANCH   4  17
TORSDOF 6
