REMARK  7 active torsions:
REMARK  status: ('A' for Active; 'I' for Inactive)
REMARK    1  A    between atoms: N1_1  and  C1_4 
REMARK    2  A    between atoms: C2_7  and  N3_8 
REMARK    3  A    between atoms: N4_11  and  C5_12 
REMARK    4  A    between atoms: C8_15  and  C9_16 
REMARK    5  A    between atoms: N6_18  and  O1_20 
REMARK    6  A    between atoms: C13_28  and  N9_29 
REMARK    7  A    between atoms: C15_33  and  C16_34 
ROOT
HETATM    1  C1  UNL     1       2.923  -0.479   2.937  1.00  0.00     0.705 A 
HETATM    2  N2  UNL     1       1.889  -1.135   2.392  1.00  0.00    -0.021 N 
ATOM      3  H2  UNL     1       1.169  -1.519   3.003  1.00  0.00     0.203 HD
HETATM    4  C2  UNL     1       1.772  -1.304   1.042  1.00  0.00     0.710 A 
HETATM    5  N8  UNL     1       2.739  -0.781   0.299  1.00  0.00    -0.018 N 
ATOM      6  H8  UNL     1       2.674  -0.893  -0.713  1.00  0.00     0.203 HD
HETATM    7  C13 UNL     1       3.810  -0.106   0.793  1.00  0.00     0.748 A 
HETATM    8  N13 UNL     1       3.870   0.028   2.128  1.00  0.00    -0.018 N 
ATOM      9  H13 UNL     1       4.657   0.529   2.540  1.00  0.00     0.203 HD
ENDROOT
BRANCH   4  10
HETATM   10  N3  UNL     1       0.644  -2.009   0.585  1.00  0.00    -0.200 N 
HETATM   11  C3  UNL     1       0.379  -2.276  -0.807  1.00  0.00     0.164 C 
HETATM   12  C4  UNL     1      -0.958  -1.683  -1.204  1.00  0.00     0.165 C 
HETATM   13  N4  UNL     1      -1.888  -1.794  -0.084  1.00  0.00    -0.293 N 
HETATM   14  N7  UNL     1      -1.610  -2.760   0.854  1.00  0.00    -0.118 NA
HETATM   15  C12 UNL     1      -0.360  -2.526   1.525  1.00  0.00     0.277 C 
BRANCH  13  16
HETATM   16  C5  UNL     1      -3.004  -0.901  -0.064  1.00  0.00     0.047 A 
HETATM   17  C6  UNL     1      -3.849  -0.780   1.016  1.00  0.00     0.031 A 
HETATM   18  C7  UNL     1      -4.926   0.075   1.030  1.00  0.00     0.017 A 
HETATM   19  C8  UNL     1      -5.234   0.890  -0.073  1.00  0.00     0.007 A 
HETATM   20  C10 UNL     1      -4.393   0.768  -1.142  1.00  0.00     0.017 A 
HETATM   21  C11 UNL     1      -3.296  -0.108  -1.148  1.00  0.00     0.031 A 
BRANCH  19  22
HETATM   22  C9  UNL     1      -6.389   1.777   0.002  1.00  0.00     0.146 C 
HETATM   23  N5  UNL     1      -7.175   1.770   1.240  1.00  0.00    -0.080 NA
HETATM   24  N6  UNL     1      -6.771   2.541  -0.889  1.00  0.00    -0.255 N 
ATOM     25  H6  UNL     1      -7.602   3.075  -0.634  1.00  0.00     0.195 HD
BRANCH  24  26
HETATM   26  O1  UNL     1      -6.328   2.812  -2.105  1.00  0.00    -0.288 OA
ATOM     27  H1  UNL     1      -6.622   3.400  -2.791  1.00  0.00     0.244 HD
ENDBRANCH  24  26
ENDBRANCH  19  22
ENDBRANCH  13  16
ENDBRANCH   4  10
BRANCH   1  28
HETATM   28  N1  UNL     1       2.991  -0.344   4.231  1.00  0.00    -0.234 N 
ATOM     29  H12 UNL     1       2.273  -0.729   4.845  1.00  0.00     0.174 HD
ATOM     30  H11 UNL     1       3.778   0.155   4.646  1.00  0.00     0.174 HD
ENDBRANCH   1  28
BRANCH   7  31
HETATM   31  N9  UNL     1       4.782   0.409  -0.105  1.00  0.00    -0.019 N 
HETATM   32  N10 UNL     1       5.894  -0.205  -0.469  1.00  0.00    -0.274 N 
HETATM   33  C14 UNL     1       6.597   0.548  -1.327  1.00  0.00     0.146 A 
ATOM     34  H10 UNL     1       6.179  -1.128  -0.141  1.00  0.00     0.188 HD
HETATM   35  C15 UNL     1       5.876   1.707  -1.511  1.00  0.00     0.132 A 
HETATM   36  N12 UNL     1       4.773   1.569  -0.738  1.00  0.00    -0.258 N 
ATOM     37  H12 UNL     1       4.034   2.267  -0.655  1.00  0.00     0.190 HD
BRANCH  35  38
HETATM   38  C16 UNL     1       6.225   2.851  -2.362  1.00  0.00     0.284 C 
HETATM   39  N11 UNL     1       7.416   2.825  -3.098  1.00  0.00    -0.056 NA
HETATM   40  O2  UNL     1       5.438   3.820  -2.400  1.00  0.00    -0.269 OA
ENDBRANCH  35  38
ENDBRANCH   7  31
TORSDOF 7
