REMARK  8 active torsions:
REMARK  status: ('A' for Active; 'I' for Inactive)
REMARK    1  A    between atoms: N2_4  and  O1_5 
REMARK    2  A    between atoms: N2_4  and  C1_7 
REMARK    3  A    between atoms: C2_8  and  C3_9 
REMARK    4  A    between atoms: C3_9  and  N3_10 
REMARK    5  A    between atoms: N3_10  and  C4_13 
REMARK    6  A    between atoms: C7_21  and  N7_22 
REMARK    7  A    between atoms: C8_27  and  N9_28 
REMARK    8  A    between atoms: N9_28  and  N10_30 
ROOT
HETATM    1  C1  UNL     1      -1.825  -1.926   0.287  1.00  0.00     0.160 C 
HETATM    2  C2  UNL     1      -1.022  -0.799   0.439  1.00  0.00     0.048 C 
HETATM    3  C7  UNL     1      -1.472   0.520   0.567  1.00  0.00     0.125 C 
HETATM    4  N8  UNL     1      -2.574   1.048  -0.017  1.00  0.00    -0.175 N 
ATOM      5  H8  UNL     1      -2.558   2.051  -0.199  1.00  0.00     0.186 HD
HETATM    6  C8  UNL     1      -3.695   0.383  -0.384  1.00  0.00     0.700 C 
HETATM    7  N11 UNL     1      -3.931  -0.944  -0.437  1.00  0.00    -0.153 N 
ATOM      8  H11 UNL     1      -4.843  -1.203  -0.815  1.00  0.00     0.187 HD
HETATM    9  C9  UNL     1      -3.155  -1.982  -0.071  1.00  0.00     0.291 C 
HETATM   10  O2  UNL     1      -3.657  -3.132  -0.038  1.00  0.00    -0.265 OA
ENDROOT
BRANCH   2  11
HETATM   11  C3  UNL     1       0.426  -1.069   0.478  1.00  0.00     0.279 C 
BRANCH  11  12
HETATM   12  N3  UNL     1       1.151   0.160   0.610  1.00  0.00    -0.049 N 
ATOM     13  H32 UNL     1       0.924   0.807  -0.145  1.00  0.00     0.280 HD
ATOM     14  H31 UNL     1       0.810   0.709   1.399  1.00  0.00     0.280 HD
BRANCH  12  15
HETATM   15  C4  UNL     1       2.591  -0.065   0.702  1.00  0.00     0.304 C 
HETATM   16  C5  UNL     1       3.139  -0.712  -0.569  1.00  0.00     0.176 C 
HETATM   17  N4  UNL     1       4.379   0.024  -0.721  1.00  0.00    -0.361 N 
HETATM   18  C6  UNL     1       4.230   1.286  -0.106  1.00  0.00     0.185 C 
ATOM     19  H4  UNL     1       5.218  -0.313  -1.193  1.00  0.00     0.162 HD
HETATM   20  N5  UNL     1       5.077   2.442  -0.344  1.00  0.00    -0.064 NA
HETATM   21  N6  UNL     1       3.229   1.226   0.687  1.00  0.00    -0.336 N 
ATOM     22  H6  UNL     1       2.914   2.014   1.253  1.00  0.00     0.164 HD
ENDBRANCH  12  15
ENDBRANCH  11  12
ENDBRANCH   2  11
BRANCH   1  23
HETATM   23  N2  UNL     1      -1.154  -3.146   0.535  1.00  0.00    -0.164 N 
HETATM   24  N1  UNL     1      -1.106  -3.689   1.689  1.00  0.00    -0.319 N 
ATOM     25  H12 UNL     1      -0.622  -4.569   1.868  1.00  0.00     0.179 HD
ATOM     26  H11 UNL     1      -1.563  -3.245   2.485  1.00  0.00     0.179 HD
BRANCH  23  27
HETATM   27  O1  UNL     1      -0.531  -3.751  -0.550  1.00  0.00    -0.268 OA
ATOM     28  H1  UNL     1      -0.567  -3.347  -1.409  1.00  0.00     0.247 HD
ENDBRANCH  23  27
ENDBRANCH   1  23
BRANCH   3  29
HETATM   29  N7  UNL     1      -0.739   1.251   1.323  1.00  0.00    -0.385 N 
ATOM     30  H72 UNL     1       0.091   0.853   1.763  1.00  0.00     0.157 HD
ATOM     31  H71 UNL     1      -1.067   2.212   1.416  1.00  0.00     0.157 HD
ENDBRANCH   3  29
BRANCH   6  32
HETATM   32  N9  UNL     1      -4.655   1.176  -0.725  1.00  0.00    -0.138 N 
ATOM     33  H9  UNL     1      -5.545   0.773  -1.018  1.00  0.00     0.205 HD
BRANCH  32  34
HETATM   34  N10 UNL     1      -4.521   2.557  -0.707  1.00  0.00    -0.331 N 
ATOM     35 2H10 UNL     1      -3.625   2.944  -0.411  1.00  0.00     0.177 HD
ATOM     36 1H10 UNL     1      -5.279   3.184  -0.976  1.00  0.00     0.177 HD
ENDBRANCH  32  34
ENDBRANCH   6  32
TORSDOF 8
