REMARK  10 active torsions:
REMARK  status: ('A' for Active; 'I' for Inactive)
REMARK    1  A    between atoms: C2_2  and  N1_3 
REMARK    2  A    between atoms: N1_3  and  C4_5 
REMARK    3  A    between atoms: N1_3  and  C11_18 
REMARK    4  A    between atoms: C4_5  and  C5_6 
REMARK    5  A    between atoms: C5_6  and  N2_7 
REMARK    6  A    between atoms: N2_7  and  C8_10 
REMARK    7  A    between atoms: C8_10  and  C9_11 
REMARK    8  A    between atoms: C9_11  and  N3_12 
REMARK    9  A    between atoms: N3_12  and  N4_14 
REMARK   10  A    between atoms: C14_21  and  N5_22 
ROOT
HETATM    1  N1  UNL     1      -1.374  -1.152  -0.121  1.00  0.00    -0.065 N 
HETATM    2  C3  UNL     1      -1.225  -0.675  -1.459  1.00  0.00     0.273 C 
ENDROOT
BRANCH   1   3
HETATM    3  C2  UNL     1      -1.238  -2.583   0.027  1.00  0.00     0.233 C 
HETATM    4  C1  UNL     1      -1.907  -3.415  -1.003  1.00  0.00     0.035 C 
ENDBRANCH   1   3
BRANCH   1   5
HETATM    5  C4  UNL     1      -0.297  -0.585   0.698  1.00  0.00     0.265 C 
BRANCH   5   6
HETATM    6  C5  UNL     1       1.027  -0.604   0.031  1.00  0.00     0.264 C 
BRANCH   6   7
HETATM    7  N2  UNL     1       2.097  -0.060   0.845  1.00  0.00    -0.071 N 
HETATM    8  C6  UNL     1       2.321  -0.879   2.027  1.00  0.00     0.272 C 
HETATM    9  C7  UNL     1       1.910   1.292   1.260  1.00  0.00     0.272 C 
BRANCH   7  10
HETATM   10  C8  UNL     1       3.314  -0.062   0.019  1.00  0.00     0.275 C 
BRANCH  10  11
HETATM   11  C9  UNL     1       4.426   0.750   0.618  1.00  0.00     0.369 C 
BRANCH  11  12
HETATM   12  N3  UNL     1       5.570   0.680  -0.291  1.00  0.00     0.101 N 
HETATM   13  C10 UNL     1       6.748   1.060   0.465  1.00  0.00     0.389 C 
HETATM   14  O1  UNL     1       5.761  -0.542  -0.790  1.00  0.00    -0.043 OA
BRANCH  12  15
HETATM   15  N4  UNL     1       5.396   1.565  -1.371  1.00  0.00    -0.211 N 
ATOM     16  H42 UNL     1       4.580   2.165  -1.489  1.00  0.00     0.192 HD
ATOM     17  H41 UNL     1       6.194   1.516  -2.005  1.00  0.00     0.192 HD
ENDBRANCH  12  15
ENDBRANCH  11  12
ENDBRANCH  10  11
ENDBRANCH   7  10
ENDBRANCH   6   7
ENDBRANCH   5   6
ENDBRANCH   1   5
BRANCH   1  18
HETATM   18  C11 UNL     1      -2.606  -0.711   0.506  1.00  0.00     0.192 C 
HETATM   19  C12 UNL     1      -3.855  -1.163  -0.121  1.00  0.00     0.035 C 
HETATM   20  C13 UNL     1      -4.823   0.009  -0.165  1.00  0.00     0.035 C 
HETATM   21  C14 UNL     1      -4.201   1.114   0.620  1.00  0.00     0.187 C 
HETATM   22  C16 UNL     1      -2.729   0.780   0.584  1.00  0.00     0.066 C 
BRANCH  21  23
HETATM   23  N5  UNL     1      -4.464   2.423   0.054  1.00  0.00    -0.075 N 
HETATM   24  C15 UNL     1      -5.879   2.731   0.054  1.00  0.00     0.267 C 
ATOM     25  H52 UNL     1      -3.925   3.148   0.527  1.00  0.00     0.277 HD
ATOM     26  H51 UNL     1      -4.064   2.512  -0.880  1.00  0.00     0.277 HD
ENDBRANCH  21  23
ENDBRANCH   1  18
TORSDOF 10
