REMARK  4 active torsions:
REMARK  status: ('A' for Active; 'I' for Inactive)
REMARK    1  A    between atoms: C2_2  and  C3_3 
REMARK    2  A    between atoms: C3_3  and  N1_4 
REMARK       I    between atoms: C4_6  and  N3_8 
REMARK    3  A    between atoms: N3_8  and  N4_10 
REMARK    4  A    between atoms: C5_12  and  C6_13 
ROOT
HETATM    1  N4  UNL     1      -0.704  -0.338  -1.745  1.00  0.00    -0.307 N 
ATOM      2  H4  UNL     1      -0.065  -0.698  -2.454  1.00  0.00     0.186 HD
HETATM    3  C5  UNL     1      -1.809  -0.904  -1.653  1.00  0.00     0.138 C 
ENDROOT
BRANCH   1   4
HETATM    4  N3  UNL     1      -0.252   0.721  -0.993  1.00  0.00    -0.274 N 
HETATM    5  C4  UNL     1       0.770   0.468  -0.009  1.00  0.00     0.203 C 
HETATM    6  N1  UNL     1       1.736  -0.294  -0.375  1.00  0.00    -0.360 N 
HETATM    7  N2  UNL     1       0.691   1.037   1.277  1.00  0.00    -0.062 NA
ATOM      8  H1  UNL     1       1.733  -0.674  -1.321  1.00  0.00     0.162 HD
ATOM      9  H3  UNL     1      -0.629   1.659  -1.128  1.00  0.00     0.189 HD
BRANCH   6  10
HETATM   10  C3  UNL     1       2.833  -0.632   0.514  1.00  0.00     0.148 C 
BRANCH  10  11
HETATM   11  C2  UNL     1       3.976   0.308   0.384  1.00  0.00    -0.018 C 
HETATM   12  C1  UNL     1       5.152  -0.163   0.021  1.00  0.00     0.008 C 
ENDBRANCH  10  11
ENDBRANCH   6  10
ENDBRANCH   1   4
BRANCH   3  13
HETATM   13  C6  UNL     1      -2.912  -0.601  -0.734  1.00  0.00     0.065 A 
HETATM   14  C7  UNL     1      -3.024   0.354   0.241  1.00  0.00     0.119 A 
HETATM   15  N5  UNL     1      -4.243   0.266   0.854  1.00  0.00    -0.360 N 
HETATM   16  C8  UNL     1      -4.882  -0.745   0.254  1.00  0.00     0.180 A 
ATOM     17  H5  UNL     1      -4.593   0.851   1.613  1.00  0.00     0.166 HD
HETATM   18  N6  UNL     1      -4.106  -1.277  -0.697  1.00  0.00    -0.350 N 
ATOM     19  H6  UNL     1      -4.361  -2.060  -1.299  1.00  0.00     0.166 HD
ENDBRANCH   3  13
TORSDOF 4
