REMARK  4 active torsions:
REMARK  status: ('A' for Active; 'I' for Inactive)
REMARK    1  A    between atoms: N2_3  and  N3_5 
REMARK       I    between atoms: N3_5  and  C2_7 
REMARK    2  A    between atoms: C2_7  and  C3_9 
REMARK    3  A    between atoms: C3_9  and  N4_10 
REMARK    4  A    between atoms: N4_10  and  C4_12 
ROOT
HETATM    1  C3  UNL     1       0.165  -0.317   0.265  1.00  0.00     0.224 C 
ENDROOT
BRANCH   1   2
HETATM    2  C2  UNL     1       1.579  -0.026   0.547  1.00  0.00     0.253 C 
HETATM    3  N3  UNL     1       2.579  -0.934   0.133  1.00  0.00    -0.268 N 
ATOM      4  H3  UNL     1       2.289  -1.780  -0.358  1.00  0.00     0.190 HD
HETATM    5  O1  UNL     1       1.910   1.015   1.147  1.00  0.00    -0.270 OA
BRANCH   3   6
HETATM    6  N2  UNL     1       3.937  -0.737   0.358  1.00  0.00    -0.296 N 
HETATM    7  C1  UNL     1       4.816  -1.029  -0.533  1.00  0.00     0.207 C 
HETATM    8  N1  UNL     1       6.209  -0.825  -0.297  1.00  0.00    -0.095 NA
ATOM      9  H2  UNL     1       4.243  -0.352   1.251  1.00  0.00     0.187 HD
ENDBRANCH   3   6
ENDBRANCH   1   2
BRANCH   1  10
HETATM   10  N4  UNL     1      -0.657   0.774   0.794  1.00  0.00    -0.381 N 
ATOM     11  H4  UNL     1      -0.228   1.569   1.268  1.00  0.00     0.160 HD
BRANCH  10  12
HETATM   12  C4  UNL     1      -2.060   0.699   0.632  1.00  0.00     0.028 A 
HETATM   13  C5  UNL     1      -2.653  -0.364  -0.003  1.00  0.00     0.029 A 
HETATM   14  C6  UNL     1      -4.042  -0.436  -0.162  1.00  0.00     0.002 A 
HETATM   15  C7  UNL     1      -4.803   0.595   0.339  1.00  0.00     0.000 A 
HETATM   16  C8  UNL     1      -4.219   1.651   0.970  1.00  0.00     0.002 A 
HETATM   17  C9  UNL     1      -2.845   1.713   1.122  1.00  0.00     0.029 A 
ENDBRANCH  10  12
ENDBRANCH   1  10
TORSDOF 4
