REMARK  4 active torsions:
REMARK  status: ('A' for Active; 'I' for Inactive)
REMARK    1  A    between atoms: C2_2  and  C3_3 
REMARK    2  A    between atoms: C3_3  and  N1_4 
REMARK       I    between atoms: N1_4  and  C4_6 
REMARK    3  A    between atoms: C4_6  and  C5_8 
REMARK    4  A    between atoms: C5_8  and  N2_9 
REMARK       I    between atoms: N2_9  and  C6_11 
ROOT
HETATM    1  N1  UNL     1      -0.177   0.026   0.669  1.00  0.00    -0.347 N 
ATOM      2  H1  UNL     1       0.321   0.905   0.525  1.00  0.00     0.163 HD
HETATM    3  C4  UNL     1       0.603  -1.101   0.948  1.00  0.00     0.236 C 
HETATM    4  O1  UNL     1       0.001  -2.217   1.137  1.00  0.00    -0.272 OA
ENDROOT
BRANCH   3   5
HETATM    5  C5  UNL     1       2.083  -1.094   1.045  1.00  0.00     0.225 C 
BRANCH   5   6
HETATM    6  N2  UNL     1       2.695   0.172   0.774  1.00  0.00    -0.356 N 
HETATM    7  C6  UNL     1       2.689   0.659  -0.565  1.00  0.00     0.182 C 
HETATM    8  N3  UNL     1       2.796   1.904  -0.877  1.00  0.00    -0.374 N 
HETATM    9  N4  UNL     1       2.564  -0.285  -1.651  1.00  0.00    -0.064 NA
ATOM     10  H32 UNL     1       2.884   2.571  -0.110  1.00  0.00     0.158 HD
ATOM     11  H31 UNL     1       2.792   2.253  -1.836  1.00  0.00     0.158 HD
ATOM     12  H2  UNL     1       3.126   0.713   1.523  1.00  0.00     0.162 HD
ENDBRANCH   5   6
ENDBRANCH   3   5
BRANCH   1  13
HETATM   13  C3  UNL     1      -1.603   0.069   0.566  1.00  0.00     0.050 A 
HETATM   14  C7  UNL     1      -2.359  -1.078  -0.067  1.00  0.00     0.038 A 
HETATM   15  C8  UNL     1      -2.459  -0.817   1.404  1.00  0.00     0.038 A 
BRANCH  13  16
HETATM   16  C2  UNL     1      -2.184   1.428   0.210  1.00  0.00    -0.006 C 
HETATM   17  C1  UNL     1      -2.613   1.570  -1.028  1.00  0.00     0.009 C 
ENDBRANCH  13  16
ENDBRANCH   1  13
TORSDOF 4
