REMARK  4 active torsions:
REMARK  status: ('A' for Active; 'I' for Inactive)
REMARK    1  A    between atoms: N1_1  and  N2_4 
REMARK    2  A    between atoms: N2_4  and  C1_6 
REMARK    3  A    between atoms: N3_8  and  C3_9 
REMARK    4  A    between atoms: C3_9  and  C4_10 
ROOT
HETATM    1  C1  UNL     1       2.533  -0.158   0.796  1.00  0.00     0.139 A 
HETATM    2  C2  UNL     1       1.655   0.055  -0.245  1.00  0.00     0.145 A 
HETATM    3  N3  UNL     1       0.697  -0.880  -0.135  1.00  0.00    -0.302 N 
HETATM    4  C10 UNL     1       0.942  -1.666   0.928  1.00  0.00     0.328 A 
HETATM    5  O1  UNL     1       0.285  -2.654   1.371  1.00  0.00    -0.246 OA
HETATM    6  N4  UNL     1       2.066  -1.212   1.485  1.00  0.00    -0.292 N 
ATOM      7  H4  UNL     1       2.507  -1.608   2.315  1.00  0.00     0.172 HD
ENDROOT
BRANCH   3   8
HETATM    8  C3  UNL     1      -0.419  -1.031  -1.006  1.00  0.00     0.171 C 
BRANCH   8   9
HETATM    9  C4  UNL     1      -1.619  -0.273  -0.614  1.00  0.00    -0.040 A 
HETATM   10  C5  UNL     1      -1.864   1.017  -1.026  1.00  0.00     0.009 A 
HETATM   11  C6  UNL     1      -3.009   1.644  -0.610  1.00  0.00     0.001 A 
HETATM   12  C7  UNL     1      -3.921   1.037   0.202  1.00  0.00     0.000 A 
HETATM   13  C8  UNL     1      -3.700  -0.256   0.630  1.00  0.00     0.001 A 
HETATM   14  C9  UNL     1      -2.533  -0.898   0.207  1.00  0.00     0.009 A 
ENDBRANCH   8   9
ENDBRANCH   3   8
BRANCH   1  15
HETATM   15  N2  UNL     1       3.718   0.570   1.117  1.00  0.00    -0.291 N 
ATOM     16  H2  UNL     1       4.265   0.283   1.928  1.00  0.00     0.188 HD
BRANCH  15  17
HETATM   17  N1  UNL     1       4.156   1.659   0.364  1.00  0.00    -0.344 N 
ATOM     18  H12 UNL     1       3.597   1.933  -0.444  1.00  0.00     0.176 HD
ATOM     19  H11 UNL     1       5.003   2.179   0.593  1.00  0.00     0.176 HD
ENDBRANCH  15  17
ENDBRANCH   1  15
TORSDOF 4
