REMARK  16 active torsions:
REMARK  status: ('A' for Active; 'I' for Inactive)
REMARK    1  A    between atoms: N1_1  and  C1_4 
REMARK    2  A    between atoms: C2_7  and  C3_8 
REMARK       I    between atoms: C3_8  and  N3_10 
REMARK    3  A    between atoms: N3_10  and  C4_12 
REMARK    4  A    between atoms: C4_12  and  C5_13 
REMARK    5  A    between atoms: C5_13  and  N4_14 
REMARK    6  A    between atoms: C5_13  and  C6_18 
REMARK    7  A    between atoms: C6_18  and  O2_19 
REMARK    8  A    between atoms: C6_18  and  C7_21 
REMARK    9  A    between atoms: C7_21  and  O3_22 
REMARK   10  A    between atoms: C7_21  and  O4_24 
REMARK   11  A    between atoms: N7_35  and  C12_36 
REMARK   12  A    between atoms: C13_38  and  O7_39 
REMARK   13  A    between atoms: C14_41  and  O8_42 
REMARK   14  A    between atoms: O8_42  and  S1_43 
REMARK   15  A    between atoms: S1_43  and  N8_44 
REMARK   16  A    between atoms: C15_49  and  O11_50 
ROOT
HETATM    1  C1  UNL     1      -0.092   1.306  -2.752  1.00  0.00     0.130 C 
HETATM    2  N2  UNL     1       1.159   1.263  -2.216  1.00  0.00    -0.322 N 
ATOM      3  H2  UNL     1       1.891   1.735  -2.748  1.00  0.00     0.169 HD
HETATM    4  C2  UNL     1       1.549   0.672  -1.066  1.00  0.00     0.179 C 
HETATM    5  N5  UNL     1       0.774   0.493   0.036  1.00  0.00    -0.303 N 
ATOM      6  H5  UNL     1       1.248   0.548   0.938  1.00  0.00     0.171 HD
HETATM    7  C8  UNL     1      -0.560   0.249   0.070  1.00  0.00     0.276 C 
HETATM    8  O5  UNL     1      -0.932  -0.411   1.041  1.00  0.00    -0.266 OA
HETATM    9  C9  UNL     1      -1.531   0.632  -0.820  1.00  0.00     0.137 A 
HETATM   10  C10 UNL     1      -1.300   1.104  -2.091  1.00  0.00     0.110 A 
HETATM   11  N6  UNL     1      -2.513   1.348  -2.601  1.00  0.00    -0.347 N 
ATOM     12  H6  UNL     1      -2.700   1.709  -3.536  1.00  0.00     0.167 HD
HETATM   13  C11 UNL     1      -3.461   1.035  -1.667  1.00  0.00     0.186 A 
HETATM   14  N7  UNL     1      -2.865   0.588  -0.553  1.00  0.00    -0.306 N 
ENDROOT
BRANCH   4  15
HETATM   15  C3  UNL     1       2.920   0.218  -1.058  1.00  0.00     0.285 C 
HETATM   16  O1  UNL     1       3.642   0.458  -2.057  1.00  0.00    -0.264 OA
HETATM   17  N3  UNL     1       3.460  -0.481   0.033  1.00  0.00    -0.352 N 
ATOM     18  H3  UNL     1       2.839  -0.660   0.822  1.00  0.00     0.162 HD
BRANCH  17  19
HETATM   19  C4  UNL     1       4.811  -0.969   0.141  1.00  0.00     0.158 C 
BRANCH  19  20
HETATM   20  C5  UNL     1       5.849   0.115   0.089  1.00  0.00     0.234 C 
BRANCH  20  21
HETATM   21  N4  UNL     1       5.626   1.045   1.199  1.00  0.00    -0.071 N 
ATOM     22  H43 UNL     1       4.676   1.417   1.208  1.00  0.00     0.274 HD
ATOM     23  H42 UNL     1       5.604   0.572   2.103  1.00  0.00     0.274 HD
ATOM     24  H41 UNL     1       6.331   1.781   1.164  1.00  0.00     0.274 HD
ENDBRANCH  20  21
BRANCH  20  25
HETATM   25  C6  UNL     1       7.264  -0.391   0.189  1.00  0.00     0.204 C 
BRANCH  25  26
HETATM   26  O2  UNL     1       8.098   0.730   0.106  1.00  0.00    -0.388 OA
ATOM     27  H2  UNL     1       8.991   0.411   0.169  1.00  0.00     0.210 HD
ENDBRANCH  25  26
BRANCH  25  28
HETATM   28  C7  UNL     1       7.445  -1.144   1.480  1.00  0.00     0.284 C 
BRANCH  28  29
HETATM   29  O3  UNL     1       7.150  -0.317   2.536  1.00  0.00    -0.369 OA
ATOM     30  H3  UNL     1       7.264  -0.792   3.351  1.00  0.00     0.212 HD
ENDBRANCH  28  29
BRANCH  28  31
HETATM   31  O4  UNL     1       8.761  -1.647   1.569  1.00  0.00    -0.369 OA
ATOM     32  H4  UNL     1       8.875  -2.122   2.384  1.00  0.00     0.212 HD
ENDBRANCH  28  31
ENDBRANCH  25  28
ENDBRANCH  20  25
ENDBRANCH  19  20
ENDBRANCH  17  19
ENDBRANCH   4  15
BRANCH   1  33
HETATM   33  N1  UNL     1      -0.228   1.555  -3.994  1.00  0.00    -0.384 N 
ATOM     34  H12 UNL     1       0.657   1.703  -4.478  1.00  0.00     0.157 HD
ATOM     35  H11 UNL     1      -1.165   1.587  -4.396  1.00  0.00     0.157 HD
ENDBRANCH   1  33
BRANCH  14  36
HETATM   36  C12 UNL     1      -3.522   0.166   0.641  1.00  0.00     0.264 C 
HETATM   37  O6  UNL     1      -3.657  -1.201   0.595  1.00  0.00    -0.331 OA
HETATM   38  C13 UNL     1      -4.955  -1.581   0.689  1.00  0.00     0.292 C 
HETATM   39  C14 UNL     1      -5.860  -0.416   0.526  1.00  0.00     0.232 C 
HETATM   40  C15 UNL     1      -4.919   0.756   0.662  1.00  0.00     0.202 C 
BRANCH  38  41
HETATM   41  O7  UNL     1      -5.197  -2.288   1.886  1.00  0.00    -0.368 OA
ATOM     42  H7  UNL     1      -6.107  -2.554   1.952  1.00  0.00     0.212 HD
ENDBRANCH  38  41
BRANCH  39  43
HETATM   43  O8  UNL     1      -6.513  -0.492  -0.678  1.00  0.00    -0.246 OA
BRANCH  43  44
HETATM   44  S1  UNL     1      -8.161  -0.623  -0.557  1.00  0.00     0.356 S 
HETATM   45  O9  UNL     1      -8.501  -2.079  -0.358  1.00  0.00    -0.176 OA
HETATM   46  O10 UNL     1      -8.768  -0.171  -1.859  1.00  0.00    -0.176 OA
BRANCH  44  47
HETATM   47  N8  UNL     1      -8.809   0.234   0.789  1.00  0.00    -0.306 N 
ATOM     48  H82 UNL     1      -8.225   0.763   1.436  1.00  0.00     0.171 HD
ATOM     49  H81 UNL     1      -9.823   0.153   0.863  1.00  0.00     0.171 HD
ENDBRANCH  44  47
ENDBRANCH  43  44
ENDBRANCH  39  43
BRANCH  40  50
HETATM   50  O11 UNL     1      -5.222   1.328   1.924  1.00  0.00    -0.388 OA
ATOM     51  H11 UNL     1      -6.097   1.698   1.937  1.00  0.00     0.210 HD
ENDBRANCH  40  50
ENDBRANCH  14  36
TORSDOF 16
