REMARK  2 active torsions:
REMARK  status: ('A' for Active; 'I' for Inactive)
REMARK       I    between atoms: N1_1  and  C1_4 
REMARK       I    between atoms: C1_4  and  N3_6 
REMARK    1  A    between atoms: N3_6  and  N4_8 
REMARK    2  A    between atoms: N4_8  and  N5_9 
ROOT
HETATM    1  N4  UNL     1      -0.066   0.481  -0.745  1.00  0.00     0.018 NA
ENDROOT
BRANCH   1   2
HETATM    2  N3  UNL     1      -0.977  -0.203   0.055  1.00  0.00    -0.255 N 
HETATM    3  C1  UNL     1      -2.362   0.052  -0.138  1.00  0.00     0.199 C 
HETATM    4  N1  UNL     1      -2.871   1.220  -0.340  1.00  0.00    -0.373 N 
HETATM    5  N2  UNL     1      -3.275  -1.037  -0.113  1.00  0.00    -0.063 NA
ATOM      6  H12 UNL     1      -3.865   1.403  -0.478  1.00  0.00     0.158 HD
ATOM      7  H11 UNL     1      -2.216   2.002  -0.358  1.00  0.00     0.158 HD
ATOM      8  H3  UNL     1      -0.660  -0.868   0.760  1.00  0.00     0.187 HD
ENDBRANCH   1   2
BRANCH   1   9
HETATM    9  N5  UNL     1       1.251   0.298  -0.319  1.00  0.00    -0.098 N 
HETATM   10  N6  UNL     1       1.728  -0.397   0.685  1.00  0.00    -0.262 N 
HETATM   11  C2  UNL     1       3.076  -0.291   0.724  1.00  0.00     0.215 A 
ATOM     12  H6  UNL     1       1.165  -0.939   1.341  1.00  0.00     0.190 HD
HETATM   13  N7  UNL     1       3.383   0.510  -0.315  1.00  0.00    -0.276 N 
HETATM   14  N8  UNL     1       2.271   0.863  -0.943  1.00  0.00     0.017 NA
ATOM     15  H7  UNL     1       4.325   0.800  -0.577  1.00  0.00     0.185 HD
ENDBRANCH   1   9
TORSDOF 2
