REMARK  5 active torsions:
REMARK  status: ('A' for Active; 'I' for Inactive)
REMARK    1  A    between atoms: C3_4  and  C4_5 
REMARK       I    between atoms: C4_5  and  N1_7 
REMARK    2  A    between atoms: C7_13  and  C8_14 
REMARK    3  A    between atoms: C8_14  and  C9_15 
REMARK       I    between atoms: C9_15  and  N4_17 
REMARK    4  A    between atoms: N4_17  and  C11_19 
REMARK    5  A    between atoms: C11_19  and  C12_20 
ROOT
HETATM    1  C1  UNL     1       0.411   1.220  -0.884  1.00  0.00     0.057 C 
HETATM    2  C2  UNL     1       1.407   0.694   0.082  1.00  0.00    -0.010 A 
HETATM    3  S1  UNL     1       3.121   0.854  -0.107  1.00  0.00    -0.089 SA
HETATM    4  C3  UNL     1       3.622   0.050   1.298  1.00  0.00     0.074 A 
HETATM    5  C6  UNL     1       2.471  -0.322   1.880  1.00  0.00     0.037 A 
HETATM    6  C7  UNL     1       1.297   0.009   1.254  1.00  0.00    -0.017 A 
ENDROOT
BRANCH   6   7
HETATM    7  C8  UNL     1       0.002  -0.399   1.909  1.00  0.00     0.086 C 
BRANCH   7   8
HETATM    8  C9  UNL     1      -1.221   0.124   1.425  1.00  0.00     0.243 C 
HETATM    9  O2  UNL     1      -1.462   1.359   1.489  1.00  0.00    -0.268 OA
HETATM   10  N4  UNL     1      -2.244  -0.683   0.857  1.00  0.00    -0.352 N 
HETATM   11  C10 UNL     1      -2.014  -2.120   0.611  1.00  0.00     0.152 C 
BRANCH  10  12
HETATM   12  C11 UNL     1      -3.574  -0.240   0.553  1.00  0.00     0.133 C 
BRANCH  12  13
HETATM   13  C12 UNL     1      -3.888   0.313  -0.774  1.00  0.00    -0.035 C 
HETATM   14  C13 UNL     1      -3.624  -0.604  -1.948  1.00  0.00     0.016 C 
HETATM   15  C14 UNL     1      -3.455   1.703  -1.061  1.00  0.00     0.016 C 
HETATM   16  C15 UNL     1      -5.468   0.382  -0.771  1.00  0.00     0.016 C 
ENDBRANCH  12  13
ENDBRANCH  10  12
ENDBRANCH   7   8
ENDBRANCH   6   7
BRANCH   4  17
HETATM   17  C4  UNL     1       4.997  -0.169   1.744  1.00  0.00     0.264 C 
HETATM   18  O1  UNL     1       5.168  -0.804   2.808  1.00  0.00    -0.267 OA
HETATM   19  N1  UNL     1       6.104   0.294   1.049  1.00  0.00    -0.299 N 
HETATM   20  C5  UNL     1       6.491   0.194  -0.134  1.00  0.00     0.203 C 
ATOM     21  H1  UNL     1       6.742   0.835   1.632  1.00  0.00     0.171 HD
HETATM   22  N2  UNL     1       5.831  -0.496  -1.205  1.00  0.00    -0.066 NA
HETATM   23  N3  UNL     1       7.739   0.821  -0.526  1.00  0.00    -0.066 NA
ENDBRANCH   4  17
TORSDOF 5
