REMARK  4 active torsions:
REMARK  status: ('A' for Active; 'I' for Inactive)
REMARK    1  A    between atoms: C2_2  and  O1_3 
REMARK    2  A    between atoms: C2_2  and  C3_5 
REMARK       I    between atoms: N1_7  and  C5_8 
REMARK    3  A    between atoms: C5_8  and  C6_10 
REMARK    4  A    between atoms: C12_16  and  N2_17 
REMARK       I    between atoms: N2_17  and  C13_19 
REMARK       I    between atoms: C13_19  and  N3_21 
ROOT
HETATM    1  C3  UNL     1       0.702   1.368  -1.419  1.00  0.00     0.056 C 
HETATM    2  C4  UNL     1       2.076   1.619  -0.780  1.00  0.00     0.135 C 
HETATM    3  N1  UNL     1       2.215   0.326  -0.092  1.00  0.00    -0.349 N 
HETATM    4  C5  UNL     1       3.407  -0.420  -0.032  1.00  0.00     0.224 C 
HETATM    5  O2  UNL     1       4.447   0.039  -0.611  1.00  0.00    -0.273 OA
HETATM    6  C11 UNL     1       0.925  -0.007   0.470  1.00  0.00     0.151 C 
HETATM    7  C12 UNL     1      -0.085   0.931  -0.209  1.00  0.00     0.112 C 
ENDROOT
BRANCH   7   8
HETATM    8  N2  UNL     1      -1.295   0.214  -0.548  1.00  0.00    -0.336 N 
HETATM    9  C13 UNL     1      -2.525   0.668   0.012  1.00  0.00     0.318 C 
HETATM   10  O3  UNL     1      -2.519   1.692   0.793  1.00  0.00    -0.247 OA
HETATM   11  N3  UNL     1      -3.784   0.086  -0.215  1.00  0.00    -0.332 N 
HETATM   12  C14 UNL     1      -4.970   0.631   0.402  1.00  0.00     0.127 C 
HETATM   13  C18 UNL     1      -3.926  -1.057  -1.058  1.00  0.00     0.164 C 
HETATM   14  C15 UNL     1      -6.133  -0.337   0.378  1.00  0.00     0.023 C 
HETATM   15  C16 UNL     1      -5.645  -1.752   0.655  1.00  0.00     0.040 C 
HETATM   16  C17 UNL     1      -4.673  -2.193  -0.386  1.00  0.00     0.188 C 
HETATM   17  F1  UNL     1      -5.349  -2.870  -1.388  1.00  0.00    -0.248 F 
ATOM     18  H2  UNL     1      -1.269  -0.594  -1.170  1.00  0.00     0.164 HD
ENDBRANCH   7   8
BRANCH   1  19
HETATM   19  C2  UNL     1       0.165   2.593  -2.093  1.00  0.00     0.121 C 
HETATM   20  C1  UNL     1      -0.023   3.762  -1.186  1.00  0.00     0.040 C 
BRANCH  19  21
HETATM   21  O1  UNL     1       1.138   2.973  -3.048  1.00  0.00    -0.395 OA
ATOM     22  H1  UNL     1       1.258   2.228  -3.626  1.00  0.00     0.210 HD
ENDBRANCH  19  21
ENDBRANCH   1  19
BRANCH   4  23
HETATM   23  C6  UNL     1       3.557  -1.710   0.658  1.00  0.00     0.078 C 
HETATM   24  C7  UNL     1       4.932  -2.323   0.381  1.00  0.00     0.014 C 
HETATM   25  C8  UNL     1       5.897  -1.485   1.178  1.00  0.00     0.001 C 
HETATM   26  C9  UNL     1       5.066  -0.833   2.249  1.00  0.00     0.001 C 
HETATM   27  C10 UNL     1       3.681  -1.462   2.148  1.00  0.00     0.014 C 
ENDBRANCH   4  23
TORSDOF 4
