REMARK  5 active torsions:
REMARK  status: ('A' for Active; 'I' for Inactive)
REMARK    1  A    between atoms: C1_4  and  C2_5 
REMARK    2  A    between atoms: C2_5  and  C3_6 
REMARK    3  A    between atoms: C3_6  and  N2_7 
REMARK    4  A    between atoms: C5_11  and  N4_12 
REMARK    5  A    between atoms: C6_17  and  N6_18 
ROOT
HETATM    1  N2  UNL     1       0.116  -0.286   0.580  1.00  0.00    -0.178 N 
HETATM    2  C4  UNL     1       0.422   0.948   1.022  1.00  0.00     0.218 A 
HETATM    3  N3  UNL     1       1.638   1.500   0.851  1.00  0.00    -0.187 N 
ATOM      4  H3  UNL     1       1.833   2.438   1.201  1.00  0.00     0.185 HD
HETATM    5  C5  UNL     1       2.593   0.799   0.213  1.00  0.00     0.691 A 
HETATM    6  N5  UNL     1       2.315  -0.432  -0.238  1.00  0.00    -0.023 N 
ATOM      7  H5  UNL     1       3.035  -0.968  -0.722  1.00  0.00     0.203 HD
HETATM    8  C6  UNL     1       1.078  -0.973  -0.055  1.00  0.00     0.693 A 
ENDROOT
BRANCH   1   9
HETATM    9  C3  UNL     1      -1.173  -0.863   0.767  1.00  0.00     0.153 C 
BRANCH   9  10
HETATM   10  C2  UNL     1      -2.123  -0.560  -0.388  1.00  0.00     0.065 C 
BRANCH  10  11
HETATM   11  C1  UNL     1      -2.277   0.925  -0.495  1.00  0.00     0.054 C 
HETATM   12  N1  UNL     1      -1.992   1.529  -1.582  1.00  0.00    -0.411 N 
ATOM     13  H12 UNL     1      -1.658   0.981  -2.375  1.00  0.00     0.155 HD
ATOM     14  H11 UNL     1      -2.097   2.541  -1.655  1.00  0.00     0.155 HD
ENDBRANCH  10  11
ENDBRANCH   9  10
ENDBRANCH   1   9
BRANCH   8  15
HETATM   15  N6  UNL     1       0.911  -2.148  -0.521  1.00  0.00    -0.234 N 
ATOM     16  H62 UNL     1      -0.015  -2.553  -0.384  1.00  0.00     0.174 HD
ATOM     17  H61 UNL     1       1.642  -2.670  -1.004  1.00  0.00     0.174 HD
ENDBRANCH   8  15
BRANCH   5  18
HETATM   18  N4  UNL     1       3.764   1.358   0.060  1.00  0.00    -0.234 N 
ATOM     19  H42 UNL     1       3.976   2.295   0.403  1.00  0.00     0.174 HD
ATOM     20  H41 UNL     1       4.488   0.827  -0.424  1.00  0.00     0.174 HD
ENDBRANCH   5  18
TORSDOF 5
