REMARK  4 active torsions:
REMARK  status: ('A' for Active; 'I' for Inactive)
REMARK    1  A    between atoms: O1_2  and  C2_3 
REMARK    2  A    between atoms: C5_7  and  C6_8 
REMARK    3  A    between atoms: N1_11  and  C9_13 
REMARK    4  A    between atoms: C9_13  and  S1_17 
ROOT
HETATM    1  C6  UNL     1      -0.027  -1.370  -0.894  1.00  0.00     0.100 C 
HETATM    2  C7  UNL     1      -1.357  -0.752  -0.630  1.00  0.00     0.091 C 
HETATM    3  C8  UNL     1      -2.075  -1.642   0.317  1.00  0.00     0.081 C 
HETATM    4  N1  UNL     1      -3.206  -1.411   0.879  1.00  0.00    -0.327 N 
ATOM      5  H1  UNL     1      -3.585  -2.115   1.513  1.00  0.00     0.169 HD
HETATM    6  N3  UNL     1      -1.278  -2.804   0.490  1.00  0.00    -0.346 N 
ATOM      7  H3  UNL     1      -1.598  -3.671   0.921  1.00  0.00     0.163 HD
HETATM    8  C11 UNL     1       0.066  -2.580  -0.037  1.00  0.00     0.220 C 
HETATM    9  C12 UNL     1       0.411  -3.750  -0.879  1.00  0.00     0.107 C 
HETATM   10  N4  UNL     1       0.701  -4.659  -1.532  1.00  0.00    -0.193 NA
HETATM   11  C13 UNL     1       1.058  -2.527   1.015  1.00  0.00     0.107 C 
HETATM   12  N5  UNL     1       1.841  -2.504   1.859  1.00  0.00    -0.193 NA
ENDROOT
BRANCH   1  13
HETATM   13  C5  UNL     1       1.044  -0.364  -0.668  1.00  0.00     0.021 A 
HETATM   14  C4  UNL     1       1.962  -0.002  -1.616  1.00  0.00     0.052 A 
HETATM   15  C3  UNL     1       2.950   0.940  -1.388  1.00  0.00     0.072 A 
HETATM   16  C2  UNL     1       2.993   1.527  -0.148  1.00  0.00     0.128 A 
HETATM   17 CL1  UNL     1       4.110   1.365  -2.656  1.00  0.00    -0.081 Cl
HETATM   18  C14 UNL     1       2.072   1.167   0.807  1.00  0.00     0.139 A 
HETATM   19  N6  UNL     1       1.121   0.234   0.532  1.00  0.00    -0.347 N 
HETATM   20 CL2  UNL     1       2.135   1.927   2.399  1.00  0.00    -0.061 Cl
ATOM     21  H6  UNL     1       0.449  -0.018   1.256  1.00  0.00     0.167 HD
BRANCH  16  22
HETATM   22  O1  UNL     1       3.993   2.478   0.076  1.00  0.00    -0.351 OA
HETATM   23  C1  UNL     1       5.264   2.165   0.573  1.00  0.00     0.210 C 
ENDBRANCH  16  22
ENDBRANCH   1  13
BRANCH   4  24
HETATM   24  C9  UNL     1      -3.955  -0.225   0.662  1.00  0.00     0.138 C 
HETATM   25  N2  UNL     1      -4.846  -0.235  -0.252  1.00  0.00    -0.380 N 
ATOM     26  H22 UNL     1      -4.998  -1.082  -0.799  1.00  0.00     0.158 HD
ATOM     27  H21 UNL     1      -5.384   0.617  -0.408  1.00  0.00     0.158 HD
BRANCH  24  28
HETATM   28  S1  UNL     1      -3.688   1.259   1.620  1.00  0.00    -0.099 SA
HETATM   29  C10 UNL     1      -4.798   2.586   1.097  1.00  0.00     0.099 C 
ENDBRANCH  24  28
ENDBRANCH   4  24
TORSDOF 4
