REMARK  2 active torsions:
REMARK  status: ('A' for Active; 'I' for Inactive)
REMARK    1  A    between atoms: C4_4  and  C5_5 
REMARK    2  A    between atoms: C7_7  and  C8_8 
ROOT
HETATM    1  C5  UNL     1      -0.550  -0.072  -0.486  1.00  0.00     0.128 C 
HETATM    2  C6  UNL     1       0.209  -1.107   0.287  1.00  0.00     0.064 C 
HETATM    3  C7  UNL     1       1.130   0.054   0.457  1.00  0.00     0.130 C 
HETATM    4  O1  UNL     1       0.022   0.904   0.282  1.00  0.00    -0.380 OA
ENDROOT
BRANCH   3   5
HETATM    5  C8  UNL     1       2.227   0.212  -0.537  1.00  0.00     0.042 C 
HETATM    6  C9  UNL     1       3.114  -0.989  -0.517  1.00  0.00     0.036 C 
HETATM    7  C10 UNL     1       4.194  -0.671   0.503  1.00  0.00     0.232 C 
HETATM    8  N1  UNL     1       4.083   0.725   0.813  1.00  0.00    -0.075 N 
HETATM    9  C11 UNL     1       3.154   1.320  -0.103  1.00  0.00     0.239 C 
ATOM     10  H12 UNL     1       3.833   0.891   1.788  1.00  0.00     0.277 HD
ATOM     11  H11 UNL     1       4.986   1.198   0.818  1.00  0.00     0.277 HD
ENDBRANCH   3   5
BRANCH   1  12
HETATM   12  C4  UNL     1      -2.038  -0.235  -0.402  1.00  0.00     0.015 C 
HETATM   13  C3  UNL     1      -2.561  -0.145   1.013  1.00  0.00     0.007 C 
HETATM   14  C2  UNL     1      -4.072  -0.084   0.745  1.00  0.00     0.000 C 
HETATM   15  C1  UNL     1      -4.212   0.608  -0.595  1.00  0.00     0.000 C 
HETATM   16  C12 UNL     1      -2.802   0.845  -1.098  1.00  0.00     0.007 C 
ENDBRANCH   1  12
TORSDOF 2
