REMARK  9 active torsions:
REMARK  status: ('A' for Active; 'I' for Inactive)
REMARK    1  A    between atoms: N1_1  and  C1_4 
REMARK    2  A    between atoms: C2_7  and  N3_8 
REMARK    3  A    between atoms: C4_16  and  N7_17 
REMARK       I    between atoms: N7_17  and  C5_19 
REMARK    4  A    between atoms: C5_19  and  C6_21 
REMARK    5  A    between atoms: C6_21  and  S1_22 
REMARK    6  A    between atoms: S1_22  and  C7_23 
REMARK    7  A    between atoms: C8_27  and  N9_28 
REMARK    8  A    between atoms: C9_31  and  N10_32 
REMARK    9  A    between atoms: C10_35  and  O4_36 
ROOT
HETATM    1  C1  UNL     1      -5.133  -0.804   0.194  1.00  0.00     0.679 A 
HETATM    2  N2  UNL     1      -4.498   0.299   0.605  1.00  0.00    -0.172 N 
ATOM      3  H2  UNL     1      -5.032   1.092   0.962  1.00  0.00     0.186 HD
HETATM    4  C2  UNL     1      -3.130   0.365   0.547  1.00  0.00     0.176 A 
HETATM    5  C4  UNL     1      -2.430  -0.708   0.066  1.00  0.00     0.133 A 
HETATM    6  C10 UNL     1      -3.146  -1.807  -0.338  1.00  0.00     0.186 A 
HETATM    7  N11 UNL     1      -4.477  -1.881  -0.286  1.00  0.00    -0.168 N 
ATOM      8  H11 UNL     1      -4.977  -2.715  -0.595  1.00  0.00     0.186 HD
ENDROOT
BRANCH   5   9
HETATM    9  N7  UNL     1      -1.026  -0.678  -0.003  1.00  0.00    -0.320 N 
HETATM   10  C5  UNL     1      -0.153  -1.134   1.013  1.00  0.00     0.232 C 
HETATM   11  O1  UNL     1      -0.643  -1.604   2.065  1.00  0.00    -0.272 OA
ATOM     12  H7  UNL     1      -0.604  -0.298  -0.851  1.00  0.00     0.169 HD
BRANCH  10  13
HETATM   13  C6  UNL     1       1.301  -1.066   0.858  1.00  0.00     0.183 C 
BRANCH  13  14
HETATM   14  S1  UNL     1       1.779  -0.365  -0.753  1.00  0.00    -0.109 SA
BRANCH  14  15
HETATM   15  C7  UNL     1       3.587  -0.346  -0.801  1.00  0.00     0.095 A 
HETATM   16  S2  UNL     1       4.674  -1.540  -1.339  1.00  0.00    -0.004 SA
HETATM   17  N8  UNL     1       6.121  -0.741  -1.054  1.00  0.00    -0.310 N 
HETATM   18  C8  UNL     1       5.751   0.430  -0.551  1.00  0.00     0.140 A 
ATOM     19  H8  UNL     1       7.068  -1.078  -1.227  1.00  0.00     0.176 HD
HETATM   20  C9  UNL     1       4.428   0.667  -0.406  1.00  0.00     0.171 A 
BRANCH  18  21
HETATM   21  N9  UNL     1       6.658   1.326  -0.207  1.00  0.00    -0.383 N 
ATOM     22  H92 UNL     1       7.656   1.147  -0.316  1.00  0.00     0.157 HD
ATOM     23  H91 UNL     1       6.374   2.226   0.180  1.00  0.00     0.157 HD
ENDBRANCH  18  21
BRANCH  20  24
HETATM   24  N10 UNL     1       3.860   1.899   0.128  1.00  0.00    -0.110 N 
HETATM   25  O2  UNL     1       3.376   1.932   1.263  1.00  0.00    -0.532 OA
HETATM   26  O3  UNL     1       3.870   3.022  -0.642  1.00  0.00    -0.532 OA
ENDBRANCH  20  24
ENDBRANCH  14  15
ENDBRANCH  13  14
ENDBRANCH  10  13
ENDBRANCH   5   9
BRANCH   4  27
HETATM   27  N3  UNL     1      -2.528   1.553   0.981  1.00  0.00    -0.216 N 
HETATM   28  C3  UNL     1      -3.054   2.788   0.708  1.00  0.00     0.228 A 
HETATM   29  N4  UNL     1      -2.257   3.718   1.254  1.00  0.00    -0.279 N 
HETATM   30  N5  UNL     1      -1.273   3.083   1.846  1.00  0.00    -0.227 N 
ATOM     31  H4  UNL     1      -2.390   4.729   1.216  1.00  0.00     0.189 HD
HETATM   32  N6  UNL     1      -1.453   1.801   1.672  1.00  0.00    -0.219 N 
ATOM     33  H5  UNL     1      -0.501   3.515   2.354  1.00  0.00     0.210 HD
ATOM     34  H6  UNL     1      -0.827   1.081   2.034  1.00  0.00     0.210 HD
ENDBRANCH   4  27
BRANCH   6  35
HETATM   35  O4  UNL     1      -2.441  -2.890  -0.824  1.00  0.00    -0.344 OA
ATOM     36  H4  UNL     1      -2.937  -3.651  -1.104  1.00  0.00     0.219 HD
ENDBRANCH   6  35
BRANCH   1  37
HETATM   37  N1  UNL     1      -6.429  -0.823   0.266  1.00  0.00    -0.234 N 
ATOM     38  H12 UNL     1      -6.925  -0.009   0.629  1.00  0.00     0.174 HD
ATOM     39  H11 UNL     1      -6.913  -1.664  -0.047  1.00  0.00     0.174 HD
ENDBRANCH   1  37
TORSDOF 9
