REMARK  2 active torsions:
REMARK  status: ('A' for Active; 'I' for Inactive)
REMARK    1  A    between atoms: O1_1  and  C1_3 
REMARK    2  A    between atoms: N2_8  and  C4_9 
ROOT
HETATM    1  C1  UNL     1       2.255   0.754  -0.292  1.00  0.00     0.159 A 
HETATM    2  C2  UNL     1       3.127   0.786  -1.379  1.00  0.00     0.145 A 
HETATM    3  N1  UNL     1       2.820  -0.289  -2.102  1.00  0.00    -0.358 N 
ATOM      4  H1  UNL     1       3.282  -0.554  -2.972  1.00  0.00     0.166 HD
HETATM    5  C3  UNL     1       1.820  -0.976  -1.530  1.00  0.00     0.185 A 
HETATM    6  N2  UNL     1       1.462  -0.334  -0.402  1.00  0.00    -0.318 N 
ENDROOT
BRANCH   6   7
HETATM    7  C4  UNL     1       0.423  -0.788   0.463  1.00  0.00     0.097 C 
HETATM    8  C5  UNL     1      -0.700  -1.458  -0.316  1.00  0.00     0.031 C 
HETATM    9  C6  UNL     1      -1.991  -0.902   0.240  1.00  0.00    -0.012 C 
HETATM   10  C7  UNL     1      -2.193   0.456  -0.350  1.00  0.00     0.005 C 
HETATM   11  C10 UNL     1      -1.531  -0.511   1.655  1.00  0.00     0.011 C 
HETATM   12  C8  UNL     1      -0.993   1.228   0.197  1.00  0.00     0.007 C 
HETATM   13  C9  UNL     1      -0.309   0.300   1.180  1.00  0.00     0.009 C 
ENDBRANCH   6   7
BRANCH   1  14
HETATM   14  O1  UNL     1       2.173   1.654   0.751  1.00  0.00    -0.345 OA
ATOM     15  H1  UNL     1       1.579   1.632   1.492  1.00  0.00     0.219 HD
ENDBRANCH   1  14
TORSDOF 2
