REMARK  4 active torsions:
REMARK  status: ('A' for Active; 'I' for Inactive)
REMARK    1  A    between atoms: C2_2  and  N1_4 
REMARK    2  A    between atoms: N1_4  and  C5_6 
REMARK    3  A    between atoms: C5_6  and  O1_7 
REMARK    4  A    between atoms: C5_6  and  C6_9 
ROOT
HETATM    1  C6  UNL     1      -0.805  -0.016  -0.490  1.00  0.00     0.032 C 
HETATM    2  C7  UNL     1      -0.782   1.488  -0.315  1.00  0.00     0.023 C 
HETATM    3  C8  UNL     1      -1.811   1.662   0.803  1.00  0.00    -0.010 C 
HETATM    4  C9  UNL     1      -1.354   0.610   1.792  1.00  0.00     0.010 C 
HETATM    5  C10 UNL     1      -1.153  -0.583   0.835  1.00  0.00     0.005 C 
HETATM    6  C11 UNL     1      -2.598  -1.111   0.712  1.00  0.00     0.049 C 
HETATM    7  C12 UNL     1      -3.134  -0.109  -0.289  1.00  0.00     0.105 C 
HETATM    8  F1  UNL     1      -4.381  -0.470  -0.754  1.00  0.00    -0.243 F 
HETATM    9  C13 UNL     1      -3.162   1.303   0.222  1.00  0.00     0.048 C 
HETATM   10  C14 UNL     1      -2.073  -0.250  -1.356  1.00  0.00     0.061 C 
ENDROOT
BRANCH   1  11
HETATM   11  C5  UNL     1       0.375  -0.511  -1.167  1.00  0.00     0.122 C 
BRANCH  11  12
HETATM   12  N1  UNL     1       1.715  -0.588  -0.841  1.00  0.00    -0.365 N 
HETATM   13  C4  UNL     1       2.645  -1.155  -1.845  1.00  0.00     0.152 C 
BRANCH  12  14
HETATM   14  C2  UNL     1       2.269  -0.156   0.402  1.00  0.00     0.077 C 
HETATM   15  C1  UNL     1       3.371   0.896   0.177  1.00  0.00     0.032 C 
HETATM   16  C3  UNL     1       3.034  -1.299   1.096  1.00  0.00     0.032 C 
ENDBRANCH  12  14
ENDBRANCH  11  12
BRANCH  11  17
HETATM   17  O1  UNL     1       0.102  -0.991  -2.359  1.00  0.00    -0.349 OA
ATOM     18  H1  UNL     1      -0.820  -0.938  -2.583  1.00  0.00     0.219 HD
ENDBRANCH  11  17
ENDBRANCH   1  11
TORSDOF 4
