REMARK  1 active torsions:
REMARK  status: ('A' for Active; 'I' for Inactive)
REMARK    1  A    between atoms: C17_22  and  O5_23 
ROOT
HETATM    1  O1  UNL     1       4.265   2.157   0.593  1.00  0.00    -0.298 OA
HETATM    2  C1  UNL     1       3.299   1.521   0.977  1.00  0.00     0.130 C 
HETATM    3  C2  UNL     1       2.216   2.409   1.423  1.00  0.00     0.083 C 
HETATM    4  C3  UNL     1       1.779   3.255   0.251  1.00  0.00     0.069 C 
HETATM    5  C4  UNL     1       1.109   2.422  -0.818  1.00  0.00     0.269 C 
HETATM    6  O2  UNL     1      -0.057   1.875  -0.293  1.00  0.00    -0.359 OA
HETATM    7  C5  UNL     1      -1.002   2.892  -0.141  1.00  0.00     0.191 C 
HETATM    8  C6  UNL     1      -2.333   2.414  -0.719  1.00  0.00     0.106 C 
HETATM    9 CL1  UNL     1      -1.967   1.432  -2.140  1.00  0.00    -0.123 Cl
HETATM   10  C7  UNL     1      -3.024   1.634   0.370  1.00  0.00     0.026 C 
HETATM   11  C8  UNL     1      -3.989   0.601  -0.183  1.00  0.00     0.028 C 
HETATM   12  C9  UNL     1      -4.190  -0.447   0.856  1.00  0.00    -0.031 C 
HETATM   13  C10 UNL     1      -3.838  -1.718   0.689  1.00  0.00    -0.029 C 
HETATM   14  C11 UNL     1      -3.204  -2.233  -0.556  1.00  0.00     0.053 C 
HETATM   15  C12 UNL     1      -2.376  -3.473  -0.231  1.00  0.00     0.182 C 
HETATM   16  O3  UNL     1      -1.648  -3.292   0.974  1.00  0.00    -0.321 OA
HETATM   17  C13 UNL     1      -0.270  -3.358   1.049  1.00  0.00     0.258 C 
HETATM   18  O4  UNL     1       0.390  -3.752   2.040  1.00  0.00    -0.265 OA
HETATM   19  C14 UNL     1       0.508  -2.928  -0.139  1.00  0.00     0.111 C 
HETATM   20  C15 UNL     1       1.589  -1.974   0.388  1.00  0.00     0.013 C 
HETATM   21  C16 UNL     1       2.749  -1.871  -0.545  1.00  0.00     0.049 C 
HETATM   22  C17 UNL     1       3.379  -0.501  -0.478  1.00  0.00     0.151 C 
HETATM   23  C18 UNL     1       3.472   0.058   0.894  1.00  0.00     0.126 C 
HETATM   24  C19 UNL     1       2.678   0.388  -1.443  1.00  0.00     0.296 C 
HETATM   25  O6  UNL     1       2.844  -0.089  -2.599  1.00  0.00    -0.262 OA
HETATM   26  O7  UNL     1       1.939   1.519  -1.447  1.00  0.00    -0.287 OA
ENDROOT
BRANCH  22  27
HETATM   27  O5  UNL     1       4.692  -0.650  -0.981  1.00  0.00    -0.379 OA
ATOM     28  H5  UNL     1       5.089   0.212  -0.939  1.00  0.00     0.211 HD
ENDBRANCH  22  27
TORSDOF 1
