REMARK  9 active torsions:
REMARK  status: ('A' for Active; 'I' for Inactive)
REMARK    1  A    between atoms: O1_2  and  C2_3 
REMARK    2  A    between atoms: C5_6  and  N1_7 
REMARK       I    between atoms: N1_7  and  C6_9 
REMARK    3  A    between atoms: C6_9  and  C7_11 
REMARK    4  A    between atoms: C7_11  and  C8_12 
REMARK    5  A    between atoms: C7_11  and  N2_16 
REMARK    6  A    between atoms: C8_12  and  C9_13 
REMARK       I    between atoms: N2_16  and  C12_18 
REMARK    7  A    between atoms: C12_18  and  C13_20 
REMARK    8  A    between atoms: C13_20  and  C14_21 
REMARK    9  A    between atoms: C13_20  and  N3_24 
ROOT
HETATM    1  C7  UNL     1       0.611  -1.037   1.286  1.00  0.00     0.177 C 
ENDROOT
BRANCH   1   2
HETATM    2  C6  UNL     1       1.653  -0.361   0.472  1.00  0.00     0.240 C 
HETATM    3  N1  UNL     1       2.913  -0.131   1.086  1.00  0.00    -0.354 N 
ATOM      4  H1  UNL     1       3.073  -0.430   2.048  1.00  0.00     0.162 HD
HETATM    5  O2  UNL     1       1.462   0.008  -0.714  1.00  0.00    -0.271 OA
BRANCH   3   6
HETATM    6  C5  UNL     1       3.957   0.519   0.358  1.00  0.00     0.088 C 
HETATM    7  C4  UNL     1       4.280   1.875   0.984  1.00  0.00     0.028 C 
HETATM    8  C3  UNL     1       5.574   2.412   0.412  1.00  0.00     0.040 C 
HETATM    9  C2  UNL     1       6.588   1.311   0.318  1.00  0.00     0.061 C 
HETATM   10  C25 UNL     1       6.262   0.236   1.335  1.00  0.00     0.044 C 
HETATM   11  C26 UNL     1       6.116   0.347  -0.756  1.00  0.00     0.044 C 
HETATM   12  C24 UNL     1       5.232  -0.277   0.333  1.00  0.00     0.014 C 
BRANCH   9  13
HETATM   13  O1  UNL     1       7.908   1.651   0.298  1.00  0.00    -0.385 OA
HETATM   14  C1  UNL     1       8.257   2.458  -0.756  1.00  0.00     0.202 C 
ENDBRANCH   9  13
ENDBRANCH   3   6
ENDBRANCH   1   2
BRANCH   1  15
HETATM   15  C8  UNL     1       1.014  -2.292   1.932  1.00  0.00     0.038 C 
BRANCH  15  16
HETATM   16  C9  UNL     1       1.460  -3.438   1.135  1.00  0.00    -0.020 C 
HETATM   17  C10 UNL     1       1.795  -4.561   2.140  1.00  0.00     0.009 C 
HETATM   18  C11 UNL     1       2.682  -3.280   0.303  1.00  0.00     0.009 C 
ENDBRANCH  15  16
ENDBRANCH   1  15
BRANCH   1  19
HETATM   19  N2  UNL     1      -0.570  -1.121   0.457  1.00  0.00    -0.346 N 
HETATM   20  C12 UNL     1      -1.765  -0.433   0.672  1.00  0.00     0.241 C 
HETATM   21  O3  UNL     1      -1.961   0.361   1.637  1.00  0.00    -0.271 OA
ATOM     22  H2  UNL     1      -0.526  -1.736  -0.355  1.00  0.00     0.163 HD
BRANCH  20  23
HETATM   23  C13 UNL     1      -2.901  -0.610  -0.257  1.00  0.00     0.182 C 
BRANCH  23  24
HETATM   24  C14 UNL     1      -2.483  -0.401  -1.716  1.00  0.00     0.009 C 
HETATM   25  C15 UNL     1      -1.926   0.961  -1.984  1.00  0.00     0.012 C 
HETATM   26  C16 UNL     1      -3.625  -0.747  -2.645  1.00  0.00     0.012 C 
ENDBRANCH  23  24
BRANCH  23  27
HETATM   27  N3  UNL     1      -4.054   0.146   0.101  1.00  0.00    -0.338 N 
HETATM   28  C17 UNL     1      -4.156   1.578   0.222  1.00  0.00     0.127 C 
HETATM   29  C18 UNL     1      -5.299   2.130  -0.606  1.00  0.00     0.029 C 
HETATM   30  C19 UNL     1      -6.579   1.365  -0.353  1.00  0.00    -0.038 C 
HETATM   31  C20 UNL     1      -7.157   0.745  -1.602  1.00  0.00     0.015 C 
HETATM   32  C21 UNL     1      -7.625   2.371   0.134  1.00  0.00     0.015 C 
HETATM   33  C22 UNL     1      -6.454   0.311   0.696  1.00  0.00     0.111 C 
HETATM   34  C23 UNL     1      -5.287  -0.561   0.404  1.00  0.00     0.221 C 
HETATM   35  O4  UNL     1      -5.344  -1.806   0.414  1.00  0.00    -0.273 OA
ENDBRANCH  23  27
ENDBRANCH  20  23
ENDBRANCH   1  19
TORSDOF 9
