REMARK  8 active torsions:
REMARK  status: ('A' for Active; 'I' for Inactive)
REMARK    1  A    between atoms: C8_8  and  C9_9 
REMARK    2  A    between atoms: C9_9  and  C10_10 
REMARK    3  A    between atoms: C10_10  and  C11_11 
REMARK    4  A    between atoms: C11_11  and  C12_12 
REMARK    5  A    between atoms: C12_12  and  C13_13 
REMARK    6  A    between atoms: C13_13  and  C14_14 
REMARK    7  A    between atoms: C14_14  and  N1_15 
REMARK    8  A    between atoms: C16_17  and  C17_18 
ROOT
HETATM    1  C12 UNL     1       1.599  -1.793  -0.624  1.00  0.00     0.002 C 
ENDROOT
BRANCH   1   2
HETATM    2  C11 UNL     1       0.201  -1.426  -1.000  1.00  0.00     0.000 C 
BRANCH   2   3
HETATM    3  C10 UNL     1       0.086   0.028  -1.331  1.00  0.00     0.000 C 
BRANCH   3   4
HETATM    4  C9  UNL     1      -1.324   0.416  -1.709  1.00  0.00     0.005 C 
BRANCH   4   5
HETATM    5  C8  UNL     1      -2.328   0.166  -0.638  1.00  0.00    -0.011 C 
HETATM    6  C2  UNL     1      -3.685   0.612  -1.188  1.00  0.00    -0.015 C 
HETATM    7  C1  UNL     1      -3.737   2.101  -1.389  1.00  0.00     0.010 C 
HETATM    8  C3  UNL     1      -4.804   0.092  -0.346  1.00  0.00     0.004 C 
HETATM    9  C4  UNL     1      -4.781   0.607   1.064  1.00  0.00     0.000 C 
HETATM   10  C5  UNL     1      -3.926  -0.207   1.990  1.00  0.00     0.000 C 
HETATM   11  C6  UNL     1      -2.464  -0.064   1.789  1.00  0.00     0.000 C 
HETATM   12  C7  UNL     1      -2.068   0.848   0.657  1.00  0.00     0.005 C 
ENDBRANCH   4   5
ENDBRANCH   3   4
ENDBRANCH   2   3
ENDBRANCH   1   2
BRANCH   1  13
HETATM   13  C13 UNL     1       2.560  -1.511  -1.743  1.00  0.00     0.022 C 
BRANCH  13  14
HETATM   14  C14 UNL     1       3.986  -1.893  -1.352  1.00  0.00     0.148 C 
BRANCH  14  15
HETATM   15  N1  UNL     1       4.432  -1.150  -0.192  1.00  0.00    -0.303 N 
HETATM   16  C15 UNL     1       5.060   0.039  -0.267  1.00  0.00     0.130 A 
HETATM   17  C16 UNL     1       5.348   0.476   1.007  1.00  0.00     0.074 A 
HETATM   18  C18 UNL     1       4.866  -0.502   1.848  1.00  0.00     0.127 A 
HETATM   19  N2  UNL     1       4.321  -1.463   1.084  1.00  0.00    -0.309 N 
ATOM     20  H2  UNL     1       3.884  -2.313   1.440  1.00  0.00     0.186 HD
BRANCH  17  21
HETATM   21  C17 UNL     1       6.013   1.695   1.392  1.00  0.00     0.212 C 
HETATM   22  O1  UNL     1       6.397   2.491   0.497  1.00  0.00    -0.644 OA
HETATM   23  O2  UNL     1       6.245   2.022   2.710  1.00  0.00    -0.644 OA
ENDBRANCH  17  21
ENDBRANCH  14  15
ENDBRANCH  13  14
ENDBRANCH   1  13
TORSDOF 8
