REMARK  8 active torsions:
REMARK  status: ('A' for Active; 'I' for Inactive)
REMARK    1  A    between atoms: C2_2  and  C3_3 
REMARK    2  A    between atoms: C3_3  and  C4_4 
REMARK    3  A    between atoms: C4_4  and  C5_5 
REMARK    4  A    between atoms: C5_5  and  C6_6 
REMARK    5  A    between atoms: C6_6  and  C7_7 
REMARK    6  A    between atoms: C7_7  and  C8_8 
REMARK    7  A    between atoms: C9_11  and  C10_12 
REMARK    8  A    between atoms: C10_12  and  C11_13 
ROOT
HETATM    1  C8  UNL     1       1.333  -1.614  -0.721  1.00  0.00     0.080 A 
HETATM    2  N1  UNL     1       0.509  -1.072  -1.533  1.00  0.00    -0.366 N 
ATOM      3  H1  UNL     1       0.509  -1.222  -2.542  1.00  0.00     0.161 HD
HETATM    4  C9  UNL     1      -0.408  -0.231  -0.844  1.00  0.00     0.177 A 
HETATM    5  C18 UNL     1       0.038  -0.268   0.558  1.00  0.00     0.245 A 
HETATM    6  O2  UNL     1      -0.387   0.351   1.584  1.00  0.00    -0.271 OA
HETATM    7  N2  UNL     1       1.125  -1.184   0.613  1.00  0.00    -0.315 N 
ATOM      8  H2  UNL     1       1.647  -1.472   1.441  1.00  0.00     0.170 HD
ENDROOT
BRANCH   4   9
HETATM    9  C10 UNL     1      -1.778  -0.884  -0.934  1.00  0.00     0.066 C 
BRANCH   9  10
HETATM   10  C11 UNL     1      -2.781  -0.024  -0.249  1.00  0.00     0.123 C 
HETATM   11  C12 UNL     1      -4.096  -0.687  -0.376  1.00  0.00     0.032 C 
HETATM   12  C13 UNL     1      -5.271  -0.290   0.493  1.00  0.00     0.002 C 
HETATM   13  C14 UNL     1      -6.120   0.793  -0.125  1.00  0.00     0.000 C 
HETATM   14  C15 UNL     1      -5.920   2.214   0.180  1.00  0.00     0.002 C 
HETATM   15  C16 UNL     1      -4.707   2.903  -0.525  1.00  0.00     0.026 C 
HETATM   16  C17 UNL     1      -3.735   1.890  -0.554  1.00  0.00     0.168 C 
HETATM   17  O1  UNL     1      -2.626   1.280  -0.819  1.00  0.00    -0.386 OA
ENDBRANCH   9  10
ENDBRANCH   4   9
BRANCH   1  18
HETATM   18  C7  UNL     1       2.416  -2.561  -1.172  1.00  0.00     0.076 C 
BRANCH  18  19
HETATM   19  C6  UNL     1       3.705  -1.863  -1.310  1.00  0.00     0.007 C 
BRANCH  19  20
HETATM   20  C5  UNL     1       4.207  -1.240  -0.014  1.00  0.00     0.000 C 
BRANCH  20  21
HETATM   21  C4  UNL     1       5.536  -0.618  -0.307  1.00  0.00     0.000 C 
BRANCH  21  22
HETATM   22  C3  UNL     1       6.276   0.021   0.789  1.00  0.00    -0.000 C 
BRANCH  22  23
HETATM   23  C2  UNL     1       5.669   1.162   1.511  1.00  0.00    -0.005 C 
HETATM   24  C1  UNL     1       4.409   0.901   2.255  1.00  0.00     0.005 C 
ENDBRANCH  22  23
ENDBRANCH  21  22
ENDBRANCH  20  21
ENDBRANCH  19  20
ENDBRANCH  18  19
ENDBRANCH   1  18
TORSDOF 8
