REMARK  1 active torsions:
REMARK  status: ('A' for Active; 'I' for Inactive)
REMARK    1  A    between atoms: C2_2  and  C3_3 
ROOT
HETATM    1  C3  UNL     1       0.167   0.166   0.257  1.00  0.00     0.007 C 
HETATM    2  C4  UNL     1      -1.040  -0.743   0.526  1.00  0.00     0.008 C 
HETATM    3  C5  UNL     1      -1.886   0.385  -0.072  1.00  0.00     0.001 C 
HETATM    4  C6  UNL     1      -0.651   0.753  -0.881  1.00  0.00     0.008 C 
ENDROOT
BRANCH   1   5
HETATM    5  C2  UNL     1       1.377  -0.562  -0.146  1.00  0.00    -0.032 C 
HETATM    6  C1  UNL     1       2.548  -0.148   0.286  1.00  0.00     0.007 C 
ENDBRANCH   1   5
TORSDOF 1
