REMARK  12 active torsions:
REMARK  status: ('A' for Active; 'I' for Inactive)
REMARK    1  A    between atoms: C7_7  and  C8_8 
REMARK    2  A    between atoms: C8_8  and  C9_9 
REMARK    3  A    between atoms: C9_9  and  N1_10 
REMARK    4  A    between atoms: N1_10  and  C10_11 
REMARK    5  A    between atoms: N3_19  and  C15_20 
REMARK    6  A    between atoms: C15_20  and  C16_21 
REMARK    7  A    between atoms: C16_21  and  C17_22 
REMARK    8  A    between atoms: C17_22  and  N4_23 
REMARK    9  A    between atoms: C22_31  and  N6_32 
REMARK   10  A    between atoms: N6_32  and  C23_34 
REMARK   11  A    between atoms: C27_38  and  N7_39 
REMARK   12  A    between atoms: N7_39  and  S1_41 
ROOT
HETATM    1  C10 UNL     1       2.426  -0.939   1.745  1.00  0.00     0.137 A 
HETATM    2  C11 UNL     1       2.927  -2.046   2.472  1.00  0.00     0.064 A 
HETATM    3  C12 UNL     1       2.113  -3.007   2.999  1.00  0.00     0.092 A 
HETATM    4  N2  UNL     1       0.792  -2.927   2.839  1.00  0.00    -0.359 N 
ATOM      5  H2  UNL     1       0.187  -3.647   3.234  1.00  0.00     0.165 HD
HETATM    6  C13 UNL     1       0.252  -1.893   2.153  1.00  0.00     0.132 A 
HETATM    7  C14 UNL     1      -1.117  -1.808   1.983  1.00  0.00     0.291 A 
HETATM    8  O1  UNL     1      -1.817  -2.723   2.491  1.00  0.00    -0.265 OA
HETATM    9  N3  UNL     1      -1.683  -0.799   1.308  1.00  0.00    -0.145 N 
HETATM   10  C22 UNL     1      -0.907   0.159   0.779  1.00  0.00     0.688 A 
HETATM   11  N8  UNL     1       0.424   0.082   0.941  1.00  0.00    -0.185 N 
ATOM     12  H8  UNL     1       0.999   0.819   0.533  1.00  0.00     0.184 HD
HETATM   13  C30 UNL     1       1.045  -0.907   1.609  1.00  0.00     0.122 A 
ENDROOT
BRANCH  10  14
HETATM   14  N6  UNL     1      -1.515   1.099   0.147  1.00  0.00    -0.191 N 
ATOM     15  H6  UNL     1      -2.532   1.038   0.100  1.00  0.00     0.184 HD
BRANCH  14  16
HETATM   16  C23 UNL     1      -0.919   2.201  -0.485  1.00  0.00     0.051 A 
HETATM   17  C24 UNL     1      -0.097   2.011  -1.574  1.00  0.00     0.030 A 
HETATM   18  C25 UNL     1       0.476   3.078  -2.187  1.00  0.00     0.005 A 
HETATM   19  C26 UNL     1       0.246   4.362  -1.733  1.00  0.00     0.030 A 
HETATM   20  C27 UNL     1      -0.565   4.610  -0.652  1.00  0.00     0.044 A 
HETATM   21  C29 UNL     1      -1.136   3.483  -0.049  1.00  0.00     0.060 A 
BRANCH  20  22
HETATM   22  N7  UNL     1      -0.835   5.905  -0.154  1.00  0.00    -0.285 N 
ATOM     23  H7  UNL     1      -1.804   6.143   0.057  1.00  0.00     0.178 HD
BRANCH  22  24
HETATM   24  S1  UNL     1       0.363   7.099   0.117  1.00  0.00     0.227 S 
HETATM   25  C28 UNL     1       1.211   7.570  -1.362  1.00  0.00     0.186 C 
HETATM   26  O2  UNL     1       1.362   6.549   1.133  1.00  0.00    -0.206 OA
HETATM   27  O3  UNL     1      -0.260   8.361   0.682  1.00  0.00    -0.206 OA
ENDBRANCH  22  24
ENDBRANCH  20  22
ENDBRANCH  14  16
ENDBRANCH  10  14
BRANCH   9  28
HETATM   28  C15 UNL     1      -3.124  -0.763   1.160  1.00  0.00     0.153 C 
BRANCH  28  29
HETATM   29  C16 UNL     1      -3.591  -1.489  -0.087  1.00  0.00     0.041 C 
BRANCH  29  30
HETATM   30  C17 UNL     1      -5.117  -1.366  -0.104  1.00  0.00     0.122 C 
BRANCH  30  31
HETATM   31  N4  UNL     1      -5.688  -2.028  -1.255  1.00  0.00    -0.380 N 
HETATM   32  C18 UNL     1      -6.396  -3.085  -1.090  1.00  0.00     0.072 C 
HETATM   33  C19 UNL     1      -6.716  -3.750   0.222  1.00  0.00     0.077 C 
HETATM   34  N5  UNL     1      -7.005  -3.813  -2.147  1.00  0.00    -0.380 N 
HETATM   35  C20 UNL     1      -7.254  -5.095  -0.268  1.00  0.00     0.027 C 
HETATM   36  C21 UNL     1      -8.000  -4.654  -1.525  1.00  0.00     0.121 C 
ATOM     37  H5  UNL     1      -6.785  -3.754  -3.141  1.00  0.00     0.160 HD
ATOM     38  H4  UNL     1      -5.529  -1.657  -2.192  1.00  0.00     0.160 HD
ENDBRANCH  30  31
ENDBRANCH  29  30
ENDBRANCH  28  29
ENDBRANCH   9  28
BRANCH   1  39
HETATM   39  N1  UNL     1       3.188  -0.127   1.298  1.00  0.00    -0.419 NA
BRANCH  39  40
HETATM   40  C9  UNL     1       3.691   0.940   0.673  1.00  0.00     0.160 C 
BRANCH  40  41
HETATM   41  C8  UNL     1       4.371   0.844  -0.677  1.00  0.00     0.098 C 
BRANCH  41  42
HETATM   42  C7  UNL     1       5.551   0.000  -0.705  1.00  0.00    -0.046 A 
HETATM   43  C2  UNL     1       5.604  -1.356  -0.894  1.00  0.00    -0.055 A 
HETATM   44  C1  UNL     1       4.376  -2.120  -1.212  1.00  0.00     0.049 C 
HETATM   45  C3  UNL     1       6.826  -2.024  -0.835  1.00  0.00     0.007 A 
HETATM   46  C4  UNL     1       8.014  -1.376  -0.592  1.00  0.00     0.001 A 
HETATM   47  C5  UNL     1       7.972  -0.011  -0.401  1.00  0.00     0.001 A 
HETATM   48  C6  UNL     1       6.773   0.640  -0.459  1.00  0.00     0.008 A 
ENDBRANCH  41  42
ENDBRANCH  40  41
ENDBRANCH  39  40
ENDBRANCH   1  39
TORSDOF 12
