REMARK  13 active torsions:
REMARK  status: ('A' for Active; 'I' for Inactive)
REMARK    1  A    between atoms: C3_5  and  C4_6 
REMARK    2  A    between atoms: N2_12  and  C9_13 
REMARK    3  A    between atoms: C10_16  and  C11_17 
REMARK       I    between atoms: C11_17  and  N3_19 
REMARK    4  A    between atoms: N3_19  and  C12_21 
REMARK    5  A    between atoms: C12_21  and  C13_22 
REMARK    6  A    between atoms: C12_21  and  C14_29 
REMARK    7  A    between atoms: C13_22  and  N4_23 
REMARK    8  A    between atoms: N4_23  and  N5_25 
REMARK    9  A    between atoms: N5_25  and  N6_26 
REMARK   10  A    between atoms: C17_32  and  C18_33 
REMARK   11  A    between atoms: C20_37  and  C21_38 
REMARK   12  A    between atoms: C21_38  and  S1_39 
REMARK   13  A    between atoms: S1_39  and  C22_40 
ROOT
HETATM    1  C1  UNL     1      -3.920  -3.130  -2.545  1.00  0.00     0.074 C 
HETATM    2  C2  UNL     1      -2.905  -2.286  -1.896  1.00  0.00     0.074 C 
HETATM    3  N1  UNL     1      -2.259  -2.783  -0.936  1.00  0.00    -0.358 N 
ATOM      4  H1  UNL     1      -2.585  -3.736  -0.776  1.00  0.00     0.165 HD
HETATM    5  C3  UNL     1      -1.198  -2.472   0.037  1.00  0.00     0.029 C 
HETATM    6  C7  UNL     1      -0.759  -1.318   0.399  1.00  0.00     0.068 A 
HETATM    7  C8  UNL     1       0.249  -1.494   1.344  1.00  0.00     0.261 A 
HETATM    8  O1  UNL     1       0.548  -2.560   1.906  1.00  0.00    -0.267 OA
HETATM    9  N2  UNL     1       1.011  -0.338   1.719  1.00  0.00    -0.274 N 
HETATM   10  C10 UNL     1       0.871   0.959   1.145  1.00  0.00     0.226 A 
HETATM   11  C17 UNL     1      -0.247   1.114   0.148  1.00  0.00     0.064 A 
HETATM   12  C19 UNL     1      -0.944   0.101  -0.143  1.00  0.00     0.021 A 
HETATM   13  C20 UNL     1      -2.142   0.656  -0.758  1.00  0.00     0.034 C 
HETATM   14  N8  UNL     1      -2.938   0.294  -1.707  1.00  0.00    -0.324 N 
ATOM     15  H8  UNL     1      -3.704   0.934  -1.916  1.00  0.00     0.169 HD
HETATM   16  C27 UNL     1      -2.877  -0.932  -2.527  1.00  0.00     0.268 C 
HETATM   17  O5  UNL     1      -2.807  -0.841  -3.713  1.00  0.00    -0.266 OA
ENDROOT
BRANCH  10  18
HETATM   18  C11 UNL     1       2.158   1.443   0.601  1.00  0.00     0.246 C 
HETATM   19  O2  UNL     1       2.590   2.545   0.990  1.00  0.00    -0.271 OA
HETATM   20  N3  UNL     1       2.940   0.735  -0.343  1.00  0.00    -0.352 N 
ATOM     21  H3  UNL     1       2.591  -0.168  -0.665  1.00  0.00     0.163 HD
BRANCH  20  22
HETATM   22  C12 UNL     1       4.192   1.196  -0.882  1.00  0.00     0.108 C 
BRANCH  22  23
HETATM   23  C13 UNL     1       5.366   0.372  -0.490  1.00  0.00     0.181 C 
BRANCH  23  24
HETATM   24  N4  UNL     1       5.339  -1.000  -0.872  1.00  0.00    -0.251 N 
ATOM     25  H4  UNL     1       4.710  -1.308  -1.613  1.00  0.00     0.197 HD
BRANCH  24  26
HETATM   26  N5  UNL     1       6.059  -1.801  -0.321  1.00  0.00    -0.248 NA
BRANCH  26  27
HETATM   27  N6  UNL     1       6.718  -2.755   0.121  1.00  0.00    -0.261 N 
ATOM     28  H62 UNL     1       6.240  -3.343  -0.561  1.00  0.00     0.193 HD
ATOM     29  H61 UNL     1       7.325  -3.430   0.586  1.00  0.00     0.193 HD
ENDBRANCH  26  27
ENDBRANCH  24  26
ENDBRANCH  23  24
ENDBRANCH  22  23
BRANCH  22  30
HETATM   30  C14 UNL     1       4.073   1.535  -2.331  1.00  0.00     0.002 C 
HETATM   31  C15 UNL     1       3.650   0.432  -3.232  1.00  0.00     0.011 C 
HETATM   32  C16 UNL     1       5.334   2.232  -2.806  1.00  0.00     0.011 C 
ENDBRANCH  22  30
ENDBRANCH  20  22
ENDBRANCH  10  18
BRANCH   9  33
HETATM   33  C9  UNL     1       1.971  -0.561   2.811  1.00  0.00     0.464 C 
HETATM   34  F1  UNL     1       1.589   0.197   3.901  1.00  0.00    -0.191 F 
HETATM   35  F2  UNL     1       3.267  -0.316   2.441  1.00  0.00    -0.191 F 
ENDBRANCH   9  33
BRANCH  11  36
HETATM   36  C18 UNL     1      -0.230   2.324  -0.692  1.00  0.00     0.208 C 
HETATM   37  O3  UNL     1      -0.865   2.381  -1.762  1.00  0.00    -0.644 OA
HETATM   38  O4  UNL     1       0.466   3.474  -0.383  1.00  0.00    -0.644 OA
ENDBRANCH  11  36
BRANCH  13  39
HETATM   39  C21 UNL     1      -2.714   1.709   0.115  1.00  0.00     0.139 C 
BRANCH  39  40
HETATM   40  S1  UNL     1      -3.866   0.838   1.316  1.00  0.00    -0.106 SA
BRANCH  40  41
HETATM   41  C22 UNL     1      -4.490   2.149   2.364  1.00  0.00     0.069 A 
HETATM   42  C23 UNL     1      -5.391   1.861   3.388  1.00  0.00     0.037 A 
HETATM   43  C24 UNL     1      -5.885   2.851   4.209  1.00  0.00     0.004 A 
HETATM   44  C25 UNL     1      -5.487   4.161   4.025  1.00  0.00     0.017 A 
HETATM   45  C26 UNL     1      -4.598   4.436   3.012  1.00  0.00     0.089 A 
HETATM   46  N7  UNL     1      -4.140   3.440   2.234  1.00  0.00    -0.361 N 
ATOM     47  H7  UNL     1      -3.481   3.681   1.494  1.00  0.00     0.165 HD
ENDBRANCH  40  41
ENDBRANCH  39  40
ENDBRANCH  13  39
BRANCH   5  48
HETATM   48  C4  UNL     1      -0.634  -3.739   0.401  1.00  0.00     0.028 C 
HETATM   49  C5  UNL     1      -1.740  -4.728   0.874  1.00  0.00     0.016 C 
HETATM   50  C6  UNL     1      -0.348  -4.352  -1.049  1.00  0.00     0.016 C 
ENDBRANCH   5  48
TORSDOF 13
