REMARK  7 active torsions:
REMARK  status: ('A' for Active; 'I' for Inactive)
REMARK    1  A    between atoms: C4_8  and  C5_9 
REMARK    2  A    between atoms: C5_9  and  C6_10 
REMARK    3  A    between atoms: C6_10  and  S1_11 
REMARK    4  A    between atoms: S1_11  and  C7_12 
REMARK    5  A    between atoms: C7_12  and  C8_13 
REMARK    6  A    between atoms: C8_13  and  N3_14 
REMARK    7  A    between atoms: N3_14  and  C9_16 
ROOT
HETATM    1  C7  UNL     1      -1.014   0.622   1.100  1.00  0.00     0.093 C 
ENDROOT
BRANCH   1   2
HETATM    2  S1  UNL     1       0.274  -0.385   1.769  1.00  0.00    -0.167 SA
BRANCH   2   3
HETATM    3  C6  UNL     1       1.898  -0.085   1.123  1.00  0.00     0.080 C 
BRANCH   3   4
HETATM    4  C5  UNL     1       2.136  -0.563  -0.276  1.00  0.00     0.069 C 
BRANCH   4   5
HETATM    5  C4  UNL     1       3.579  -0.207  -0.596  1.00  0.00     0.033 A 
HETATM    6  C2  UNL     1       4.698  -0.847  -0.145  1.00  0.00     0.029 A 
HETATM    7  C1  UNL     1       4.687  -2.031   0.759  1.00  0.00     0.070 C 
HETATM    8  N1  UNL     1       5.796  -0.251  -0.636  1.00  0.00    -0.354 N 
HETATM    9  C3  UNL     1       5.348   0.764  -1.397  1.00  0.00     0.180 A 
ATOM     10  H1  UNL     1       6.767  -0.513  -0.467  1.00  0.00     0.166 HD
HETATM   11  N2  UNL     1       3.993   0.800  -1.379  1.00  0.00    -0.354 N 
ATOM     12  H2  UNL     1       3.399   1.468  -1.870  1.00  0.00     0.166 HD
ENDBRANCH   4   5
ENDBRANCH   3   4
ENDBRANCH   2   3
ENDBRANCH   1   2
BRANCH   1  13
HETATM   13  C8  UNL     1      -1.384   0.398  -0.335  1.00  0.00     0.131 C 
BRANCH  13  14
HETATM   14  N3  UNL     1      -2.504   1.276  -0.718  1.00  0.00    -0.374 N 
ATOM     15  H3  UNL     1      -2.331   2.163  -1.191  1.00  0.00     0.161 HD
BRANCH  14  16
HETATM   16  C9  UNL     1      -3.708   0.902  -0.444  1.00  0.00     0.115 A 
HETATM   17  C10 UNL     1      -4.037  -0.275   0.189  1.00  0.00     0.055 A 
HETATM   18  C11 UNL     1      -5.355  -0.634   0.472  1.00  0.00     0.079 A 
HETATM   19  C12 UNL     1      -6.334   0.253   0.085  1.00  0.00     0.259 A 
HETATM   20  O1  UNL     1      -7.570   0.016   0.299  1.00  0.00    -0.267 OA
HETATM   21  N4  UNL     1      -5.979   1.393  -0.531  1.00  0.00    -0.265 N 
HETATM   22  N5  UNL     1      -4.750   1.720  -0.791  1.00  0.00    -0.283 N 
ATOM     23  H4  UNL     1      -6.718   2.039  -0.810  1.00  0.00     0.190 HD
ATOM     24  H5  UNL     1      -4.557   2.603  -1.263  1.00  0.00     0.188 HD
ENDBRANCH  14  16
ENDBRANCH  13  14
ENDBRANCH   1  13
TORSDOF 7
