REMARK  9 active torsions:
REMARK  status: ('A' for Active; 'I' for Inactive)
REMARK    1  A    between atoms: C2_2  and  C3_3 
REMARK    2  A    between atoms: C3_3  and  C4_4 
REMARK    3  A    between atoms: C4_4  and  C5_5 
REMARK    4  A    between atoms: C5_5  and  C6_6 
REMARK    5  A    between atoms: C6_6  and  C7_7 
REMARK    6  A    between atoms: C15_15  and  O1_16 
REMARK    7  A    between atoms: C18_20  and  O2_22 
REMARK    8  A    between atoms: C20_24  and  O3_25 
REMARK    9  A    between atoms: C24_30  and  O4_31 
ROOT
HETATM    1  C7  UNL     1       1.225  -0.593   0.390  1.00  0.00    -0.025 C 
HETATM    2  C8  UNL     1       1.288   0.275  -0.585  1.00  0.00     0.009 C 
HETATM    3  C9  UNL     1       0.420   0.606  -1.699  1.00  0.00    -0.003 C 
HETATM    4  C10 UNL     1      -0.463   1.615  -1.817  1.00  0.00    -0.019 C 
HETATM    5  C11 UNL     1      -0.680   2.609  -0.738  1.00  0.00     0.026 C 
HETATM    6  C12 UNL     1      -1.441   3.792  -1.281  1.00  0.00     0.018 C 
HETATM    7  C13 UNL     1      -1.205   2.048   0.522  1.00  0.00    -0.020 C 
HETATM    8  C14 UNL     1      -2.326   1.502   0.845  1.00  0.00     0.002 C 
HETATM    9  C15 UNL     1      -3.555   1.213   0.072  1.00  0.00     0.147 C 
HETATM   10  C16 UNL     1      -4.072  -0.207   0.277  1.00  0.00     0.055 C 
HETATM   11  C17 UNL     1      -3.820  -0.721   1.678  1.00  0.00     0.016 C 
HETATM   12  C18 UNL     1      -3.704  -1.132  -0.818  1.00  0.00     0.109 C 
HETATM   13  C19 UNL     1      -5.086  -1.598  -1.430  1.00  0.00     0.053 C 
HETATM   14  C20 UNL     1      -3.008  -2.370  -0.389  1.00  0.00     0.083 C 
HETATM   15  C21 UNL     1      -1.692  -2.933  -0.558  1.00  0.00    -0.027 C 
HETATM   16  C22 UNL     1      -1.789  -4.257  -1.401  1.00  0.00     0.051 C 
HETATM   17  C23 UNL     1      -0.489  -2.613  -0.133  1.00  0.00     0.046 C 
HETATM   18  C24 UNL     1       0.224  -1.674   0.636  1.00  0.00     0.072 C 
ENDROOT
BRANCH   1  19
HETATM   19  C6  UNL     1       2.407  -0.562   1.381  1.00  0.00     0.041 C 
BRANCH  19  20
HETATM   20  C5  UNL     1       3.391   0.463   1.031  1.00  0.00     0.005 C 
BRANCH  20  21
HETATM   21  C4  UNL     1       4.561   0.447   2.071  1.00  0.00     0.000 C 
BRANCH  21  22
HETATM   22  C3  UNL     1       5.564   1.489   1.712  1.00  0.00    -0.000 C 
BRANCH  22  23
HETATM   23  C2  UNL     1       6.171   1.289   0.346  1.00  0.00    -0.005 C 
HETATM   24  C1  UNL     1       6.886  -0.029   0.223  1.00  0.00     0.005 C 
ENDBRANCH  22  23
ENDBRANCH  21  22
ENDBRANCH  20  21
ENDBRANCH  19  20
ENDBRANCH   1  19
BRANCH  18  25
HETATM   25  O4  UNL     1       0.007  -1.701   1.930  1.00  0.00    -0.360 OA
ATOM     26  H4  UNL     1      -0.630  -2.389   2.086  1.00  0.00     0.217 HD
ENDBRANCH  18  25
BRANCH  14  27
HETATM   27  O3  UNL     1      -3.882  -3.070   0.309  1.00  0.00    -0.361 OA
ATOM     28  H3  UNL     1      -3.436  -3.863   0.584  1.00  0.00     0.217 HD
ENDBRANCH  14  27
BRANCH  12  29
HETATM   29  O2  UNL     1      -3.158  -0.581  -1.961  1.00  0.00    -0.383 OA
ATOM     30  H2  UNL     1      -2.922  -1.175  -2.664  1.00  0.00     0.211 HD
ENDBRANCH  12  29
BRANCH   9  31
HETATM   31  O1  UNL     1      -3.549   1.577  -1.243  1.00  0.00    -0.391 OA
ATOM     32  H1  UNL     1      -4.338   1.392  -1.739  1.00  0.00     0.210 HD
ENDBRANCH   9  31
TORSDOF 9
