REMARK  4 active torsions:
REMARK  status: ('A' for Active; 'I' for Inactive)
REMARK       I    between atoms: C1_2  and  N2_4 
REMARK       I    between atoms: N2_4  and  C2_6 
REMARK       I    between atoms: C2_6  and  N3_8 
REMARK    1  A    between atoms: N3_8  and  N4_10 
REMARK    2  A    between atoms: C3_12  and  C4_13 
REMARK    3  A    between atoms: C7_16  and  S1_17 
REMARK    4  A    between atoms: S1_17  and  N5_18 
ROOT
HETATM    1  C4  UNL     1      -0.890  -0.239  -0.082  1.00  0.00    -0.019 A 
HETATM    2  C5  UNL     1      -1.971  -0.127   0.770  1.00  0.00     0.014 A 
HETATM    3  C6  UNL     1      -3.229   0.117   0.249  1.00  0.00     0.026 A 
HETATM    4  C7  UNL     1      -3.466   0.256  -1.103  1.00  0.00     0.079 A 
HETATM    5  C8  UNL     1      -2.383   0.143  -1.948  1.00  0.00     0.026 A 
HETATM    6  C9  UNL     1      -1.124  -0.100  -1.425  1.00  0.00     0.014 A 
ENDROOT
BRANCH   1   7
HETATM    7  C3  UNL     1       0.465  -0.498   0.436  1.00  0.00     0.118 C 
HETATM    8  N4  UNL     1       1.432  -0.592  -0.408  1.00  0.00    -0.307 N 
ATOM      9  H4  UNL     1       1.279  -0.492  -1.412  1.00  0.00     0.186 HD
BRANCH   8  10
HETATM   10  N3  UNL     1       2.732  -0.844   0.133  1.00  0.00    -0.252 N 
HETATM   11  C2  UNL     1       3.235   0.092   1.035  1.00  0.00     0.342 C 
HETATM   12  N2  UNL     1       4.483   0.031   1.675  1.00  0.00    -0.262 N 
HETATM   13  O2  UNL     1       2.508   1.106   1.319  1.00  0.00    -0.245 OA
HETATM   14  C1  UNL     1       5.418  -0.993   1.499  1.00  0.00     0.336 C 
ATOM     15  H2  UNL     1       4.725   0.788   2.314  1.00  0.00     0.175 HD
HETATM   16  N1  UNL     1       6.682  -0.957   2.214  1.00  0.00    -0.040 NA
HETATM   17  O1  UNL     1       5.293  -1.992   0.761  1.00  0.00    -0.251 OA
ATOM     18  H3  UNL     1       3.267  -1.672  -0.130  1.00  0.00     0.191 HD
ENDBRANCH   8  10
ENDBRANCH   1   7
BRANCH   4  19
HETATM   19  S1  UNL     1      -5.088   0.566  -1.716  1.00  0.00     0.256 S 
HETATM   20  O3  UNL     1      -5.221  -0.021  -3.096  1.00  0.00    -0.201 OA
HETATM   21  O4  UNL     1      -6.125  -0.074  -0.859  1.00  0.00    -0.201 OA
BRANCH  19  22
HETATM   22  N5  UNL     1      -5.275   2.288  -1.764  1.00  0.00    -0.324 N 
ATOM     23  H52 UNL     1      -4.574   2.975  -1.488  1.00  0.00     0.169 HD
ATOM     24  H51 UNL     1      -6.214   2.468  -2.119  1.00  0.00     0.169 HD
ENDBRANCH  19  22
ENDBRANCH   4  19
TORSDOF 4
