REMARK  8 active torsions:
REMARK  status: ('A' for Active; 'I' for Inactive)
REMARK    1  A    between atoms: C2_2  and  O1_3 
REMARK    2  A    between atoms: C2_2  and  C3_5 
REMARK    3  A    between atoms: C3_5  and  N1_6 
REMARK    4  A    between atoms: C3_5  and  C13_22 
REMARK       I    between atoms: N1_6  and  C4_8 
REMARK    5  A    between atoms: C4_8  and  C5_10 
REMARK    6  A    between atoms: C8_13  and  C9_14 
REMARK    7  A    between atoms: C8_13  and  C10_17 
REMARK    8  A    between atoms: C13_22  and  C14_24 
ROOT
HETATM    1  N1  UNL     1      -1.691   0.254   0.128  1.00  0.00    -0.346 N 
ATOM      2  H1  UNL     1      -1.486   1.026  -0.506  1.00  0.00     0.163 HD
HETATM    3  C4  UNL     1      -0.613  -0.381   0.776  1.00  0.00     0.222 C 
HETATM    4  O2  UNL     1      -0.899  -1.345   1.565  1.00  0.00    -0.273 OA
ENDROOT
BRANCH   3   5
HETATM    5  C5  UNL     1       0.765   0.046   0.553  1.00  0.00     0.078 C 
HETATM    6  C6  UNL     1       1.749  -0.787   1.362  1.00  0.00     0.016 C 
HETATM    7  C7  UNL     1       3.085  -0.091   1.254  1.00  0.00     0.033 C 
HETATM    8  C8  UNL     1       3.546  -0.158  -0.164  1.00  0.00     0.136 C 
HETATM    9  C11 UNL     1       2.561   0.290  -1.178  1.00  0.00     0.033 C 
HETATM   10  C12 UNL     1       1.138  -0.027  -0.895  1.00  0.00     0.016 C 
BRANCH   8  11
HETATM   11  C9  UNL     1       4.789   0.675  -0.346  1.00  0.00     0.193 C 
HETATM   12  O3  UNL     1       5.300   1.306   0.625  1.00  0.00    -0.647 OA
HETATM   13  O4  UNL     1       5.385   0.753  -1.597  1.00  0.00    -0.647 OA
ENDBRANCH   8  11
BRANCH   8  14
HETATM   14  C10 UNL     1       3.970  -1.565  -0.446  1.00  0.00     0.193 C 
HETATM   15  O5  UNL     1       3.436  -2.273  -1.335  1.00  0.00    -0.647 OA
HETATM   16  O6  UNL     1       4.999  -2.090   0.316  1.00  0.00    -0.647 OA
ENDBRANCH   8  14
ENDBRANCH   3   5
BRANCH   1  17
HETATM   17  C3  UNL     1      -3.091  -0.136   0.317  1.00  0.00     0.194 C 
BRANCH  17  18
HETATM   18  C2  UNL     1      -3.567  -0.676  -1.033  1.00  0.00     0.144 C 
HETATM   19  C1  UNL     1      -3.239   0.330  -2.119  1.00  0.00     0.042 C 
BRANCH  18  20
HETATM   20  O1  UNL     1      -4.851  -1.102  -1.051  1.00  0.00    -0.393 OA
ATOM     21  H1  UNL     1      -5.057  -1.732  -0.371  1.00  0.00     0.210 HD
ENDBRANCH  18  20
ENDBRANCH  17  18
BRANCH  17  22
HETATM   22  C13 UNL     1      -3.893   1.005   0.799  1.00  0.00     0.249 C 
HETATM   23  O7  UNL     1      -3.273   2.121   0.838  1.00  0.00    -0.283 OA
BRANCH  22  24
HETATM   24  C14 UNL     1      -5.260   0.995   1.219  1.00  0.00     0.249 C 
HETATM   25  O8  UNL     1      -5.954  -0.036   1.261  1.00  0.00    -0.642 OA
HETATM   26  O9  UNL     1      -5.897   2.176   1.614  1.00  0.00    -0.642 OA
ENDBRANCH  22  24
ENDBRANCH  17  22
ENDBRANCH   1  17
TORSDOF 8
