REMARK  16 active torsions:
REMARK  status: ('A' for Active; 'I' for Inactive)
REMARK    1  A    between atoms: C1_2  and  S1_21 
REMARK    2  A    between atoms: N2_3  and  C2_5 
REMARK    3  A    between atoms: C2_5  and  C3_6 
REMARK    4  A    between atoms: C3_6  and  C4_7 
REMARK    5  A    between atoms: C5_8  and  O1_9 
REMARK    6  A    between atoms: C7_14  and  C8_15 
REMARK    7  A    between atoms: C8_15  and  O4_16 
REMARK    8  A    between atoms: C9_18  and  O5_19 
REMARK    9  A    between atoms: S1_21  and  S2_22 
REMARK   10  A    between atoms: S2_22  and  C10_23 
REMARK   11  A    between atoms: C11_27  and  N4_28 
REMARK   12  A    between atoms: C12_35  and  C13_36 
REMARK   13  A    between atoms: C13_36  and  O6_37 
REMARK   14  A    between atoms: C14_42  and  C15_43 
REMARK   15  A    between atoms: C15_43  and  O7_44 
REMARK   16  A    between atoms: C15_43  and  O8_46 
ROOT
HETATM    1  C10 UNL     1      -2.854   1.262   0.410  1.00  0.00     0.298 C 
HETATM    2  N3  UNL     1      -2.530   0.687  -0.876  1.00  0.00    -0.005 N 
ATOM      3  H31 UNL     1      -1.519   0.627  -0.994  1.00  0.00     0.283 HD
ATOM      4  H32 UNL     1      -2.755   1.341  -1.625  1.00  0.00     0.283 HD
HETATM    5  C11 UNL     1      -3.139  -0.585  -1.124  1.00  0.00     0.581 C 
HETATM    6  N5  UNL     1      -4.545  -0.573  -1.352  1.00  0.00     0.010 N 
ATOM      7  H51 UNL     1      -4.799  -1.254  -2.068  1.00  0.00     0.284 HD
ATOM      8  H52 UNL     1      -4.825   0.286  -1.825  1.00  0.00     0.284 HD
HETATM    9  C12 UNL     1      -5.332  -0.775  -0.156  1.00  0.00     0.411 C 
HETATM   10  N6  UNL     1      -4.862   0.033   0.945  1.00  0.00    -0.032 N 
ATOM     11  H61 UNL     1      -4.165  -0.470   1.495  1.00  0.00     0.280 HD
ATOM     12  H62 UNL     1      -5.587   0.141   1.654  1.00  0.00     0.280 HD
HETATM   13  C14 UNL     1      -4.359   1.314   0.525  1.00  0.00     0.284 C 
ENDROOT
BRANCH   1  14
HETATM   14  S2  UNL     1      -2.085   0.384   1.795  1.00  0.00    -0.054 SA
BRANCH  14  15
HETATM   15  S1  UNL     1       0.007   0.610   1.809  1.00  0.00    -0.023 SA
BRANCH  15  16
HETATM   16  C1  UNL     1       0.867  -0.646   0.896  1.00  0.00     0.160 C 
HETATM   17  N1  UNL     1       0.165  -1.702   0.266  1.00  0.00    -0.074 NA
HETATM   18  N2  UNL     1       2.153  -0.657   0.764  1.00  0.00    -0.372 N 
ATOM     19  H2  UNL     1       2.582  -1.410   0.225  1.00  0.00     0.161 HD
BRANCH  18  20
HETATM   20  C2  UNL     1       3.002   0.341   1.341  1.00  0.00     0.126 C 
BRANCH  20  21
HETATM   21  C3  UNL     1       3.899   0.944   0.316  1.00  0.00     0.066 C 
BRANCH  21  22
HETATM   22  C4  UNL     1       4.813   0.010  -0.367  1.00  0.00     0.036 A 
HETATM   23  C5  UNL     1       4.386  -0.735  -1.440  1.00  0.00     0.195 A 
HETATM   24  O2  UNL     1       5.191  -1.599  -2.051  1.00  0.00    -0.251 OA
HETATM   25  C6  UNL     1       6.429  -1.804  -1.686  1.00  0.00     0.301 A 
HETATM   26  O3  UNL     1       7.179  -2.634  -2.284  1.00  0.00    -0.259 OA
HETATM   27  C7  UNL     1       6.963  -1.114  -0.624  1.00  0.00     0.074 A 
HETATM   28  C9  UNL     1       6.134  -0.203   0.030  1.00  0.00     0.091 A 
BRANCH  23  29
HETATM   29  O1  UNL     1       3.102  -0.656  -1.981  1.00  0.00    -0.340 OA
ATOM     30  H1  UNL     1       2.807  -1.171  -2.723  1.00  0.00     0.220 HD
ENDBRANCH  23  29
BRANCH  27  31
HETATM   31  C8  UNL     1       8.370  -1.340  -0.202  1.00  0.00     0.212 C 
BRANCH  31  32
HETATM   32  O4  UNL     1       8.693  -0.548   0.875  1.00  0.00    -0.396 OA
ATOM     33  H4  UNL     1       9.592  -0.692   1.145  1.00  0.00     0.209 HD
ENDBRANCH  31  32
ENDBRANCH  27  31
BRANCH  28  34
HETATM   34  O5  UNL     1       6.661   0.482   1.084  1.00  0.00    -0.359 OA
ATOM     35  H5  UNL     1       7.560   0.337   1.354  1.00  0.00     0.217 HD
ENDBRANCH  28  34
ENDBRANCH  21  22
ENDBRANCH  20  21
ENDBRANCH  18  20
ENDBRANCH  15  16
ENDBRANCH  14  15
ENDBRANCH   1  14
BRANCH  13  36
HETATM   36  C15 UNL     1      -4.693   2.358   1.588  1.00  0.00     0.287 C 
BRANCH  36  37
HETATM   37  O7  UNL     1      -4.197   3.581   1.156  1.00  0.00    -0.369 OA
ATOM     38  H7  UNL     1      -4.405   4.231   1.817  1.00  0.00     0.212 HD
ENDBRANCH  36  37
BRANCH  36  39
HETATM   39  O8  UNL     1      -4.030   2.046   2.780  1.00  0.00    -0.369 OA
ATOM     40  H8  UNL     1      -4.238   2.696   3.441  1.00  0.00     0.212 HD
ENDBRANCH  36  39
ENDBRANCH  13  36
BRANCH   5  41
HETATM   41  N4  UNL     1      -2.514  -1.119  -2.346  1.00  0.00    -0.026 N 
ATOM     42  H43 UNL     1      -2.573  -0.482  -3.140  1.00  0.00     0.278 HD
ATOM     43  H42 UNL     1      -1.496  -1.163  -2.293  1.00  0.00     0.278 HD
ATOM     44  H41 UNL     1      -2.948  -2.025  -2.523  1.00  0.00     0.278 HD
ENDBRANCH   5  41
BRANCH   9  45
HETATM   45  C13 UNL     1      -6.774  -0.574  -0.490  1.00  0.00     0.226 C 
BRANCH  45  46
HETATM   46  O6  UNL     1      -7.608  -0.758   0.626  1.00  0.00    -0.397 OA
ATOM     47  H6  UNL     1      -8.525  -0.630   0.414  1.00  0.00     0.209 HD
ENDBRANCH  45  46
ENDBRANCH   9  45
TORSDOF 16
