REMARK  6 active torsions:
REMARK  status: ('A' for Active; 'I' for Inactive)
REMARK    1  A    between atoms: C3_4  and  S1_5 
REMARK    2  A    between atoms: S1_5  and  C4_6 
REMARK    3  A    between atoms: C4_6  and  C5_7 
REMARK       I    between atoms: C5_7  and  N2_9 
REMARK    4  A    between atoms: N2_9  and  N3_11 
REMARK    5  A    between atoms: C6_13  and  C7_14 
REMARK    6  A    between atoms: C10_17  and  C11_18 
ROOT
HETATM    1  N1  UNL     1      -1.239   2.292   1.209  1.00  0.00    -0.191 NA
HETATM    2  C1  UNL     1      -1.795   1.459   0.585  1.00  0.00     0.102 C 
HETATM    3  C2  UNL     1      -2.537   0.433  -0.199  1.00  0.00     0.075 A 
HETATM    4  C3  UNL     1      -1.958  -0.128  -1.284  1.00  0.00     0.063 A 
HETATM    5  S2  UNL     1      -3.210  -1.180  -1.882  1.00  0.00    -0.086 SA
HETATM    6  C12 UNL     1      -4.397  -0.865  -0.740  1.00  0.00    -0.008 A 
HETATM    7  C13 UNL     1      -3.813   0.058   0.101  1.00  0.00    -0.022 A 
HETATM    8  C14 UNL     1      -4.660   0.546   1.274  1.00  0.00     0.041 C 
HETATM    9  C15 UNL     1      -6.055   0.739   0.858  1.00  0.00     0.005 C 
HETATM   10  C16 UNL     1      -6.550   0.032  -0.354  1.00  0.00     0.005 C 
HETATM   11  C17 UNL     1      -5.831  -1.298  -0.441  1.00  0.00     0.046 C 
ENDROOT
BRANCH   4  12
HETATM   12  S1  UNL     1      -0.367  -0.042  -2.058  1.00  0.00    -0.112 SA
BRANCH  12  13
HETATM   13  C4  UNL     1       0.903   0.870  -1.266  1.00  0.00     0.184 C 
BRANCH  13  14
HETATM   14  C5  UNL     1       1.447   0.202  -0.031  1.00  0.00     0.245 C 
HETATM   15  O1  UNL     1       0.968  -0.904   0.287  1.00  0.00    -0.271 OA
HETATM   16  N2  UNL     1       2.467   0.796   0.755  1.00  0.00    -0.270 N 
ATOM     17  H2  UNL     1       2.851   1.702   0.488  1.00  0.00     0.190 HD
BRANCH  16  18
HETATM   18  N3  UNL     1       2.933   0.165   1.858  1.00  0.00    -0.307 N 
HETATM   19  C6  UNL     1       4.056  -0.371   2.033  1.00  0.00     0.144 C 
ATOM     20  H3  UNL     1       2.290   0.119   2.649  1.00  0.00     0.186 HD
BRANCH  19  21
HETATM   21  C7  UNL     1       5.104  -0.411   1.038  1.00  0.00     0.093 A 
HETATM   22  C8  UNL     1       5.193   0.046  -0.234  1.00  0.00     0.041 A 
HETATM   23  C9  UNL     1       6.451  -0.281  -0.709  1.00  0.00     0.043 A 
HETATM   24  C10 UNL     1       7.083  -0.930   0.302  1.00  0.00     0.113 A 
HETATM   25  O3  UNL     1       6.279  -0.991   1.302  1.00  0.00    -0.306 OA
BRANCH  24  26
HETATM   26  C11 UNL     1       8.440  -1.471   0.274  1.00  0.00     0.295 C 
HETATM   27  O2  UNL     1       8.929  -2.056   1.270  1.00  0.00    -0.299 OA
ENDBRANCH  24  26
ENDBRANCH  19  21
ENDBRANCH  16  18
ENDBRANCH  13  14
ENDBRANCH  12  13
ENDBRANCH   4  12
TORSDOF 6
