REMARK  6 active torsions:
REMARK  status: ('A' for Active; 'I' for Inactive)
REMARK    1  A    between atoms: N1_6  and  C6_7 
REMARK    2  A    between atoms: C6_7  and  C7_8 
REMARK    3  A    between atoms: C6_7  and  C8_10 
REMARK    4  A    between atoms: C8_10  and  C9_11 
REMARK    5  A    between atoms: C9_11  and  C10_13 
REMARK    6  A    between atoms: C10_13  and  N2_14 
ROOT
HETATM    1  N2  UNL     1      -0.685  -1.066  -0.883  1.00  0.00    -0.341 N 
HETATM    2  C11 UNL     1      -1.085   0.327  -1.021  1.00  0.00     0.164 C 
HETATM    3  C12 UNL     1      -2.563   0.498  -1.192  1.00  0.00     0.140 C 
HETATM    4  C13 UNL     1      -2.803   0.864  -2.663  1.00  0.00     0.048 C 
HETATM    5  C14 UNL     1      -3.028   1.611  -0.278  1.00  0.00     0.049 C 
HETATM    6  C15 UNL     1      -3.508   1.014   1.005  1.00  0.00    -0.043 C 
HETATM    7  C16 UNL     1      -5.013   0.909   0.961  1.00  0.00     0.015 C 
HETATM    8  C17 UNL     1      -3.176   2.005   2.128  1.00  0.00     0.015 C 
HETATM    9  C18 UNL     1      -2.846  -0.283   1.372  1.00  0.00     0.057 C 
HETATM   10  C19 UNL     1      -2.883  -1.325   0.308  1.00  0.00     0.203 C 
HETATM   11  C20 UNL     1      -3.848  -2.435   0.652  1.00  0.00     0.057 C 
HETATM   12  N3  UNL     1      -3.350  -0.669  -0.927  1.00  0.00    -0.048 N 
ATOM     13  H31 UNL     1      -3.360  -1.311  -1.720  1.00  0.00     0.279 HD
ATOM     14  H32 UNL     1      -4.347  -0.457  -0.893  1.00  0.00     0.279 HD
HETATM   15  C21 UNL     1      -1.543  -1.859  -0.059  1.00  0.00     0.256 C 
HETATM   16  O3  UNL     1      -1.157  -2.977   0.336  1.00  0.00    -0.271 OA
ENDROOT
BRANCH   1  17
HETATM   17  C10 UNL     1       0.479  -1.573  -1.536  1.00  0.00     0.204 C 
BRANCH  17  18
HETATM   18  C9  UNL     1       1.737  -1.485  -0.776  1.00  0.00     0.147 C 
HETATM   19  O2  UNL     1       2.729  -1.966  -1.346  1.00  0.00    -0.296 OA
BRANCH  18  20
HETATM   20  C8  UNL     1       1.778  -0.868   0.552  1.00  0.00     0.114 C 
BRANCH  20  21
HETATM   21  C6  UNL     1       3.127  -0.847   1.203  1.00  0.00     0.176 C 
BRANCH  21  22
HETATM   22  N1  UNL     1       4.122  -0.119   0.445  1.00  0.00    -0.285 N 
HETATM   23  C4  UNL     1       4.207   1.205   0.231  1.00  0.00     0.027 A 
HETATM   24  C3  UNL     1       5.303   1.474  -0.537  1.00  0.00     0.052 A 
HETATM   25  C5  UNL     1       3.255   2.202   0.755  1.00  0.00     0.070 C 
HETATM   26  C2  UNL     1       5.904   0.272  -0.799  1.00  0.00     0.024 A 
HETATM   27  C1  UNL     1       7.144   0.121  -1.614  1.00  0.00     0.070 C 
HETATM   28  N4  UNL     1       5.171  -0.660  -0.195  1.00  0.00    -0.302 N 
ATOM     29  H4  UNL     1       5.380  -1.658  -0.216  1.00  0.00     0.186 HD
ENDBRANCH  21  22
BRANCH  21  30
HETATM   30  C7  UNL     1       3.609  -2.185   1.619  1.00  0.00     0.258 C 
HETATM   31  O1  UNL     1       3.134  -2.789   2.553  1.00  0.00    -0.305 OA
ENDBRANCH  21  30
ENDBRANCH  20  21
ENDBRANCH  18  20
ENDBRANCH  17  18
ENDBRANCH   1  17
TORSDOF 6
