REMARK  6 active torsions:
REMARK  status: ('A' for Active; 'I' for Inactive)
REMARK    1  A    between atoms: C3_6  and  C4_7 
REMARK       I    between atoms: N2_10  and  C6_12 
REMARK       I    between atoms: C6_12  and  N3_14 
REMARK    2  A    between atoms: N3_14  and  C7_15 
REMARK    3  A    between atoms: C7_15  and  C8_16 
REMARK    4  A    between atoms: C7_15  and  C9_19 
REMARK    5  A    between atoms: C9_19  and  O6_21 
REMARK    6  A    between atoms: O6_21  and  C10_22 
ROOT
HETATM    1  C1  UNL     1       8.580  -0.473   1.024  1.00  0.00     0.072 C 
HETATM    2  C2  UNL     1       7.132  -0.317   1.295  1.00  0.00     0.052 A 
HETATM    3  N1  UNL     1       6.448  -0.479   2.434  1.00  0.00    -0.264 N 
ATOM      4  H1  UNL     1       6.869  -0.750   3.323  1.00  0.00     0.194 HD
HETATM    5  O1  UNL     1       5.209  -0.253   2.269  1.00  0.00    -0.235 OA
HETATM    6  C3  UNL     1       4.986   0.081   0.977  1.00  0.00     0.140 A 
HETATM    7  C15 UNL     1       6.158   0.053   0.348  1.00  0.00     0.105 A 
HETATM    8  C16 UNL     1       6.498   0.392  -0.984  1.00  0.00     0.104 C 
HETATM    9  N5  UNL     1       6.797   0.692  -2.059  1.00  0.00    -0.191 NA
ENDROOT
BRANCH   6  10
HETATM   10  C4  UNL     1       3.616   0.399   0.533  1.00  0.00     0.068 A 
HETATM   11  S1  UNL     1       2.471   1.276   1.559  1.00  0.00    -0.049 SA
HETATM   12  C5  UNL     1       1.219   1.444   0.440  1.00  0.00     0.154 A 
HETATM   13  N2  UNL     1       0.046   2.032   0.589  1.00  0.00    -0.277 N 
HETATM   14  N4  UNL     1       1.695   0.844  -0.643  1.00  0.00    -0.339 N 
HETATM   15  C6  UNL     1      -0.860   2.033  -0.550  1.00  0.00     0.396 C 
ATOM     16  H2  UNL     1      -0.216   2.470   1.472  1.00  0.00     0.173 HD
HETATM   17  O2  UNL     1      -0.659   2.984  -1.324  1.00  0.00    -0.230 OA
HETATM   18  N3  UNL     1      -1.789   1.039  -0.651  1.00  0.00    -0.369 NA
HETATM   19  C13 UNL     1       2.898   0.316  -0.602  1.00  0.00     0.027 A 
ATOM     20  H4  UNL     1       1.136   0.793  -1.495  1.00  0.00     0.168 HD
HETATM   21  C14 UNL     1       3.415  -0.483  -1.806  1.00  0.00     0.070 C 
BRANCH  18  22
HETATM   22  C7  UNL     1      -2.718   0.047  -0.751  1.00  0.00     0.367 C 
BRANCH  22  23
HETATM   23  C8  UNL     1      -2.307  -1.230  -0.062  1.00  0.00     0.221 C 
HETATM   24  O3  UNL     1      -1.230  -1.305   0.505  1.00  0.00    -0.645 OA
HETATM   25  O4  UNL     1      -3.225  -2.282  -0.122  1.00  0.00    -0.645 OA
ENDBRANCH  22  23
BRANCH  22  26
HETATM   26  C9  UNL     1      -4.010   0.414  -0.076  1.00  0.00     0.306 C 
HETATM   27  O5  UNL     1      -4.109   1.517   0.530  1.00  0.00    -0.261 OA
BRANCH  26  28
HETATM   28  O6  UNL     1      -5.108  -0.405  -0.086  1.00  0.00    -0.314 OA
BRANCH  28  29
HETATM   29  C10 UNL     1      -6.339  -0.131   0.512  1.00  0.00     0.123 C 
HETATM   30  C11 UNL     1      -6.823  -1.135   1.496  1.00  0.00     0.040 C 
HETATM   31  C12 UNL     1      -7.430   0.107  -0.526  1.00  0.00     0.040 C 
ENDBRANCH  28  29
ENDBRANCH  26  28
ENDBRANCH  22  26
ENDBRANCH  18  22
ENDBRANCH   6  10
TORSDOF 6
