REMARK  11 active torsions:
REMARK  status: ('A' for Active; 'I' for Inactive)
REMARK    1  A    between atoms: O1_2  and  C2_3 
REMARK    2  A    between atoms: C4_5  and  N1_6 
REMARK    3  A    between atoms: N1_6  and  C5_8 
REMARK    4  A    between atoms: C5_8  and  N2_10 
REMARK    5  A    between atoms: N2_10  and  C6_12 
REMARK    6  A    between atoms: C14_21  and  C15_22 
REMARK    7  A    between atoms: C15_22  and  O3_24 
REMARK    8  A    between atoms: O3_24  and  C16_25 
REMARK    9  A    between atoms: C17_26  and  O4_27 
REMARK   10  A    between atoms: C17_26  and  N3_29 
REMARK       I    between atoms: N3_29  and  C18_31 
REMARK   11  A    between atoms: C18_31  and  C19_33 
ROOT
HETATM    1  C2  UNL     1      -0.136  -0.585  -1.443  1.00  0.00     0.086 A 
HETATM    2  C3  UNL     1      -1.239  -0.283  -0.678  1.00  0.00     0.067 A 
HETATM    3  C4  UNL     1      -1.814  -1.185   0.220  1.00  0.00     0.036 A 
HETATM    4  C12 UNL     1      -1.236  -2.408   0.322  1.00  0.00     0.030 A 
HETATM    5  C13 UNL     1      -0.109  -2.715  -0.459  1.00  0.00     0.023 A 
HETATM    6  C14 UNL     1       0.458  -1.826  -1.345  1.00  0.00     0.073 A 
ENDROOT
BRANCH   6   7
HETATM    7  C15 UNL     1       1.628  -2.190  -2.126  1.00  0.00     0.300 C 
HETATM    8  O2  UNL     1       2.174  -3.306  -2.065  1.00  0.00    -0.259 OA
BRANCH   7   9
HETATM    9  O3  UNL     1       2.182  -1.235  -3.004  1.00  0.00    -0.283 OA
BRANCH   9  10
HETATM   10  C16 UNL     1       3.311  -1.592  -3.762  1.00  0.00     0.201 C 
HETATM   11  C17 UNL     1       4.508  -1.896  -3.033  1.00  0.00     0.165 C 
BRANCH  11  12
HETATM   12  O4  UNL     1       5.243  -2.868  -3.559  1.00  0.00    -0.345 OA
ATOM     13  H4  UNL     1       6.036  -3.069  -3.076  1.00  0.00     0.219 HD
ENDBRANCH  11  12
BRANCH  11  14
HETATM   14  N3  UNL     1       5.042  -1.359  -1.874  1.00  0.00    -0.301 N 
HETATM   15  C18 UNL     1       4.657  -0.201  -1.218  1.00  0.00     0.277 C 
HETATM   16  O5  UNL     1       3.730   0.534  -1.724  1.00  0.00    -0.266 OA
ATOM     17  H3  UNL     1       5.812  -1.879  -1.452  1.00  0.00     0.171 HD
BRANCH  15  18
HETATM   18  C19 UNL     1       5.248   0.264   0.045  1.00  0.00     0.142 A 
HETATM   19  N4  UNL     1       5.079   1.594   0.350  1.00  0.00    -0.326 N 
HETATM   20  C20 UNL     1       5.551   2.098   1.484  1.00  0.00     0.189 A 
ATOM     21  H4  UNL     1       4.585   2.201  -0.303  1.00  0.00     0.168 HD
HETATM   22  F1  UNL     1       5.374   3.429   1.776  1.00  0.00    -0.186 F 
HETATM   23  C21 UNL     1       6.230   1.337   2.417  1.00  0.00     0.064 A 
HETATM   24  C22 UNL     1       6.420   0.009   2.152  1.00  0.00     0.049 A 
HETATM   25  C23 UNL     1       5.903  -0.486   0.939  1.00  0.00     0.148 A 
HETATM   26  F2  UNL     1       6.078  -1.832   0.731  1.00  0.00    -0.203 F 
ENDBRANCH  15  18
ENDBRANCH  11  14
ENDBRANCH   9  10
ENDBRANCH   7   9
ENDBRANCH   6   7
BRANCH   1  27
HETATM   27  O1  UNL     1       0.413   0.329  -2.329  1.00  0.00    -0.355 OA
HETATM   28  C1  UNL     1      -0.198   1.601  -2.428  1.00  0.00     0.210 C 
ENDBRANCH   1  27
BRANCH   3  29
HETATM   29  N1  UNL     1      -2.967  -0.745   0.915  1.00  0.00    -0.333 N 
ATOM     30  H1  UNL     1      -3.560  -0.088   0.408  1.00  0.00     0.168 HD
BRANCH  29  31
HETATM   31  C5  UNL     1      -3.404  -1.082   2.188  1.00  0.00     0.176 C 
HETATM   32  S1  UNL     1      -2.481  -2.100   3.110  1.00  0.00    -0.041 SA
BRANCH  31  33
HETATM   33  N2  UNL     1      -4.559  -0.594   2.779  1.00  0.00    -0.333 N 
ATOM     34  H2  UNL     1      -4.749  -0.963   3.711  1.00  0.00     0.168 HD
BRANCH  33  35
HETATM   35  C6  UNL     1      -5.515   0.329   2.304  1.00  0.00     0.034 A 
HETATM   36  C7  UNL     1      -5.263   1.497   1.640  1.00  0.00     0.031 A 
HETATM   37  C8  UNL     1      -6.266   2.348   1.177  1.00  0.00     0.021 A 
HETATM   38  C9  UNL     1      -7.584   2.020   1.386  1.00  0.00     0.011 A 
HETATM   39 BR1  UNL     1      -8.948   3.182   0.753  1.00  0.00    -0.051 Br
HETATM   40  C10 UNL     1      -7.888   0.855   2.051  1.00  0.00     0.021 A 
HETATM   41  C11 UNL     1      -6.884   0.046   2.490  1.00  0.00     0.031 A 
ENDBRANCH  33  35
ENDBRANCH  31  33
ENDBRANCH  29  31
ENDBRANCH   3  29
TORSDOF 11
