REMARK  8 active torsions:
REMARK  status: ('A' for Active; 'I' for Inactive)
REMARK    1  A    between atoms: C3_3  and  C5_5 
REMARK    2  A    between atoms: C9_9  and  O1_10 
REMARK    3  A    between atoms: C10_12  and  C11_13 
REMARK    4  A    between atoms: C11_13  and  C12_14 
REMARK    5  A    between atoms: C11_13  and  N1_17 
REMARK    6  A    between atoms: C12_14  and  C13_15 
REMARK       I    between atoms: N1_17  and  C15_19 
REMARK    7  A    between atoms: C15_19  and  C16_21 
REMARK    8  A    between atoms: C19_28  and  O4_29 
ROOT
HETATM    1  C1  UNL     1      -2.987   0.768   1.557  1.00  0.00     0.016 C 
HETATM    2  C2  UNL     1      -2.218   0.129   0.690  1.00  0.00    -0.067 C 
HETATM    3  C3  UNL     1      -2.639  -1.209   0.254  1.00  0.00    -0.021 C 
HETATM    4  C4  UNL     1      -3.887  -1.286  -0.558  1.00  0.00     0.020 C 
HETATM    5  C7  UNL     1      -1.537  -1.854  -0.547  1.00  0.00     0.017 C 
HETATM    6  C8  UNL     1      -0.267  -1.621   0.186  1.00  0.00     0.043 C 
HETATM    7  C9  UNL     1       0.151  -0.199   0.369  1.00  0.00     0.100 C 
HETATM    8  C10 UNL     1       1.336   0.061  -0.475  1.00  0.00     0.180 C 
HETATM    9  O3  UNL     1       1.398   1.252  -1.104  1.00  0.00    -0.375 OA
HETATM   10  C17 UNL     1       0.339   1.915  -1.489  1.00  0.00     0.133 C 
HETATM   11  C18 UNL     1       0.455   3.330  -0.888  1.00  0.00     0.101 C 
HETATM   12  C19 UNL     1      -0.900   3.648  -0.319  1.00  0.00     0.167 C 
HETATM   13  O5  UNL     1      -1.108   3.160   0.940  1.00  0.00    -0.354 OA
HETATM   14  C20 UNL     1      -0.596   1.939   1.219  1.00  0.00     0.189 C 
HETATM   15  C21 UNL     1      -0.977   0.826   0.236  1.00  0.00     0.045 C 
HETATM   16  C22 UNL     1      -1.049   1.456  -1.098  1.00  0.00     0.041 C 
HETATM   17  C23 UNL     1      -1.744   2.750  -1.240  1.00  0.00     0.052 C 
HETATM   18  C24 UNL     1      -3.163   2.912  -1.001  1.00  0.00     0.016 C 
ENDROOT
BRANCH   8  19
HETATM   19  C11 UNL     1       2.678  -0.104   0.190  1.00  0.00     0.116 C 
BRANCH  19  20
HETATM   20  C12 UNL     1       3.785   0.023  -0.841  1.00  0.00     0.027 C 
BRANCH  20  21
HETATM   21  C13 UNL     1       3.728  -0.984  -1.937  1.00  0.00    -0.002 C 
HETATM   22  C14 UNL     1       4.910  -0.721  -2.872  1.00  0.00     0.005 C 
ENDBRANCH  20  21
ENDBRANCH  19  20
BRANCH  19  23
HETATM   23  N1  UNL     1       2.916  -1.272   0.929  1.00  0.00    -0.346 N 
HETATM   24  C15 UNL     1       3.447  -1.209   2.235  1.00  0.00     0.325 C 
HETATM   25  O2  UNL     1       3.750  -0.133   2.836  1.00  0.00    -0.263 OA
ATOM     26  H1  UNL     1       2.702  -2.180   0.517  1.00  0.00     0.163 HD
BRANCH  24  27
HETATM   27  C16 UNL     1       3.705  -2.455   3.045  1.00  0.00     0.472 C 
HETATM   28  F1  UNL     1       2.548  -3.166   3.255  1.00  0.00    -0.162 F 
HETATM   29  F2  UNL     1       4.389  -2.207   4.194  1.00  0.00    -0.162 F 
HETATM   30  F3  UNL     1       4.546  -3.234   2.240  1.00  0.00    -0.162 F 
ENDBRANCH  24  27
ENDBRANCH  19  23
ENDBRANCH   8  19
BRANCH   7  31
HETATM   31  O1  UNL     1       0.583  -0.131   1.722  1.00  0.00    -0.386 OA
ATOM     32  H1  UNL     1       0.849   0.774   1.838  1.00  0.00     0.210 HD
ENDBRANCH   7  31
BRANCH   3  33
HETATM   33  C5  UNL     1      -2.905  -2.133   1.457  1.00  0.00     0.009 C 
HETATM   34  C6  UNL     1      -3.329  -3.493   0.951  1.00  0.00     0.006 C 
ENDBRANCH   3  33
BRANCH  12  35
HETATM   35  O4  UNL     1      -1.252   4.966  -0.431  1.00  0.00    -0.365 OA
ATOM     36  H4  UNL     1      -2.108   5.167  -0.072  1.00  0.00     0.213 HD
ENDBRANCH  12  35
TORSDOF 8
