REMARK  2 active torsions:
REMARK  status: ('A' for Active; 'I' for Inactive)
REMARK    1  A    between atoms: N2_6  and  C4_8 
REMARK    2  A    between atoms: C4_8  and  C5_9 
ROOT
HETATM    1  C1  UNL     1      -4.045   1.524   0.946  1.00  0.00     0.049 C 
HETATM    2  C2  UNL     1      -3.211   0.609   0.496  1.00  0.00     0.109 A 
HETATM    3  N1  UNL     1      -1.853   0.959   0.215  1.00  0.00    -0.186 N 
ATOM      4  H1  UNL     1      -1.544   1.919   0.367  1.00  0.00     0.184 HD
HETATM    5  C3  UNL     1      -0.930   0.004  -0.269  1.00  0.00     0.693 A 
HETATM    6  N2  UNL     1       0.263   0.336  -0.509  1.00  0.00    -0.218 N 
ATOM      7  H2  UNL     1       0.503   1.312  -0.333  1.00  0.00     0.178 HD
HETATM    8  N6  UNL     1      -1.362  -1.322  -0.478  1.00  0.00    -0.129 N 
ATOM      9  H6  UNL     1      -0.697  -2.013  -0.827  1.00  0.00     0.205 HD
HETATM   10  N7  UNL     1      -2.688  -1.716  -0.217  1.00  0.00    -0.250 N 
ATOM     11  H7  UNL     1      -2.967  -2.684  -0.379  1.00  0.00     0.191 HD
HETATM   12  C7  UNL     1      -3.643  -0.782   0.270  1.00  0.00     0.286 A 
HETATM   13  O2  UNL     1      -4.838  -1.106   0.513  1.00  0.00    -0.264 OA
ENDROOT
BRANCH   6  14
HETATM   14  C4  UNL     1       1.316  -0.494  -0.998  1.00  0.00     0.216 C 
BRANCH  14  15
HETATM   15  C5  UNL     1       2.605   0.024  -0.422  1.00  0.00     0.118 A 
HETATM   16  N3  UNL     1       2.776   1.076   0.406  1.00  0.00    -0.294 N 
HETATM   17  C6  UNL     1       4.076   1.212   0.690  1.00  0.00     0.340 A 
ATOM     18  H3  UNL     1       2.030   1.674   0.760  1.00  0.00     0.172 HD
HETATM   19  O1  UNL     1       4.530   2.117   1.445  1.00  0.00    -0.245 OA
HETATM   20  N4  UNL     1       4.735   0.236   0.035  1.00  0.00    -0.250 N 
HETATM   21  N5  UNL     1       3.831  -0.483  -0.639  1.00  0.00    -0.283 N 
ATOM     22  H4  UNL     1       5.742   0.075   0.050  1.00  0.00     0.192 HD
ATOM     23  H5  UNL     1       4.039  -1.290  -1.226  1.00  0.00     0.188 HD
ENDBRANCH  14  15
ENDBRANCH   6  14
TORSDOF 2
