REMARK  12 active torsions:
REMARK  status: ('A' for Active; 'I' for Inactive)
REMARK    1  A    between atoms: C2_2  and  N1_3 
REMARK       I    between atoms: N1_3  and  C3_5 
REMARK       I    between atoms: C3_5  and  N3_9 
REMARK    2  A    between atoms: N3_9  and  C4_11 
REMARK    3  A    between atoms: C4_11  and  C5_12 
REMARK    4  A    between atoms: C5_12  and  C6_13 
REMARK    5  A    between atoms: C6_13  and  C7_14 
REMARK    6  A    between atoms: C7_14  and  N4_15 
REMARK    7  A    between atoms: N4_15  and  C8_17 
REMARK    8  A    between atoms: C8_17  and  C9_19 
REMARK    9  A    between atoms: C10_23  and  C11_24 
REMARK   10  A    between atoms: C11_24  and  C12_25 
REMARK   11  A    between atoms: C17_30  and  C18_31 
REMARK   12  A    between atoms: C21_35  and  O1_36 
ROOT
HETATM    1  C9  UNL     1      -1.558   0.185  -0.839  1.00  0.00     0.255 C 
HETATM    2  N5  UNL     1      -1.915  -1.208  -0.778  1.00  0.00    -0.060 N 
ATOM      3  H51 UNL     1      -1.511  -1.686   0.028  1.00  0.00     0.278 HD
ATOM      4  H52 UNL     1      -1.465  -1.765  -1.504  1.00  0.00     0.278 HD
HETATM    5  C10 UNL     1      -3.379  -1.295  -0.818  1.00  0.00     0.188 C 
HETATM    6  C16 UNL     1      -3.805   0.026  -0.183  1.00  0.00     0.045 C 
HETATM    7  C17 UNL     1      -2.816   0.954  -0.879  1.00  0.00     0.058 C 
ENDROOT
BRANCH   1   8
HETATM    8  C8  UNL     1      -0.522   0.611   0.092  1.00  0.00     0.105 C 
HETATM    9  S1  UNL     1      -0.773   1.208   1.596  1.00  0.00    -0.063 SA
BRANCH   8  10
HETATM   10  N4  UNL     1       0.852   0.495  -0.299  1.00  0.00    -0.383 N 
ATOM     11  H4  UNL     1       1.068   0.113  -1.220  1.00  0.00     0.160 HD
BRANCH  10  12
HETATM   12  C7  UNL     1       1.942   0.896   0.557  1.00  0.00     0.120 C 
BRANCH  12  13
HETATM   13  C6  UNL     1       3.279   0.757  -0.105  1.00  0.00     0.021 C 
BRANCH  13  14
HETATM   14  C5  UNL     1       3.591  -0.663  -0.518  1.00  0.00     0.022 C 
BRANCH  14  15
HETATM   15  C4  UNL     1       4.944  -0.697  -1.183  1.00  0.00     0.138 C 
BRANCH  15  16
HETATM   16  N3  UNL     1       6.027  -0.248  -0.374  1.00  0.00    -0.227 N 
HETATM   17  C3  UNL     1       6.529  -0.909   0.765  1.00  0.00     0.667 C 
HETATM   18  N1  UNL     1       7.320  -0.187   1.688  1.00  0.00    -0.227 N 
HETATM   19  N2  UNL     1       6.290  -2.145   0.991  1.00  0.00    -0.235 N 
ATOM     20  H1  UNL     1       6.892   0.245   2.507  1.00  0.00     0.177 HD
ATOM     21  H22 UNL     1       6.653  -2.623   1.815  1.00  0.00     0.174 HD
ATOM     22  H21 UNL     1       5.719  -2.666   0.325  1.00  0.00     0.174 HD
ATOM     23  H3  UNL     1       6.478   0.627  -0.642  1.00  0.00     0.177 HD
BRANCH  18  24
HETATM   24  C2  UNL     1       8.745  -0.068   1.458  1.00  0.00     0.133 C 
HETATM   25  C1  UNL     1       9.041   0.802   0.241  1.00  0.00     0.027 C 
ENDBRANCH  18  24
ENDBRANCH  15  16
ENDBRANCH  14  15
ENDBRANCH  13  14
ENDBRANCH  12  13
ENDBRANCH  10  12
ENDBRANCH   8  10
ENDBRANCH   1   8
BRANCH   7  26
HETATM   26  C18 UNL     1      -2.841   2.268  -0.270  1.00  0.00    -0.048 A 
HETATM   27  C19 UNL     1      -2.056   3.297  -0.753  1.00  0.00     0.034 A 
HETATM   28  C20 UNL     1      -2.087   4.549  -0.194  1.00  0.00     0.069 A 
HETATM   29 CL1  UNL     1      -1.098   5.872  -0.792  1.00  0.00    -0.081 Cl
HETATM   30  C21 UNL     1      -2.910   4.818   0.875  1.00  0.00     0.104 A 
HETATM   31  C22 UNL     1      -3.710   3.806   1.382  1.00  0.00     0.046 A 
HETATM   32 BR1  UNL     1      -4.843   4.186   2.866  1.00  0.00    -0.048 Br
HETATM   33  C23 UNL     1      -3.662   2.541   0.798  1.00  0.00     0.029 A 
BRANCH  30  34
HETATM   34  O1  UNL     1      -2.952   6.095   1.459  1.00  0.00    -0.358 OA
ATOM     35  H1  UNL     1      -3.520   6.281   2.197  1.00  0.00     0.217 HD
ENDBRANCH  30  34
ENDBRANCH   7  26
BRANCH   5  36
HETATM   36  C11 UNL     1      -3.807  -2.501  -0.082  1.00  0.00     0.041 C 
BRANCH  36  37
HETATM   37  C12 UNL     1      -5.249  -2.816  -0.017  1.00  0.00    -0.050 C 
HETATM   38  C13 UNL     1      -5.369  -4.125   0.795  1.00  0.00     0.014 C 
HETATM   39  C14 UNL     1      -5.849  -3.146  -1.370  1.00  0.00     0.014 C 
HETATM   40  C15 UNL     1      -6.107  -1.793   0.673  1.00  0.00     0.014 C 
ENDBRANCH  36  37
ENDBRANCH   5  36
TORSDOF 12
