REMARK  8 active torsions:
REMARK  status: ('A' for Active; 'I' for Inactive)
REMARK    1  A    between atoms: N2_7  and  C4_8 
REMARK    2  A    between atoms: C8_12  and  N3_13 
REMARK    3  A    between atoms: N3_13  and  C9_15 
REMARK    4  A    between atoms: C12_19  and  O1_20 
REMARK    5  A    between atoms: O1_20  and  C13_21 
REMARK    6  A    between atoms: C13_21  and  C14_22 
REMARK    7  A    between atoms: C14_22  and  N4_23 
REMARK    8  A    between atoms: C18_27  and  O2_28 
ROOT
HETATM    1  C9  UNL     1       0.729  -0.542   0.390  1.00  0.00     0.069 A 
HETATM    2  C10 UNL     1       0.214  -0.794   1.664  1.00  0.00     0.059 A 
HETATM    3  C11 UNL     1      -1.108  -0.982   1.836  1.00  0.00     0.069 A 
HETATM    4 CL2  UNL     1      -1.720  -1.299   3.472  1.00  0.00    -0.081 Cl
HETATM    5  C12 UNL     1      -2.034  -0.940   0.783  1.00  0.00     0.093 A 
HETATM    6  C17 UNL     1      -1.504  -0.692  -0.458  1.00  0.00     0.077 A 
HETATM    7  C18 UNL     1      -0.166  -0.498  -0.656  1.00  0.00     0.095 A 
ENDROOT
BRANCH   1   8
HETATM    8  N3  UNL     1       2.109  -0.360   0.202  1.00  0.00    -0.338 N 
ATOM      9  H3  UNL     1       2.633  -1.229   0.102  1.00  0.00     0.167 HD
BRANCH   8  10
HETATM   10  C8  UNL     1       2.820   0.681   0.134  1.00  0.00     0.132 A 
HETATM   11  C2  UNL     1       2.452   2.003   0.229  1.00  0.00     0.024 A 
HETATM   12  C1  UNL     1       1.121   2.616   0.437  1.00  0.00     0.056 C 
HETATM   13  C3  UNL     1       3.637   2.725   0.082  1.00  0.00     0.128 A 
HETATM   14 CL1  UNL     1       3.747   4.467   0.120  1.00  0.00    -0.062 Cl
HETATM   15  N1  UNL     1       4.627   1.837  -0.087  1.00  0.00    -0.285 N 
HETATM   16  N2  UNL     1       4.192   0.617  -0.063  1.00  0.00    -0.266 N 
ATOM     17  H1  UNL     1       5.606   2.092  -0.219  1.00  0.00     0.188 HD
BRANCH  16  18
HETATM   18  C4  UNL     1       4.941  -0.617  -0.209  1.00  0.00     0.044 C 
HETATM   19  C5  UNL     1       6.411  -0.271  -0.241  1.00  0.00     0.039 C 
HETATM   20  C6  UNL     1       4.600  -1.337  -1.484  1.00  0.00     0.039 C 
HETATM   21  C7  UNL     1       4.707  -1.520   0.997  1.00  0.00     0.039 C 
ENDBRANCH  16  18
ENDBRANCH   8  10
ENDBRANCH   1   8
BRANCH   7  22
HETATM   22  O2  UNL     1       0.338  -0.246  -1.944  1.00  0.00    -0.358 OA
ATOM     23  H2  UNL     1      -0.279  -0.216  -2.665  1.00  0.00     0.217 HD
ENDBRANCH   7  22
BRANCH   5  24
HETATM   24  O1  UNL     1      -3.320  -1.145   1.091  1.00  0.00    -0.348 OA
BRANCH  24  25
HETATM   25  C13 UNL     1      -4.502  -1.180   0.411  1.00  0.00     0.206 C 
BRANCH  25  26
HETATM   26  C14 UNL     1      -4.935   0.085  -0.286  1.00  0.00     0.297 C 
BRANCH  26  27
HETATM   27  N4  UNL     1      -6.205  -0.208  -0.927  1.00  0.00     0.082 N 
HETATM   28  C15 UNL     1      -7.259  -0.423   0.024  1.00  0.00     0.309 C 
HETATM   29  C16 UNL     1      -6.536   0.690  -1.986  1.00  0.00     0.309 C 
ENDBRANCH  26  27
ENDBRANCH  25  26
ENDBRANCH  24  25
ENDBRANCH   5  24
TORSDOF 8
