REMARK  7 active torsions:
REMARK  status: ('A' for Active; 'I' for Inactive)
REMARK    1  A    between atoms: O1_2  and  C2_3 
REMARK    2  A    between atoms: C4_5  and  O2_6 
REMARK    3  A    between atoms: N1_16  and  C11_18 
REMARK    4  A    between atoms: C11_18  and  C12_19 
REMARK    5  A    between atoms: C12_19  and  C13_20 
REMARK    6  A    between atoms: C13_20  and  N2_21 
REMARK    7  A    between atoms: N2_21  and  O3_23 
ROOT
HETATM    1  C2  UNL     1      -3.563  -0.141  -0.693  1.00  0.00     0.081 A 
HETATM    2  C3  UNL     1      -4.666   0.470  -0.103  1.00  0.00     0.075 A 
HETATM    3  C4  UNL     1      -4.467   1.533   0.740  1.00  0.00     0.092 A 
HETATM    4  C5  UNL     1      -3.174   1.965   0.977  1.00  0.00     0.101 A 
HETATM    5 CL1  UNL     1      -2.879   3.327   2.054  1.00  0.00    -0.078 Cl
HETATM    6  C6  UNL     1      -2.068   1.383   0.410  1.00  0.00     0.103 A 
HETATM    7  C7  UNL     1      -2.268   0.298  -0.450  1.00  0.00     0.025 A 
HETATM    8  C8  UNL     1      -1.226  -0.453  -1.151  1.00  0.00     0.102 C 
HETATM    9 BR1  UNL     1      -1.846  -2.093  -1.949  1.00  0.00    -0.086 Br
HETATM   10  C9  UNL     1      -0.118  -0.862  -0.196  1.00  0.00     0.075 C 
HETATM   11  C10 UNL     1       0.682   0.249   0.306  1.00  0.00     0.008 C 
HETATM   12  N1  UNL     1       1.763  -0.067   0.895  1.00  0.00    -0.395 N 
ATOM     13  H1  UNL     1       2.339   0.693   1.255  1.00  0.00     0.159 HD
HETATM   14  C15 UNL     1       0.438   1.717   0.248  1.00  0.00     0.227 C 
HETATM   15  O4  UNL     1      -0.868   1.980   0.788  1.00  0.00    -0.343 OA
ENDROOT
BRANCH  12  16
HETATM   16  C11 UNL     1       2.237  -1.400   1.094  1.00  0.00     0.120 C 
BRANCH  16  17
HETATM   17  C12 UNL     1       3.438  -1.751   0.262  1.00  0.00     0.036 C 
BRANCH  17  18
HETATM   18  C13 UNL     1       4.620  -0.882   0.533  1.00  0.00     0.121 C 
BRANCH  18  19
HETATM   19  N2  UNL     1       4.360   0.537   0.258  1.00  0.00    -0.204 NA
HETATM   20  C14 UNL     1       5.558   1.300   0.576  1.00  0.00     0.143 C 
BRANCH  19  21
HETATM   21  O3  UNL     1       4.020   0.704  -1.046  1.00  0.00    -0.314 OA
ATOM     22  H3  UNL     1       3.852   1.622  -1.224  1.00  0.00     0.237 HD
ENDBRANCH  19  21
ENDBRANCH  18  19
ENDBRANCH  17  18
ENDBRANCH  16  17
ENDBRANCH  12  16
BRANCH   1  23
HETATM   23  O1  UNL     1      -3.795  -1.202  -1.532  1.00  0.00    -0.355 OA
HETATM   24  C1  UNL     1      -5.152  -1.610  -1.747  1.00  0.00     0.210 C 
ENDBRANCH   1  23
BRANCH   3  25
HETATM   25  O2  UNL     1      -5.534   2.187   1.362  1.00  0.00    -0.359 OA
ATOM     26  H2  UNL     1      -5.396   2.923   1.946  1.00  0.00     0.217 HD
ENDBRANCH   3  25
TORSDOF 7
