REMARK  1 active torsions:
REMARK  status: ('A' for Active; 'I' for Inactive)
REMARK    1  A    between atoms: C10_15  and  C11_16 
ROOT
HETATM    1  N1  UNL     1       2.587  -2.020  -0.657  1.00  0.00    -0.389 N 
ATOM      2  H11 UNL     1       3.434  -1.453  -0.695  1.00  0.00     0.157 HD
ATOM      3  H12 UNL     1       2.479  -3.009  -0.883  1.00  0.00     0.157 HD
HETATM    4  C1  UNL     1       1.554  -1.389  -0.278  1.00  0.00     0.074 C 
HETATM    5  N2  UNL     1       0.346  -2.198  -0.224  1.00  0.00    -0.380 N 
ATOM      6  H2  UNL     1       0.581  -3.110   0.169  1.00  0.00     0.160 HD
HETATM    7  C2  UNL     1      -1.035  -2.175  -0.520  1.00  0.00     0.121 C 
HETATM    8  C3  UNL     1      -1.909  -1.075   0.067  1.00  0.00     0.024 C 
HETATM    9  C4  UNL     1      -0.937   0.015   0.376  1.00  0.00    -0.007 C 
HETATM   10  C5  UNL     1      -1.083   1.075   1.335  1.00  0.00     0.005 C 
HETATM   11  C6  UNL     1       0.345   1.587   1.601  1.00  0.00     0.001 C 
HETATM   12  C7  UNL     1       1.427   0.533   1.409  1.00  0.00     0.012 C 
HETATM   13  C8  UNL     1       1.713   0.068   0.055  1.00  0.00     0.053 C 
HETATM   14  C9  UNL     1       0.993   0.925  -0.978  1.00  0.00     0.019 C 
HETATM   15  C10 UNL     1      -0.429   0.422  -0.910  1.00  0.00     0.019 C 
ENDROOT
BRANCH  15  16
HETATM   16  C11 UNL     1      -1.287   1.457  -1.588  1.00  0.00     0.227 C 
HETATM   17  F1  UNL     1      -1.449   2.638  -0.968  1.00  0.00    -0.255 F 
ENDBRANCH  15  16
TORSDOF 1
