REMARK  2 active torsions:
REMARK  status: ('A' for Active; 'I' for Inactive)
REMARK    1  A    between atoms: C2_2  and  N1_3 
REMARK    2  A    between atoms: C5_6  and  O1_7 
ROOT
HETATM    1  N1  UNL     1       2.714   0.388   0.487  1.00  0.00    -0.406 N 
HETATM    2  C3  UNL     1       2.589  -0.513   1.579  1.00  0.00     0.120 C 
HETATM    3  C4  UNL     1       1.122  -1.002   1.595  1.00  0.00     0.059 C 
HETATM    4  C5  UNL     1       0.805  -0.757   0.139  1.00  0.00     0.083 C 
HETATM    5  C6  UNL     1      -0.484  -1.143  -0.369  1.00  0.00     0.028 C 
HETATM    6  C7  UNL     1      -0.357  -2.697  -0.388  1.00  0.00     0.008 C 
HETATM    7  C8  UNL     1      -1.696  -3.209  -0.663  1.00  0.00     0.001 C 
HETATM    8  C9  UNL     1      -2.578  -2.231   0.029  1.00  0.00     0.007 C 
HETATM    9  C10 UNL     1      -1.768  -0.931   0.270  1.00  0.00     0.016 C 
HETATM   10  C11 UNL     1      -2.690   0.120  -0.163  1.00  0.00     0.102 C 
HETATM   11  C12 UNL     1      -4.075  -0.076   0.477  1.00  0.00     0.110 C 
HETATM   12  S1  UNL     1      -4.973   0.929  -0.806  1.00  0.00    -0.067 SA
HETATM   13  C13 UNL     1      -3.562   2.108  -0.802  1.00  0.00     0.282 C 
HETATM   14  O2  UNL     1      -3.629   3.197  -1.395  1.00  0.00    -0.260 OA
HETATM   15  N2  UNL     1      -2.518   1.495  -0.026  1.00  0.00    -0.337 N 
HETATM   16  C14 UNL     1      -1.522   2.226   0.726  1.00  0.00     0.127 C 
HETATM   17  C15 UNL     1      -0.463   2.805  -0.135  1.00  0.00     0.020 C 
HETATM   18  C16 UNL     1      -0.111   2.056  -1.376  1.00  0.00     0.004 C 
HETATM   19  C17 UNL     1       1.214   1.297  -1.263  1.00  0.00     0.028 C 
HETATM   20  C18 UNL     1       1.378   0.606  -0.002  1.00  0.00     0.113 C 
ENDROOT
BRANCH   1  21
HETATM   21  C2  UNL     1       3.796   0.316  -0.351  1.00  0.00     0.113 C 
HETATM   22  C1  UNL     1       5.052   0.745   0.434  1.00  0.00     0.026 C 
ENDBRANCH   1  21
BRANCH   4  23
HETATM   23  O1  UNL     1       1.788  -1.549  -0.543  1.00  0.00    -0.387 OA
ATOM     24  H1  UNL     1       1.589  -1.395  -1.459  1.00  0.00     0.210 HD
ENDBRANCH   4  23
TORSDOF 2
