REMARK  5 active torsions:
REMARK  status: ('A' for Active; 'I' for Inactive)
REMARK    1  A    between atoms: C4_5  and  C5_6 
REMARK    2  A    between atoms: C5_6  and  C16_25 
REMARK    3  A    between atoms: N1_7  and  N2_9 
REMARK    4  A    between atoms: N2_9  and  C6_11 
REMARK    5  A    between atoms: C8_15  and  C9_16 
ROOT
HETATM    1  C5  UNL     1       1.854  -1.173   0.631  1.00  0.00     0.085 C 
HETATM    2  N1  UNL     1       0.776  -0.618   1.054  1.00  0.00    -0.296 N 
ATOM      3  H1  UNL     1       0.854   0.393   1.167  1.00  0.00     0.187 HD
ENDROOT
BRANCH   1   4
HETATM    4  C4  UNL     1       1.943  -2.600   0.410  1.00  0.00    -0.006 A 
HETATM    5  C3  UNL     1       1.161  -3.522   1.099  1.00  0.00     0.017 A 
HETATM    6  C2  UNL     1       1.148  -4.878   0.815  1.00  0.00     0.043 A 
HETATM    7  C1  UNL     1       1.933  -5.386  -0.193  1.00  0.00     0.116 A 
HETATM    8  F1  UNL     1       1.947  -6.713  -0.501  1.00  0.00    -0.206 F 
HETATM    9  C26 UNL     1       2.720  -4.505  -0.897  1.00  0.00     0.043 A 
HETATM   10  C25 UNL     1       2.719  -3.164  -0.602  1.00  0.00     0.017 A 
ENDBRANCH   1   4
BRANCH   1  11
HETATM   11  C16 UNL     1       2.989  -0.241   0.417  1.00  0.00     0.061 A 
HETATM   12  C17 UNL     1       4.272  -0.649   0.285  1.00  0.00     0.033 A 
HETATM   13  C18 UNL     1       5.263   0.313   0.020  1.00  0.00     0.016 A 
HETATM   14  C19 UNL     1       4.969   1.653  -0.108  1.00  0.00    -0.009 A 
HETATM   15  C20 UNL     1       5.943   2.601  -0.369  1.00  0.00     0.013 A 
HETATM   16  C24 UNL     1       3.641   2.010   0.038  1.00  0.00     0.043 A 
HETATM   17  C21 UNL     1       5.634   3.934  -0.494  1.00  0.00     0.001 A 
HETATM   18  C22 UNL     1       4.309   4.288  -0.348  1.00  0.00     0.002 A 
HETATM   19  C23 UNL     1       3.330   3.366  -0.089  1.00  0.00     0.030 A 
HETATM   20  N5  UNL     1       2.697   1.097   0.289  1.00  0.00    -0.354 N 
ATOM     21  H5  UNL     1       1.729   1.403   0.389  1.00  0.00     0.166 HD
ENDBRANCH   1  11
BRANCH   2  22
HETATM   22  N2  UNL     1      -0.428  -1.100   1.376  1.00  0.00    -0.284 N 
ATOM     23  H2  UNL     1      -0.467  -1.929   1.970  1.00  0.00     0.188 HD
BRANCH  22  24
HETATM   24  C6  UNL     1      -1.551  -0.583   0.983  1.00  0.00     0.135 A 
HETATM   25  C7  UNL     1      -2.751  -1.170   1.380  1.00  0.00     0.138 A 
HETATM   26  N3  UNL     1      -3.921  -0.641   0.979  1.00  0.00    -0.361 N 
HETATM   27  C8  UNL     1      -3.973   0.469   0.182  1.00  0.00     0.058 A 
ATOM     28  H3  UNL     1      -4.792  -1.079   1.277  1.00  0.00     0.165 HD
HETATM   29  C15 UNL     1      -2.768   1.009  -0.182  1.00  0.00     0.120 A 
HETATM   30  N4  UNL     1      -1.566   0.508   0.201  1.00  0.00    -0.348 N 
ATOM     31  H4  UNL     1      -0.696   0.949  -0.098  1.00  0.00     0.167 HD
BRANCH  27  32
HETATM   32  C9  UNL     1      -5.278   0.969  -0.202  1.00  0.00    -0.008 A 
HETATM   33  C10 UNL     1      -5.443   2.072  -0.996  1.00  0.00     0.014 A 
HETATM   34  C11 UNL     1      -6.683   2.559  -1.369  1.00  0.00     0.001 A 
HETATM   35  C12 UNL     1      -7.825   1.931  -0.941  1.00  0.00     0.000 A 
HETATM   36  C13 UNL     1      -7.691   0.819  -0.142  1.00  0.00     0.001 A 
HETATM   37  C14 UNL     1      -6.448   0.345   0.222  1.00  0.00     0.014 A 
ENDBRANCH  27  32
ENDBRANCH  22  24
ENDBRANCH   2  22
TORSDOF 5
