REMARK  15 active torsions:
REMARK  status: ('A' for Active; 'I' for Inactive)
REMARK    1  A    between atoms: C2_2  and  C3_3 
REMARK    2  A    between atoms: C3_3  and  C4_4 
REMARK    3  A    between atoms: C4_4  and  O1_5 
REMARK    4  A    between atoms: O1_5  and  C5_6 
REMARK       I    between atoms: C5_6  and  N1_8 
REMARK    5  A    between atoms: N2_11  and  C8_12 
REMARK    6  A    between atoms: C8_12  and  O3_13 
REMARK    7  A    between atoms: C9_15  and  N3_16 
REMARK    8  A    between atoms: C9_15  and  C28_45 
REMARK       I    between atoms: N3_16  and  C10_18 
REMARK    9  A    between atoms: C10_18  and  C11_20 
REMARK   10  A    between atoms: N4_22  and  C13_23 
REMARK   11  A    between atoms: C13_23  and  C14_24 
REMARK       I    between atoms: N6_30  and  C19_31 
REMARK   12  A    between atoms: C19_31  and  C20_33 
REMARK   13  A    between atoms: C20_33  and  N7_34 
REMARK   14  A    between atoms: C20_33  and  C21_38 
REMARK   15  A    between atoms: C21_38  and  C22_39 
ROOT
HETATM    1  C11 UNL     1      -1.581  -0.242  -1.847  1.00  0.00     0.215 C 
HETATM    2  C12 UNL     1      -1.833  -1.591  -2.471  1.00  0.00     0.148 C 
HETATM    3  N4  UNL     1      -2.865  -2.168  -1.641  1.00  0.00    -0.211 NA
HETATM    4  N5  UNL     1      -3.378  -1.216  -0.808  1.00  0.00    -0.042 NA
HETATM    5  N6  UNL     1      -2.859   0.021  -1.215  1.00  0.00    -0.232 N 
HETATM    6  C19 UNL     1      -3.462   1.274  -1.064  1.00  0.00     0.268 C 
HETATM    7  O5  UNL     1      -2.816   2.272  -1.550  1.00  0.00    -0.270 OA
ENDROOT
BRANCH   1   8
HETATM    8  C10 UNL     1      -0.470  -0.411  -0.843  1.00  0.00     0.248 C 
HETATM    9  N3  UNL     1       0.872  -0.478  -1.252  1.00  0.00    -0.322 N 
ATOM     10  H3  UNL     1       1.093  -0.410  -2.245  1.00  0.00     0.169 HD
HETATM   11  O4  UNL     1      -0.822  -0.485   0.365  1.00  0.00    -0.271 OA
BRANCH   9  12
HETATM   12  C9  UNL     1       1.955  -0.642  -0.295  1.00  0.00     0.087 C 
HETATM   13  C8  UNL     1       2.694   0.579  -0.065  1.00  0.00     0.166 C 
BRANCH  13  14
HETATM   14  N2  UNL     1       3.808   0.993   0.616  1.00  0.00    -0.357 N 
HETATM   15  C7  UNL     1       4.707   0.173   1.364  1.00  0.00     0.145 C 
HETATM   16  C6  UNL     1       5.851   0.997   1.996  1.00  0.00     0.148 C 
HETATM   17  N1  UNL     1       6.426   1.862   1.000  1.00  0.00    -0.325 N 
HETATM   18  C5  UNL     1       7.852   1.928   0.894  1.00  0.00     0.362 C 
HETATM   19  C32 UNL     1       5.547   2.660   0.131  1.00  0.00     0.148 C 
HETATM   20  O2  UNL     1       8.278   2.724   0.009  1.00  0.00    -0.238 OA
HETATM   21  C31 UNL     1       4.136   2.443   0.627  1.00  0.00     0.145 C 
BRANCH  18  22
HETATM   22  O1  UNL     1       8.681   1.183   1.696  1.00  0.00    -0.304 OA
BRANCH  22  23
HETATM   23  C4  UNL     1      10.069   1.258   1.589  1.00  0.00     0.180 C 
BRANCH  23  24
HETATM   24  C3  UNL     1      10.547   0.821   0.232  1.00  0.00     0.026 C 
BRANCH  24  25
HETATM   25  C2  UNL     1      12.080   0.924   0.175  1.00  0.00    -0.002 C 
HETATM   26  C1  UNL     1      12.574   0.519  -1.188  1.00  0.00     0.005 C 
ENDBRANCH  24  25
ENDBRANCH  23  24
ENDBRANCH  22  23
ENDBRANCH  18  22
ENDBRANCH  13  14
BRANCH  13  27
HETATM   27  O3  UNL     1       2.115   1.623  -0.714  1.00  0.00    -0.344 OA
ATOM     28  H3  UNL     1       1.342   1.336  -1.186  1.00  0.00     0.219 HD
ENDBRANCH  13  27
BRANCH  12  29
HETATM   29  C28 UNL     1       2.638  -1.955  -0.454  1.00  0.00    -0.057 C 
HETATM   30  C29 UNL     1       3.666  -2.028  -1.544  1.00  0.00     0.045 C 
HETATM   31  C30 UNL     1       3.039  -2.647   0.777  1.00  0.00     0.045 C 
ENDBRANCH  12  29
ENDBRANCH   9  12
ENDBRANCH   1   8
BRANCH   3  32
HETATM   32  C13 UNL     1      -3.777  -2.975  -2.374  1.00  0.00     0.116 C 
BRANCH  32  33
HETATM   33  C14 UNL     1      -4.881  -3.570  -1.538  1.00  0.00     0.000 C 
HETATM   34  C15 UNL     1      -5.794  -4.431  -2.416  1.00  0.00     0.006 C 
HETATM   35  C16 UNL     1      -7.122  -4.420  -1.735  1.00  0.00     0.000 C 
HETATM   36  C17 UNL     1      -7.214  -3.119  -0.999  1.00  0.00     0.000 C 
HETATM   37  C18 UNL     1      -5.808  -2.539  -0.970  1.00  0.00     0.006 C 
ENDBRANCH  32  33
ENDBRANCH   3  32
BRANCH   6  38
HETATM   38  C20 UNL     1      -4.753   1.575  -0.414  1.00  0.00     0.276 C 
BRANCH  38  39
HETATM   39  N7  UNL     1      -5.090   2.956  -0.748  1.00  0.00    -0.066 N 
ATOM     40  H73 UNL     1      -4.354   3.618  -0.502  1.00  0.00     0.275 HD
ATOM     41  H72 UNL     1      -5.096   3.135  -1.752  1.00  0.00     0.275 HD
ATOM     42  H71 UNL     1      -5.982   3.164  -0.299  1.00  0.00     0.275 HD
ENDBRANCH  38  39
BRANCH  38  43
HETATM   43  C21 UNL     1      -4.570   1.423   1.077  1.00  0.00     0.047 C 
BRANCH  43  44
HETATM   44  C22 UNL     1      -5.799   1.712   1.882  1.00  0.00    -0.012 C 
HETATM   45  C23 UNL     1      -6.982   0.856   1.600  1.00  0.00     0.005 C 
HETATM   46  C24 UNL     1      -7.997   1.076   2.701  1.00  0.00     0.000 C 
HETATM   47  C25 UNL     1      -8.304   2.524   2.950  1.00  0.00     0.000 C 
HETATM   48  C26 UNL     1      -7.060   3.364   3.127  1.00  0.00     0.000 C 
HETATM   49  C27 UNL     1      -6.244   3.151   1.850  1.00  0.00     0.005 C 
ENDBRANCH  43  44
ENDBRANCH  38  43
ENDBRANCH   6  38
TORSDOF 15
