REMARK  12 active torsions:
REMARK  status: ('A' for Active; 'I' for Inactive)
REMARK    1  A    between atoms: C2_2  and  C3_3 
REMARK    2  A    between atoms: C3_3  and  C4_4 
REMARK    3  A    between atoms: C4_4  and  N1_5 
REMARK    4  A    between atoms: C4_4  and  C14_22 
REMARK       I    between atoms: N1_5  and  C5_7 
REMARK    5  A    between atoms: C5_7  and  C6_9 
REMARK    6  A    between atoms: C8_13  and  N3_14 
REMARK       I    between atoms: C14_22  and  N5_24 
REMARK    7  A    between atoms: C15_25  and  C16_26 
REMARK       I    between atoms: C16_26  and  N6_28 
REMARK    8  A    between atoms: N6_28  and  C17_30 
REMARK    9  A    between atoms: C17_30  and  C18_31 
REMARK       I    between atoms: N7_38  and  C24_39 
REMARK   10  A    between atoms: C24_39  and  C25_41 
REMARK   11  A    between atoms: C25_41  and  C27_43 
REMARK   12  A    between atoms: C30_46  and  C31_47 
ROOT
HETATM    1  C14 UNL     1      -0.201   0.170  -0.672  1.00  0.00     0.245 C 
HETATM    2  O2  UNL     1      -0.141   1.311  -0.081  1.00  0.00    -0.271 OA
HETATM    3  N5  UNL     1      -1.223  -0.743  -0.339  1.00  0.00    -0.314 N 
HETATM    4  C15 UNL     1      -2.238  -0.429   0.633  1.00  0.00     0.199 C 
HETATM    5  C23 UNL     1      -3.021  -1.701   0.858  1.00  0.00     0.163 C 
HETATM    6  N7  UNL     1      -2.267  -2.745   0.222  1.00  0.00    -0.328 N 
HETATM    7  C24 UNL     1      -2.352  -4.126   0.498  1.00  0.00     0.225 C 
HETATM    8  O5  UNL     1      -1.594  -4.926  -0.159  1.00  0.00    -0.273 OA
HETATM    9  C30 UNL     1      -1.394  -2.103  -0.767  1.00  0.00     0.192 C 
ENDROOT
BRANCH   1  10
HETATM   10  C4  UNL     1       0.872  -0.045  -1.662  1.00  0.00     0.177 C 
BRANCH  10  11
HETATM   11  C3  UNL     1       0.802   0.894  -2.857  1.00  0.00     0.034 C 
BRANCH  11  12
HETATM   12  C2  UNL     1      -0.319   0.746  -3.785  1.00  0.00    -0.002 C 
HETATM   13  C1  UNL     1      -0.284   1.741  -4.935  1.00  0.00     0.005 C 
ENDBRANCH  11  12
ENDBRANCH  10  11
BRANCH  10  14
HETATM   14  N1  UNL     1       2.132   0.360  -0.949  1.00  0.00    -0.342 N 
HETATM   15  C5  UNL     1       3.201  -0.522  -0.871  1.00  0.00     0.270 C 
HETATM   16  O1  UNL     1       3.094  -1.671  -1.412  1.00  0.00    -0.266 OA
ATOM     17  H1  UNL     1       2.201   1.284  -0.522  1.00  0.00     0.163 HD
BRANCH  15  18
HETATM   18  C6  UNL     1       4.452  -0.168  -0.182  1.00  0.00     0.116 A 
HETATM   19  C7  UNL     1       4.598   1.048   0.439  1.00  0.00     0.125 A 
HETATM   20  N2  UNL     1       5.754   1.341   1.056  1.00  0.00    -0.349 N 
HETATM   21  C8  UNL     1       6.800   0.494   1.102  1.00  0.00     0.118 A 
ATOM     22  H2  UNL     1       5.844   2.249   1.512  1.00  0.00     0.167 HD
HETATM   23  C13 UNL     1       6.630  -0.716   0.474  1.00  0.00     0.137 A 
HETATM   24  N4  UNL     1       5.491  -1.047  -0.153  1.00  0.00    -0.357 N 
ATOM     25  H4  UNL     1       5.404  -1.956  -0.607  1.00  0.00     0.165 HD
BRANCH  21  26
HETATM   26  N3  UNL     1       8.007   0.834   1.762  1.00  0.00    -0.366 N 
HETATM   27  C9  UNL     1       8.256   2.073   2.477  1.00  0.00     0.124 C 
HETATM   28  C10 UNL     1       9.743   2.324   2.356  1.00  0.00     0.021 C 
HETATM   29  C11 UNL     1      10.262   1.145   1.577  1.00  0.00     0.021 C 
HETATM   30  C12 UNL     1       9.217   0.078   1.878  1.00  0.00     0.124 C 
ENDBRANCH  21  26
ENDBRANCH  15  18
ENDBRANCH  10  14
ENDBRANCH   1  10
BRANCH   4  31
HETATM   31  C16 UNL     1      -3.135   0.677   0.377  1.00  0.00     0.242 C 
HETATM   32  O3  UNL     1      -3.980   0.935   1.324  1.00  0.00    -0.271 OA
HETATM   33  N6  UNL     1      -3.234   1.519  -0.743  1.00  0.00    -0.359 N 
ATOM     34  H6  UNL     1      -2.601   1.365  -1.528  1.00  0.00     0.162 HD
BRANCH  33  35
HETATM   35  C17 UNL     1      -4.180   2.577  -0.828  1.00  0.00     0.127 C 
BRANCH  35  36
HETATM   36  C18 UNL     1      -4.073   3.659   0.188  1.00  0.00     0.007 C 
HETATM   37  C19 UNL     1      -2.707   4.306   0.063  1.00  0.00     0.032 C 
HETATM   38  C20 UNL     1      -2.908   5.815   0.058  1.00  0.00     0.168 C 
HETATM   39  O4  UNL     1      -3.532   6.101  -1.152  1.00  0.00    -0.391 OA
HETATM   40  C21 UNL     1      -4.850   5.722  -1.060  1.00  0.00     0.168 C 
HETATM   41  C22 UNL     1      -5.179   4.663  -0.078  1.00  0.00     0.032 C 
ENDBRANCH  35  36
ENDBRANCH  33  35
ENDBRANCH   4  31
BRANCH   9  42
HETATM   42  C31 UNL     1      -1.848  -2.361  -2.152  1.00  0.00     0.043 C 
HETATM   43  C32 UNL     1      -3.164  -1.794  -2.552  1.00  0.00     0.009 C 
ENDBRANCH   9  42
BRANCH   7  44
HETATM   44  C25 UNL     1      -3.256  -4.716   1.493  1.00  0.00     0.078 C 
HETATM   45  C26 UNL     1      -4.683  -4.381   1.042  1.00  0.00     0.020 C 
BRANCH  44  46
HETATM   46  C27 UNL     1      -3.051  -6.210   1.537  1.00  0.00    -0.002 A 
HETATM   47  C28 UNL     1      -3.851  -7.045   2.469  1.00  0.00     0.006 A 
HETATM   48  C29 UNL     1      -2.371  -6.817   2.734  1.00  0.00     0.006 A 
ENDBRANCH  44  46
ENDBRANCH   7  44
TORSDOF 12
