REMARK  2 active torsions:
REMARK  status: ('A' for Active; 'I' for Inactive)
REMARK    1  A    between atoms: C2_2  and  N1_3 
REMARK       I    between atoms: N1_3  and  C3_5 
REMARK    2  A    between atoms: C3_5  and  C4_7 
ROOT
HETATM    1  C4  UNL     1       1.012   1.025  -1.112  1.00  0.00     0.086 A 
HETATM    2  C5  UNL     1       1.231   2.231  -1.805  1.00  0.00     0.069 A 
HETATM    3 CL1  UNL     1       2.737   2.781  -2.530  1.00  0.00    -0.082 Cl
HETATM    4  C6  UNL     1       0.020   2.866  -1.820  1.00  0.00     0.141 A 
HETATM    5  N2  UNL     1      -0.899   2.091  -1.169  1.00  0.00    -0.263 N 
HETATM    6  N3  UNL     1      -2.174   2.300  -0.934  1.00  0.00    -0.298 N 
ATOM      7  H3  UNL     1      -2.562   3.172  -1.294  1.00  0.00     0.187 HD
HETATM    8  C7  UNL     1      -3.026   1.498  -0.275  1.00  0.00     0.038 A 
HETATM    9  C8  UNL     1      -4.450   1.852  -0.077  1.00  0.00     0.071 C 
HETATM   10  C9  UNL     1      -2.431   0.336   0.184  1.00  0.00     0.055 A 
HETATM   11  C10 UNL     1      -3.145  -0.595   0.888  1.00  0.00     0.116 A 
HETATM   12  S1  UNL     1      -4.712  -0.298   1.155  1.00  0.00    -0.059 SA
HETATM   13  N4  UNL     1      -2.583  -1.753   1.366  1.00  0.00    -0.336 N 
ATOM     14  H4  UNL     1      -3.147  -2.424   1.887  1.00  0.00     0.168 HD
HETATM   15  C11 UNL     1      -1.285  -1.990   1.140  1.00  0.00     0.078 A 
HETATM   16  C12 UNL     1      -0.659  -3.247   1.655  1.00  0.00     0.089 C 
HETATM   17  N5  UNL     1      -0.604  -1.077   0.454  1.00  0.00    -0.343 N 
ATOM     18  H5  UNL     1       0.384  -1.270   0.289  1.00  0.00     0.167 HD
HETATM   19  C13 UNL     1      -1.084   0.067  -0.040  1.00  0.00     0.079 A 
HETATM   20  C14 UNL     1      -0.306   0.966  -0.732  1.00  0.00     0.101 A 
ENDROOT
BRANCH   1  21
HETATM   21  C3  UNL     1       2.040   0.053  -0.816  1.00  0.00     0.255 C 
HETATM   22  N1  UNL     1       3.359   0.499  -0.534  1.00  0.00    -0.357 N 
ATOM     23  H1  UNL     1       3.559   1.499  -0.541  1.00  0.00     0.162 HD
HETATM   24  O1  UNL     1       1.770  -1.166  -0.803  1.00  0.00    -0.268 OA
BRANCH  22  25
HETATM   25  C2  UNL     1       4.435  -0.442  -0.235  1.00  0.00     0.118 C 
HETATM   26  C1  UNL     1       4.154  -1.278   0.969  1.00  0.00     0.026 C 
ENDBRANCH  22  25
ENDBRANCH   1  21
TORSDOF 2
