REMARK  14 active torsions:
REMARK  status: ('A' for Active; 'I' for Inactive)
REMARK    1  A    between atoms: O1_2  and  C2_3 
REMARK    2  A    between atoms: C11_14  and  O4_15 
REMARK    3  A    between atoms: O4_15  and  C12_16 
REMARK    4  A    between atoms: C12_16  and  C13_17 
REMARK    5  A    between atoms: C13_17  and  C14_18 
REMARK    6  A    between atoms: C15_22  and  O5_23 
REMARK    7  A    between atoms: C17_25  and  O6_26 
REMARK    8  A    between atoms: O6_26  and  C18_27 
REMARK    9  A    between atoms: C19_29  and  C20_30 
REMARK   10  A    between atoms: C20_30  and  O8_31 
REMARK   11  A    between atoms: C21_33  and  O9_34 
REMARK   12  A    between atoms: C22_36  and  O10_37 
REMARK   13  A    between atoms: C23_39  and  O11_40 
REMARK   14  A    between atoms: C25_43  and  O12_44 
ROOT
HETATM    1  C2  UNL     1      -3.430   0.404   2.228  1.00  0.00     0.158 C 
HETATM    2  C3  UNL     1      -4.023   1.522   1.392  1.00  0.00     0.042 C 
HETATM    3  C4  UNL     1      -3.068   2.633   1.128  1.00  0.00     0.015 C 
HETATM    4  C5  UNL     1      -4.615   0.900   0.146  1.00  0.00     0.128 C 
HETATM    5  C6  UNL     1      -3.754   0.911  -1.054  1.00  0.00     0.037 C 
HETATM    6  C7  UNL     1      -3.100  -0.313  -1.537  1.00  0.00     0.002 C 
HETATM    7  C8  UNL     1      -3.850  -1.466  -0.968  1.00  0.00     0.040 C 
HETATM    8  C9  UNL     1      -4.063  -1.266   0.491  1.00  0.00     0.154 C 
HETATM    9  O2  UNL     1      -5.105  -0.327   0.574  1.00  0.00    -0.377 OA
HETATM   10  C10 UNL     1      -2.944  -0.746   1.300  1.00  0.00     0.183 C 
HETATM   11  O3  UNL     1      -1.840  -0.296   0.764  1.00  0.00    -0.342 OA
HETATM   12  C11 UNL     1      -1.059  -0.926  -0.148  1.00  0.00     0.200 C 
HETATM   13  C15 UNL     1       0.354  -0.523   0.148  1.00  0.00     0.212 C 
HETATM   14  C17 UNL     1       1.026   0.439  -0.769  1.00  0.00     0.161 C 
HETATM   15  C24 UNL     1       0.637   0.070  -2.187  1.00  0.00     0.067 C 
HETATM   16  C25 UNL     1      -0.835   0.554  -2.218  1.00  0.00     0.130 C 
HETATM   17  C26 UNL     1      -1.617  -0.447  -1.486  1.00  0.00     0.084 C 
ENDROOT
BRANCH  14  18
HETATM   18  O6  UNL     1       2.389   0.436  -0.735  1.00  0.00    -0.350 OA
BRANCH  18  19
HETATM   19  C18 UNL     1       3.022   1.600  -0.430  1.00  0.00     0.292 C 
HETATM   20  O7  UNL     1       3.718   1.549   0.736  1.00  0.00    -0.348 OA
HETATM   21  C19 UNL     1       4.909   0.889   0.658  1.00  0.00     0.179 C 
HETATM   22  C21 UNL     1       5.854   1.618  -0.234  1.00  0.00     0.180 C 
HETATM   23  C22 UNL     1       5.124   2.742  -0.923  1.00  0.00     0.183 C 
HETATM   24  C23 UNL     1       3.800   2.252  -1.513  1.00  0.00     0.204 C 
BRANCH  21  25
HETATM   25  C20 UNL     1       4.835  -0.575   0.302  1.00  0.00     0.198 C 
BRANCH  25  26
HETATM   26  O8  UNL     1       6.169  -1.064   0.303  1.00  0.00    -0.398 OA
ATOM     27  H8  UNL     1       6.122  -1.986   0.079  1.00  0.00     0.209 HD
ENDBRANCH  25  26
ENDBRANCH  21  25
BRANCH  22  28
HETATM   28  O9  UNL     1       6.439   0.766  -1.166  1.00  0.00    -0.390 OA
ATOM     29  H9  UNL     1       7.042   1.231  -1.735  1.00  0.00     0.210 HD
ENDBRANCH  22  28
BRANCH  23  30
HETATM   30  O10 UNL     1       4.888   3.830  -0.108  1.00  0.00    -0.390 OA
ATOM     31  H10 UNL     1       4.428   4.539  -0.542  1.00  0.00     0.210 HD
ENDBRANCH  23  30
BRANCH  24  32
HETATM   32  O11 UNL     1       4.125   1.430  -2.585  1.00  0.00    -0.388 OA
ATOM     33  H11 UNL     1       4.623   1.847  -3.278  1.00  0.00     0.210 HD
ENDBRANCH  24  32
ENDBRANCH  18  19
ENDBRANCH  14  18
BRANCH  13  34
HETATM   34  O5  UNL     1       0.356   0.126   1.404  1.00  0.00    -0.383 OA
HETATM   35  C16 UNL     1       1.135  -0.432   2.366  1.00  0.00     0.202 C 
ENDBRANCH  13  34
BRANCH  12  36
HETATM   36  O4  UNL     1      -1.088  -2.260  -0.189  1.00  0.00    -0.352 OA
BRANCH  36  37
HETATM   37  C12 UNL     1      -0.818  -3.197   0.642  1.00  0.00     0.176 C 
BRANCH  37  38
HETATM   38  C13 UNL     1      -1.083  -4.540  -0.099  1.00  0.00     0.070 C 
BRANCH  38  39
HETATM   39  C14 UNL     1      -0.191  -4.591  -1.293  1.00  0.00     0.054 C 
HETATM   40  N1  UNL     1       0.097  -5.671  -1.890  1.00  0.00    -0.411 N 
ATOM     41  H12 UNL     1      -0.307  -6.534  -1.525  1.00  0.00     0.155 HD
ATOM     42  H11 UNL     1       0.707  -5.706  -2.707  1.00  0.00     0.155 HD
ENDBRANCH  38  39
ENDBRANCH  37  38
ENDBRANCH  36  37
ENDBRANCH  12  36
BRANCH  16  43
HETATM   43  O12 UNL     1      -0.799   1.825  -1.786  1.00  0.00    -0.395 OA
ATOM     44  H12 UNL     1      -1.701   2.122  -1.805  1.00  0.00     0.210 HD
ENDBRANCH  16  43
BRANCH   1  45
HETATM   45  O1  UNL     1      -4.307  -0.080   3.175  1.00  0.00    -0.388 OA
HETATM   46  C1  UNL     1      -3.849   0.134   4.480  1.00  0.00     0.202 C 
ENDBRANCH   1  45
TORSDOF 14
