REMARK  10 active torsions:
REMARK  status: ('A' for Active; 'I' for Inactive)
REMARK    1  A    between atoms: C2_2  and  N1_3 
REMARK    2  A    between atoms: N1_3  and  C3_4 
REMARK    3  A    between atoms: N1_3  and  C5_6 
REMARK    4  A    between atoms: C5_6  and  C6_7 
REMARK    5  A    between atoms: C6_7  and  C7_8 
REMARK    6  A    between atoms: C9_12  and  C10_13 
REMARK    7  A    between atoms: N2_14  and  C11_16 
REMARK    8  A    between atoms: C14_20  and  O3_21 
REMARK    9  A    between atoms: C18_27  and  C19_28 
REMARK   10  A    between atoms: C19_28  and  O4_29 
ROOT
HETATM    1  C7  UNL     1      -0.970  -0.618  -0.169  1.00  0.00     0.139 C 
HETATM    2  O1  UNL     1      -0.247   0.293   0.666  1.00  0.00    -0.315 OA
HETATM    3  C8  UNL     1       1.069   0.609   0.401  1.00  0.00     0.268 C 
HETATM    4  O2  UNL     1       1.467   1.787   0.445  1.00  0.00    -0.264 OA
HETATM    5  C9  UNL     1       2.008  -0.476   0.060  1.00  0.00     0.124 C 
HETATM    6  C17 UNL     1       1.285  -1.515  -0.774  1.00  0.00     0.029 C 
HETATM    7  C18 UNL     1      -0.059  -1.070  -1.262  1.00  0.00     0.040 C 
ENDROOT
BRANCH   5   8
HETATM    8  C10 UNL     1       2.383  -1.141   1.334  1.00  0.00     0.076 C 
HETATM    9  N2  UNL     1       3.576  -1.136   1.747  1.00  0.00    -0.369 N 
ATOM     10  H2  UNL     1       3.742  -1.617   2.631  1.00  0.00     0.165 HD
BRANCH   9  11
HETATM   11  C11 UNL     1       4.709  -0.552   1.144  1.00  0.00     0.034 A 
HETATM   12  C12 UNL     1       5.700  -1.343   0.561  1.00  0.00     0.051 A 
HETATM   13  C13 UNL     1       6.824  -0.806  -0.037  1.00  0.00     0.047 A 
HETATM   14 BR1  UNL     1       8.159  -1.928  -0.829  1.00  0.00    -0.048 Br
HETATM   15  C14 UNL     1       7.006   0.563  -0.074  1.00  0.00     0.100 A 
HETATM   16  C15 UNL     1       6.031   1.348   0.501  1.00  0.00     0.047 A 
HETATM   17 BR2  UNL     1       6.282   3.253   0.450  1.00  0.00    -0.048 Br
HETATM   18  C16 UNL     1       4.902   0.812   1.100  1.00  0.00     0.051 A 
BRANCH  15  19
HETATM   19  O3  UNL     1       8.129   1.146  -0.667  1.00  0.00    -0.358 OA
ATOM     20  H3  UNL     1       8.254   2.087  -0.692  1.00  0.00     0.217 HD
ENDBRANCH  15  19
ENDBRANCH   9  11
ENDBRANCH   5   8
BRANCH   7  21
HETATM   21  C19 UNL     1      -0.707  -2.317  -1.883  1.00  0.00     0.171 C 
BRANCH  21  22
HETATM   22  O4  UNL     1       0.171  -2.722  -2.913  1.00  0.00    -0.400 OA
ATOM     23  H4  UNL     1      -0.230  -3.493  -3.297  1.00  0.00     0.209 HD
ENDBRANCH  21  22
ENDBRANCH   7  21
BRANCH   1  24
HETATM   24  C6  UNL     1      -2.207   0.112  -0.711  1.00  0.00     0.063 C 
BRANCH  24  25
HETATM   25  C5  UNL     1      -2.995   0.505   0.516  1.00  0.00     0.275 C 
BRANCH  25  26
HETATM   26  N1  UNL     1      -4.200   1.214   0.267  1.00  0.00     0.087 N 
BRANCH  26  27
HETATM   27  C2  UNL     1      -3.990   2.547  -0.258  1.00  0.00     0.268 C 
HETATM   28  C1  UNL     1      -5.195   3.402   0.061  1.00  0.00     0.037 C 
ENDBRANCH  26  27
BRANCH  26  29
HETATM   29  C3  UNL     1      -5.229   0.497  -0.408  1.00  0.00     0.268 C 
HETATM   30  C4  UNL     1      -5.401  -0.877   0.180  1.00  0.00     0.037 C 
ENDBRANCH  26  29
ENDBRANCH  25  26
ENDBRANCH  24  25
ENDBRANCH   1  24
TORSDOF 10
