REMARK  12 active torsions:
REMARK  status: ('A' for Active; 'I' for Inactive)
REMARK    1  A    between atoms: N1_2  and  N2_3 
REMARK    2  A    between atoms: N1_2  and  C2_6 
REMARK    3  A    between atoms: N5_14  and  C6_15 
REMARK    4  A    between atoms: C7_17  and  C8_18 
REMARK    5  A    between atoms: C8_18  and  O2_19 
REMARK    6  A    between atoms: C8_18  and  C9_21 
REMARK    7  A    between atoms: C9_21  and  N6_22 
REMARK    8  A    between atoms: C9_21  and  C11_27 
REMARK       I    between atoms: N6_22  and  C10_24 
REMARK    9  A    between atoms: C11_27  and  N8_28 
REMARK   10  A    between atoms: C11_27  and  O4_32 
REMARK   11  A    between atoms: C12_34  and  O5_35 
REMARK   12  A    between atoms: C13_37  and  O6_38 
ROOT
HETATM    1  C6  UNL     1       0.436   0.167  -0.435  1.00  0.00     0.262 C 
HETATM    2  O1  UNL     1      -0.877  -0.013  -0.077  1.00  0.00    -0.353 OA
HETATM    3  C7  UNL     1      -1.683   0.312  -1.138  1.00  0.00     0.186 C 
HETATM    4  C12 UNL     1      -0.879   0.184  -2.399  1.00  0.00     0.182 C 
HETATM    5  C13 UNL     1       0.534   0.029  -1.934  1.00  0.00     0.198 C 
ENDROOT
BRANCH   1   6
HETATM    6  N5  UNL     1       1.289  -0.827   0.209  1.00  0.00    -0.297 N 
HETATM    7  C3  UNL     1       2.621  -0.743   0.381  1.00  0.00     0.159 A 
HETATM    8  N3  UNL     1       3.506   0.186   0.051  1.00  0.00    -0.172 N 
HETATM    9  C4  UNL     1       3.096  -1.868   1.031  1.00  0.00     0.147 A 
HETATM   10  C2  UNL     1       4.818   0.071   0.321  1.00  0.00     0.702 A 
ATOM     11  H3  UNL     1       3.178   1.024  -0.428  1.00  0.00     0.186 HD
HETATM   12  N9  UNL     1       5.267  -1.041   0.960  1.00  0.00    -0.152 N 
HETATM   13  C14 UNL     1       4.433  -2.024   1.326  1.00  0.00     0.290 A 
ATOM     14  H9  UNL     1       6.262  -1.130   1.166  1.00  0.00     0.187 HD
HETATM   15  O7  UNL     1       4.914  -3.021   1.911  1.00  0.00    -0.265 OA
HETATM   16  N4  UNL     1       2.022  -2.646   1.253  1.00  0.00    -0.345 N 
HETATM   17  C5  UNL     1       0.927  -2.005   0.750  1.00  0.00     0.188 A 
ATOM     18  H4  UNL     1       2.025  -3.555   1.716  1.00  0.00     0.167 HD
BRANCH  10  19
HETATM   19  N1  UNL     1       5.688   1.113  -0.069  1.00  0.00    -0.135 N 
HETATM   20  C1  UNL     1       5.183   2.272  -0.741  1.00  0.00     0.197 C 
BRANCH  19  21
HETATM   21  N2  UNL     1       7.041   0.996   0.209  1.00  0.00    -0.329 N 
ATOM     22  H22 UNL     1       7.669   1.749  -0.073  1.00  0.00     0.177 HD
ATOM     23  H21 UNL     1       7.401   0.170   0.688  1.00  0.00     0.177 HD
ENDBRANCH  19  21
ENDBRANCH  10  19
ENDBRANCH   1   6
BRANCH   5  24
HETATM   24  O6  UNL     1       1.038  -1.240  -2.207  1.00  0.00    -0.388 OA
ATOM     25  H6  UNL     1       1.100  -1.327  -3.151  1.00  0.00     0.210 HD
ENDBRANCH   5  24
BRANCH   3  26
HETATM   26  C8  UNL     1      -2.861  -0.659  -1.126  1.00  0.00     0.176 C 
BRANCH  26  27
HETATM   27  O2  UNL     1      -2.431  -1.959  -1.248  1.00  0.00    -0.391 OA
ATOM     28  H2  UNL     1      -3.164  -2.563  -1.241  1.00  0.00     0.210 HD
ENDBRANCH  26  27
BRANCH  26  29
HETATM   29  C9  UNL     1      -3.648  -0.404   0.138  1.00  0.00     0.173 C 
BRANCH  29  30
HETATM   30  N6  UNL     1      -4.045   0.987   0.155  1.00  0.00    -0.334 N 
HETATM   31  C10 UNL     1      -3.694   1.881   1.181  1.00  0.00     0.329 C 
HETATM   32  N7  UNL     1      -4.063   3.237   1.227  1.00  0.00    -0.040 NA
HETATM   33  O3  UNL     1      -2.988   1.448   2.152  1.00  0.00    -0.251 OA
ATOM     34  H6  UNL     1      -4.610   1.338  -0.619  1.00  0.00     0.164 HD
ENDBRANCH  29  30
BRANCH  29  35
HETATM   35  C11 UNL     1      -4.916  -1.227   0.184  1.00  0.00     0.341 C 
BRANCH  35  36
HETATM   36  N8  UNL     1      -5.691  -0.887   1.354  1.00  0.00    -0.051 N 
ATOM     37  H83 UNL     1      -5.146  -0.979   2.211  1.00  0.00     0.277 HD
ATOM     38  H82 UNL     1      -5.884   0.113   1.405  1.00  0.00     0.277 HD
ATOM     39  H81 UNL     1      -6.546  -1.442   1.385  1.00  0.00     0.277 HD
ENDBRANCH  35  36
BRANCH  35  40
HETATM   40  O4  UNL     1      -4.649  -2.603   0.172  1.00  0.00    -0.368 OA
ATOM     41  H4  UNL     1      -5.445  -3.120   0.201  1.00  0.00     0.212 HD
ENDBRANCH  35  40
ENDBRANCH  29  35
ENDBRANCH  26  29
ENDBRANCH   3  26
BRANCH   4  42
HETATM   42  O5  UNL     1      -0.989   1.270  -3.238  1.00  0.00    -0.390 OA
ATOM     43  H5  UNL     1      -0.480   1.189  -4.036  1.00  0.00     0.210 HD
ENDBRANCH   4  42
TORSDOF 12
