REMARK  4 active torsions:
REMARK  status: ('A' for Active; 'I' for Inactive)
REMARK    1  A    between atoms: C7_8  and  N1_9 
REMARK       I    between atoms: N1_9  and  C8_11 
REMARK    2  A    between atoms: C8_11  and  C9_13 
REMARK    3  A    between atoms: C13_21  and  C14_22 
REMARK    4  A    between atoms: C14_22  and  N3_23 
ROOT
HETATM    1  C1  UNL     1      -4.986  -0.541   0.570  1.00  0.00     0.046 C 
HETATM    2  C2  UNL     1      -4.407   0.753  -0.008  1.00  0.00     0.058 C 
HETATM    3  C3  UNL     1      -5.505   1.302  -0.932  1.00  0.00     0.046 C 
HETATM    4  C4  UNL     1      -3.271   0.431  -0.862  1.00  0.00     0.078 C 
HETATM    5  C5  UNL     1      -2.002   0.293   0.006  1.00  0.00    -0.018 A 
HETATM    6  C6  UNL     1      -1.966   0.911   1.223  1.00  0.00     0.016 A 
HETATM    7  S1  UNL     1      -0.385   0.644   1.774  1.00  0.00    -0.073 SA
HETATM    8  C7  UNL     1       0.213  -0.261   0.454  1.00  0.00     0.097 A 
HETATM    9  C13 UNL     1      -0.872  -0.323  -0.394  1.00  0.00     0.068 A 
HETATM   10  C15 UNL     1      -3.190   1.562   1.831  1.00  0.00     0.215 C 
HETATM   11  O2  UNL     1      -4.185   1.729   0.935  1.00  0.00    -0.376 OA
ENDROOT
BRANCH   8  12
HETATM   12  N1  UNL     1       1.531  -0.741   0.204  1.00  0.00    -0.318 N 
HETATM   13  C8  UNL     1       2.659  -0.204   0.836  1.00  0.00     0.253 C 
HETATM   14  O1  UNL     1       2.492   0.787   1.602  1.00  0.00    -0.271 OA
ATOM     15  H1  UNL     1       1.658  -1.505  -0.460  1.00  0.00     0.169 HD
BRANCH  13  16
HETATM   16  C9  UNL     1       3.953  -0.780   0.604  1.00  0.00     0.280 C 
HETATM   17  C10 UNL     1       5.110   0.019   1.291  1.00  0.00     0.081 C 
HETATM   18  C11 UNL     1       6.311  -0.411   0.476  1.00  0.00     0.198 C 
HETATM   19  F1  UNL     1       6.940   0.720  -0.037  1.00  0.00    -0.248 F 
HETATM   20  C12 UNL     1       5.749  -1.130  -0.761  1.00  0.00     0.270 C 
HETATM   21  N2  UNL     1       4.411  -0.488  -0.783  1.00  0.00    -0.060 N 
ATOM     22  H22 UNL     1       3.786  -0.793  -1.529  1.00  0.00     0.278 HD
ATOM     23  H21 UNL     1       4.396   0.494  -1.057  1.00  0.00     0.278 HD
ENDBRANCH  13  16
ENDBRANCH   8  12
BRANCH   9  24
HETATM   24  C14 UNL     1      -0.718  -1.062  -1.673  1.00  0.00    -0.034 C 
BRANCH  24  25
HETATM   25  N3  UNL     1      -0.577  -1.665  -2.702  1.00  0.00    -0.365 N 
ATOM     26  H32 UNL     1      -0.105  -1.444  -1.825  1.00  0.00     0.165 HD
ATOM     27  H31 UNL     1      -0.471  -2.173  -3.580  1.00  0.00     0.165 HD
ENDBRANCH  24  25
ENDBRANCH   9  24
TORSDOF 4
