REMARK  4 active torsions:
REMARK  status: ('A' for Active; 'I' for Inactive)
REMARK    1  A    between atoms: C4_4  and  C5_5 
REMARK    2  A    between atoms: C5_5  and  S1_10 
REMARK    3  A    between atoms: S1_10  and  C8_11 
REMARK    4  A    between atoms: C11_14  and  N3_15 
ROOT
HETATM    1  C5  UNL     1      -0.269   0.154  -0.571  1.00  0.00     0.213 C 
HETATM    2  C6  UNL     1       0.237  -0.442  -1.794  1.00  0.00     0.101 C 
HETATM    3  N1  UNL     1       0.632  -0.908  -2.780  1.00  0.00    -0.194 NA
HETATM    4  C7  UNL     1      -0.028   1.586  -0.554  1.00  0.00     0.101 C 
HETATM    5  N2  UNL     1       0.164   2.717  -0.539  1.00  0.00    -0.194 NA
ENDROOT
BRANCH   1   6
HETATM    6  C4  UNL     1      -1.706  -0.169  -0.416  1.00  0.00    -0.033 C 
HETATM    7  C3  UNL     1      -2.620   0.778  -0.357  1.00  0.00     0.012 C 
HETATM    8  C2  UNL     1      -4.034   0.336  -0.201  1.00  0.00     0.205 C 
HETATM    9  C1  UNL     1      -4.970   1.468   0.066  1.00  0.00     0.044 C 
HETATM   10  N4  UNL     1      -3.998  -0.613   0.921  1.00  0.00    -0.068 N 
HETATM   11  C15 UNL     1      -3.414  -1.825   0.389  1.00  0.00     0.237 C 
ATOM     12  H42 UNL     1      -3.516  -0.254   1.745  1.00  0.00     0.277 HD
ATOM     13  H41 UNL     1      -4.905  -0.757   1.364  1.00  0.00     0.277 HD
HETATM   14  C14 UNL     1      -2.130  -1.582  -0.331  1.00  0.00     0.065 C 
ENDBRANCH   1   6
BRANCH   1  15
HETATM   15  S1  UNL     1       0.659  -0.607   0.814  1.00  0.00    -0.085 SA
BRANCH  15  16
HETATM   16  C8  UNL     1       2.385  -0.261   0.692  1.00  0.00     0.003 A 
HETATM   17  C9  UNL     1       3.205  -1.128  -0.010  1.00  0.00     0.021 A 
HETATM   18  C10 UNL     1       4.541  -0.881  -0.118  1.00  0.00     0.037 A 
HETATM   19  C11 UNL     1       5.092   0.224   0.463  1.00  0.00     0.102 A 
HETATM   20  C12 UNL     1       4.286   1.092   1.162  1.00  0.00     0.037 A 
HETATM   21  C13 UNL     1       2.919   0.864   1.288  1.00  0.00     0.021 A 
BRANCH  19  22
HETATM   22  N3  UNL     1       6.506   0.466   0.336  1.00  0.00    -0.116 N 
HETATM   23  O1  UNL     1       7.213  -0.331  -0.300  1.00  0.00    -0.532 OA
HETATM   24  O2  UNL     1       7.071   1.570   0.913  1.00  0.00    -0.532 OA
ENDBRANCH  19  22
ENDBRANCH  15  16
ENDBRANCH   1  15
TORSDOF 4
