REMARK  16 active torsions:
REMARK  status: ('A' for Active; 'I' for Inactive)
REMARK    1  A    between atoms: C2_2  and  C3_3 
REMARK    2  A    between atoms: C3_3  and  C4_4 
REMARK    3  A    between atoms: C4_4  and  C5_5 
REMARK    4  A    between atoms: C5_5  and  O1_6 
REMARK    5  A    between atoms: O1_6  and  C6_7 
REMARK    6  A    between atoms: C6_7  and  O3_9 
REMARK    7  A    between atoms: O3_9  and  C7_10 
REMARK    8  A    between atoms: C7_10  and  C8_11 
REMARK    9  A    between atoms: C10_13  and  O4_14 
REMARK   10  A    between atoms: N1_18  and  O5_20 
REMARK   11  A    between atoms: O5_20  and  C13_21 
REMARK   12  A    between atoms: C13_21  and  C14_22 
REMARK   13  A    between atoms: C14_22  and  O6_23 
REMARK   14  A    between atoms: C14_22  and  N2_25 
REMARK   15  A    between atoms: N2_25  and  C15_26 
REMARK   16  A    between atoms: C26_39  and  O7_40 
ROOT
HETATM    1  C8  UNL     1       1.269  -0.667   0.642  1.00  0.00     0.028 C 
HETATM    2  C9  UNL     1       0.682  -1.987   1.068  1.00  0.00     0.056 C 
HETATM    3  C10 UNL     1      -0.289  -1.839   2.170  1.00  0.00     0.131 C 
HETATM    4  C11 UNL     1      -1.070  -0.647   2.414  1.00  0.00     0.091 C 
HETATM    5  C12 UNL     1      -2.242  -0.363   1.568  1.00  0.00     0.041 C 
HETATM    6  N1  UNL     1      -3.354  -0.090   2.235  1.00  0.00    -0.270 N 
ATOM      7  H1  UNL     1      -3.294  -0.106   3.253  1.00  0.00     0.194 HD
HETATM    8  C21 UNL     1      -2.355  -0.364   0.124  1.00  0.00    -0.034 C 
HETATM    9  C22 UNL     1      -2.662  -1.640  -0.486  1.00  0.00     0.005 C 
HETATM   10  C23 UNL     1      -2.249  -2.975  -0.170  1.00  0.00    -0.019 C 
HETATM   11  C24 UNL     1      -1.003  -3.608   0.084  1.00  0.00     0.039 C 
HETATM   12  C25 UNL     1      -0.970  -4.783  -0.956  1.00  0.00     0.017 C 
HETATM   13  C26 UNL     1       0.367  -3.025   0.039  1.00  0.00     0.071 C 
HETATM   14  C27 UNL     1       0.950  -2.810  -1.299  1.00  0.00     0.040 C 
HETATM   15  C28 UNL     1       1.692  -1.528  -1.569  1.00  0.00     0.012 C 
HETATM   16  C29 UNL     1       1.063  -0.351  -0.795  1.00  0.00    -0.037 C 
HETATM   17  C30 UNL     1       1.858   0.856  -1.239  1.00  0.00     0.015 C 
HETATM   18  C31 UNL     1      -0.311  -0.209  -1.336  1.00  0.00     0.014 C 
HETATM   19  C32 UNL     1      -1.359   0.508  -0.627  1.00  0.00     0.041 C 
ENDROOT
BRANCH   6  20
HETATM   20  O5  UNL     1      -4.486   0.189   1.733  1.00  0.00    -0.271 OA
BRANCH  20  21
HETATM   21  C13 UNL     1      -5.518   1.021   1.518  1.00  0.00     0.301 C 
BRANCH  21  22
HETATM   22  C14 UNL     1      -6.499   0.318   0.556  1.00  0.00     0.216 C 
BRANCH  22  23
HETATM   23  O6  UNL     1      -6.269  -0.986   0.470  1.00  0.00    -0.337 OA
ATOM     24  H6  UNL     1      -6.873  -1.419  -0.122  1.00  0.00     0.220 HD
ENDBRANCH  22  23
BRANCH  22  25
HETATM   25  N2  UNL     1      -7.433   0.949  -0.110  1.00  0.00    -0.380 NA
BRANCH  25  26
HETATM   26  C15 UNL     1      -8.497   1.456  -0.889  1.00  0.00     0.148 A 
HETATM   27  C16 UNL     1      -9.421   0.843  -1.592  1.00  0.00     0.051 A 
HETATM   28  C17 UNL     1     -10.388   1.581  -2.408  1.00  0.00     0.046 A 
HETATM   29  C18 UNL     1     -10.279   2.909  -2.395  1.00  0.00     0.119 A 
HETATM   30  F1  UNL     1     -11.140   3.662  -3.157  1.00  0.00    -0.206 F 
HETATM   31  C19 UNL     1      -9.322   3.619  -1.659  1.00  0.00     0.088 A 
HETATM   32  C20 UNL     1      -8.467   2.900  -0.935  1.00  0.00     0.159 A 
HETATM   33  F2  UNL     1      -7.489   3.503  -0.179  1.00  0.00    -0.202 F 
ENDBRANCH  25  26
ENDBRANCH  22  25
ENDBRANCH  21  22
ENDBRANCH  20  21
ENDBRANCH   6  20
BRANCH   3  34
HETATM   34  O4  UNL     1       0.356  -2.092   3.430  1.00  0.00    -0.395 OA
ATOM     35  H4  UNL     1      -0.269  -1.997   4.139  1.00  0.00     0.210 HD
ENDBRANCH   3  34
BRANCH   1  36
HETATM   36  C7  UNL     1       2.791  -0.677   0.906  1.00  0.00     0.187 C 
BRANCH  36  37
HETATM   37  O3  UNL     1       3.411   0.558   0.667  1.00  0.00    -0.298 OA
BRANCH  37  38
HETATM   38  C6  UNL     1       4.753   0.647   0.805  1.00  0.00     0.406 C 
HETATM   39  O2  UNL     1       5.399  -0.400   1.126  1.00  0.00    -0.230 OA
BRANCH  38  40
HETATM   40  O1  UNL     1       5.506   1.798   0.629  1.00  0.00    -0.298 OA
BRANCH  40  41
HETATM   41  C5  UNL     1       6.946   1.797   0.777  1.00  0.00     0.181 C 
BRANCH  41  42
HETATM   42  C4  UNL     1       7.357   3.225   0.637  1.00  0.00     0.027 C 
BRANCH  42  43
HETATM   43  C3  UNL     1       8.820   3.487   0.768  1.00  0.00     0.002 C 
BRANCH  43  44
HETATM   44  C2  UNL     1       9.695   2.922  -0.280  1.00  0.00    -0.004 C 
HETATM   45  C1  UNL     1      11.153   3.284   0.021  1.00  0.00     0.005 C 
ENDBRANCH  43  44
ENDBRANCH  42  43
ENDBRANCH  41  42
ENDBRANCH  40  41
ENDBRANCH  38  40
ENDBRANCH  37  38
ENDBRANCH  36  37
ENDBRANCH   1  36
BRANCH  13  46
HETATM   46  O7  UNL     1       1.157  -4.164   0.508  1.00  0.00    -0.389 OA
ATOM     47  H7  UNL     1       0.957  -4.824  -0.146  1.00  0.00     0.210 HD
ENDBRANCH  13  46
TORSDOF 16
