REMARK  8 active torsions:
REMARK  status: ('A' for Active; 'I' for Inactive)
REMARK    1  A    between atoms: C3_3  and  O1_4 
REMARK    2  A    between atoms: O1_4  and  C4_5 
REMARK    3  A    between atoms: C5_6  and  C6_7 
REMARK    4  A    between atoms: C6_7  and  C7_8 
REMARK    5  A    between atoms: C10_13  and  C11_14 
REMARK    6  A    between atoms: C11_14  and  C12_15 
REMARK    7  A    between atoms: C15_21  and  N3_22 
REMARK    8  A    between atoms: N3_22  and  C16_24 
ROOT
HETATM    1  C1  UNL     1       1.050   5.777  -0.601  1.00  0.00     0.099 C 
HETATM    2  C2  UNL     1       1.217   4.643  -0.183  1.00  0.00    -0.161 C 
HETATM    3  C3  UNL     1       1.409   3.286   0.343  1.00  0.00     0.255 C 
ENDROOT
BRANCH   3   4
HETATM    4  O1  UNL     1       2.009   2.502  -0.665  1.00  0.00    -0.333 OA
BRANCH   4   5
HETATM    5  C4  UNL     1       2.338   1.165  -0.524  1.00  0.00     0.166 A 
HETATM    6  C5  UNL     1       1.407   0.205  -0.864  1.00  0.00     0.090 A 
HETATM    7  N2  UNL     1       1.771  -1.083  -0.710  1.00  0.00    -0.189 N 
HETATM    8  C15 UNL     1       2.974  -1.465  -0.251  1.00  0.00     0.685 A 
ATOM      9  H2  UNL     1       1.096  -1.807  -0.955  1.00  0.00     0.184 HD
HETATM   10  N4  UNL     1       3.880  -0.528   0.080  1.00  0.00    -0.153 N 
HETATM   11  C19 UNL     1       3.586   0.786  -0.048  1.00  0.00     0.295 A 
ATOM     12  H4  UNL     1       4.796  -0.810   0.430  1.00  0.00     0.187 HD
HETATM   13  O2  UNL     1       4.449   1.647   0.267  1.00  0.00    -0.264 OA
BRANCH   6  14
HETATM   14  C6  UNL     1       0.090   0.583  -1.365  1.00  0.00     0.064 C 
BRANCH  14  15
HETATM   15  C7  UNL     1      -1.007   0.454  -0.631  1.00  0.00     0.057 A 
HETATM   16  N1  UNL     1      -1.133  -0.007   0.615  1.00  0.00    -0.355 N 
HETATM   17  C8  UNL     1      -2.410   0.016   1.020  1.00  0.00     0.031 A 
ATOM     18  H1  UNL     1      -0.355  -0.336   1.187  1.00  0.00     0.166 HD
HETATM   19  C9  UNL     1      -2.868  -0.373   2.200  1.00  0.00     0.043 C 
HETATM   20  C10 UNL     1      -3.170   0.521  -0.016  1.00  0.00    -0.008 A 
HETATM   21  C14 UNL     1      -2.281   0.789  -1.036  1.00  0.00     0.069 A 
HETATM   22 CL1  UNL     1      -2.712   1.455  -2.609  1.00  0.00    -0.081 Cl
BRANCH  20  23
HETATM   23  C11 UNL     1      -4.630   0.740  -0.051  1.00  0.00     0.042 C 
BRANCH  23  24
HETATM   24  C12 UNL     1      -5.390  -0.573  -0.234  1.00  0.00     0.000 C 
HETATM   25  C13 UNL     1      -6.858  -0.223  -0.254  1.00  0.00     0.005 C 
ENDBRANCH  23  24
ENDBRANCH  20  23
ENDBRANCH  14  15
ENDBRANCH   6  14
BRANCH   8  26
HETATM   26  N3  UNL     1       3.255  -2.713  -0.130  1.00  0.00    -0.196 N 
ATOM     27  H3  UNL     1       2.531  -3.381  -0.395  1.00  0.00     0.184 HD
BRANCH  26  28
HETATM   28  C16 UNL     1       4.467  -3.235   0.334  1.00  0.00     0.013 C 
HETATM   29  C17 UNL     1       4.536  -3.815   1.502  1.00  0.00     0.038 C 
HETATM   30  C18 UNL     1       5.686  -3.137  -0.493  1.00  0.00     0.068 C 
ENDBRANCH  26  28
ENDBRANCH   8  26
ENDBRANCH   4   5
ENDBRANCH   3   4
TORSDOF 8
