REMARK  12 active torsions:
REMARK  status: ('A' for Active; 'I' for Inactive)
REMARK    1  A    between atoms: O1_2  and  C2_3 
REMARK    2  A    between atoms: C2_3  and  C3_5 
REMARK       I    between atoms: C3_5  and  N1_7 
REMARK    3  A    between atoms: N1_7  and  C4_9 
REMARK    4  A    between atoms: C4_9  and  C5_10 
REMARK    5  A    between atoms: C4_9  and  C19_33 
REMARK       I    between atoms: C5_10  and  N2_12 
REMARK    6  A    between atoms: N2_12  and  C6_14 
REMARK    7  A    between atoms: C6_14  and  C7_15 
REMARK    8  A    between atoms: C6_14  and  C16_30 
REMARK       I    between atoms: C7_15  and  N3_17 
REMARK    9  A    between atoms: N3_17  and  C8_19 
REMARK   10  A    between atoms: C8_19  and  C9_20 
REMARK   11  A    between atoms: C8_19  and  C13_25 
REMARK   12  A    between atoms: C13_25  and  O7_28 
ROOT
HETATM    1  C5  UNL     1      -1.947   0.591   0.498  1.00  0.00     0.241 C 
HETATM    2  O4  UNL     1      -1.626   1.839   0.586  1.00  0.00    -0.271 OA
HETATM    3  N2  UNL     1      -0.920  -0.321   0.746  1.00  0.00    -0.346 N 
ATOM      4  H2  UNL     1      -1.092  -1.325   0.697  1.00  0.00     0.163 HD
ENDROOT
BRANCH   3   5
HETATM    5  C6  UNL     1       0.417   0.198   1.080  1.00  0.00     0.180 C 
BRANCH   5   6
HETATM    6  C7  UNL     1       1.373  -0.287   0.086  1.00  0.00     0.241 C 
HETATM    7  O5  UNL     1       0.971  -1.169  -0.742  1.00  0.00    -0.271 OA
HETATM    8  N3  UNL     1       2.741   0.175  -0.021  1.00  0.00    -0.349 N 
ATOM      9  H3  UNL     1       3.079   0.879   0.635  1.00  0.00     0.163 HD
BRANCH   8  10
HETATM   10  C8  UNL     1       3.635  -0.330  -1.024  1.00  0.00     0.146 C 
BRANCH  10  11
HETATM   11  C9  UNL     1       4.791  -1.078  -0.478  1.00  0.00     0.147 C 
HETATM   12  C10 UNL     1       5.668  -0.343   0.475  1.00  0.00     0.036 C 
HETATM   13  C11 UNL     1       6.226  -1.451   1.335  1.00  0.00     0.029 C 
HETATM   14  C12 UNL     1       5.047  -2.406   1.338  1.00  0.00     0.168 C 
HETATM   15  O6  UNL     1       4.279  -2.166   0.234  1.00  0.00    -0.384 OA
ENDBRANCH  10  11
BRANCH  10  16
HETATM   16  C13 UNL     1       3.942   0.749  -2.031  1.00  0.00     0.073 C 
HETATM   17  C14 UNL     1       4.500   2.000  -1.435  1.00  0.00     0.047 C 
HETATM   18  C15 UNL     1       4.757   0.307  -3.189  1.00  0.00     0.047 C 
BRANCH  16  19
HETATM   19  O7  UNL     1       2.674   1.113  -2.575  1.00  0.00    -0.388 OA
ATOM     20  H7  UNL     1       2.867   1.793  -3.210  1.00  0.00     0.210 HD
ENDBRANCH  16  19
ENDBRANCH  10  16
ENDBRANCH   8  10
ENDBRANCH   5   6
BRANCH   5  21
HETATM   21  C16 UNL     1       0.684  -0.330   2.491  1.00  0.00     0.009 C 
HETATM   22  C17 UNL     1       2.006   0.085   3.030  1.00  0.00     0.012 C 
HETATM   23  C18 UNL     1       0.546  -1.836   2.539  1.00  0.00     0.012 C 
ENDBRANCH   5  21
ENDBRANCH   3   5
BRANCH   1  24
HETATM   24  C4  UNL     1      -3.352   0.325   0.157  1.00  0.00     0.181 C 
BRANCH  24  25
HETATM   25  N1  UNL     1      -4.170   1.259   0.799  1.00  0.00    -0.339 N 
HETATM   26  C3  UNL     1      -5.481   1.728   0.798  1.00  0.00     0.317 C 
HETATM   27  O3  UNL     1      -6.433   1.383   0.070  1.00  0.00    -0.262 OA
ATOM     28  H1  UNL     1      -3.627   1.764   1.500  1.00  0.00     0.163 HD
BRANCH  26  29
HETATM   29  C2  UNL     1      -5.862   2.787   1.786  1.00  0.00     0.351 C 
HETATM   30  O2  UNL     1      -5.005   3.165   2.593  1.00  0.00    -0.254 OA
BRANCH  29  31
HETATM   31  O1  UNL     1      -7.126   3.296   1.767  1.00  0.00    -0.319 OA
HETATM   32  C1  UNL     1      -7.435   4.301   2.751  1.00  0.00     0.213 C 
ENDBRANCH  29  31
ENDBRANCH  26  29
ENDBRANCH  24  25
BRANCH  24  33
HETATM   33  C19 UNL     1      -3.547   0.090  -1.336  1.00  0.00     0.018 C 
HETATM   34  C20 UNL     1      -4.841  -0.501  -1.746  1.00  0.00     0.007 C 
HETATM   35  C21 UNL     1      -4.688  -1.726  -2.664  1.00  0.00     0.000 C 
HETATM   36  C22 UNL     1      -3.623  -2.645  -2.099  1.00  0.00     0.000 C 
HETATM   37  C23 UNL     1      -2.275  -1.967  -2.130  1.00  0.00     0.000 C 
HETATM   38  C24 UNL     1      -2.370  -0.480  -2.038  1.00  0.00     0.007 C 
ENDBRANCH  24  33
ENDBRANCH   1  24
TORSDOF 12
