REMARK  8 active torsions:
REMARK  status: ('A' for Active; 'I' for Inactive)
REMARK    1  A    between atoms: C3_3  and  C4_4 
REMARK    2  A    between atoms: C5_5  and  C6_6 
REMARK    3  A    between atoms: C8_9  and  O2_10 
REMARK    4  A    between atoms: C9_12  and  C10_13 
REMARK    5  A    between atoms: C12_17  and  O5_18 
REMARK    6  A    between atoms: C14_22  and  C15_23 
REMARK    7  A    between atoms: C15_23  and  C16_25 
REMARK    8  A    between atoms: C16_25  and  O8_27 
ROOT
HETATM    1  C6  UNL     1       0.790   0.871   0.204  1.00  0.00     0.159 C 
HETATM    2  O1  UNL     1       0.036   0.486  -0.893  1.00  0.00    -0.371 OA
HETATM    3  C7  UNL     1      -1.185   0.026  -0.407  1.00  0.00     0.181 C 
HETATM    4  C8  UNL     1      -2.230   1.029  -0.822  1.00  0.00     0.164 C 
HETATM    5  C9  UNL     1      -3.616   0.665  -0.377  1.00  0.00     0.122 C 
HETATM    6  C11 UNL     1      -3.681   0.158   1.033  1.00  0.00     0.078 C 
HETATM    7  C12 UNL     1      -3.036  -1.204   1.175  1.00  0.00     0.258 C 
HETATM    8  O6  UNL     1      -1.741  -1.153   1.621  1.00  0.00    -0.353 OA
HETATM    9  C13 UNL     1      -1.060  -0.110   1.082  1.00  0.00     0.170 C 
HETATM   10  C14 UNL     1       0.467  -0.283   1.177  1.00  0.00     0.122 C 
ENDROOT
BRANCH  10  11
HETATM   11  C15 UNL     1       0.936  -1.523   0.549  1.00  0.00     0.164 C 
HETATM   12  O7  UNL     1       1.415  -1.514  -0.598  1.00  0.00    -0.295 OA
BRANCH  11  13
HETATM   13  C16 UNL     1       0.869  -2.843   1.224  1.00  0.00     0.184 C 
HETATM   14  C17 UNL     1       2.240  -3.529   1.214  1.00  0.00     0.047 C 
BRANCH  13  15
HETATM   15  O8  UNL     1       0.400  -2.795   2.509  1.00  0.00    -0.388 OA
ATOM     16  H8  UNL     1       0.357  -3.640   2.941  1.00  0.00     0.210 HD
ENDBRANCH  13  15
ENDBRANCH  11  13
ENDBRANCH  10  11
BRANCH   1  17
HETATM   17  C5  UNL     1       2.211   0.989  -0.069  1.00  0.00     0.006 C 
HETATM   18  C4  UNL     1       2.640   1.250  -1.287  1.00  0.00    -0.002 C 
BRANCH  18  19
HETATM   19  C3  UNL     1       4.060   1.368  -1.560  1.00  0.00    -0.005 C 
HETATM   20  C2  UNL     1       4.472   1.627  -2.769  1.00  0.00    -0.031 C 
HETATM   21  C1  UNL     1       5.925   1.746  -3.038  1.00  0.00     0.036 C 
ENDBRANCH  18  19
ENDBRANCH   1  17
BRANCH   4  22
HETATM   22  O2  UNL     1      -1.872   2.319  -0.442  1.00  0.00    -0.392 OA
ATOM     23  H2  UNL     1      -2.531   2.951  -0.704  1.00  0.00     0.210 HD
ENDBRANCH   4  22
BRANCH   7  24
HETATM   24  O5  UNL     1      -3.773  -1.986   2.091  1.00  0.00    -0.371 OA
ATOM     25  H5  UNL     1      -3.368  -2.841   2.180  1.00  0.00     0.212 HD
ENDBRANCH   7  24
BRANCH   5  26
HETATM   26  C10 UNL     1      -4.480   1.867  -0.487  1.00  0.00     0.179 C 
HETATM   27  O3  UNL     1      -5.071   2.365   0.503  1.00  0.00    -0.648 OA
HETATM   28  O4  UNL     1      -4.639   2.458  -1.729  1.00  0.00    -0.648 OA
ENDBRANCH   5  26
TORSDOF 8
