REMARK  7 active torsions:
REMARK  status: ('A' for Active; 'I' for Inactive)
REMARK    1  A    between atoms: O1_2  and  C2_3 
REMARK    2  A    between atoms: C2_3  and  C3_4 
REMARK    3  A    between atoms: C3_4  and  C4_5 
REMARK    4  A    between atoms: C3_4  and  C25_37 
REMARK    5  A    between atoms: N2_9  and  C6_11 
REMARK    6  A    between atoms: C6_11  and  C8_13 
REMARK    7  A    between atoms: C19_26  and  C20_27 
ROOT
HETATM    1  C4  UNL     1      -1.047   0.709   0.058  1.00  0.00     0.089 A 
HETATM    2  N1  UNL     1       0.051   0.354   0.749  1.00  0.00    -0.331 N 
ATOM      3  H1  UNL     1       0.922   0.862   0.594  1.00  0.00     0.168 HD
HETATM    4  C5  UNL     1       0.029  -0.652   1.638  1.00  0.00     0.111 A 
HETATM    5  N2  UNL     1       0.998  -1.038   2.288  1.00  0.00    -0.367 N 
ATOM      6  H2  UNL     1       0.729  -1.808   2.900  1.00  0.00     0.161 HD
HETATM    7  C17 UNL     1      -1.215  -1.318   1.810  1.00  0.00     0.010 A 
HETATM    8  C18 UNL     1      -1.149  -2.469   2.718  1.00  0.00     0.054 C 
HETATM    9  C19 UNL     1      -2.328  -0.974   1.127  1.00  0.00     0.058 A 
HETATM   10  N4  UNL     1      -2.215   0.070   0.233  1.00  0.00    -0.344 N 
ATOM     11  H4  UNL     1      -3.032   0.361  -0.304  1.00  0.00     0.167 HD
ENDROOT
BRANCH   5  12
HETATM   12  C6  UNL     1       2.349  -0.747   2.445  1.00  0.00     0.113 C 
HETATM   13  C7  UNL     1       2.634   0.069   3.710  1.00  0.00     0.037 C 
BRANCH  12  14
HETATM   14  C8  UNL     1       3.045  -0.208   1.286  1.00  0.00    -0.027 A 
HETATM   15  C9  UNL     1       3.672   1.040   1.411  1.00  0.00     0.010 A 
HETATM   16  C10 UNL     1       4.374   1.646   0.414  1.00  0.00     0.013 A 
HETATM   17  C11 UNL     1       4.479   1.005  -0.792  1.00  0.00    -0.001 A 
HETATM   18  C12 UNL     1       3.881  -0.212  -0.957  1.00  0.00     0.086 A 
HETATM   19  C16 UNL     1       5.263   1.625  -1.879  1.00  0.00     0.212 C 
HETATM   20  C13 UNL     1       3.176  -0.818   0.054  1.00  0.00    -0.020 A 
HETATM   21  O2  UNL     1       4.016  -0.812  -2.210  1.00  0.00    -0.325 OA
HETATM   22  C14 UNL     1       2.559  -2.158  -0.140  1.00  0.00     0.052 C 
HETATM   23  C15 UNL     1       4.525  -0.066  -3.309  1.00  0.00     0.345 C 
HETATM   24  O3  UNL     1       5.591   0.736  -2.903  1.00  0.00    -0.362 OA
ENDBRANCH  12  14
ENDBRANCH   5  12
BRANCH   1  25
HETATM   25  C3  UNL     1      -0.994   1.827  -0.911  1.00  0.00     0.081 C 
BRANCH  25  26
HETATM   26  C2  UNL     1      -1.298   1.387  -2.322  1.00  0.00     0.179 C 
BRANCH  26  27
HETATM   27  O1  UNL     1      -0.378   0.430  -2.760  1.00  0.00    -0.395 OA
HETATM   28  C1  UNL     1      -0.752   0.096  -4.062  1.00  0.00     0.201 C 
ENDBRANCH  26  27
ENDBRANCH  25  26
BRANCH  25  29
HETATM   29  C25 UNL     1      -1.871   2.929  -0.410  1.00  0.00    -0.001 A 
HETATM   30  C26 UNL     1      -1.817   4.204  -1.200  1.00  0.00     0.006 A 
HETATM   31  C27 UNL     1      -3.075   3.404  -1.081  1.00  0.00     0.006 A 
ENDBRANCH  25  29
ENDBRANCH   1  25
BRANCH   9  32
HETATM   32  C20 UNL     1      -3.591  -1.672   1.193  1.00  0.00     0.047 A 
HETATM   33  C21 UNL     1      -4.368  -2.121   2.218  1.00  0.00     0.043 A 
HETATM   34  C22 UNL     1      -4.236  -1.845   3.658  1.00  0.00     0.071 C 
HETATM   35  N3  UNL     1      -5.377  -2.836   1.669  1.00  0.00    -0.265 N 
HETATM   36  O4  UNL     1      -5.250  -2.834   0.391  1.00  0.00    -0.242 OA
ATOM     37  H3  UNL     1      -6.121  -3.303   2.188  1.00  0.00     0.194 HD
HETATM   38  C23 UNL     1      -4.203  -2.158   0.011  1.00  0.00     0.087 A 
HETATM   39  C24 UNL     1      -3.739  -1.941  -1.383  1.00  0.00     0.080 C 
ENDBRANCH   9  32
TORSDOF 7
