REMARK  0 active torsions:
REMARK  status: ('A' for Active; 'I' for Inactive)
ROOT
HETATM    1  C1  UNL     1       2.498   0.217   0.323  1.00  0.00     0.002 C 
HETATM    2  C2  UNL     1       1.955  -1.114  -0.054  1.00  0.00     0.002 C 
HETATM    3  C3  UNL     1       0.668  -1.460   0.693  1.00  0.00     0.038 C 
HETATM    4  C4  UNL     1      -0.456  -0.838  -0.144  1.00  0.00     0.246 C 
HETATM    5  C5  UNL     1      -1.779  -1.460   0.115  1.00  0.00     0.203 C 
HETATM    6  O1  UNL     1      -2.436  -0.776   1.116  1.00  0.00    -0.387 OA
HETATM    7  C6  UNL     1      -2.809   0.463   0.611  1.00  0.00     0.198 C 
HETATM    8  C7  UNL     1      -1.671   1.233   0.014  1.00  0.00     0.299 C 
HETATM    9  N1  UNL     1      -0.405   0.583   0.105  1.00  0.00     0.097 N 
HETATM   10  C8  UNL     1       0.508   1.123  -0.916  1.00  0.00     0.273 C 
HETATM   11  C9  UNL     1       1.833   1.386  -0.293  1.00  0.00     0.030 C 
ENDROOT
TORSDOF 0
