REMARK  10 active torsions:
REMARK  status: ('A' for Active; 'I' for Inactive)
REMARK    1  A    between atoms: C3_4  and  C4_5 
REMARK    2  A    between atoms: C4_5  and  C5_6 
REMARK    3  A    between atoms: C5_6  and  O1_7 
REMARK    4  A    between atoms: C5_6  and  C6_9 
REMARK    5  A    between atoms: C6_9  and  N2_10 
REMARK    6  A    between atoms: C9_19  and  C10_20 
REMARK    7  A    between atoms: C10_20  and  C11_21 
REMARK    8  A    between atoms: C11_21  and  C12_22 
REMARK    9  A    between atoms: C12_22  and  C13_23 
REMARK   10  A    between atoms: C13_23  and  N6_24 
ROOT
HETATM    1  C1  UNL     1       1.492  -3.132  -0.185  1.00  0.00     0.311 C 
HETATM    2  N1  UNL     1       0.979  -1.807  -0.040  1.00  0.00     0.100 N 
HETATM    3  C2  UNL     1      -0.400  -1.668  -0.405  1.00  0.00     0.298 C 
HETATM    4  C3  UNL     1      -0.952  -0.487   0.381  1.00  0.00     0.115 C 
HETATM    5  N5  UNL     1      -0.220   0.663  -0.086  1.00  0.00    -0.353 N 
ATOM      6  H5  UNL     1      -0.483   1.613   0.176  1.00  0.00     0.163 HD
HETATM    7  C8  UNL     1       0.896   0.396  -0.938  1.00  0.00     0.251 C 
HETATM    8  O2  UNL     1       1.166   1.211  -1.884  1.00  0.00    -0.271 OA
HETATM    9  C9  UNL     1       1.749  -0.805  -0.754  1.00  0.00     0.313 C 
ENDROOT
BRANCH   4  10
HETATM   10  C4  UNL     1      -2.425  -0.354   0.266  1.00  0.00     0.060 C 
BRANCH  10  11
HETATM   11  C5  UNL     1      -2.903  -0.154  -1.154  1.00  0.00     0.138 C 
BRANCH  11  12
HETATM   12  O1  UNL     1      -2.353   1.003  -1.701  1.00  0.00    -0.394 OA
ATOM     13  H1  UNL     1      -2.653   1.129  -2.593  1.00  0.00     0.210 HD
ENDBRANCH  11  12
BRANCH  11  14
HETATM   14  C6  UNL     1      -4.413   0.082  -1.078  1.00  0.00     0.153 C 
BRANCH  14  15
HETATM   15  N2  UNL     1      -4.588   1.250  -0.219  1.00  0.00    -0.364 N 
HETATM   16  C7  UNL     1      -5.416   1.222   0.775  1.00  0.00     0.197 C 
HETATM   17  N3  UNL     1      -5.532   2.396   1.567  1.00  0.00    -0.067 NA
HETATM   18  N4  UNL     1      -6.182   0.062   1.067  1.00  0.00    -0.067 NA
ATOM     19  H2  UNL     1      -4.052   2.097  -0.405  1.00  0.00     0.161 HD
ENDBRANCH  14  15
ENDBRANCH  11  14
ENDBRANCH  10  11
ENDBRANCH   4  10
BRANCH   9  20
HETATM   20  C10 UNL     1       3.008  -0.462  -0.018  1.00  0.00     0.046 C 
BRANCH  20  21
HETATM   21  C11 UNL     1       3.857   0.559  -0.688  1.00  0.00     0.004 C 
BRANCH  21  22
HETATM   22  C12 UNL     1       5.099   0.838   0.104  1.00  0.00     0.027 C 
BRANCH  22  23
HETATM   23  C13 UNL     1       4.793   1.360   1.492  1.00  0.00     0.229 C 
BRANCH  23  24
HETATM   24  N6  UNL     1       6.018   1.624   2.234  1.00  0.00    -0.079 N 
ATOM     25  H63 UNL     1       6.622   0.803   2.266  1.00  0.00     0.274 HD
ATOM     26  H62 UNL     1       6.638   2.253   1.724  1.00  0.00     0.274 HD
ATOM     27  H61 UNL     1       5.812   1.976   3.169  1.00  0.00     0.274 HD
ENDBRANCH  23  24
ENDBRANCH  22  23
ENDBRANCH  21  22
ENDBRANCH  20  21
ENDBRANCH   9  20
TORSDOF 10
