REMARK  3 active torsions:
REMARK  status: ('A' for Active; 'I' for Inactive)
REMARK    1  A    between atoms: C3_4  and  C4_5 
REMARK    2  A    between atoms: C4_5  and  C5_6 
REMARK       I    between atoms: C5_6  and  N1_8 
REMARK    3  A    between atoms: N1_8  and  C6_10 
ROOT
HETATM    1  C4  UNL     1       0.797  -0.806   0.207  1.00  0.00     0.112 C 
ENDROOT
BRANCH   1   2
HETATM    2  C3  UNL     1       2.094  -0.046   0.286  1.00  0.00     0.058 C 
HETATM    3  C2  UNL     1       3.331  -0.934   0.194  1.00  0.00     0.050 C 
HETATM    4  C1  UNL     1       3.928  -1.338   1.495  1.00  0.00     0.034 C 
HETATM    5 CL1  UNL     1       3.056  -2.363  -0.836  1.00  0.00    -0.118 Cl
HETATM    6  C13 UNL     1       3.972   0.183  -0.553  1.00  0.00     0.009 C 
HETATM    7  C12 UNL     1       2.567   0.557  -1.027  1.00  0.00     0.128 C 
HETATM    8  C14 UNL     1       4.885  -0.330  -1.629  1.00  0.00     0.020 C 
HETATM    9  C15 UNL     1       4.569   1.295   0.234  1.00  0.00     0.020 C 
HETATM   10 CL2  UNL     1       2.036  -0.324  -2.466  1.00  0.00    -0.100 Cl
HETATM   11 CL3  UNL     1       2.294   2.280  -1.208  1.00  0.00    -0.100 Cl
ENDBRANCH   1   2
BRANCH   1  12
HETATM   12  C5  UNL     1      -0.335   0.119   0.307  1.00  0.00     0.218 C 
HETATM   13  O1  UNL     1      -0.176   1.380   0.449  1.00  0.00    -0.274 OA
HETATM   14  N1  UNL     1      -1.691  -0.306   0.253  1.00  0.00    -0.356 N 
ATOM     15  H1  UNL     1      -1.870  -1.304   0.139  1.00  0.00     0.162 HD
BRANCH  14  16
HETATM   16  C6  UNL     1      -2.831   0.570   0.347  1.00  0.00     0.084 C 
HETATM   17  C7  UNL     1      -3.709   0.270   1.525  1.00  0.00     0.025 C 
HETATM   18  C8  UNL     1      -4.876  -0.619   1.194  1.00  0.00     0.002 C 
HETATM   19  C9  UNL     1      -5.692  -0.102   0.034  1.00  0.00     0.000 C 
HETATM   20  C10 UNL     1      -4.983   1.000  -0.712  1.00  0.00     0.002 C 
HETATM   21  C11 UNL     1      -3.565   0.544  -0.954  1.00  0.00     0.025 C 
ENDBRANCH  14  16
ENDBRANCH   1  12
TORSDOF 3
