REMARK  8 active torsions:
REMARK  status: ('A' for Active; 'I' for Inactive)
REMARK    1  A    between atoms: N1_1  and  C1_4 
REMARK    2  A    between atoms: C2_9  and  N4_10 
REMARK    3  A    between atoms: N4_10  and  N5_12 
REMARK    4  A    between atoms: N5_12  and  C3_14 
REMARK    5  A    between atoms: C4_15  and  O1_16 
REMARK    6  A    between atoms: N7_20  and  C5_21 
REMARK    7  A    between atoms: C5_21  and  C6_22 
REMARK    8  A    between atoms: C7_23  and  C8_24 
ROOT
HETATM    1  C3  UNL     1       2.802  -0.904   0.670  1.00  0.00     0.170 A 
HETATM    2  C4  UNL     1       2.435  -2.217   0.428  1.00  0.00     0.189 A 
HETATM    3  N6  UNL     1       1.151  -2.350   0.838  1.00  0.00    -0.273 N 
ATOM      4  H6  UNL     1       0.604  -3.209   0.787  1.00  0.00     0.189 HD
HETATM    5  N7  UNL     1       0.715  -1.194   1.315  1.00  0.00    -0.250 N 
HETATM    6  C14 UNL     1       1.696  -0.294   1.227  1.00  0.00     0.294 A 
HETATM    7  O2  UNL     1       1.701   0.920   1.567  1.00  0.00    -0.264 OA
ENDROOT
BRANCH   1   8
HETATM    8  N5  UNL     1       4.081  -0.384   0.371  1.00  0.00    -0.290 N 
ATOM      9  H5  UNL     1       4.840  -1.021   0.128  1.00  0.00     0.187 HD
BRANCH   8  10
HETATM   10  N4  UNL     1       4.295   0.859   0.401  1.00  0.00    -0.278 N 
ATOM     11  H4  UNL     1       3.554   1.517   0.641  1.00  0.00     0.189 HD
BRANCH  10  12
HETATM   12  C2  UNL     1       5.630   1.316   0.083  1.00  0.00     0.181 A 
HETATM   13  N3  UNL     1       6.719   1.264   0.832  1.00  0.00    -0.277 N 
HETATM   14  N2  UNL     1       7.822   1.716   0.393  1.00  0.00    -0.278 N 
ATOM     15  H3  UNL     1       6.673   0.859   1.767  1.00  0.00     0.189 HD
HETATM   16  C1  UNL     1       7.853   2.242  -0.837  1.00  0.00     0.160 A 
ATOM     17  H2  UNL     1       8.665   1.679   0.965  1.00  0.00     0.189 HD
HETATM   18  S1  UNL     1       6.230   2.059  -1.334  1.00  0.00    -0.014 SA
BRANCH  16  19
HETATM   19  N1  UNL     1       8.888   2.757  -1.462  1.00  0.00    -0.378 N 
ATOM     20  H12 UNL     1       9.858   2.866  -1.165  1.00  0.00     0.158 HD
ATOM     21  H11 UNL     1       8.912   3.158  -2.400  1.00  0.00     0.158 HD
ENDBRANCH  16  19
ENDBRANCH  10  12
ENDBRANCH   8  10
ENDBRANCH   1   8
BRANCH   2  22
HETATM   22  O1  UNL     1       3.253  -3.193  -0.131  1.00  0.00    -0.343 OA
ATOM     23  H1  UNL     1       3.001  -4.094  -0.297  1.00  0.00     0.219 HD
ENDBRANCH   2  22
BRANCH   5  24
HETATM   24  C5  UNL     1      -0.608  -0.971   1.839  1.00  0.00     0.179 C 
BRANCH  24  25
HETATM   25  C6  UNL     1      -1.530  -0.529   0.738  1.00  0.00    -0.009 C 
HETATM   26  C7  UNL     1      -2.586  -1.252   0.458  1.00  0.00    -0.024 C 
BRANCH  26  27
HETATM   27  C8  UNL     1      -3.592  -0.948  -0.600  1.00  0.00     0.008 C 
HETATM   28  C9  UNL     1      -4.965  -0.914   0.015  1.00  0.00     0.008 C 
HETATM   29  C10 UNL     1      -5.803   0.094  -0.699  1.00  0.00     0.001 C 
HETATM   30  C11 UNL     1      -5.255   1.466  -0.345  1.00  0.00     0.000 C 
HETATM   31  C12 UNL     1      -3.786   1.559  -0.700  1.00  0.00     0.001 C 
HETATM   32  C13 UNL     1      -3.307   0.292  -1.369  1.00  0.00     0.008 C 
ENDBRANCH  26  27
ENDBRANCH  24  25
ENDBRANCH   5  24
TORSDOF 8
