REMARK  10 active torsions:
REMARK  status: ('A' for Active; 'I' for Inactive)
REMARK    1  A    between atoms: C2_2  and  N1_3 
REMARK    2  A    between atoms: C2_2  and  C6_21 
REMARK    3  A    between atoms: N1_3  and  N2_5 
REMARK    4  A    between atoms: N2_5  and  C3_7 
REMARK    5  A    between atoms: C4_12  and  C5_13 
REMARK       I    between atoms: C5_13  and  N5_15 
REMARK    6  A    between atoms: N5_15  and  N6_17 
REMARK       I    between atoms: C6_21  and  N7_23 
REMARK    7  A    between atoms: N7_23  and  N8_25 
REMARK    8  A    between atoms: N8_25  and  C7_26 
REMARK    9  A    between atoms: C7_26  and  C8_27 
REMARK   10  A    between atoms: C8_27  and  C9_29 
ROOT
HETATM    1  N1  UNL     1       2.464  -0.495  -1.510  1.00  0.00    -0.298 N 
ATOM      2  H1  UNL     1       3.139  -0.219  -2.223  1.00  0.00     0.187 HD
ENDROOT
BRANCH   1   3
HETATM    3  C2  UNL     1       1.220  -0.361  -1.772  1.00  0.00     0.090 C 
HETATM    4  C1  UNL     1       0.794   0.186  -3.092  1.00  0.00     0.076 C 
BRANCH   3   5
HETATM    5  C6  UNL     1       0.244  -0.752  -0.763  1.00  0.00     0.280 C 
HETATM    6  O2  UNL     1       0.600  -1.218   0.360  1.00  0.00    -0.265 OA
HETATM    7  N7  UNL     1      -1.144  -0.611  -1.034  1.00  0.00    -0.268 N 
ATOM      8  H7  UNL     1      -1.418  -0.234  -1.941  1.00  0.00     0.185 HD
BRANCH   7   9
HETATM    9  N8  UNL     1      -2.141  -0.951  -0.149  1.00  0.00    -0.131 NA
BRANCH   9  10
HETATM   10  C7  UNL     1      -3.311  -0.107  -0.251  1.00  0.00     0.214 C 
BRANCH  10  11
HETATM   11  C8  UNL     1      -4.328  -0.552   0.735  1.00  0.00     0.150 C 
HETATM   12  O3  UNL     1      -4.088  -1.512   1.477  1.00  0.00    -0.296 OA
BRANCH  11  13
HETATM   13  C9  UNL     1      -5.646   0.128   0.863  1.00  0.00     0.011 C 
HETATM   14  C10 UNL     1      -6.393   0.040  -0.471  1.00  0.00     0.022 C 
HETATM   15  C11 UNL     1      -5.467   1.580   1.253  1.00  0.00     0.022 C 
HETATM   16  C12 UNL     1      -6.493  -0.549   1.896  1.00  0.00     0.022 C 
ENDBRANCH  11  13
ENDBRANCH  10  11
ENDBRANCH   9  10
ENDBRANCH   7   9
ENDBRANCH   3   5
ENDBRANCH   1   3
BRANCH   1  17
HETATM   17  N2  UNL     1       2.947  -0.996  -0.307  1.00  0.00    -0.278 N 
ATOM     18  H2  UNL     1       2.374  -1.580   0.302  1.00  0.00     0.189 HD
BRANCH  17  19
HETATM   19  C3  UNL     1       4.183  -0.676   0.002  1.00  0.00     0.180 A 
HETATM   20  N3  UNL     1       4.870  -1.028   1.089  1.00  0.00    -0.277 N 
HETATM   21  N4  UNL     1       6.069  -0.615   1.213  1.00  0.00    -0.287 N 
ATOM     22  H3  UNL     1       4.445  -1.616   1.806  1.00  0.00     0.189 HD
HETATM   23  C4  UNL     1       6.613   0.145   0.279  1.00  0.00     0.162 A 
ATOM     24  H4  UNL     1       6.612  -0.872   2.037  1.00  0.00     0.188 HD
HETATM   25  S1  UNL     1       5.329   0.274  -0.840  1.00  0.00    -0.026 SA
BRANCH  23  26
HETATM   26  C5  UNL     1       7.976   0.721   0.234  1.00  0.00     0.294 C 
HETATM   27  O1  UNL     1       8.295   1.414  -0.746  1.00  0.00    -0.264 OA
HETATM   28  N5  UNL     1       8.826   0.436   1.324  1.00  0.00    -0.271 N 
ATOM     29  H5  UNL     1       8.502  -0.142   2.100  1.00  0.00     0.189 HD
BRANCH  28  30
HETATM   30  N6  UNL     1      10.117   0.960   1.319  1.00  0.00    -0.342 N 
ATOM     31  H62 UNL     1      10.426   1.536   0.536  1.00  0.00     0.176 HD
ATOM     32  H61 UNL     1      10.731   0.754   2.107  1.00  0.00     0.176 HD
ENDBRANCH  28  30
ENDBRANCH  23  26
ENDBRANCH  17  19
ENDBRANCH   1  17
TORSDOF 10
