REMARK  3 active torsions:
REMARK  status: ('A' for Active; 'I' for Inactive)
REMARK    1  A    between atoms: C5_9  and  C6_10 
REMARK       I    between atoms: C6_10  and  N2_12 
REMARK    2  A    between atoms: N2_12  and  C7_14 
REMARK    3  A    between atoms: C7_14  and  C8_15 
ROOT
HETATM    1  C1  UNL     1      -2.095  -1.498  -0.469  1.00  0.00     0.043 C 
HETATM    2  C2  UNL     1      -1.756  -0.036  -0.771  1.00  0.00     0.220 C 
HETATM    3  N1  UNL     1      -2.991   0.614  -1.076  1.00  0.00    -0.066 N 
ATOM      4  H11 UNL     1      -3.654  -0.053  -1.470  1.00  0.00     0.277 HD
ATOM      5  H12 UNL     1      -2.875   1.239  -1.874  1.00  0.00     0.277 HD
HETATM    6  C3  UNL     1      -3.589   1.321   0.030  1.00  0.00     0.259 C 
HETATM    7  C4  UNL     1      -2.605   2.230   0.723  1.00  0.00     0.196 C 
HETATM    8  O1  UNL     1      -1.304   2.039   0.198  1.00  0.00    -0.373 OA
HETATM    9  C5  UNL     1      -1.068   0.659   0.345  1.00  0.00     0.243 C 
ENDROOT
BRANCH   9  10
HETATM   10  C6  UNL     1       0.383   0.379   0.463  1.00  0.00     0.248 C 
HETATM   11  O2  UNL     1       1.153   1.369   0.392  1.00  0.00    -0.271 OA
HETATM   12  N2  UNL     1       0.896  -0.925   0.646  1.00  0.00    -0.358 N 
ATOM     13  H2  UNL     1       0.246  -1.709   0.703  1.00  0.00     0.162 HD
BRANCH  12  14
HETATM   14  C7  UNL     1       2.309  -1.180   0.755  1.00  0.00     0.127 C 
BRANCH  14  15
HETATM   15  C8  UNL     1       2.993  -0.737  -0.502  1.00  0.00     0.003 A 
HETATM   16  C9  UNL     1       4.499  -0.952  -0.548  1.00  0.00     0.007 A 
HETATM   17  C10 UNL     1       3.927   0.443  -0.483  1.00  0.00     0.007 A 
ENDBRANCH  14  15
ENDBRANCH  12  14
ENDBRANCH   9  10
TORSDOF 3
