REMARK  7 active torsions:
REMARK  status: ('A' for Active; 'I' for Inactive)
REMARK    1  A    between atoms: C2_2  and  C3_4 
REMARK    2  A    between atoms: C6_7  and  C7_8 
REMARK    3  A    between atoms: C13_16  and  O4_18 
REMARK    4  A    between atoms: O4_18  and  C15_19 
REMARK    5  A    between atoms: C15_19  and  C16_21 
REMARK    6  A    between atoms: C16_21  and  C17_22 
REMARK    7  A    between atoms: C17_22  and  C18_23 
ROOT
HETATM    1  C3  UNL     1      -2.319  -0.993   0.481  1.00  0.00    -0.013 C 
HETATM    2  C4  UNL     1      -2.502  -1.998   1.574  1.00  0.00     0.052 C 
HETATM    3  C5  UNL     1      -1.255  -0.986  -0.282  1.00  0.00    -0.048 C 
HETATM    4  C6  UNL     1      -0.062  -1.919  -0.269  1.00  0.00     0.122 C 
HETATM    5  C8  UNL     1       0.025  -1.590  -1.756  1.00  0.00     0.019 C 
HETATM    6  C9  UNL     1       1.382  -1.600  -2.326  1.00  0.00    -0.013 C 
HETATM    7  C10 UNL     1       2.034  -2.940  -2.304  1.00  0.00     0.010 C 
HETATM    8  C11 UNL     1       2.318  -0.624  -1.597  1.00  0.00     0.007 C 
HETATM    9  C12 UNL     1       1.673   0.700  -1.766  1.00  0.00     0.039 C 
HETATM   10  C13 UNL     1       0.410   0.800  -0.993  1.00  0.00     0.075 C 
HETATM   11  C14 UNL     1      -0.217   2.135  -1.481  1.00  0.00     0.047 C 
HETATM   12  C19 UNL     1      -0.577  -0.274  -1.391  1.00  0.00     0.056 C 
ENDROOT
BRANCH  10  13
HETATM   13  O4  UNL     1       0.482   0.799   0.384  1.00  0.00    -0.310 OA
BRANCH  13  14
HETATM   14  C15 UNL     1       1.171   1.760   1.086  1.00  0.00     0.260 C 
HETATM   15  O5  UNL     1       1.730   2.641   0.394  1.00  0.00    -0.265 OA
BRANCH  14  16
HETATM   16  C16 UNL     1       1.265   1.777   2.566  1.00  0.00     0.121 C 
BRANCH  16  17
HETATM   17  C17 UNL     1       2.019   2.991   3.028  1.00  0.00     0.123 C 
BRANCH  17  18
HETATM   18  C18 UNL     1       1.340   4.250   2.659  1.00  0.00     0.172 C 
HETATM   19  O6  UNL     1       0.229   4.303   2.085  1.00  0.00    -0.648 OA
HETATM   20  O7  UNL     1       1.968   5.471   2.966  1.00  0.00    -0.648 OA
ENDBRANCH  17  18
ENDBRANCH  16  17
ENDBRANCH  14  16
ENDBRANCH  13  14
ENDBRANCH  10  13
BRANCH   1  21
HETATM   21  C2  UNL     1      -3.383  -0.025   0.333  1.00  0.00     0.151 C 
HETATM   22  C1  UNL     1      -4.596  -0.009   1.201  1.00  0.00     0.096 C 
HETATM   23  O1  UNL     1      -3.313   0.842  -0.546  1.00  0.00    -0.293 OA
ENDBRANCH   1  21
BRANCH   4  24
HETATM   24  C7  UNL     1      -0.389  -3.349  -0.132  1.00  0.00     0.181 C 
HETATM   25  O2  UNL     1       0.017  -4.058   0.823  1.00  0.00    -0.647 OA
HETATM   26  O3  UNL     1      -1.189  -4.030  -1.073  1.00  0.00    -0.647 OA
ENDBRANCH   4  24
TORSDOF 7
