REMARK  7 active torsions:
REMARK  status: ('A' for Active; 'I' for Inactive)
REMARK    1  A    between atoms: O1_2  and  C2_3 
REMARK    2  A    between atoms: C2_3  and  C3_5 
REMARK    3  A    between atoms: C3_5  and  O3_6 
REMARK    4  A    between atoms: C6_11  and  O5_12 
REMARK    5  A    between atoms: C7_14  and  O6_15 
REMARK    6  A    between atoms: C8_17  and  O7_18 
REMARK    7  A    between atoms: C13_25  and  O9_26 
ROOT
HETATM    1  C3  UNL     1       1.863  -0.888  -0.877  1.00  0.00     0.275 C 
HETATM    2  C4  UNL     1       0.844   0.065  -1.295  1.00  0.00     0.215 C 
HETATM    3  O4  UNL     1       1.181   0.760  -2.289  1.00  0.00    -0.288 OA
HETATM    4  C5  UNL     1      -0.473   0.325  -0.748  1.00  0.00     0.065 A 
HETATM    5  C6  UNL     1      -0.941   1.555  -1.158  1.00  0.00     0.116 A 
HETATM    6  C7  UNL     1      -2.155   1.974  -0.742  1.00  0.00     0.134 A 
HETATM    7  C8  UNL     1      -2.923   1.159   0.097  1.00  0.00     0.108 A 
HETATM    8  C9  UNL     1      -2.508  -0.085   0.543  1.00  0.00    -0.011 A 
HETATM    9  C10 UNL     1      -3.314  -0.933   1.448  1.00  0.00     0.052 C 
HETATM   10  C11 UNL     1      -1.255  -0.470   0.087  1.00  0.00     0.038 A 
HETATM   11  C12 UNL     1      -0.901  -1.783   0.577  1.00  0.00     0.197 C 
HETATM   12  O8  UNL     1      -1.889  -2.521   0.777  1.00  0.00    -0.289 OA
HETATM   13  C13 UNL     1       0.395  -2.412   0.881  1.00  0.00     0.266 C 
HETATM   14  C14 UNL     1       1.556  -1.810   0.203  1.00  0.00     0.215 C 
HETATM   15  O10 UNL     1       2.605  -2.235   0.731  1.00  0.00    -0.290 OA
ENDROOT
BRANCH   1  16
HETATM   16  C2  UNL     1       3.047  -0.060  -0.435  1.00  0.00     0.309 C 
HETATM   17  O2  UNL     1       4.132  -0.145  -1.028  1.00  0.00    -0.261 OA
BRANCH  16  18
HETATM   18  O1  UNL     1       2.952   0.809   0.636  1.00  0.00    -0.323 OA
HETATM   19  C1  UNL     1       4.000   1.612   1.110  1.00  0.00     0.213 C 
ENDBRANCH  16  18
ENDBRANCH   1  16
BRANCH   1  20
HETATM   20  O3  UNL     1       2.279  -1.665  -1.985  1.00  0.00    -0.366 OA
ATOM     21  H3  UNL     1       1.535  -2.186  -2.263  1.00  0.00     0.212 HD
ENDBRANCH   1  20
BRANCH  13  22
HETATM   22  O9  UNL     1       0.357  -3.790   0.666  1.00  0.00    -0.380 OA
ATOM     23  H9  UNL     1       1.193  -4.196   0.862  1.00  0.00     0.211 HD
ENDBRANCH  13  22
BRANCH   5  24
HETATM   24  O5  UNL     1      -0.175   2.355  -1.989  1.00  0.00    -0.357 OA
ATOM     25  H5  UNL     1      -0.498   3.203  -2.272  1.00  0.00     0.217 HD
ENDBRANCH   5  24
BRANCH   6  26
HETATM   26  O6  UNL     1      -2.664   3.204  -1.131  1.00  0.00    -0.356 OA
ATOM     27  H6  UNL     1      -3.518   3.499  -0.838  1.00  0.00     0.218 HD
ENDBRANCH   6  26
BRANCH   7  28
HETATM   28  O7  UNL     1      -4.155   1.689   0.461  1.00  0.00    -0.357 OA
ATOM     29  H7  UNL     1      -4.676   1.136   1.031  1.00  0.00     0.217 HD
ENDBRANCH   7  28
TORSDOF 7
