REMARK  6 active torsions:
REMARK  status: ('A' for Active; 'I' for Inactive)
REMARK    1  A    between atoms: O1_2  and  C2_3 
REMARK    2  A    between atoms: C3_5  and  O3_6 
REMARK    3  A    between atoms: O3_6  and  C4_7 
REMARK    4  A    between atoms: C20_23  and  O4_24 
REMARK    5  A    between atoms: C28_33  and  O5_34 
REMARK    6  A    between atoms: C29_36  and  O6_37 
ROOT
HETATM    1  C4  UNL     1       3.278  -0.366   0.597  1.00  0.00     0.125 C 
HETATM    2  C5  UNL     1       2.563  -0.058   1.913  1.00  0.00     0.033 C 
HETATM    3  C6  UNL     1       1.210   0.459   1.483  1.00  0.00     0.012 C 
HETATM    4  C7  UNL     1       0.402  -0.769   1.017  1.00  0.00    -0.036 C 
HETATM    5  C8  UNL     1       0.187  -1.556   2.327  1.00  0.00     0.016 C 
HETATM    6  C9  UNL     1       1.144  -1.643   0.082  1.00  0.00    -0.004 C 
HETATM    7  C10 UNL     1       0.668  -1.516  -1.355  1.00  0.00     0.006 C 
HETATM    8  C11 UNL     1      -0.812  -1.714  -1.489  1.00  0.00     0.006 C 
HETATM    9  C12 UNL     1      -1.603  -1.357  -0.292  1.00  0.00     0.003 C 
HETATM   10  C13 UNL     1      -0.952  -0.329   0.595  1.00  0.00     0.002 C 
HETATM   11  C14 UNL     1      -1.024   1.055  -0.008  1.00  0.00     0.033 C 
HETATM   12  C15 UNL     1      -2.454   1.328  -0.426  1.00  0.00    -0.022 C 
HETATM   13  C16 UNL     1      -3.315   0.386  -0.659  1.00  0.00    -0.070 C 
HETATM   14  C17 UNL     1      -4.710   0.803  -1.064  1.00  0.00     0.026 C 
HETATM   15  C18 UNL     1      -4.972   2.263  -0.760  1.00  0.00     0.012 C 
HETATM   16  C19 UNL     1      -6.474   2.316  -0.511  1.00  0.00     0.033 C 
HETATM   17  C20 UNL     1      -6.630   1.117   0.410  1.00  0.00     0.127 C 
HETATM   18  C21 UNL     1      -5.736   0.037  -0.230  1.00  0.00    -0.011 C 
HETATM   19  C22 UNL     1      -6.675  -0.785  -1.072  1.00  0.00     0.018 C 
HETATM   20  C23 UNL     1      -5.083  -0.684   0.889  1.00  0.00     0.013 C 
HETATM   21  C24 UNL     1      -3.944  -1.574   0.557  1.00  0.00     0.015 C 
HETATM   22  C25 UNL     1      -3.052  -1.058  -0.573  1.00  0.00    -0.016 C 
HETATM   23  C26 UNL     1      -3.506  -1.806  -1.806  1.00  0.00     0.020 C 
HETATM   24  C27 UNL     1       2.617  -1.580   0.041  1.00  0.00     0.037 C 
ENDROOT
BRANCH   1  25
HETATM   25  O3  UNL     1       4.628  -0.456   0.741  1.00  0.00    -0.353 OA
BRANCH  25  26
HETATM   26  C3  UNL     1       5.358   0.496   0.046  1.00  0.00     0.294 C 
HETATM   27  O2  UNL     1       6.224   1.109   0.943  1.00  0.00    -0.326 OA
HETATM   28  C2  UNL     1       7.355   1.478   0.239  1.00  0.00     0.293 C 
HETATM   29  C29 UNL     1       7.483   0.590  -0.946  1.00  0.00     0.206 C 
HETATM   30  C28 UNL     1       6.252  -0.248  -0.923  1.00  0.00     0.207 C 
BRANCH  28  31
HETATM   31  O1  UNL     1       8.516   1.451   0.973  1.00  0.00    -0.363 OA
HETATM   32  C1  UNL     1       9.119   2.698   1.093  1.00  0.00     0.204 C 
ENDBRANCH  28  31
BRANCH  29  33
HETATM   33  O6  UNL     1       7.575   1.378  -2.101  1.00  0.00    -0.388 OA
ATOM     34  H6  UNL     1       7.657   0.810  -2.858  1.00  0.00     0.210 HD
ENDBRANCH  29  33
BRANCH  30  35
HETATM   35  O5  UNL     1       5.629  -0.265  -2.170  1.00  0.00    -0.388 OA
ATOM     36  H5  UNL     1       6.190  -0.732  -2.778  1.00  0.00     0.210 HD
ENDBRANCH  30  35
ENDBRANCH  25  26
ENDBRANCH   1  25
BRANCH  17  37
HETATM   37  O4  UNL     1      -6.273   1.390   1.706  1.00  0.00    -0.395 OA
ATOM     38  H4  UNL     1      -6.371   0.641   2.282  1.00  0.00     0.210 HD
ENDBRANCH  17  37
TORSDOF 6
