REMARK  3 active torsions:
REMARK  status: ('A' for Active; 'I' for Inactive)
REMARK       I    between atoms: C2_2  and  N1_4 
REMARK       I    between atoms: N3_15  and  C10_16 
REMARK       I    between atoms: C10_16  and  N4_18 
REMARK    1  A    between atoms: N4_18  and  C11_20 
REMARK    2  A    between atoms: C11_20  and  C13_22 
REMARK    3  A    between atoms: C13_22  and  C14_23 
ROOT
HETATM    1  C1  UNL     1      -6.849   0.670  -0.153  1.00  0.00     0.117 C 
HETATM    2  C2  UNL     1      -5.396   0.926  -0.196  1.00  0.00     0.215 C 
HETATM    3  O1  UNL     1      -4.993   2.116  -0.176  1.00  0.00    -0.274 OA
HETATM    4  N1  UNL     1      -4.423  -0.101  -0.260  1.00  0.00    -0.350 N 
HETATM    5  C3  UNL     1      -4.958  -1.442  -0.280  1.00  0.00     0.145 C 
HETATM    6  C4  UNL     1      -3.870  -2.482  -0.177  1.00  0.00     0.136 C 
HETATM    7  N2  UNL     1      -3.254  -2.471   1.093  1.00  0.00    -0.391 N 
ATOM      8  H2  UNL     1      -2.944  -3.336   1.536  1.00  0.00     0.156 HD
HETATM    9  C5  UNL     1      -3.081  -1.227   1.729  1.00  0.00     0.276 C 
HETATM   10  F1  UNL     1      -4.283  -0.735   2.209  1.00  0.00    -0.226 F 
HETATM   11  C6  UNL     1      -2.317  -0.197   0.930  1.00  0.00     0.041 C 
HETATM   12  C7  UNL     1      -2.180   1.012   1.860  1.00  0.00     0.019 C 
HETATM   13  C8  UNL     1      -1.353   2.096   1.266  1.00  0.00     0.021 C 
HETATM   14  C9  UNL     1      -0.120   1.673   0.556  1.00  0.00     0.127 C 
HETATM   15  N3  UNL     1       0.054   0.256   0.386  1.00  0.00    -0.333 N 
HETATM   16  C10 UNL     1       1.325  -0.184  -0.077  1.00  0.00     0.318 C 
HETATM   17  O2  UNL     1       1.499  -1.430  -0.232  1.00  0.00    -0.247 OA
HETATM   18  N4  UNL     1       2.378   0.701  -0.364  1.00  0.00    -0.339 N 
ATOM     19  H4  UNL     1       2.249   1.706  -0.243  1.00  0.00     0.164 HD
HETATM   20  C17 UNL     1      -0.960  -0.742   0.648  1.00  0.00     0.143 C 
HETATM   21  C18 UNL     1      -3.027   0.261  -0.298  1.00  0.00     0.141 C 
ENDROOT
BRANCH  18  22
HETATM   22  C11 UNL     1       3.642   0.186  -0.830  1.00  0.00     0.082 C 
HETATM   23  C12 UNL     1       3.860   0.726  -2.234  1.00  0.00     0.032 C 
BRANCH  22  24
HETATM   24  C13 UNL     1       4.782   0.645   0.063  1.00  0.00     0.028 C 
BRANCH  24  25
HETATM   25  C14 UNL     1       6.068   0.068  -0.489  1.00  0.00    -0.021 C 
HETATM   26  C15 UNL     1       7.257   0.479   0.346  1.00  0.00     0.009 C 
HETATM   27  C16 UNL     1       5.999  -1.441  -0.579  1.00  0.00     0.009 C 
ENDBRANCH  24  25
ENDBRANCH  22  24
ENDBRANCH  18  22
TORSDOF 3
