REMARK  5 active torsions:
REMARK  status: ('A' for Active; 'I' for Inactive)
REMARK    1  A    between atoms: N1_2  and  C3_4 
REMARK    2  A    between atoms: C4_7  and  N3_8 
REMARK    3  A    between atoms: N3_8  and  C5_10 
REMARK    4  A    between atoms: C5_10  and  N4_12 
REMARK    5  A    between atoms: N4_12  and  N5_14 
ROOT
HETATM    1  C3  UNL     1      -1.182   0.492  -0.074  1.00  0.00     0.709 A 
HETATM    2  N2  UNL     1       0.094   0.089  -0.207  1.00  0.00    -0.019 N 
ATOM      3  H2  UNL     1       0.412  -0.880  -0.199  1.00  0.00     0.203 HD
HETATM    4  C4  UNL     1       0.897   1.185  -0.354  1.00  0.00     0.714 A 
HETATM    5  N6  UNL     1       0.104   2.248  -0.309  1.00  0.00    -0.117 N 
ATOM      6  H6  UNL     1       0.405   3.219  -0.390  1.00  0.00     0.206 HD
HETATM    7  N7  UNL     1      -1.148   1.835  -0.140  1.00  0.00    -0.117 N 
ATOM      8  H7  UNL     1      -1.962   2.446  -0.071  1.00  0.00     0.206 HD
ENDROOT
BRANCH   4   9
HETATM    9  N3  UNL     1       2.187   1.178  -0.510  1.00  0.00    -0.163 N 
ATOM     10  H3  UNL     1       2.707   2.049  -0.612  1.00  0.00     0.186 HD
BRANCH   9  11
HETATM   11  C5  UNL     1       2.853  -0.077  -0.535  1.00  0.00     0.204 C 
HETATM   12  S1  UNL     1       2.270  -1.322  -1.408  1.00  0.00    -0.039 SA
BRANCH  11  13
HETATM   13  N4  UNL     1       4.038  -0.260   0.205  1.00  0.00    -0.282 N 
ATOM     14  H4  UNL     1       4.419   0.507   0.759  1.00  0.00     0.189 HD
BRANCH  13  15
HETATM   15  N5  UNL     1       4.686  -1.491   0.177  1.00  0.00    -0.343 N 
ATOM     16  H52 UNL     1       4.292  -2.248  -0.382  1.00  0.00     0.176 HD
ATOM     17  H51 UNL     1       5.544  -1.623   0.713  1.00  0.00     0.176 HD
ENDBRANCH  13  15
ENDBRANCH  11  13
ENDBRANCH   9  11
ENDBRANCH   4   9
BRANCH   1  18
HETATM   18  N1  UNL     1      -2.358  -0.275   0.102  1.00  0.00    -0.225 N 
HETATM   19  C1  UNL     1      -2.771  -0.551   1.485  1.00  0.00     0.168 C 
HETATM   20  C2  UNL     1      -3.120  -0.769  -1.006  1.00  0.00     0.168 C 
ENDBRANCH   1  18
TORSDOF 5
