REMARK  8 active torsions:
REMARK  status: ('A' for Active; 'I' for Inactive)
REMARK    1  A    between atoms: C2_2  and  C3_3 
REMARK    2  A    between atoms: C3_3  and  C4_4 
REMARK    3  A    between atoms: C4_4  and  C6_6 
REMARK    4  A    between atoms: C6_6  and  O2_8 
REMARK    5  A    between atoms: O2_8  and  C7_9 
REMARK    6  A    between atoms: C11_16  and  N1_17 
REMARK    7  A    between atoms: N1_17  and  C12_19 
REMARK    8  A    between atoms: C12_19  and  C14_21 
ROOT
HETATM    1  C7  UNL     1      -0.146  -0.148  -0.184  1.00  0.00     0.324 C 
HETATM    2  O3  UNL     1      -0.443   1.229  -0.408  1.00  0.00    -0.317 OA
HETATM    3  C8  UNL     1      -1.497   1.009  -1.304  1.00  0.00     0.218 C 
HETATM    4  C9  UNL     1      -0.705   0.273  -2.401  1.00  0.00     0.083 C 
HETATM    5  C10 UNL     1      -0.158  -0.843  -1.483  1.00  0.00     0.257 C 
HETATM    6  O4  UNL     1      -1.209  -1.785  -1.455  1.00  0.00    -0.222 OA
HETATM    7  O5  UNL     1      -2.376  -1.132  -1.389  1.00  0.00    -0.174 OA
HETATM    8  C11 UNL     1      -2.273  -0.028  -0.571  1.00  0.00     0.306 C 
HETATM    9  O6  UNL     1      -1.367  -0.480   0.448  1.00  0.00    -0.270 OA
ENDROOT
BRANCH   1  10
HETATM   10  O2  UNL     1       0.929  -0.294   0.671  1.00  0.00    -0.255 OA
BRANCH  10  11
HETATM   11  C6  UNL     1       2.154   0.248   0.373  1.00  0.00     0.267 C 
HETATM   12  O1  UNL     1       2.280   0.870  -0.708  1.00  0.00    -0.265 OA
BRANCH  11  13
HETATM   13  C4  UNL     1       3.338   0.150   1.256  1.00  0.00     0.085 C 
HETATM   14  C5  UNL     1       3.823   1.600   1.406  1.00  0.00     0.020 C 
BRANCH  13  15
HETATM   15  C3  UNL     1       4.391  -0.693   0.619  1.00  0.00     0.040 C 
BRANCH  15  16
HETATM   16  C2  UNL     1       5.623  -0.669   1.462  1.00  0.00    -0.036 C 
HETATM   17  C1  UNL     1       6.726  -0.188   0.916  1.00  0.00     0.007 C 
ENDBRANCH  15  16
ENDBRANCH  13  15
ENDBRANCH  11  13
ENDBRANCH  10  11
ENDBRANCH   1  10
BRANCH   8  18
HETATM   18  N1  UNL     1      -3.413   0.433   0.109  1.00  0.00    -0.352 N 
ATOM     19  H1  UNL     1      -3.411   1.351   0.554  1.00  0.00     0.159 HD
BRANCH  18  20
HETATM   20  C12 UNL     1      -4.548  -0.378   0.170  1.00  0.00     0.185 C 
HETATM   21  C13 UNL     1      -5.230  -0.536  -1.152  1.00  0.00     0.041 C 
BRANCH  20  22
HETATM   22  C14 UNL     1      -5.474   0.150   1.284  1.00  0.00     0.406 C 
HETATM   23  F1  UNL     1      -4.774   0.102   2.505  1.00  0.00    -0.169 F 
HETATM   24  F2  UNL     1      -5.908   1.420   1.027  1.00  0.00    -0.169 F 
HETATM   25  F3  UNL     1      -6.538  -0.739   1.412  1.00  0.00    -0.169 F 
ENDBRANCH  20  22
ENDBRANCH  18  20
ENDBRANCH   8  18
TORSDOF 8
