REMARK  5 active torsions:
REMARK  status: ('A' for Active; 'I' for Inactive)
REMARK    1  A    between atoms: N6_16  and  C6_17 
REMARK    2  A    between atoms: C6_17  and  S1_18 
REMARK    3  A    between atoms: S1_18  and  C7_19 
REMARK    4  A    between atoms: C7_19  and  C8_20 
REMARK       I    between atoms: C8_20  and  N7_22 
REMARK    5  A    between atoms: N7_22  and  N8_24 
ROOT
HETATM    1  N1  UNL     1      -4.694   0.357  -0.116  1.00  0.00    -0.383 N 
ATOM      2  H11 UNL     1      -5.010  -0.595  -0.298  1.00  0.00     0.157 HD
ATOM      3  H12 UNL     1      -5.396   1.097  -0.142  1.00  0.00     0.157 HD
HETATM    4  C1  UNL     1      -3.445   0.548   0.137  1.00  0.00     0.131 A 
HETATM    5  N2  UNL     1      -3.030   1.798   0.376  1.00  0.00    -0.337 N 
ATOM      6  H2  UNL     1      -3.714   2.555   0.355  1.00  0.00     0.168 HD
HETATM    7  C2  UNL     1      -1.738   2.095   0.644  1.00  0.00     0.183 A 
HETATM    8  N3  UNL     1      -0.834   1.101   0.672  1.00  0.00    -0.336 N 
ATOM      9  H3  UNL     1       0.139   1.329   0.874  1.00  0.00     0.168 HD
HETATM   10  C3  UNL     1      -1.162  -0.180   0.444  1.00  0.00     0.142 A 
HETATM   11  C4  UNL     1      -2.498  -0.450   0.172  1.00  0.00     0.123 A 
HETATM   12  N4  UNL     1      -2.581  -1.769  -0.009  1.00  0.00    -0.324 N 
ATOM     13  H4  UNL     1      -3.430  -2.292  -0.225  1.00  0.00     0.169 HD
HETATM   14  C5  UNL     1      -1.339  -2.293   0.145  1.00  0.00     0.197 A 
HETATM   15  N5  UNL     1      -0.975  -3.658   0.037  1.00  0.00    -0.063 NA
HETATM   16  N6  UNL     1      -0.444  -1.309   0.428  1.00  0.00    -0.296 N 
ENDROOT
BRANCH  16  17
HETATM   17  C6  UNL     1       0.991  -1.517   0.632  1.00  0.00     0.207 C 
BRANCH  17  18
HETATM   18  S1  UNL     1       1.842  -1.514  -0.941  1.00  0.00    -0.139 SA
BRANCH  18  19
HETATM   19  C7  UNL     1       1.783   0.095  -1.698  1.00  0.00     0.180 C 
BRANCH  19  20
HETATM   20  C8  UNL     1       2.562   1.136  -0.999  1.00  0.00     0.244 C 
HETATM   21  O1  UNL     1       2.506   2.304  -1.449  1.00  0.00    -0.271 OA
HETATM   22  N7  UNL     1       3.369   0.901   0.146  1.00  0.00    -0.276 N 
ATOM     23  H7  UNL     1       3.426  -0.044   0.527  1.00  0.00     0.189 HD
BRANCH  22  24
HETATM   24  N8  UNL     1       4.085   1.926   0.764  1.00  0.00    -0.343 N 
ATOM     25  H82 UNL     1       4.016   2.864   0.370  1.00  0.00     0.176 HD
ATOM     26  H81 UNL     1       4.665   1.757   1.586  1.00  0.00     0.176 HD
ENDBRANCH  22  24
ENDBRANCH  19  20
ENDBRANCH  18  19
ENDBRANCH  17  18
ENDBRANCH  16  17
TORSDOF 5
