REMARK  18 active torsions:
REMARK  status: ('A' for Active; 'I' for Inactive)
REMARK    1  A    between atoms: C2_2  and  C3_3 
REMARK    2  A    between atoms: C3_3  and  C4_4 
REMARK    3  A    between atoms: C4_4  and  C5_5 
REMARK    4  A    between atoms: C5_5  and  C6_6 
REMARK    5  A    between atoms: C6_6  and  C7_7 
REMARK    6  A    between atoms: C7_7  and  C8_8 
REMARK    7  A    between atoms: C8_8  and  O1_9 
REMARK    8  A    between atoms: O1_9  and  C9_10 
REMARK    9  A    between atoms: C9_10  and  C10_12 
REMARK   10  A    between atoms: C10_12  and  C11_13 
REMARK   11  A    between atoms: C11_13  and  C12_14 
REMARK   12  A    between atoms: C12_14  and  N1_15 
REMARK   13  A    between atoms: C12_14  and  C29_36 
REMARK       I    between atoms: N1_15  and  C13_17 
REMARK   14  A    between atoms: C13_17  and  C14_19 
REMARK   15  A    between atoms: C20_26  and  C21_27 
REMARK   16  A    between atoms: C21_27  and  C22_29 
REMARK       I    between atoms: C29_36  and  N3_38 
REMARK   17  A    between atoms: C33_42  and  C34_43 
REMARK       I    between atoms: C34_43  and  N4_45 
REMARK   18  A    between atoms: N4_45  and  C35_47 
ROOT
HETATM    1  C12 UNL     1      -0.170   1.230   0.072  1.00  0.00     0.177 C 
ENDROOT
BRANCH   1   2
HETATM    2  C11 UNL     1       0.960   1.708   0.963  1.00  0.00     0.044 C 
BRANCH   2   3
HETATM    3  C10 UNL     1       2.105   0.770   0.914  1.00  0.00     0.113 C 
BRANCH   3   4
HETATM    4  C9  UNL     1       2.744   0.599  -0.391  1.00  0.00     0.258 C 
HETATM    5  O2  UNL     1       2.482   1.171  -1.454  1.00  0.00    -0.265 OA
BRANCH   4   6
HETATM    6  O1  UNL     1       3.797  -0.341  -0.443  1.00  0.00    -0.321 OA
BRANCH   6   7
HETATM    7  C8  UNL     1       4.474  -0.581  -1.654  1.00  0.00     0.178 C 
BRANCH   7   8
HETATM    8  C7  UNL     1       5.560  -1.631  -1.366  1.00  0.00     0.027 C 
BRANCH   8   9
HETATM    9  C6  UNL     1       6.478  -1.068  -0.338  1.00  0.00     0.002 C 
BRANCH   9  10
HETATM   10  C5  UNL     1       7.627  -2.039   0.009  1.00  0.00     0.000 C 
BRANCH  10  11
HETATM   11  C4  UNL     1       7.066  -3.301   0.544  1.00  0.00     0.000 C 
BRANCH  11  12
HETATM   12  C3  UNL     1       8.031  -4.315   1.016  1.00  0.00    -0.000 C 
BRANCH  12  13
HETATM   13  C2  UNL     1       9.018  -4.889   0.066  1.00  0.00    -0.005 C 
HETATM   14  C1  UNL     1      10.008  -3.919  -0.480  1.00  0.00     0.005 C 
ENDBRANCH  12  13
ENDBRANCH  11  12
ENDBRANCH  10  11
ENDBRANCH   9  10
ENDBRANCH   8   9
ENDBRANCH   7   8
ENDBRANCH   6   7
ENDBRANCH   4   6
ENDBRANCH   3   4
ENDBRANCH   2   3
ENDBRANCH   1   2
BRANCH   1  15
HETATM   15  N1  UNL     1      -0.537  -0.078   0.596  1.00  0.00    -0.347 N 
HETATM   16  C13 UNL     1      -0.567  -1.268  -0.176  1.00  0.00     0.225 C 
HETATM   17  O3  UNL     1      -0.257  -1.087  -1.408  1.00  0.00    -0.273 OA
ATOM     18  H1  UNL     1      -0.789  -0.143   1.582  1.00  0.00     0.163 HD
BRANCH  16  19
HETATM   19  C14 UNL     1      -0.906  -2.610   0.308  1.00  0.00     0.120 C 
HETATM   20  C15 UNL     1      -0.354  -3.573  -0.778  1.00  0.00     0.052 C 
HETATM   21  C16 UNL     1      -1.570  -3.955  -1.505  1.00  0.00     0.225 C 
HETATM   22  C17 UNL     1      -1.528  -3.941  -2.980  1.00  0.00     0.037 C 
HETATM   23  N2  UNL     1      -2.461  -2.783  -1.252  1.00  0.00     0.105 N 
HETATM   24  C18 UNL     1      -2.995  -3.662  -3.303  1.00  0.00     0.032 C 
HETATM   25  C19 UNL     1      -3.587  -3.165  -1.993  1.00  0.00     0.274 C 
HETATM   26  C20 UNL     1      -2.424  -2.855   0.149  1.00  0.00     0.305 C 
BRANCH  26  27
HETATM   27  C21 UNL     1      -3.203  -2.077   1.048  1.00  0.00     0.165 C 
HETATM   28  O4  UNL     1      -2.777  -2.104   2.245  1.00  0.00    -0.295 OA
BRANCH  27  29
HETATM   29  C22 UNL     1      -4.406  -1.250   0.879  1.00  0.00     0.061 C 
HETATM   30  C23 UNL     1      -5.644  -1.958   0.463  1.00  0.00     0.039 C 
HETATM   31  C24 UNL     1      -6.883  -1.660   1.195  1.00  0.00    -0.024 C 
HETATM   32  C25 UNL     1      -7.060  -0.556   1.874  1.00  0.00    -0.087 C 
HETATM   33  C26 UNL     1      -8.271  -0.199   2.622  1.00  0.00     0.043 C 
HETATM   34  C27 UNL     1      -5.905   0.406   1.891  1.00  0.00     0.034 C 
HETATM   35  C28 UNL     1      -4.699  -0.486   2.169  1.00  0.00     0.017 C 
ENDBRANCH  27  29
ENDBRANCH  26  27
ENDBRANCH  16  19
ENDBRANCH   1  15
BRANCH   1  36
HETATM   36  C29 UNL     1      -1.336   2.170   0.173  1.00  0.00     0.243 C 
HETATM   37  O5  UNL     1      -2.405   1.831   0.686  1.00  0.00    -0.271 OA
HETATM   38  N3  UNL     1      -1.245   3.520  -0.332  1.00  0.00    -0.337 N 
HETATM   39  C30 UNL     1      -0.105   4.112  -1.002  1.00  0.00     0.127 C 
HETATM   40  C33 UNL     1      -2.259   4.537  -0.238  1.00  0.00     0.179 C 
HETATM   41  C31 UNL     1      -0.799   4.998  -2.051  1.00  0.00     0.022 C 
HETATM   42  C32 UNL     1      -2.015   5.512  -1.318  1.00  0.00     0.037 C 
BRANCH  40  43
HETATM   43  C34 UNL     1      -2.308   5.137   1.114  1.00  0.00     0.246 C 
HETATM   44  O6  UNL     1      -1.547   4.720   2.006  1.00  0.00    -0.271 OA
HETATM   45  N4  UNL     1      -3.214   6.176   1.382  1.00  0.00    -0.305 N 
ATOM     46  H4  UNL     1      -4.147   6.210   0.971  1.00  0.00     0.171 HD
BRANCH  45  47
HETATM   47  C35 UNL     1      -2.767   7.105   2.207  1.00  0.00     0.150 A 
HETATM   48  N5  UNL     1      -3.415   8.191   2.626  1.00  0.00    -0.346 N 
HETATM   49  C36 UNL     1      -2.809   9.000   3.444  1.00  0.00     0.097 A 
ATOM     50  H5  UNL     1      -4.366   8.384   2.312  1.00  0.00     0.167 HD
HETATM   51  C37 UNL     1      -1.530   8.689   3.831  1.00  0.00     0.070 A 
HETATM   52  S1  UNL     1      -1.259   7.227   2.986  1.00  0.00    -0.064 SA
ENDBRANCH  45  47
ENDBRANCH  40  43
ENDBRANCH   1  36
TORSDOF 18
