REMARK  16 active torsions:
REMARK  status: ('A' for Active; 'I' for Inactive)
REMARK    1  A    between atoms: C2_2  and  C18_28 
REMARK    2  A    between atoms: C3_3  and  C4_4 
REMARK    3  A    between atoms: C4_4  and  O2_6 
REMARK    4  A    between atoms: O2_6  and  S1_7 
REMARK    5  A    between atoms: S1_7  and  N1_10 
REMARK    6  A    between atoms: N1_10  and  C5_12 
REMARK    7  A    between atoms: C5_12  and  C6_13 
REMARK    8  A    between atoms: C6_13  and  C7_14 
REMARK    9  A    between atoms: C7_14  and  N2_15 
REMARK   10  A    between atoms: C10_18  and  N3_19 
REMARK   11  A    between atoms: C19_29  and  C21_31 
REMARK   12  A    between atoms: C22_32  and  C23_33 
REMARK   13  A    between atoms: C25_35  and  N5_37 
REMARK   14  A    between atoms: C29_40  and  C30_41 
REMARK   15  A    between atoms: C30_41  and  C31_42 
REMARK   16  A    between atoms: C31_42  and  C32_43 
ROOT
HETATM    1  C32 UNL     1     -10.411  -2.276  -0.995  1.00  0.00     0.042 C 
HETATM    2  C33 UNL     1      -9.969  -3.525  -1.713  1.00  0.00     0.031 C 
HETATM    3  C34 UNL     1     -10.531  -2.602   0.480  1.00  0.00     0.031 C 
HETATM    4  C35 UNL     1     -11.662  -1.826  -1.557  1.00  0.00     0.068 C 
HETATM    5  N6  UNL     1     -12.647  -1.461  -2.020  1.00  0.00    -0.196 NA
ENDROOT
BRANCH   1   6
HETATM    6  C31 UNL     1      -9.315  -1.225  -1.184  1.00  0.00     0.024 C 
BRANCH   6   7
HETATM    7  C30 UNL     1      -9.678   0.042  -0.499  1.00  0.00     0.010 C 
BRANCH   7   8
HETATM    8  C29 UNL     1      -8.670   1.130  -0.623  1.00  0.00     0.040 C 
HETATM    9  C25 UNL     1      -9.028   2.423   0.020  1.00  0.00     0.178 C 
HETATM   10  C24 UNL     1      -7.756   2.939   0.518  1.00  0.00     0.022 C 
HETATM   11  C26 UNL     1     -10.016   2.267   1.153  1.00  0.00     0.054 C 
HETATM   12  C23 UNL     1      -6.770   2.064   0.460  1.00  0.00    -0.051 C 
HETATM   13  C36 UNL     1      -7.292   0.802  -0.105  1.00  0.00    -0.014 C 
HETATM   14  C37 UNL     1      -6.430   0.286  -1.253  1.00  0.00     0.020 C 
HETATM   15  C38 UNL     1      -7.301  -0.190   1.045  1.00  0.00     0.020 C 
BRANCH   9  16
HETATM   16  N5  UNL     1      -9.505   3.383  -0.968  1.00  0.00     0.093 N 
HETATM   17  C27 UNL     1      -9.745   4.694  -0.390  1.00  0.00     0.310 C 
HETATM   18  C28 UNL     1     -10.586   2.940  -1.779  1.00  0.00     0.310 C 
ENDBRANCH   9  16
BRANCH  12  19
HETATM   19  C22 UNL     1      -5.394   2.372   0.914  1.00  0.00     0.008 C 
HETATM   20  C21 UNL     1      -4.382   1.517   0.887  1.00  0.00     0.007 C 
BRANCH  20  21
HETATM   21  C19 UNL     1      -3.089   1.889   1.343  1.00  0.00    -0.061 C 
HETATM   22  C18 UNL     1      -1.991   1.241   1.389  1.00  0.00     0.013 C 
HETATM   23  C20 UNL     1      -3.027   3.302   1.955  1.00  0.00     0.048 C 
BRANCH  22  24
HETATM   24  C2  UNL     1      -1.621  -0.072   0.937  1.00  0.00    -0.056 C 
HETATM   25  C1  UNL     1      -2.598  -0.946   0.180  1.00  0.00     0.048 C 
HETATM   26  C3  UNL     1      -0.418  -0.616   1.084  1.00  0.00     0.090 C 
BRANCH  26  27
HETATM   27  C4  UNL     1       0.742  -0.107   1.729  1.00  0.00     0.299 C 
HETATM   28  O1  UNL     1       0.849   0.990   2.301  1.00  0.00    -0.259 OA
BRANCH  27  29
HETATM   29  O2  UNL     1       1.916  -0.912   1.743  1.00  0.00    -0.176 OA
BRANCH  29  30
HETATM   30  S1  UNL     1       3.307  -0.354   2.508  1.00  0.00     0.365 S 
HETATM   31  O3  UNL     1       3.406  -1.016   3.870  1.00  0.00    -0.175 OA
HETATM   32  O4  UNL     1       3.177   1.126   2.766  1.00  0.00    -0.175 OA
BRANCH  30  33
HETATM   33  N1  UNL     1       4.699  -0.759   1.613  1.00  0.00    -0.296 N 
ATOM     34  H1  UNL     1       5.154  -0.119   0.961  1.00  0.00     0.174 HD
BRANCH  33  35
HETATM   35  C5  UNL     1       5.168  -2.093   1.869  1.00  0.00     0.135 C 
BRANCH  35  36
HETATM   36  C6  UNL     1       6.404  -2.473   1.097  1.00  0.00     0.050 C 
BRANCH  36  37
HETATM   37  C7  UNL     1       7.553  -1.556   1.453  1.00  0.00     0.274 C 
BRANCH  37  38
HETATM   38  N2  UNL     1       8.781  -1.865   0.763  1.00  0.00     0.088 N 
HETATM   39  C8  UNL     1       9.783  -0.910   1.282  1.00  0.00     0.274 C 
HETATM   40  C9  UNL     1      11.111  -1.429   0.750  1.00  0.00     0.066 C 
HETATM   41  C10 UNL     1      11.138  -1.184  -0.745  1.00  0.00     0.226 C 
HETATM   42  C16 UNL     1       9.914  -1.823  -1.406  1.00  0.00     0.066 C 
HETATM   43  C17 UNL     1       8.640  -1.529  -0.639  1.00  0.00     0.274 C 
BRANCH  41  44
HETATM   44  N3  UNL     1      12.301  -1.805  -1.292  1.00  0.00     0.096 N 
HETATM   45  C11 UNL     1      12.536  -1.525  -2.689  1.00  0.00     0.303 C 
HETATM   46  C12 UNL     1      12.750  -0.036  -2.831  1.00  0.00     0.302 C 
HETATM   47  N4  UNL     1      13.796   0.487  -2.019  1.00  0.00     0.087 N 
HETATM   48  C13 UNL     1      13.526   1.922  -1.837  1.00  0.00     0.310 C 
HETATM   49  C14 UNL     1      13.959  -0.089  -0.728  1.00  0.00     0.302 C 
HETATM   50  C15 UNL     1      13.526  -1.510  -0.592  1.00  0.00     0.303 C 
ENDBRANCH  41  44
ENDBRANCH  37  38
ENDBRANCH  36  37
ENDBRANCH  35  36
ENDBRANCH  33  35
ENDBRANCH  30  33
ENDBRANCH  29  30
ENDBRANCH  27  29
ENDBRANCH  26  27
ENDBRANCH  22  24
ENDBRANCH  20  21
ENDBRANCH  12  19
ENDBRANCH   7   8
ENDBRANCH   6   7
ENDBRANCH   1   6
TORSDOF 16
