REMARK  1 active torsions:
REMARK  status: ('A' for Active; 'I' for Inactive)
REMARK    1  A    between atoms: C7_9  and  C9_11 
ROOT
HETATM    1  C1  UNL     1       4.289   0.218  -0.323  1.00  0.00     0.036 C 
HETATM    2  C2  UNL     1       3.139  -0.692  -0.513  1.00  0.00    -0.023 C 
HETATM    3  C3  UNL     1       1.916  -0.269  -0.260  1.00  0.00    -0.049 C 
HETATM    4  C4  UNL     1       1.499   1.050   0.210  1.00  0.00     0.022 C 
HETATM    5  C5  UNL     1       0.241   1.055   0.596  1.00  0.00     0.038 C 
HETATM    6  C6  UNL     1      -0.884   1.813   1.136  1.00  0.00     0.291 C 
HETATM    7  O1  UNL     1      -0.820   3.019   1.538  1.00  0.00    -0.260 OA
HETATM    8  O2  UNL     1      -2.017   1.014   1.139  1.00  0.00    -0.301 OA
HETATM    9  C7  UNL     1      -1.767  -0.042   0.230  1.00  0.00     0.107 C 
HETATM   10  C8  UNL     1      -2.541  -1.250   0.746  1.00  0.00     0.053 C 
HETATM   11  C11 UNL     1      -0.318  -0.305   0.419  1.00  0.00     0.103 A 
HETATM   12  C12 UNL     1       0.209  -1.503   1.005  1.00  0.00     0.154 A 
HETATM   13  O3  UNL     1       0.309  -2.321   1.890  1.00  0.00    -0.296 OA
HETATM   14  C13 UNL     1       0.610  -1.014  -0.382  1.00  0.00     0.113 A 
ENDROOT
BRANCH   9  15
HETATM   15  C9  UNL     1      -2.155   0.279  -1.150  1.00  0.00     0.039 C 
HETATM   16  C10 UNL     1      -3.303   0.904  -1.370  1.00  0.00     0.056 C 
HETATM   17 BR1  UNL     1      -3.861   1.347  -3.152  1.00  0.00    -0.043 Br
HETATM   18 BR2  UNL     1      -4.450   1.390   0.064  1.00  0.00    -0.043 Br
ENDBRANCH   9  15
TORSDOF 1
