REMARK  5 active torsions:
REMARK  status: ('A' for Active; 'I' for Inactive)
REMARK    1  A    between atoms: O1_2  and  C2_3 
REMARK    2  A    between atoms: C2_3  and  N3_9 
REMARK    3  A    between atoms: N1_4  and  N2_6 
REMARK    4  A    between atoms: N3_9  and  N4_11 
REMARK    5  A    between atoms: N7_19  and  N8_20 
ROOT
HETATM    1  N4  UNL     1       0.004   0.041  -0.627  1.00  0.00    -0.187 N 
HETATM    2  C3  UNL     1       0.750  -0.181  -1.746  1.00  0.00     0.293 A 
HETATM    3  O2  UNL     1       0.223  -0.245  -2.896  1.00  0.00    -0.264 OA
HETATM    4  C4  UNL     1       2.114  -0.349  -1.684  1.00  0.00     0.157 A 
HETATM    5  C5  UNL     1       2.906  -0.585  -2.870  1.00  0.00     0.108 C 
HETATM    6  N5  UNL     1       3.526  -0.765  -3.832  1.00  0.00    -0.191 NA
HETATM    7  C6  UNL     1       2.683  -0.279  -0.432  1.00  0.00     0.166 A 
HETATM    8  N6  UNL     1       4.096  -0.451  -0.352  1.00  0.00    -0.079 NA
HETATM    9  N7  UNL     1       1.965  -0.060   0.683  1.00  0.00    -0.219 N 
HETATM   10  C7  UNL     1       0.606   0.100   0.561  1.00  0.00     0.223 A 
HETATM   11  S1  UNL     1      -0.172   0.360   1.975  1.00  0.00    -0.037 SA
ENDROOT
BRANCH   1  12
HETATM   12  N3  UNL     1      -1.356   0.201  -0.753  1.00  0.00    -0.252 N 
ATOM     13  H3  UNL     1      -1.717   0.139  -1.705  1.00  0.00     0.191 HD
BRANCH  12  14
HETATM   14  C2  UNL     1      -2.317   0.437   0.241  1.00  0.00     0.253 C 
HETATM   15  N1  UNL     1      -3.019  -0.539   0.767  1.00  0.00    -0.271 N 
ATOM     16  H1  UNL     1      -3.713  -0.339   1.487  1.00  0.00     0.190 HD
BRANCH  14  17
HETATM   17  O1  UNL     1      -2.608   1.701   0.743  1.00  0.00    -0.325 OA
HETATM   18  C1  UNL     1      -3.938   1.968   1.172  1.00  0.00     0.213 C 
ENDBRANCH  14  17
BRANCH  15  19
HETATM   19  N2  UNL     1      -2.813  -1.854   0.338  1.00  0.00    -0.342 N 
ATOM     20  H22 UNL     1      -2.115  -2.037  -0.383  1.00  0.00     0.176 HD
ATOM     21  H21 UNL     1      -3.359  -2.613   0.747  1.00  0.00     0.176 HD
ENDBRANCH  15  19
ENDBRANCH  12  14
ENDBRANCH   1  12
BRANCH   9  22
HETATM   22  N8  UNL     1       2.594   0.001   1.926  1.00  0.00    -0.335 N 
ATOM     23  H82 UNL     1       3.603  -0.118   2.017  1.00  0.00     0.177 HD
ATOM     24  H81 UNL     1       2.049   0.167   2.772  1.00  0.00     0.177 HD
ENDBRANCH   9  22
TORSDOF 5
