REMARK  7 active torsions:
REMARK  status: ('A' for Active; 'I' for Inactive)
REMARK    1  A    between atoms: N1_1  and  C1_4 
REMARK    2  A    between atoms: C5_11  and  N3_12 
REMARK    3  A    between atoms: N5_22  and  C12_23 
REMARK    4  A    between atoms: C12_23  and  O1_24 
REMARK    5  A    between atoms: O1_24  and  C13_25 
REMARK    6  A    between atoms: C13_25  and  C14_26 
REMARK    7  A    between atoms: C14_26  and  C15_27 
ROOT
HETATM    1  C1  UNL     1       2.361  -2.243  -0.566  1.00  0.00     0.680 A 
HETATM    2  N2  UNL     1       1.384  -3.000  -1.093  1.00  0.00    -0.190 N 
ATOM      3  H2  UNL     1       1.541  -3.890  -1.565  1.00  0.00     0.184 HD
HETATM    4  C2  UNL     1       0.171  -2.439  -0.921  1.00  0.00     0.079 A 
HETATM    5  C3  UNL     1      -1.121  -2.785  -1.258  1.00  0.00     0.077 A 
HETATM    6  C4  UNL     1      -2.166  -1.955  -0.918  1.00  0.00     0.145 A 
HETATM    7  F1  UNL     1      -3.414  -2.351  -1.277  1.00  0.00    -0.204 F 
HETATM    8  C5  UNL     1      -1.916  -0.780  -0.242  1.00  0.00     0.071 A 
HETATM    9  C10 UNL     1      -0.624  -0.433   0.095  1.00  0.00     0.065 A 
HETATM   10  C11 UNL     1       0.442  -1.249  -0.234  1.00  0.00     0.083 A 
HETATM   11  N5  UNL     1       1.769  -1.162  -0.037  1.00  0.00    -0.160 N 
ENDROOT
BRANCH   8  12
HETATM   12  N3  UNL     1      -3.034   0.038   0.082  1.00  0.00    -0.375 N 
HETATM   13  C6  UNL     1      -4.109  -0.457   0.920  1.00  0.00     0.150 C 
HETATM   14  C7  UNL     1      -4.636   0.719   1.710  1.00  0.00     0.252 C 
HETATM   15  N4  UNL     1      -5.235   1.712   0.855  1.00  0.00    -0.072 N 
HETATM   16  C8  UNL     1      -4.621   1.791  -0.442  1.00  0.00     0.252 C 
ATOM     17  H42 UNL     1      -6.240   1.559   0.771  1.00  0.00     0.277 HD
ATOM     18  H41 UNL     1      -5.241   2.625   1.309  1.00  0.00     0.277 HD
HETATM   19  C9  UNL     1      -3.148   1.396  -0.409  1.00  0.00     0.150 C 
ENDBRANCH   8  12
BRANCH  11  20
HETATM   20  C12 UNL     1       2.461  -0.066   0.645  1.00  0.00     0.317 C 
BRANCH  20  21
HETATM   21  O1  UNL     1       2.789   0.891  -0.308  1.00  0.00    -0.371 OA
BRANCH  21  22
HETATM   22  C13 UNL     1       3.440   1.994   0.193  1.00  0.00     0.172 C 
BRANCH  22  23
HETATM   23  C14 UNL     1       4.752   1.648   0.861  1.00  0.00     0.057 C 
BRANCH  23  24
HETATM   24  C15 UNL     1       5.685   0.982  -0.138  1.00  0.00     0.224 C 
HETATM   25  F2  UNL     1       6.858   0.682   0.498  1.00  0.00    -0.255 F 
ENDBRANCH  23  24
ENDBRANCH  22  23
ENDBRANCH  21  22
ENDBRANCH  20  21
ENDBRANCH  11  20
BRANCH   1  26
HETATM   26  N1  UNL     1       3.632  -2.532  -0.580  1.00  0.00    -0.234 N 
ATOM     27  H12 UNL     1       4.082  -3.354  -0.982  1.00  0.00     0.174 HD
ATOM     28  H11 UNL     1       4.374  -1.957  -0.180  1.00  0.00     0.174 HD
ENDBRANCH   1  26
TORSDOF 7
