REMARK  9 active torsions:
REMARK  status: ('A' for Active; 'I' for Inactive)
REMARK    1  A    between atoms: C5_10  and  N3_11 
REMARK    2  A    between atoms: N3_11  and  C6_13 
REMARK    3  A    between atoms: C6_13  and  C7_14 
REMARK    4  A    between atoms: C7_14  and  N4_15 
REMARK    5  A    between atoms: N6_21  and  C8_22 
REMARK    6  A    between atoms: C8_22  and  C9_23 
REMARK    7  A    between atoms: C9_23  and  C10_24 
REMARK    8  A    between atoms: C10_24  and  C11_25 
REMARK    9  A    between atoms: C11_25  and  C12_26 
ROOT
HETATM    1  C1  UNL     1       1.257  -3.266  -1.265  1.00  0.00     0.072 C 
HETATM    2  C2  UNL     1      -0.130  -2.943  -0.928  1.00  0.00     0.051 A 
HETATM    3  N1  UNL     1      -1.160  -3.766  -1.266  1.00  0.00    -0.300 N 
ATOM      4  H1  UNL     1      -0.931  -4.615  -1.783  1.00  0.00     0.186 HD
HETATM    5  N2  UNL     1      -2.410  -3.558  -0.984  1.00  0.00    -0.265 N 
ATOM      6  H2  UNL     1      -3.126  -4.224  -1.274  1.00  0.00     0.190 HD
HETATM    7  C3  UNL     1      -2.742  -2.455  -0.307  1.00  0.00     0.276 A 
HETATM    8  O1  UNL     1      -3.935  -2.184   0.004  1.00  0.00    -0.266 OA
HETATM    9  C4  UNL     1      -1.791  -1.543   0.093  1.00  0.00     0.108 A 
HETATM   10  C5  UNL     1      -1.838  -0.353   0.788  1.00  0.00     0.134 A 
HETATM   11  N5  UNL     1      -0.598   0.098   0.888  1.00  0.00    -0.282 N 
ATOM     12  H5  UNL     1      -0.317   0.962   1.352  1.00  0.00     0.189 HD
HETATM   13  N6  UNL     1       0.238  -0.774   0.273  1.00  0.00    -0.288 N 
HETATM   14  C13 UNL     1      -0.440  -1.797  -0.230  1.00  0.00     0.094 A 
ENDROOT
BRANCH  10  15
HETATM   15  N3  UNL     1      -2.928   0.168   1.233  1.00  0.00    -0.373 N 
ATOM     16  H3  UNL     1      -3.806  -0.323   1.064  1.00  0.00     0.161 HD
BRANCH  15  17
HETATM   17  C6  UNL     1      -2.966   1.417   1.962  1.00  0.00     0.148 C 
BRANCH  17  18
HETATM   18  C7  UNL     1      -4.084   2.277   1.414  1.00  0.00     0.249 C 
BRANCH  18  19
HETATM   19  N4  UNL     1      -3.858   2.549   0.003  1.00  0.00    -0.078 N 
ATOM     20  H43 UNL     1      -2.941   2.963  -0.164  1.00  0.00     0.274 HD
ATOM     21  H42 UNL     1      -3.736   1.692  -0.536  1.00  0.00     0.274 HD
ATOM     22  H41 UNL     1      -4.612   3.129  -0.366  1.00  0.00     0.274 HD
ENDBRANCH  18  19
ENDBRANCH  17  18
ENDBRANCH  15  17
ENDBRANCH  10  15
BRANCH  13  23
HETATM   23  C8  UNL     1       1.669  -0.522   0.191  1.00  0.00     0.149 C 
BRANCH  23  24
HETATM   24  C9  UNL     1       1.944   0.355  -1.015  1.00  0.00     0.022 C 
BRANCH  24  25
HETATM   25  C10 UNL     1       3.394   0.643  -1.168  1.00  0.00     0.010 C 
BRANCH  25  26
HETATM   26  C11 UNL     1       4.003   1.382  -0.047  1.00  0.00     0.117 C 
BRANCH  26  27
HETATM   27  C12 UNL     1       3.487   2.760   0.224  1.00  0.00     0.387 C 
HETATM   28  F1  UNL     1       4.222   3.249   1.318  1.00  0.00    -0.171 F 
HETATM   29  F2  UNL     1       2.177   2.852   0.541  1.00  0.00    -0.171 F 
HETATM   30  F3  UNL     1       3.829   3.602  -0.823  1.00  0.00    -0.171 F 
ENDBRANCH  26  27
ENDBRANCH  25  26
ENDBRANCH  24  25
ENDBRANCH  23  24
ENDBRANCH  13  23
TORSDOF 9
