REMARK  10 active torsions:
REMARK  status: ('A' for Active; 'I' for Inactive)
REMARK    1  A    between atoms: C2_2  and  C3_5 
REMARK    2  A    between atoms: C3_5  and  C4_6 
REMARK    3  A    between atoms: C4_6  and  C5_7 
REMARK    4  A    between atoms: C5_7  and  N1_8 
REMARK    5  A    between atoms: N1_8  and  C6_10 
REMARK    6  A    between atoms: C9_17  and  N4_18 
REMARK    7  A    between atoms: N4_18  and  C10_20 
REMARK    8  A    between atoms: C10_20  and  C11_21 
REMARK    9  A    between atoms: C11_21  and  C12_22 
REMARK   10  A    between atoms: C12_22  and  N5_23 
ROOT
HETATM    1  C6  UNL     1      -1.093   0.721  -0.894  1.00  0.00     0.131 A 
HETATM    2  N2  UNL     1      -0.855   1.938  -0.372  1.00  0.00    -0.337 N 
ATOM      3  H2  UNL     1      -1.601   2.633  -0.353  1.00  0.00     0.168 HD
HETATM    4  C7  UNL     1       0.371   2.252   0.132  1.00  0.00     0.182 A 
HETATM    5  N3  UNL     1       1.398   1.386   0.137  1.00  0.00    -0.347 N 
ATOM      6  H3  UNL     1       2.303   1.657   0.522  1.00  0.00     0.167 HD
HETATM    7  C8  UNL     1       1.211   0.136  -0.382  1.00  0.00     0.108 A 
HETATM    8  C9  UNL     1       2.256  -0.778  -0.388  1.00  0.00     0.131 A 
HETATM    9  N6  UNL     1       2.065  -2.004  -0.899  1.00  0.00    -0.337 N 
ATOM     10  H6  UNL     1       2.818  -2.692  -0.913  1.00  0.00     0.168 HD
HETATM   11  C13 UNL     1       0.850  -2.296  -1.391  1.00  0.00     0.182 A 
HETATM   12  N7  UNL     1      -0.174  -1.423  -1.393  1.00  0.00    -0.347 N 
ATOM     13  H7  UNL     1      -1.072  -1.710  -1.782  1.00  0.00     0.167 HD
HETATM   14  C14 UNL     1      -0.039  -0.168  -0.889  1.00  0.00     0.108 A 
ENDROOT
BRANCH   1  15
HETATM   15  N1  UNL     1      -2.234   0.392  -1.376  1.00  0.00    -0.374 N 
ATOM     16  H1  UNL     1      -2.323  -0.552  -1.751  1.00  0.00     0.161 HD
BRANCH  15  17
HETATM   17  C5  UNL     1      -3.387   1.221  -1.436  1.00  0.00     0.121 C 
BRANCH  17  18
HETATM   18  C4  UNL     1      -4.299   0.970  -0.268  1.00  0.00     0.025 C 
BRANCH  18  19
HETATM   19  C3  UNL     1      -4.762  -0.473  -0.249  1.00  0.00     0.080 C 
BRANCH  19  20
HETATM   20  C2  UNL     1      -5.671  -0.668   0.940  1.00  0.00     0.240 C 
HETATM   21  C1  UNL     1      -6.885   0.253   0.848  1.00  0.00     0.090 C 
HETATM   22  F1  UNL     1      -6.090  -1.984   0.937  1.00  0.00    -0.207 F 
HETATM   23  F2  UNL     1      -5.008  -0.334   2.108  1.00  0.00    -0.207 F 
ENDBRANCH  19  20
ENDBRANCH  18  19
ENDBRANCH  17  18
ENDBRANCH  15  17
ENDBRANCH   1  15
BRANCH   8  24
HETATM   24  N4  UNL     1       3.391  -0.464   0.086  1.00  0.00    -0.374 N 
ATOM     25  H4  UNL     1       3.491   0.478   0.464  1.00  0.00     0.161 HD
BRANCH  24  26
HETATM   26  C10 UNL     1       4.539  -1.309   0.138  1.00  0.00     0.123 C 
BRANCH  26  27
HETATM   27  C11 UNL     1       5.614  -0.827   1.052  1.00  0.00     0.047 C 
BRANCH  27  28
HETATM   28  C12 UNL     1       6.151   0.533   0.675  1.00  0.00     0.231 C 
BRANCH  28  29
HETATM   29  N5  UNL     1       6.718   0.568  -0.635  1.00  0.00    -0.079 N 
ATOM     30  H53 UNL     1       7.437  -0.148  -0.739  1.00  0.00     0.274 HD
ATOM     31  H52 UNL     1       6.049   0.236  -1.330  1.00  0.00     0.274 HD
ATOM     32  H51 UNL     1       7.081   1.487  -0.890  1.00  0.00     0.274 HD
ENDBRANCH  28  29
ENDBRANCH  27  28
ENDBRANCH  26  27
ENDBRANCH  24  26
ENDBRANCH   8  24
TORSDOF 10
