REMARK  15 active torsions:
REMARK  status: ('A' for Active; 'I' for Inactive)
REMARK    1  A    between atoms: N2_4  and  N3_6 
REMARK    2  A    between atoms: C1_13  and  C2_14 
REMARK    3  A    between atoms: C2_14  and  N7_15 
REMARK    4  A    between atoms: C2_14  and  C10_29 
REMARK    5  A    between atoms: N7_15  and  N8_17 
REMARK    6  A    between atoms: N8_17  and  C3_18 
REMARK    7  A    between atoms: C5_20  and  C6_21 
REMARK    8  A    between atoms: C10_29  and  C11_30 
REMARK    9  A    between atoms: C10_29  and  N10_44 
REMARK   10  A    between atoms: C11_30  and  C12_32 
REMARK   11  A    between atoms: C13_33  and  C14_34 
REMARK   12  A    between atoms: C17_37  and  O3_38 
REMARK   13  A    between atoms: C18_40  and  O4_41 
REMARK   14  A    between atoms: N10_44  and  N11_45 
REMARK   15  A    between atoms: N10_44  and  O5_48 
ROOT
HETATM    1  C2  UNL     1      -0.563  -1.020  -0.052  1.00  0.00     0.139 C 
ENDROOT
BRANCH   1   2
HETATM    2  C1  UNL     1       0.378  -1.931  -0.604  1.00  0.00     0.195 A 
HETATM    3  N3  UNL     1       1.307  -2.754  -0.358  1.00  0.00    -0.146 N 
HETATM    4  N4  UNL     1       1.822  -3.300  -1.473  1.00  0.00    -0.204 N 
HETATM    5  N5  UNL     1       1.189  -2.803  -2.497  1.00  0.00    -0.225 N 
ATOM      6  H4  UNL     1       2.577  -3.985  -1.511  1.00  0.00     0.212 HD
HETATM    7  N6  UNL     1       0.304  -1.971  -2.055  1.00  0.00    -0.265 N 
ATOM      8  H5  UNL     1       1.361  -3.030  -3.476  1.00  0.00     0.210 HD
ATOM      9  H6  UNL     1      -0.341  -1.430  -2.631  1.00  0.00     0.190 HD
BRANCH   3  10
HETATM   10  N2  UNL     1       1.817  -3.265   0.864  1.00  0.00    -0.225 N 
HETATM   11  N1  UNL     1       1.609  -4.264   1.387  1.00  0.00    -0.329 N 
ATOM     12  H12 UNL     1       0.956  -4.865   0.884  1.00  0.00     0.178 HD
ATOM     13  H11 UNL     1       1.976  -4.631   2.265  1.00  0.00     0.178 HD
ATOM     14  H2  UNL     1       2.468  -2.649   1.351  1.00  0.00     0.210 HD
ENDBRANCH   3  10
ENDBRANCH   1   2
BRANCH   1  15
HETATM   15  N7  UNL     1      -1.319  -0.286   0.395  1.00  0.00    -0.227 N 
ATOM     16  H7  UNL     1      -1.122  -0.011   1.357  1.00  0.00     0.202 HD
BRANCH  15  17
HETATM   17  N8  UNL     1      -2.375   0.253  -0.106  1.00  0.00    -0.297 NA
BRANCH  17  18
HETATM   18  C3  UNL     1      -3.451   0.671  -0.425  1.00  0.00     0.266 A 
HETATM   19  C4  UNL     1      -4.687   0.450   0.234  1.00  0.00     0.108 A 
HETATM   20  C5  UNL     1      -5.660   1.107  -0.465  1.00  0.00     0.077 A 
HETATM   21  N9  UNL     1      -5.039   1.690  -1.483  1.00  0.00    -0.257 N 
HETATM   22  O1  UNL     1      -3.776   1.454  -1.478  1.00  0.00    -0.202 OA
ATOM     23  H9  UNL     1      -5.509   2.259  -2.187  1.00  0.00     0.195 HD
BRANCH  20  24
HETATM   24  C6  UNL     1      -7.103   1.154  -0.165  1.00  0.00     0.033 A 
HETATM   25  C7  UNL     1      -7.720   0.517   0.875  1.00  0.00     0.021 A 
HETATM   26  C8  UNL     1      -9.042   0.669   0.989  1.00  0.00     0.008 A 
HETATM   27  C9  UNL     1      -9.674   1.447   0.058  1.00  0.00     0.050 A 
HETATM   28  S1  UNL     1      -8.374   1.942  -0.956  1.00  0.00    -0.100 SA
ENDBRANCH  20  24
ENDBRANCH  17  18
ENDBRANCH  15  17
ENDBRANCH   1  15
BRANCH   1  29
HETATM   29  C10 UNL     1       0.519  -0.468   1.314  1.00  0.00     0.141 C 
BRANCH  29  30
HETATM   30  C11 UNL     1       1.725  -0.116   0.713  1.00  0.00     0.199 C 
HETATM   31  O2  UNL     1       2.843  -0.329   1.328  1.00  0.00    -0.286 OA
BRANCH  30  32
HETATM   32  C12 UNL     1       1.856   0.497  -0.604  1.00  0.00     0.058 C 
HETATM   33  C13 UNL     1       2.811   0.883  -1.330  1.00  0.00     0.015 C 
BRANCH  33  34
HETATM   34  C14 UNL     1       4.248   0.949  -1.266  1.00  0.00    -0.033 A 
HETATM   35  C15 UNL     1       5.011   0.776  -2.422  1.00  0.00     0.014 A 
HETATM   36  C16 UNL     1       6.372   0.923  -2.493  1.00  0.00     0.040 A 
HETATM   37  C17 UNL     1       7.024   1.279  -1.289  1.00  0.00     0.098 A 
HETATM   38  C18 UNL     1       6.338   1.457  -0.168  1.00  0.00     0.099 A 
HETATM   39  C19 UNL     1       4.935   1.293  -0.145  1.00  0.00     0.050 A 
BRANCH  37  40
HETATM   40  O3  UNL     1       8.417   1.433  -1.345  1.00  0.00    -0.358 OA
ATOM     41  H3  UNL     1       8.855   1.672  -0.537  1.00  0.00     0.217 HD
ENDBRANCH  37  40
BRANCH  38  42
HETATM   42  O4  UNL     1       6.949   1.820   1.063  1.00  0.00    -0.358 OA
ATOM     43  H4  UNL     1       6.458   1.948   1.866  1.00  0.00     0.217 HD
ENDBRANCH  38  42
ENDBRANCH  33  34
ENDBRANCH  30  32
ENDBRANCH  29  30
BRANCH  29  44
HETATM   44  N10 UNL     1       0.033  -1.092   2.370  1.00  0.00    -0.071 NA
BRANCH  44  45
HETATM   45  N11 UNL     1       0.811  -1.132   3.547  1.00  0.00    -0.336 NA
ATOM     46 2H11 UNL     1       1.693  -1.531   3.226  1.00  0.00     0.173 HD
ATOM     47 1H11 UNL     1       0.435  -1.614   4.363  1.00  0.00     0.173 HD
ENDBRANCH  44  45
BRANCH  44  48
HETATM   48  O5  UNL     1      -1.191  -0.539   2.816  1.00  0.00    -0.289 OA
ATOM     49  H5  UNL     1      -1.541  -0.988   3.576  1.00  0.00     0.239 HD
ENDBRANCH  44  48
ENDBRANCH  29  44
ENDBRANCH   1  29
TORSDOF 15
