REMARK  5 active torsions:
REMARK  status: ('A' for Active; 'I' for Inactive)
REMARK    1  A    between atoms: N1_1  and  C1_4 
REMARK    2  A    between atoms: C2_5  and  C3_6 
REMARK    3  A    between atoms: C4_7  and  C5_8 
REMARK    4  A    between atoms: C6_9  and  C7_10 
REMARK    5  A    between atoms: C7_10  and  N2_11 
ROOT
HETATM    1  C3  UNL     1       1.609   0.100   0.234  1.00  0.00     0.001 C 
HETATM    2  C4  UNL     1       0.439   0.150  -0.101  1.00  0.00    -0.001 C 
ENDROOT
BRANCH   2   3
HETATM    3  C5  UNL     1      -0.931   0.204  -0.470  1.00  0.00    -0.013 C 
HETATM    4  C6  UNL     1      -2.106   0.256  -0.766  1.00  0.00    -0.065 C 
BRANCH   4   5
HETATM    5  C7  UNL     1      -3.523   0.337  -1.106  1.00  0.00     0.324 C 
BRANCH   5   6
HETATM    6  N2  UNL     1      -4.212  -0.764  -0.512  1.00  0.00    -0.069 N 
ATOM      7  H23 UNL     1      -3.803  -1.662  -0.770  1.00  0.00     0.275 HD
ATOM      8  H22 UNL     1      -4.058  -0.820   0.495  1.00  0.00     0.275 HD
ATOM      9  H21 UNL     1      -5.202  -0.707  -0.750  1.00  0.00     0.275 HD
ENDBRANCH   5   6
ENDBRANCH   4   5
ENDBRANCH   2   3
BRANCH   1  10
HETATM   10  C2  UNL     1       2.964   0.042   0.647  1.00  0.00     0.009 C 
HETATM   11  C1  UNL     1       4.120  -0.004   1.022  1.00  0.00     0.017 C 
BRANCH  11  12
HETATM   12  N1  UNL     1       5.442  -0.050   1.471  1.00  0.00    -0.359 N 
ATOM     13  H12 UNL     1       4.490   0.182   1.755  1.00  0.00     0.166 HD
ATOM     14  H11 UNL     1       6.412  -0.089   1.786  1.00  0.00     0.166 HD
ENDBRANCH  11  12
ENDBRANCH   1  10
TORSDOF 5
