REMARK  12 active torsions:
REMARK  status: ('A' for Active; 'I' for Inactive)
REMARK    1  A    between atoms: C3_3  and  C4_4 
REMARK    2  A    between atoms: C4_4  and  N1_5 
REMARK    3  A    between atoms: N1_5  and  N2_6 
REMARK    4  A    between atoms: N1_5  and  N3_9 
REMARK    5  A    between atoms: C9_16  and  C10_17 
REMARK    6  A    between atoms: C10_17  and  O1_19 
REMARK    7  A    between atoms: C12_21  and  C13_22 
REMARK    8  A    between atoms: C13_22  and  O2_23 
REMARK    9  A    between atoms: O2_23  and  C14_24 
REMARK   10  A    between atoms: C16_27  and  C17_28 
REMARK   11  A    between atoms: C17_28  and  O5_30 
REMARK   12  A    between atoms: C20_34  and  N6_35 
ROOT
HETATM    1  N3  UNL     1      -6.301   2.054  -1.234  1.00  0.00    -0.216 N 
ATOM      2  H3  UNL     1      -7.194   1.824  -0.797  1.00  0.00     0.201 HD
HETATM    3  C5  UNL     1      -6.131   1.823  -2.619  1.00  0.00     0.199 C 
HETATM    4  N4  UNL     1      -5.985   1.623  -3.750  1.00  0.00    -0.170 NA
ENDROOT
BRANCH   1   5
HETATM    5  N1  UNL     1      -5.287   2.584  -0.458  1.00  0.00    -0.205 N 
BRANCH   5   6
HETATM    6  C4  UNL     1      -3.958   2.209  -0.568  1.00  0.00     0.149 C 
BRANCH   6   7
HETATM    7  C3  UNL     1      -3.260   1.205  -0.108  1.00  0.00    -0.001 A 
HETATM    8  C2  UNL     1      -1.904   1.138  -0.419  1.00  0.00    -0.020 A 
HETATM    9  C1  UNL     1      -1.349   2.119  -1.058  1.00  0.00     0.025 C 
HETATM   10  C12 UNL     1      -1.077   0.056  -0.008  1.00  0.00     0.010 A 
HETATM   11  C9  UNL     1      -1.611  -0.973   0.731  1.00  0.00     0.025 A 
HETATM   12  C8  UNL     1      -2.977  -0.884   1.036  1.00  0.00     0.024 A 
HETATM   13  C6  UNL     1      -3.753   0.170   0.625  1.00  0.00    -0.049 A 
HETATM   14  C7  UNL     1      -5.185   0.128   1.029  1.00  0.00     0.049 C 
BRANCH  10  15
HETATM   15  C13 UNL     1       0.163   0.062  -0.384  1.00  0.00     0.151 C 
BRANCH  15  16
HETATM   16  O2  UNL     1       1.236  -0.744  -0.211  1.00  0.00    -0.328 OA
BRANCH  16  17
HETATM   17  C14 UNL     1       2.568  -0.268  -0.435  1.00  0.00     0.308 C 
HETATM   18  O3  UNL     1       2.843   0.816   0.427  1.00  0.00    -0.328 OA
HETATM   19  C15 UNL     1       4.129   1.282   0.582  1.00  0.00     0.159 C 
HETATM   20  C16 UNL     1       5.150   0.465   0.465  1.00  0.00     0.109 C 
HETATM   21  C19 UNL     1       4.876  -0.924   0.170  1.00  0.00     0.202 C 
HETATM   22  O6  UNL     1       5.794  -1.764   0.311  1.00  0.00    -0.290 OA
HETATM   23  C20 UNL     1       3.550  -1.398  -0.293  1.00  0.00     0.313 C 
BRANCH  20  24
HETATM   24  C17 UNL     1       6.541   0.936   0.626  1.00  0.00     0.298 C 
HETATM   25  O4  UNL     1       6.744   2.143   0.880  1.00  0.00    -0.259 OA
BRANCH  24  26
HETATM   26  O5  UNL     1       7.597   0.078   0.502  1.00  0.00    -0.322 OA
HETATM   27  C18 UNL     1       8.931   0.569   0.665  1.00  0.00     0.213 C 
ENDBRANCH  24  26
ENDBRANCH  20  24
BRANCH  23  28
HETATM   28  N6  UNL     1       3.748  -2.115  -1.537  1.00  0.00    -0.063 N 
ATOM     29  H63 UNL     1       2.861  -2.444  -1.918  1.00  0.00     0.275 HD
ATOM     30  H62 UNL     1       4.022  -1.481  -2.288  1.00  0.00     0.275 HD
ATOM     31  H61 UNL     1       4.414  -2.881  -1.441  1.00  0.00     0.275 HD
ENDBRANCH  23  28
ENDBRANCH  16  17
ENDBRANCH  15  16
ENDBRANCH  10  15
BRANCH  11  32
HETATM   32  C10 UNL     1      -1.031  -2.043   1.196  1.00  0.00     0.162 C 
HETATM   33  N5  UNL     1       0.234  -2.607   1.192  1.00  0.00    -0.074 NA
BRANCH  32  34
HETATM   34  O1  UNL     1      -1.914  -2.930   1.933  1.00  0.00    -0.342 OA
HETATM   35  C11 UNL     1      -2.354  -4.108   1.278  1.00  0.00     0.211 C 
ENDBRANCH  32  34
ENDBRANCH  11  32
ENDBRANCH   6   7
ENDBRANCH   5   6
BRANCH   5  36
HETATM   36  N2  UNL     1      -5.629   3.624   0.447  1.00  0.00    -0.324 N 
ATOM     37  H22 UNL     1      -4.881   4.015   1.020  1.00  0.00     0.178 HD
ATOM     38  H21 UNL     1      -6.608   3.900   0.528  1.00  0.00     0.178 HD
ENDBRANCH   5  36
ENDBRANCH   1   5
TORSDOF 12
