REMARK  6 active torsions:
REMARK  status: ('A' for Active; 'I' for Inactive)
REMARK    1  A    between atoms: C1_2  and  C2_3 
REMARK    2  A    between atoms: C7_8  and  N1_9 
REMARK    3  A    between atoms: N1_9  and  C8_11 
REMARK    4  A    between atoms: C9_14  and  N3_15 
REMARK    5  A    between atoms: N3_15  and  C10_17 
REMARK    6  A    between atoms: C14_23  and  C15_24 
ROOT
HETATM    1  C8  UNL     1       0.458   0.507  -0.010  1.00  0.00     0.132 A 
HETATM    2  N2  UNL     1       1.144  -0.629  -0.216  1.00  0.00    -0.176 N 
ATOM      3  H2  UNL     1       0.710  -1.513   0.048  1.00  0.00     0.186 HD
HETATM    4  C9  UNL     1       2.377  -0.656  -0.754  1.00  0.00     0.679 A 
HETATM    5  N4  UNL     1       2.938   0.508  -1.097  1.00  0.00    -0.201 N 
ATOM      6  H4  UNL     1       3.872   0.501  -1.506  1.00  0.00     0.183 HD
HETATM    7  C13 UNL     1       2.313   1.697  -0.922  1.00  0.00     0.125 A 
HETATM    8  C14 UNL     1       1.039   1.714  -0.365  1.00  0.00     0.068 A 
ENDROOT
BRANCH   1   9
HETATM    9  N1  UNL     1      -0.723   0.569   0.503  1.00  0.00    -0.370 N 
ATOM     10  H1  UNL     1      -1.143   1.492   0.611  1.00  0.00     0.161 HD
BRANCH   9  11
HETATM   11  C7  UNL     1      -1.496  -0.572   0.936  1.00  0.00     0.089 C 
HETATM   12  C2  UNL     1      -2.254  -1.120  -0.232  1.00  0.00     0.037 C 
HETATM   13  C3  UNL     1      -3.355  -2.067   0.128  1.00  0.00     0.009 C 
HETATM   14  C4  UNL     1      -4.153  -1.674   1.321  1.00  0.00     0.001 C 
HETATM   15  C5  UNL     1      -3.305  -1.191   2.473  1.00  0.00     0.002 C 
HETATM   16  C6  UNL     1      -2.403  -0.075   2.050  1.00  0.00     0.026 C 
BRANCH  12  17
HETATM   17  C1  UNL     1      -2.768  -0.058  -1.171  1.00  0.00     0.228 C 
HETATM   18  F1  UNL     1      -3.785   0.693  -0.649  1.00  0.00    -0.255 F 
ENDBRANCH  12  17
ENDBRANCH   9  11
ENDBRANCH   1   9
BRANCH   8  19
HETATM   19  C15 UNL     1       0.331   2.969  -0.158  1.00  0.00     0.120 A 
HETATM   20  N5  UNL     1      -0.892   3.077   0.369  1.00  0.00    -0.350 N 
HETATM   21  C16 UNL     1      -1.266   4.374   0.425  1.00  0.00     0.106 A 
ATOM     22  H5  UNL     1      -1.462   2.292   0.684  1.00  0.00     0.166 HD
HETATM   23  C17 UNL     1      -0.224   5.104  -0.092  1.00  0.00     0.106 A 
HETATM   24  N6  UNL     1       0.729   4.219  -0.436  1.00  0.00    -0.350 N 
ATOM     25  H6  UNL     1       1.628   4.464  -0.850  1.00  0.00     0.166 HD
ENDBRANCH   8  19
BRANCH   4  26
HETATM   26  N3  UNL     1       2.962  -1.765  -0.919  1.00  0.00    -0.221 N 
ATOM     27  H3  UNL     1       2.444  -2.593  -0.624  1.00  0.00     0.178 HD
BRANCH  26  28
HETATM   28  C10 UNL     1       4.251  -1.998  -1.464  1.00  0.00     0.099 A 
HETATM   29  C11 UNL     1       5.010  -3.163  -0.815  1.00  0.00     0.028 A 
HETATM   30  C12 UNL     1       5.506  -1.746  -0.749  1.00  0.00     0.028 A 
ENDBRANCH  26  28
ENDBRANCH   4  26
TORSDOF 6
