REMARK  4 active torsions:
REMARK  status: ('A' for Active; 'I' for Inactive)
REMARK    1  A    between atoms: N1_2  and  C2_4 
REMARK    2  A    between atoms: C4_6  and  C5_7 
REMARK    3  A    between atoms: C5_7  and  C6_8 
REMARK    4  A    between atoms: C11_13  and  N2_14 
REMARK       I    between atoms: N2_14  and  C12_16 
REMARK       I    between atoms: C12_16  and  N3_18 
ROOT
HETATM    1  C2  UNL     1      -2.714   2.795  -0.375  1.00  0.00     0.084 A 
HETATM    2  C3  UNL     1      -2.666   1.443  -0.575  1.00  0.00     0.043 A 
HETATM    3  C4  UNL     1      -1.506   0.712  -0.656  1.00  0.00    -0.029 A 
HETATM    4  C11 UNL     1      -0.277   1.373  -0.528  1.00  0.00     0.044 A 
HETATM    5  C17 UNL     1      -0.299   2.724  -0.327  1.00  0.00     0.056 A 
HETATM    6  C18 UNL     1      -1.504   3.435  -0.250  1.00  0.00     0.065 A 
HETATM    7 CL1  UNL     1      -1.464   5.162   0.009  1.00  0.00    -0.082 Cl
ENDROOT
BRANCH   4   8
HETATM    8  N2  UNL     1       0.893   0.596  -0.637  1.00  0.00    -0.308 N 
HETATM    9  C12 UNL     1       2.229   1.003  -0.507  1.00  0.00     0.323 C 
HETATM   10  O1  UNL     1       2.575   2.168  -0.264  1.00  0.00    -0.247 OA
HETATM   11  N3  UNL     1       3.282   0.038  -0.659  1.00  0.00    -0.331 N 
HETATM   12  C13 UNL     1       2.991  -1.351  -0.943  1.00  0.00     0.155 C 
HETATM   13  C16 UNL     1       4.670   0.423  -0.533  1.00  0.00     0.155 C 
HETATM   14  C14 UNL     1       4.276  -2.138  -0.655  1.00  0.00     0.252 C 
HETATM   15  N4  UNL     1       4.759  -1.717   0.662  1.00  0.00    -0.072 N 
HETATM   16  C15 UNL     1       5.300  -0.372   0.593  1.00  0.00     0.252 C 
ATOM     17  H42 UNL     1       4.036  -1.800   1.377  1.00  0.00     0.277 HD
ATOM     18  H41 UNL     1       5.432  -2.378   1.050  1.00  0.00     0.277 HD
ATOM     19  H2  UNL     1       0.750  -0.394  -0.837  1.00  0.00     0.170 HD
ENDBRANCH   4   8
BRANCH   3  20
HETATM   20  C5  UNL     1      -1.586  -0.749  -0.857  1.00  0.00     0.045 C 
BRANCH  20  21
HETATM   21  C6  UNL     1      -1.374  -1.523   0.397  1.00  0.00    -0.010 C 
HETATM   22  C7  UNL     1      -2.425  -1.172   1.458  1.00  0.00     0.005 C 
HETATM   23  C8  UNL     1      -2.710  -2.454   2.210  1.00  0.00     0.000 C 
HETATM   24  C9  UNL     1      -1.707  -3.467   1.657  1.00  0.00     0.000 C 
HETATM   25  C10 UNL     1      -1.652  -2.999   0.198  1.00  0.00     0.005 C 
ENDBRANCH  20  21
ENDBRANCH   3  20
BRANCH   1  26
HETATM   26  N1  UNL     1      -3.928   3.527  -0.294  1.00  0.00    -0.219 N 
HETATM   27  C1  UNL     1      -4.222   4.597  -1.231  1.00  0.00     0.191 C 
HETATM   28  F1  UNL     1      -4.806   3.203   0.678  1.00  0.00    -0.099 F 
ENDBRANCH   1  26
TORSDOF 4
