REMARK  3 active torsions:
REMARK  status: ('A' for Active; 'I' for Inactive)
REMARK    1  A    between atoms: C2_2  and  C3_3 
REMARK    2  A    between atoms: C3_3  and  C4_4 
REMARK       I    between atoms: N1_6  and  C5_8 
REMARK       I    between atoms: C5_8  and  N3_12 
REMARK       I    between atoms: N3_12  and  C6_14 
REMARK    3  A    between atoms: C6_14  and  C7_16 
ROOT
HETATM    1  C1  UNL     1      -1.660  -0.346  -1.160  1.00  0.00     0.064 C 
HETATM    2  C2  UNL     1      -1.354  -0.400   0.291  1.00  0.00     0.001 C 
HETATM    3  N1  UNL     1      -0.332  -1.016   0.766  1.00  0.00    -0.200 N 
ATOM      4  H1  UNL     1      -0.190  -1.008   1.776  1.00  0.00     0.183 HD
HETATM    5  C5  UNL     1       0.611  -1.708  -0.040  1.00  0.00     0.678 C 
HETATM    6  N2  UNL     1       0.294  -2.825  -0.597  1.00  0.00    -0.234 N 
ATOM      7  H21 UNL     1       0.971  -3.322  -1.176  1.00  0.00     0.174 HD
ATOM      8  H22 UNL     1      -0.638  -3.218  -0.462  1.00  0.00     0.174 HD
HETATM    9  N3  UNL     1       1.906  -1.162  -0.228  1.00  0.00    -0.158 N 
ATOM     10  H3  UNL     1       2.575  -1.667  -0.809  1.00  0.00     0.187 HD
HETATM   11  C6  UNL     1       2.298   0.053   0.360  1.00  0.00     0.260 C 
HETATM   12  O1  UNL     1       1.465   0.668   1.074  1.00  0.00    -0.270 OA
ENDROOT
BRANCH   2  13
HETATM   13  C3  UNL     1      -2.244   0.276   1.270  1.00  0.00     0.063 C 
BRANCH  13  14
HETATM   14  C4  UNL     1      -2.314   1.781   0.987  1.00  0.00     0.091 C 
HETATM   15 BR1  UNL     1      -3.500   2.547   2.325  1.00  0.00    -0.096 Br
ENDBRANCH  13  14
ENDBRANCH   2  13
BRANCH  11  16
HETATM   16  C7  UNL     1       3.631   0.663   0.196  1.00  0.00     0.222 C 
HETATM   17 BR2  UNL     1       4.048   1.054  -1.639  1.00  0.00    -0.069 Br
HETATM   18 BR3  UNL     1       3.826   2.268   1.225  1.00  0.00    -0.069 Br
ENDBRANCH  11  16
TORSDOF 3
