REMARK  3 active torsions:
REMARK  status: ('A' for Active; 'I' for Inactive)
REMARK    1  A    between atoms: C4_5  and  C5_6 
REMARK    2  A    between atoms: C6_10  and  C7_11 
REMARK       I    between atoms: N3_13  and  C8_15 
REMARK       I    between atoms: C8_15  and  N5_20 
REMARK    3  A    between atoms: N4_16  and  C9_18 
ROOT
HETATM    1  C1  UNL     1       4.099  -2.753  -2.235  1.00  0.00     0.222 C 
HETATM    2  N1  UNL     1       3.413  -1.880  -1.879  1.00  0.00    -0.458 NA
HETATM    3  C2  UNL     1       2.603  -0.814  -1.450  1.00  0.00     0.238 C 
HETATM    4  C3  UNL     1       3.222  -0.150  -0.262  1.00  0.00     0.083 C 
HETATM    5  C4  UNL     1       4.506   0.095  -0.102  1.00  0.00     0.040 C 
HETATM    6  O1  UNL     1       2.249   0.173   0.654  1.00  0.00    -0.338 OA
HETATM    7  C6  UNL     1       1.105  -0.613   0.420  1.00  0.00     0.215 C 
HETATM    8  C12 UNL     1       1.357  -1.388  -0.859  1.00  0.00     0.161 C 
HETATM    9 CL2  UNL     1       1.617  -3.116  -0.441  1.00  0.00    -0.118 Cl
ENDROOT
BRANCH   5  10
HETATM   10  C5  UNL     1       5.003   0.758   1.117  1.00  0.00     0.179 C 
HETATM   11 CL1  UNL     1       6.733   0.452   1.371  1.00  0.00    -0.109 Cl
HETATM   12 BR1  UNL     1       4.732   2.673   1.003  1.00  0.00    -0.070 Br
ENDBRANCH   5  10
BRANCH   7  13
HETATM   13  C7  UNL     1      -0.108   0.186   0.190  1.00  0.00     0.140 C 
HETATM   14  N2  UNL     1      -0.170   1.091  -0.890  1.00  0.00    -0.084 NA
HETATM   15  N3  UNL     1      -1.091   0.038   0.989  1.00  0.00    -0.180 N 
HETATM   16  C8  UNL     1      -2.301   0.744   0.873  1.00  0.00     0.674 C 
ATOM     17  H3  UNL     1      -0.994  -0.629   1.754  1.00  0.00     0.185 HD
HETATM   18  N4  UNL     1      -3.235   0.212   0.145  1.00  0.00    -0.227 N 
HETATM   19  N5  UNL     1      -2.443   1.973   1.540  1.00  0.00    -0.231 N 
ATOM     20  H4  UNL     1      -4.119   0.712   0.051  1.00  0.00     0.177 HD
HETATM   21  C11 UNL     1      -3.678   2.220   2.256  1.00  0.00     0.165 C 
ATOM     22  H5  UNL     1      -1.699   2.670   1.521  1.00  0.00     0.177 HD
BRANCH  18  23
HETATM   23  C9  UNL     1      -3.088  -1.041  -0.533  1.00  0.00     0.133 C 
HETATM   24  C10 UNL     1      -4.450  -1.451  -1.052  1.00  0.00     0.027 C 
ENDBRANCH  18  23
ENDBRANCH   7  13
TORSDOF 3
