REMARK  3 active torsions:
REMARK  status: ('A' for Active; 'I' for Inactive)
REMARK    1  A    between atoms: C2_2  and  N1_5 
REMARK       I    between atoms: N1_5  and  C5_7 
REMARK       I    between atoms: C5_7  and  N2_9 
REMARK    2  A    between atoms: C7_11  and  C8_12 
REMARK    3  A    between atoms: C10_16  and  C11_17 
ROOT
HETATM    1  N1  UNL     1       1.403   0.385   0.022  1.00  0.00    -0.335 N 
ATOM      2  H1  UNL     1       1.012   1.245   0.406  1.00  0.00     0.165 HD
HETATM    3  C5  UNL     1       0.493  -0.574  -0.454  1.00  0.00     0.319 C 
HETATM    4  O1  UNL     1       0.933  -1.647  -0.936  1.00  0.00    -0.247 OA
HETATM    5  N2  UNL     1      -0.916  -0.398  -0.421  1.00  0.00    -0.319 N 
HETATM    6  C6  UNL     1      -1.542   0.818   0.120  1.00  0.00     0.144 C 
HETATM    7  C7  UNL     1      -2.976   0.438   0.309  1.00  0.00     0.107 C 
HETATM    8  C9  UNL     1      -3.211  -0.478  -0.870  1.00  0.00     0.053 C 
HETATM    9  C10 UNL     1      -1.937  -1.296  -0.872  1.00  0.00     0.190 C 
ENDROOT
BRANCH   9  10
HETATM   10  C11 UNL     1      -2.060  -2.487   0.009  1.00  0.00     0.197 C 
HETATM   11  O4  UNL     1      -2.928  -3.349  -0.290  1.00  0.00    -0.646 OA
HETATM   12  O5  UNL     1      -1.235  -2.599   1.097  1.00  0.00    -0.646 OA
ENDBRANCH   9  10
BRANCH   1  13
HETATM   13  C2  UNL     1       2.822   0.264   0.016  1.00  0.00     0.023 C 
HETATM   14  C1  UNL     1       3.463   1.528   0.608  1.00  0.00     0.037 C 
HETATM   15  C3  UNL     1       3.231  -0.872   0.901  1.00  0.00     0.037 C 
HETATM   16  C4  UNL     1       3.382   0.135  -1.386  1.00  0.00     0.037 C 
ENDBRANCH   1  13
BRANCH   7  17
HETATM   17  C8  UNL     1      -3.801   1.647   0.273  1.00  0.00     0.178 C 
HETATM   18  O2  UNL     1      -4.694   1.772  -0.590  1.00  0.00    -0.648 OA
HETATM   19  O3  UNL     1      -3.573   2.640   1.207  1.00  0.00    -0.648 OA
ENDBRANCH   7  17
TORSDOF 3
