REMARK  7 active torsions:
REMARK  status: ('A' for Active; 'I' for Inactive)
REMARK    1  A    between atoms: N1_2  and  C3_4 
REMARK    2  A    between atoms: C3_4  and  C4_5 
REMARK    3  A    between atoms: C4_5  and  N2_6 
REMARK    4  A    between atoms: N2_6  and  C5_8 
REMARK    5  A    between atoms: C6_12  and  C7_13 
REMARK    6  A    between atoms: C12_27  and  N8_28 
REMARK    7  A    between atoms: C13_31  and  O2_32 
ROOT
HETATM    1  C7  UNL     1       2.631  -0.430  -1.061  1.00  0.00     0.107 A 
HETATM    2  N4  UNL     1       3.128   0.417  -0.111  1.00  0.00    -0.344 N 
ATOM      3  H4  UNL     1       2.462   0.921   0.475  1.00  0.00     0.166 HD
HETATM    4  C8  UNL     1       4.426   0.626   0.099  1.00  0.00     0.146 A 
HETATM    5  C9  UNL     1       4.893   1.493   1.074  1.00  0.00     0.277 A 
HETATM    6  O1  UNL     1       4.072   2.115   1.798  1.00  0.00    -0.266 OA
HETATM    7  N5  UNL     1       6.212   1.663   1.241  1.00  0.00    -0.318 N 
ATOM      8  H5  UNL     1       6.572   2.297   1.955  1.00  0.00     0.169 HD
HETATM    9  C10 UNL     1       7.047   0.977   0.444  1.00  0.00     0.185 A 
HETATM   10  N6  UNL     1       6.618   0.132  -0.508  1.00  0.00    -0.336 N 
ATOM     11  H6  UNL     1       7.298  -0.363  -1.085  1.00  0.00     0.168 HD
HETATM   12  C11 UNL     1       5.299  -0.071  -0.712  1.00  0.00     0.140 A 
HETATM   13  N7  UNL     1       4.894  -0.913  -1.659  1.00  0.00    -0.325 N 
ATOM     14  H7  UNL     1       5.565  -1.414  -2.242  1.00  0.00     0.169 HD
HETATM   15  C12 UNL     1       3.538  -1.086  -1.826  1.00  0.00     0.130 A 
ENDROOT
BRANCH   1  16
HETATM   16  C6  UNL     1       1.147  -0.575  -1.216  1.00  0.00     0.105 A 
HETATM   17  N3  UNL     1       0.564  -1.367  -2.103  1.00  0.00    -0.320 N 
HETATM   18  S1  UNL     1      -1.108  -1.126  -1.845  1.00  0.00     0.007 SA
ATOM     19  H3  UNL     1       1.011  -1.981  -2.784  1.00  0.00     0.174 HD
HETATM   20  C5  UNL     1      -1.018  -0.003  -0.592  1.00  0.00     0.122 A 
HETATM   21  C13 UNL     1       0.317   0.154  -0.409  1.00  0.00     0.130 A 
BRANCH  20  22
HETATM   22  N2  UNL     1      -2.000   0.578   0.043  1.00  0.00    -0.379 N 
ATOM     23  H2  UNL     1      -1.829   1.249   0.792  1.00  0.00     0.160 HD
BRANCH  22  24
HETATM   24  C4  UNL     1      -3.350   0.223  -0.369  1.00  0.00     0.150 C 
BRANCH  24  25
HETATM   25  C3  UNL     1      -4.336   0.480   0.744  1.00  0.00     0.290 C 
BRANCH  25  26
HETATM   26  N1  UNL     1      -5.682   0.130   0.332  1.00  0.00     0.081 N 
HETATM   27  C1  UNL     1      -5.821  -1.296   0.160  1.00  0.00     0.309 C 
HETATM   28  C2  UNL     1      -6.661   0.680   1.241  1.00  0.00     0.309 C 
ENDBRANCH  25  26
ENDBRANCH  24  25
ENDBRANCH  22  24
ENDBRANCH  20  22
BRANCH  21  29
HETATM   29  O2  UNL     1       0.757   1.058   0.603  1.00  0.00    -0.356 OA
ATOM     30  H2  UNL     1       1.692   1.168   0.731  1.00  0.00     0.218 HD
ENDBRANCH  21  29
ENDBRANCH   1  16
BRANCH  15  31
HETATM   31  N8  UNL     1       3.166  -1.918  -2.738  1.00  0.00    -0.384 N 
ATOM     32  H82 UNL     1       2.162  -2.046  -2.862  1.00  0.00     0.157 HD
ATOM     33  H81 UNL     1       3.848  -2.412  -3.314  1.00  0.00     0.157 HD
ENDBRANCH  15  31
TORSDOF 7
