REMARK  6 active torsions:
REMARK  status: ('A' for Active; 'I' for Inactive)
REMARK    1  A    between atoms: N1_1  and  C1_4 
REMARK    2  A    between atoms: C4_12  and  N4_13 
REMARK    3  A    between atoms: C8_17  and  C9_18 
REMARK    4  A    between atoms: C9_18  and  O2_19 
REMARK    5  A    between atoms: O2_19  and  S1_20 
REMARK    6  A    between atoms: S1_20  and  N5_21 
ROOT
HETATM    1  C1  UNL     1       5.741   2.082   0.105  1.00  0.00     0.144 A 
HETATM    2  N2  UNL     1       5.414   0.862  -0.308  1.00  0.00    -0.330 N 
ATOM      3  H2  UNL     1       6.104   0.261  -0.760  1.00  0.00     0.168 HD
HETATM    4  C2  UNL     1       4.176   0.446  -0.120  1.00  0.00     0.138 A 
HETATM    5  C3  UNL     1       3.628  -0.806  -0.483  1.00  0.00     0.289 A 
HETATM    6  O1  UNL     1       4.333  -1.692  -1.055  1.00  0.00    -0.265 OA
HETATM    7  N3  UNL     1       2.345  -1.046  -0.209  1.00  0.00    -0.153 N 
ATOM      8  H3  UNL     1       1.980  -1.958  -0.484  1.00  0.00     0.187 HD
HETATM    9  C4  UNL     1       1.491  -0.214   0.388  1.00  0.00     0.700 A 
HETATM   10  N7  UNL     1       1.994   0.981   0.739  1.00  0.00    -0.181 N 
ATOM     11  H7  UNL     1       1.391   1.663   1.199  1.00  0.00     0.185 HD
HETATM   12  C10 UNL     1       3.305   1.300   0.489  1.00  0.00     0.126 A 
HETATM   13  S2  UNL     1       4.291   2.673   0.773  1.00  0.00    -0.034 SA
ENDROOT
BRANCH   9  14
HETATM   14  N4  UNL     1       0.132  -0.555   0.657  1.00  0.00    -0.127 N 
HETATM   15  C5  UNL     1      -0.188  -1.624   1.615  1.00  0.00     0.164 C 
HETATM   16  C6  UNL     1      -0.872  -2.736   0.864  1.00  0.00     0.024 C 
HETATM   17  C7  UNL     1      -1.812  -2.130  -0.153  1.00  0.00     0.027 C 
HETATM   18  C8  UNL     1      -2.117  -0.732   0.322  1.00  0.00     0.125 C 
HETATM   19  N6  UNL     1      -0.961   0.090   0.056  1.00  0.00    -0.117 NA
BRANCH  18  20
HETATM   20  C9  UNL     1      -3.326  -0.118  -0.325  1.00  0.00     0.215 C 
BRANCH  20  21
HETATM   21  O2  UNL     1      -3.525   1.149   0.218  1.00  0.00    -0.258 OA
BRANCH  21  22
HETATM   22  S1  UNL     1      -4.900   1.867  -0.438  1.00  0.00     0.355 S 
HETATM   23  O3  UNL     1      -4.728   2.225  -1.872  1.00  0.00    -0.176 OA
HETATM   24  O4  UNL     1      -6.048   0.908  -0.223  1.00  0.00    -0.176 OA
BRANCH  22  25
HETATM   25  N5  UNL     1      -5.239   3.288   0.458  1.00  0.00    -0.306 N 
ATOM     26  H52 UNL     1      -4.693   3.627   1.250  1.00  0.00     0.171 HD
ATOM     27  H51 UNL     1      -6.072   3.723   0.061  1.00  0.00     0.171 HD
ENDBRANCH  22  25
ENDBRANCH  21  22
ENDBRANCH  20  21
ENDBRANCH  18  20
ENDBRANCH   9  14
BRANCH   1  28
HETATM   28  N1  UNL     1       6.906   2.689   0.021  1.00  0.00    -0.380 N 
ATOM     29  H12 UNL     1       7.775   2.335  -0.379  1.00  0.00     0.158 HD
ATOM     30  H11 UNL     1       7.157   3.625   0.338  1.00  0.00     0.158 HD
ENDBRANCH   1  28
TORSDOF 6
