REMARK  3 active torsions:
REMARK  status: ('A' for Active; 'I' for Inactive)
REMARK    1  A    between atoms: C3_6  and  N3_7 
REMARK    2  A    between atoms: N3_7  and  C4_9 
REMARK    3  A    between atoms: N6_16  and  O1_17 
ROOT
HETATM    1  N1  UNL     1       4.460   0.720  -0.246  1.00  0.00    -0.078 NA
HETATM    2  C1  UNL     1       3.071   0.406  -0.239  1.00  0.00     0.178 A 
HETATM    3  C2  UNL     1       2.514  -0.799  -0.581  1.00  0.00     0.154 A 
HETATM    4  N2  UNL     1       1.174  -0.655  -0.432  1.00  0.00    -0.196 N 
ATOM      5  H2  UNL     1       0.484  -1.385  -0.611  1.00  0.00     0.183 HD
HETATM    6  C3  UNL     1       0.888   0.585  -0.015  1.00  0.00     0.712 A 
HETATM    7  N6  UNL     1       2.060   1.227   0.100  1.00  0.00    -0.037 N 
ENDROOT
BRANCH   6   8
HETATM    8  N3  UNL     1      -0.367   1.167   0.267  1.00  0.00    -0.159 N 
ATOM      9  H3  UNL     1      -0.405   2.137   0.579  1.00  0.00     0.187 HD
BRANCH   8  10
HETATM   10  C4  UNL     1      -1.588   0.431   0.127  1.00  0.00     0.190 C 
HETATM   11  N4  UNL     1      -2.519   0.460   1.021  1.00  0.00    -0.360 N 
HETATM   12  C5  UNL     1      -3.641  -0.375   0.621  1.00  0.00     0.142 C 
ATOM     13  H4  UNL     1      -2.474   0.995   1.888  1.00  0.00     0.162 HD
HETATM   14  C6  UNL     1      -3.027  -1.269  -0.463  1.00  0.00     0.142 C 
HETATM   15  N5  UNL     1      -1.969  -0.407  -0.950  1.00  0.00    -0.360 N 
ATOM     16  H5  UNL     1      -1.573  -0.404  -1.890  1.00  0.00     0.162 HD
ENDBRANCH   8  10
ENDBRANCH   6   8
BRANCH   7  17
HETATM   17  O1  UNL     1       2.261   2.546   0.504  1.00  0.00    -0.268 OA
ATOM     18  H1  UNL     1       1.547   3.126   0.743  1.00  0.00     0.246 HD
ENDBRANCH   7  17
TORSDOF 3
