REMARK  6 active torsions:
REMARK  status: ('A' for Active; 'I' for Inactive)
REMARK    1  A    between atoms: C2_2  and  C3_3 
REMARK    2  A    between atoms: C3_3  and  C4_4 
REMARK       I    between atoms: C4_4  and  N1_6 
REMARK    3  A    between atoms: N1_6  and  C5_8 
REMARK    4  A    between atoms: C5_8  and  C6_9 
REMARK    5  A    between atoms: N2_18  and  C14_20 
REMARK    6  A    between atoms: C14_20  and  O2_21 
ROOT
HETATM    1  C3  UNL     1       0.255  -0.752  -0.102  1.00  0.00     0.079 C 
HETATM    2  C7  UNL     1      -0.465  -1.832   0.660  1.00  0.00     0.026 C 
HETATM    3  C8  UNL     1      -1.854  -2.075   0.145  1.00  0.00     0.011 C 
HETATM    4  C9  UNL     1      -2.722  -0.884   0.070  1.00  0.00    -0.043 C 
HETATM    5  C10 UNL     1      -3.701  -0.935   1.255  1.00  0.00     0.015 C 
HETATM    6  C11 UNL     1      -3.631  -1.043  -1.160  1.00  0.00     0.015 C 
HETATM    7  C12 UNL     1      -2.076   0.436   0.073  1.00  0.00     0.062 C 
HETATM    8  C13 UNL     1      -0.610   0.448  -0.041  1.00  0.00     0.003 C 
HETATM    9  N2  UNL     1      -0.030   1.588  -0.093  1.00  0.00    -0.364 N 
ATOM     10  H2  UNL     1       0.987   1.603  -0.173  1.00  0.00     0.162 HD
ENDROOT
BRANCH   1  11
HETATM   11  C2  UNL     1       0.416  -1.112  -1.566  1.00  0.00     0.021 C 
HETATM   12  C1  UNL     1       1.123  -0.030  -2.309  1.00  0.00     0.006 C 
ENDBRANCH   1  11
BRANCH   1  13
HETATM   13  C4  UNL     1       1.563  -0.540   0.557  1.00  0.00     0.232 C 
HETATM   14  O1  UNL     1       1.890   0.551   1.095  1.00  0.00    -0.272 OA
HETATM   15  N1  UNL     1       2.516  -1.585   0.604  1.00  0.00    -0.359 N 
ATOM     16  H1  UNL     1       2.266  -2.475   0.173  1.00  0.00     0.162 HD
BRANCH  15  17
HETATM   17  C5  UNL     1       3.811  -1.480   1.217  1.00  0.00     0.133 C 
BRANCH  17  18
HETATM   18  C6  UNL     1       4.710  -0.439   0.636  1.00  0.00     0.105 C 
HETATM   19  S1  UNL     1       6.314  -0.437   1.523  1.00  0.00    -0.096 SA
ENDBRANCH  17  18
ENDBRANCH  15  17
ENDBRANCH   1  13
BRANCH   9  20
HETATM   20  C14 UNL     1      -0.714   2.838  -0.046  1.00  0.00     0.131 A 
HETATM   21  C15 UNL     1       0.104   3.949   0.607  1.00  0.00     0.066 A 
HETATM   22  C16 UNL     1      -1.108   3.407   1.276  1.00  0.00     0.066 A 
BRANCH  20  23
HETATM   23  O2  UNL     1      -1.373   3.220  -1.206  1.00  0.00    -0.371 OA
ATOM     24  H2  UNL     1      -1.829   4.053  -1.175  1.00  0.00     0.212 HD
ENDBRANCH  20  23
ENDBRANCH   9  20
TORSDOF 6
