REMARK  4 active torsions:
REMARK  status: ('A' for Active; 'I' for Inactive)
REMARK    1  A    between atoms: O1_2  and  C2_3 
REMARK    2  A    between atoms: C4_5  and  N1_6 
REMARK       I    between atoms: N1_6  and  C5_8 
REMARK    3  A    between atoms: C5_8  and  C6_10 
REMARK       I    between atoms: N2_19  and  C15_20 
REMARK       I    between atoms: C15_20  and  N3_22 
REMARK    4  A    between atoms: N3_22  and  C16_24 
ROOT
HETATM    1  C2  UNL     1       1.910   2.526  -0.013  1.00  0.00     0.228 C 
HETATM    2  C3  UNL     1       0.395   2.446  -0.133  1.00  0.00     0.079 C 
HETATM    3  C4  UNL     1      -0.163   1.846   1.117  1.00  0.00     0.090 C 
HETATM    4  C13 UNL     1       0.874   1.081   1.910  1.00  0.00     0.045 C 
HETATM    5  C14 UNL     1       1.690   0.256   0.954  1.00  0.00     0.132 C 
HETATM    6  N2  UNL     1       2.382   1.157   0.057  1.00  0.00    -0.307 N 
HETATM    7  C15 UNL     1       3.468   0.678  -0.701  1.00  0.00     0.320 C 
HETATM    8  O3  UNL     1       4.086   1.440  -1.474  1.00  0.00    -0.247 OA
HETATM    9  N3  UNL     1       3.890  -0.663  -0.614  1.00  0.00    -0.339 N 
ATOM     10  H3  UNL     1       3.384  -1.284   0.017  1.00  0.00     0.164 HD
ENDROOT
BRANCH   3  11
HETATM   11  N1  UNL     1      -1.244   0.925   0.821  1.00  0.00    -0.356 N 
HETATM   12  C5  UNL     1      -2.564   1.125   1.307  1.00  0.00     0.222 C 
HETATM   13  O2  UNL     1      -2.752   2.162   2.021  1.00  0.00    -0.273 OA
ATOM     14  H1  UNL     1      -1.050   0.106   0.245  1.00  0.00     0.162 HD
BRANCH  12  15
HETATM   15  C6  UNL     1      -3.663   0.174   0.999  1.00  0.00     0.078 C 
HETATM   16  C7  UNL     1      -3.834   0.098  -0.467  1.00  0.00     0.014 C 
HETATM   17  C8  UNL     1      -4.283  -1.259  -0.900  1.00  0.00     0.005 C 
HETATM   18  C9  UNL     1      -5.235  -1.788   0.148  1.00  0.00    -0.019 C 
HETATM   19  C10 UNL     1      -6.001  -2.936  -0.441  1.00  0.00     0.010 C 
HETATM   20  C11 UNL     1      -4.438  -2.174   1.374  1.00  0.00     0.005 C 
HETATM   21  C12 UNL     1      -3.416  -1.120   1.717  1.00  0.00     0.014 C 
ENDBRANCH  12  15
ENDBRANCH   3  11
BRANCH   1  22
HETATM   22  O1  UNL     1       2.480   3.139  -1.100  1.00  0.00    -0.371 OA
HETATM   23  C1  UNL     1       3.162   4.309  -0.773  1.00  0.00     0.204 C 
ENDBRANCH   1  22
BRANCH   9  24
HETATM   24  C16 UNL     1       4.993  -1.210  -1.363  1.00  0.00     0.078 C 
HETATM   25  C17 UNL     1       4.530  -2.243  -2.356  1.00  0.00     0.032 C 
HETATM   26  C18 UNL     1       6.093  -1.699  -0.463  1.00  0.00     0.032 C 
ENDBRANCH   9  24
TORSDOF 4
