REMARK  4 active torsions:
REMARK  status: ('A' for Active; 'I' for Inactive)
REMARK       I    between atoms: N1_1  and  C1_4 
REMARK       I    between atoms: C1_4  and  N2_5 
REMARK       I    between atoms: C1_4  and  N6_20 
REMARK       I    between atoms: C2_7  and  N3_8 
REMARK       I    between atoms: C2_7  and  N5_15 
REMARK    1  A    between atoms: C3_10  and  C4_12 
REMARK    2  A    between atoms: N5_15  and  C5_17 
REMARK    3  A    between atoms: C5_17  and  C6_18 
REMARK    4  A    between atoms: N6_20  and  C7_22 
ROOT
HETATM    1  N1  UNL     1       1.773   1.831   0.556  1.00  0.00    -0.234 N 
ATOM      2  H11 UNL     1       2.499   2.498   0.297  1.00  0.00     0.174 HD
ATOM      3  H12 UNL     1       1.086   2.114   1.255  1.00  0.00     0.174 HD
HETATM    4  C1  UNL     1       1.655   0.646   0.063  1.00  0.00     0.692 C 
HETATM    5  N2  UNL     1       0.646  -0.281   0.423  1.00  0.00    -0.023 N 
ATOM      6  H2  UNL     1       0.929  -1.241   0.617  1.00  0.00     0.203 HD
HETATM    7  C2  UNL     1      -0.600   0.007   0.521  1.00  0.00     0.693 C 
HETATM    8  N3  UNL     1      -1.495  -1.027   0.891  1.00  0.00    -0.180 N 
ATOM      9  H3  UNL     1      -1.472  -1.362   1.854  1.00  0.00     0.185 HD
HETATM   10  C3  UNL     1      -2.333  -1.565   0.082  1.00  0.00     0.160 C 
HETATM   11 BR1  UNL     1      -2.428  -0.988  -1.724  1.00  0.00    -0.025 Br
HETATM   12  N5  UNL     1      -1.084   1.302   0.273  1.00  0.00    -0.225 N 
ATOM     13  H5  UNL     1      -0.625   1.861  -0.447  1.00  0.00     0.177 HD
HETATM   14  N6  UNL     1       2.613   0.251  -0.911  1.00  0.00    -0.175 N 
ATOM     15  H6  UNL     1       2.445   0.457  -1.896  1.00  0.00     0.186 HD
ENDROOT
BRANCH  14  16
HETATM   16  C7  UNL     1       3.694  -0.366  -0.563  1.00  0.00     0.142 A 
HETATM   17  C8  UNL     1       4.678  -0.789  -1.428  1.00  0.00     0.077 A 
HETATM   18  C9  UNL     1       5.637  -1.394  -0.624  1.00  0.00     0.171 A 
HETATM   19  O2  UNL     1       5.231  -1.326   0.635  1.00  0.00    -0.248 OA
HETATM   20  N7  UNL     1       4.073  -0.714   0.674  1.00  0.00    -0.245 N 
ATOM     21  H7  UNL     1       3.538  -0.529   1.523  1.00  0.00     0.196 HD
ENDBRANCH  14  16
BRANCH  12  22
HETATM   22  C5  UNL     1      -2.185   1.875   0.977  1.00  0.00     0.149 C 
BRANCH  22  23
HETATM   23  C6  UNL     1      -2.474   3.282   0.490  1.00  0.00     0.105 C 
HETATM   24 BR2  UNL     1      -2.910   3.298  -1.388  1.00  0.00    -0.095 Br
ENDBRANCH  22  23
ENDBRANCH  12  22
BRANCH  10  25
HETATM   25  C4  UNL     1      -3.213  -2.614   0.538  1.00  0.00     0.289 C 
HETATM   26  N4  UNL     1      -4.163  -3.250  -0.308  1.00  0.00    -0.055 NA
HETATM   27  O1  UNL     1      -3.163  -3.014   1.749  1.00  0.00    -0.269 OA
ENDBRANCH  10  25
TORSDOF 4
