REMARK  10 active torsions:
REMARK  status: ('A' for Active; 'I' for Inactive)
REMARK    1  A    between atoms: C2_2  and  N1_4 
REMARK       I    between atoms: N1_4  and  C4_6 
REMARK    2  A    between atoms: C4_6  and  C5_8 
REMARK    3  A    between atoms: C5_8  and  S1_9 
REMARK    4  A    between atoms: S1_9  and  C6_10 
REMARK    5  A    between atoms: C9_16  and  C10_17 
REMARK    6  A    between atoms: N3_20  and  C13_21 
REMARK    7  A    between atoms: C13_21  and  O2_22 
REMARK    8  A    between atoms: C13_21  and  C14_24 
REMARK    9  A    between atoms: C14_24  and  O3_25 
REMARK   10  A    between atoms: N4_32  and  C19_33 
ROOT
HETATM    1  C6  UNL     1       1.221  -1.229   1.865  1.00  0.00     0.151 A 
HETATM    2  N2  UNL     1       0.286  -1.063   2.865  1.00  0.00    -0.330 N 
ATOM      3  H2  UNL     1       0.593  -1.114   3.836  1.00  0.00     0.168 HD
HETATM    4  C7  UNL     1      -1.027  -0.834   2.607  1.00  0.00     0.092 A 
HETATM    5  S2  UNL     1      -2.396  -0.755   3.613  1.00  0.00    -0.082 SA
HETATM    6  C8  UNL     1      -3.562  -0.601   2.390  1.00  0.00     0.064 A 
HETATM    7  C9  UNL     1      -2.860  -0.603   1.159  1.00  0.00    -0.009 A 
HETATM    8  C17 UNL     1      -1.503  -0.746   1.328  1.00  0.00     0.077 A 
HETATM    9  C18 UNL     1      -0.495  -0.926   0.359  1.00  0.00     0.263 A 
HETATM   10  O4  UNL     1      -0.811  -0.876  -0.817  1.00  0.00    -0.267 OA
HETATM   11  N4  UNL     1       0.798  -1.156   0.610  1.00  0.00    -0.289 N 
ENDROOT
BRANCH   7  12
HETATM   12  C10 UNL     1      -3.608  -0.196  -0.072  1.00  0.00    -0.065 C 
HETATM   13  C11 UNL     1      -4.830  -0.936  -0.433  1.00  0.00     0.055 C 
HETATM   14  C12 UNL     1      -5.988  -0.049  -0.828  1.00  0.00     0.129 C 
HETATM   15  N3  UNL     1      -5.553   1.323  -0.726  1.00  0.00    -0.363 N 
HETATM   16  C15 UNL     1      -4.290   1.774  -1.308  1.00  0.00     0.129 C 
HETATM   17  C16 UNL     1      -3.149   0.754  -1.069  1.00  0.00     0.055 C 
BRANCH  15  18
HETATM   18  C13 UNL     1      -6.365   2.274  -0.054  1.00  0.00     0.137 C 
BRANCH  18  19
HETATM   19  O2  UNL     1      -5.831   3.460   0.056  1.00  0.00    -0.348 OA
ATOM     20  H2  UNL     1      -6.374   4.096   0.506  1.00  0.00     0.219 HD
ENDBRANCH  18  19
BRANCH  18  21
HETATM   21  C14 UNL     1      -7.694   2.103   0.519  1.00  0.00     0.247 C 
BRANCH  21  22
HETATM   22  O3  UNL     1      -8.441   1.021   0.196  1.00  0.00    -0.393 OA
ATOM     23  H3  UNL     1      -9.307   0.910   0.570  1.00  0.00     0.210 HD
ENDBRANCH  21  22
ENDBRANCH  18  21
ENDBRANCH  15  18
ENDBRANCH   7  12
BRANCH  11  24
HETATM   24  C19 UNL     1       1.740  -1.427  -0.459  1.00  0.00     0.095 C 
HETATM   25  C20 UNL     1       1.284  -1.198  -1.853  1.00  0.00     0.026 C 
HETATM   26  C21 UNL     1       2.552  -1.490  -2.714  1.00  0.00     0.002 C 
HETATM   27  C22 UNL     1       2.657  -3.008  -2.783  1.00  0.00     0.000 C 
HETATM   28  C23 UNL     1       1.967  -3.656  -1.628  1.00  0.00     0.002 C 
HETATM   29  C24 UNL     1       2.122  -2.914  -0.338  1.00  0.00     0.026 C 
ENDBRANCH  11  24
BRANCH   1  30
HETATM   30  S1  UNL     1       2.880  -1.567   2.413  1.00  0.00    -0.084 SA
BRANCH  30  31
HETATM   31  C5  UNL     1       3.814  -0.081   2.628  1.00  0.00     0.185 C 
BRANCH  31  32
HETATM   32  C4  UNL     1       4.790   0.283   1.599  1.00  0.00     0.227 C 
HETATM   33  N1  UNL     1       5.285   1.602   1.552  1.00  0.00    -0.357 N 
ATOM     34  H1  UNL     1       4.912   2.287   2.209  1.00  0.00     0.162 HD
HETATM   35  O1  UNL     1       5.205  -0.581   0.747  1.00  0.00    -0.273 OA
BRANCH  33  36
HETATM   36  C2  UNL     1       6.280   2.018   0.630  1.00  0.00     0.076 C 
HETATM   37  C1  UNL     1       7.299   2.927   1.263  1.00  0.00     0.032 C 
HETATM   38  C3  UNL     1       5.757   2.672  -0.644  1.00  0.00     0.032 C 
ENDBRANCH  33  36
ENDBRANCH  31  32
ENDBRANCH  30  31
ENDBRANCH   1  30
TORSDOF 10
