REMARK  6 active torsions:
REMARK  status: ('A' for Active; 'I' for Inactive)
REMARK       I    between atoms: N1_2  and  C2_4 
REMARK    1  A    between atoms: C2_4  and  C3_6 
REMARK    2  A    between atoms: C6_9  and  N2_10 
REMARK    3  A    between atoms: N2_10  and  C7_12 
REMARK    4  A    between atoms: C7_12  and  N3_14 
REMARK    5  A    between atoms: N3_14  and  C8_16 
REMARK    6  A    between atoms: C12_25  and  O2_26 
ROOT
HETATM    1  C3  UNL     1      -1.844   1.176   0.293  1.00  0.00     0.089 C 
HETATM    2  C4  UNL     1      -1.059   1.946  -0.779  1.00  0.00     0.022 C 
HETATM    3  C5  UNL     1      -0.169   0.907  -1.359  1.00  0.00     0.020 C 
HETATM    4  C6  UNL     1       0.831   0.373  -0.322  1.00  0.00     0.118 C 
HETATM    5  C12 UNL     1      -0.023  -0.303   0.725  1.00  0.00     0.151 C 
HETATM    6  C13 UNL     1      -1.427  -0.233   0.115  1.00  0.00     0.003 C 
HETATM    7  C14 UNL     1      -2.315  -1.301   0.594  1.00  0.00     0.019 C 
HETATM    8  C15 UNL     1      -1.103  -0.312  -1.358  1.00  0.00    -0.032 C 
HETATM    9  C16 UNL     1      -0.295  -1.509  -1.735  1.00  0.00     0.016 C 
HETATM   10  C17 UNL     1      -2.250  -0.212  -2.265  1.00  0.00     0.016 C 
ENDROOT
BRANCH   4  11
HETATM   11  N2  UNL     1       1.627   1.465   0.214  1.00  0.00    -0.359 N 
ATOM     12  H2  UNL     1       1.448   2.423  -0.087  1.00  0.00     0.162 HD
BRANCH  11  13
HETATM   13  C7  UNL     1       2.650   1.198   1.154  1.00  0.00     0.173 C 
HETATM   14  S1  UNL     1       3.524   2.443   1.737  1.00  0.00    -0.041 SA
BRANCH  13  15
HETATM   15  N3  UNL     1       2.941  -0.109   1.604  1.00  0.00    -0.318 N 
ATOM     16  H3  UNL     1       2.271  -0.573   2.217  1.00  0.00     0.170 HD
BRANCH  15  17
HETATM   17  C8  UNL     1       4.021  -0.746   1.274  1.00  0.00     0.122 A 
HETATM   18  C9  UNL     1       4.234  -2.020   1.755  1.00  0.00     0.137 A 
HETATM   19  N4  UNL     1       5.319  -2.750   1.467  1.00  0.00    -0.352 N 
HETATM   20  C10 UNL     1       6.248  -2.202   0.665  1.00  0.00     0.118 A 
ATOM     21  H4  UNL     1       5.437  -3.691   1.844  1.00  0.00     0.166 HD
HETATM   22 CL1  UNL     1       7.670  -3.151   0.284  1.00  0.00    -0.063 Cl
HETATM   23  C11 UNL     1       6.079  -0.932   0.161  1.00  0.00     0.132 A 
HETATM   24  N5  UNL     1       4.964  -0.217   0.473  1.00  0.00    -0.348 N 
ATOM     25  H5  UNL     1       4.843   0.724   0.098  1.00  0.00     0.167 HD
ENDBRANCH  15  17
ENDBRANCH  13  15
ENDBRANCH  11  13
ENDBRANCH   4  11
BRANCH   5  26
HETATM   26  O2  UNL     1       0.007   0.407   1.941  1.00  0.00    -0.393 OA
ATOM     27  H2  UNL     1      -0.530  -0.018   2.599  1.00  0.00     0.210 HD
ENDBRANCH   5  26
BRANCH   1  28
HETATM   28  C2  UNL     1      -3.257   1.496   0.241  1.00  0.00     0.222 C 
HETATM   29  N1  UNL     1      -4.196   1.000   1.163  1.00  0.00    -0.365 N 
HETATM   30  C1  UNL     1      -5.611   1.310   1.121  1.00  0.00     0.149 C 
ATOM     31  H1  UNL     1      -3.861   0.386   1.905  1.00  0.00     0.161 HD
HETATM   32  O1  UNL     1      -3.676   2.255  -0.670  1.00  0.00    -0.273 OA
ENDBRANCH   1  28
TORSDOF 6
