REMARK  10 active torsions:
REMARK  status: ('A' for Active; 'I' for Inactive)
REMARK    1  A    between atoms: C2_2  and  C4_4 
REMARK    2  A    between atoms: C4_4  and  N1_5 
REMARK    3  A    between atoms: C4_4  and  C5_9 
REMARK    4  A    between atoms: C5_9  and  C6_10 
REMARK    5  A    between atoms: C6_10  and  O2_12 
REMARK    6  A    between atoms: O2_12  and  C7_13 
REMARK    7  A    between atoms: C7_13  and  C9_15 
REMARK    8  A    between atoms: C9_15  and  N2_16 
REMARK    9  A    between atoms: C9_15  and  C17_26 
REMARK       I    between atoms: N2_16  and  C10_18 
REMARK   10  A    between atoms: C10_18  and  C11_20 
REMARK       I    between atoms: C17_26  and  N3_28 
ROOT
HETATM    1  C9  UNL     1      -0.347  -1.496  -0.722  1.00  0.00     0.205 C 
ENDROOT
BRANCH   1   2
HETATM    2  C7  UNL     1       0.653  -2.019   0.292  1.00  0.00     0.159 C 
HETATM    3  C8  UNL     1       0.050  -3.080   1.189  1.00  0.00     0.042 C 
BRANCH   2   4
HETATM    4  O2  UNL     1       1.148  -0.934   1.012  1.00  0.00    -0.314 OA
BRANCH   4   5
HETATM    5  C6  UNL     1       2.499  -0.556   0.945  1.00  0.00     0.261 C 
HETATM    6  O1  UNL     1       3.209  -1.268   0.192  1.00  0.00    -0.265 OA
BRANCH   5   7
HETATM    7  C5  UNL     1       2.997   0.598   1.719  1.00  0.00     0.148 C 
BRANCH   7   8
HETATM    8  C4  UNL     1       4.423   0.923   1.484  1.00  0.00     0.220 C 
BRANCH   8   9
HETATM    9  C2  UNL     1       4.790   1.305   0.109  1.00  0.00    -0.063 C 
HETATM   10  C1  UNL     1       3.950   1.502  -0.890  1.00  0.00     0.016 C 
HETATM   11  C3  UNL     1       6.259   1.524  -0.210  1.00  0.00     0.044 C 
ENDBRANCH   8   9
BRANCH   8  12
HETATM   12  N1  UNL     1       4.901   1.969   2.403  1.00  0.00    -0.071 N 
ATOM     13  H13 UNL     1       5.899   2.153   2.301  1.00  0.00     0.275 HD
ATOM     14  H12 UNL     1       4.561   2.897   2.151  1.00  0.00     0.275 HD
ATOM     15  H11 UNL     1       4.647   1.705   3.355  1.00  0.00     0.275 HD
ENDBRANCH   8  12
ENDBRANCH   7   8
ENDBRANCH   5   7
ENDBRANCH   4   5
ENDBRANCH   2   4
ENDBRANCH   1   2
BRANCH   1  16
HETATM   16  N2  UNL     1      -1.421  -0.825  -0.063  1.00  0.00    -0.345 N 
HETATM   17  C10 UNL     1      -1.714   0.541  -0.271  1.00  0.00     0.222 C 
HETATM   18  O3  UNL     1      -0.993   1.186  -1.070  1.00  0.00    -0.273 OA
ATOM     19  H2  UNL     1      -2.002  -1.355   0.586  1.00  0.00     0.163 HD
BRANCH  17  20
HETATM   20  C11 UNL     1      -2.828   1.251   0.407  1.00  0.00     0.078 C 
HETATM   21  C12 UNL     1      -2.908   2.680   0.006  1.00  0.00     0.014 C 
HETATM   22  C13 UNL     1      -4.215   2.871  -0.767  1.00  0.00     0.001 C 
HETATM   23  C14 UNL     1      -5.296   2.691   0.309  1.00  0.00     0.000 C 
HETATM   24  C15 UNL     1      -5.341   1.247   0.632  1.00  0.00     0.001 C 
HETATM   25  C16 UNL     1      -4.105   0.474   0.318  1.00  0.00     0.014 C 
ENDBRANCH  17  20
ENDBRANCH   1  16
BRANCH   1  26
HETATM   26  C17 UNL     1      -0.799  -2.663  -1.521  1.00  0.00     0.242 C 
HETATM   27  O4  UNL     1      -2.031  -2.900  -1.516  1.00  0.00    -0.271 OA
HETATM   28  N3  UNL     1       0.065  -3.488  -2.259  1.00  0.00    -0.364 N 
HETATM   29  C18 UNL     1      -0.461  -4.597  -3.004  1.00  0.00     0.149 C 
ATOM     30  H3  UNL     1       1.067  -3.299  -2.266  1.00  0.00     0.161 HD
ENDBRANCH   1  26
TORSDOF 10
