REMARK  8 active torsions:
REMARK  status: ('A' for Active; 'I' for Inactive)
REMARK    1  A    between atoms: C1_2  and  C2_3 
REMARK       I    between atoms: C1_2  and  N5_20 
REMARK    2  A    between atoms: C2_3  and  S1_4 
REMARK    3  A    between atoms: S1_4  and  C3_5 
REMARK    4  A    between atoms: N4_10  and  C4_11 
REMARK    5  A    between atoms: C4_11  and  C5_12 
REMARK    6  A    between atoms: C4_11  and  C6_15 
REMARK    7  A    between atoms: C5_12  and  O2_13 
REMARK    8  A    between atoms: N5_20  and  C11_22 
ROOT
HETATM    1  C3  UNL     1      -0.091   0.004   0.651  1.00  0.00     0.173 A 
HETATM    2  N1  UNL     1       0.597  -0.280   1.783  1.00  0.00    -0.265 N 
ATOM      3  H1  UNL     1       1.405   0.222   2.151  1.00  0.00     0.186 HD
HETATM    4  N2  UNL     1       0.008  -1.342   2.316  1.00  0.00    -0.007 NA
HETATM    5  N3  UNL     1      -1.017  -1.707   1.537  1.00  0.00    -0.004 NA
HETATM    6  N4  UNL     1      -1.089  -0.884   0.506  1.00  0.00    -0.248 N 
ENDROOT
BRANCH   1   7
HETATM    7  S1  UNL     1       0.256   1.344  -0.484  1.00  0.00    -0.082 SA
BRANCH   7   8
HETATM    8  C2  UNL     1       1.677   2.313   0.065  1.00  0.00     0.185 C 
BRANCH   8   9
HETATM    9  C1  UNL     1       2.928   1.538   0.026  1.00  0.00     0.227 C 
HETATM   10  O1  UNL     1       2.861   0.349  -0.367  1.00  0.00    -0.273 OA
HETATM   11  N5  UNL     1       4.145   2.104   0.413  1.00  0.00    -0.356 N 
ATOM     12  H5  UNL     1       4.132   3.076   0.722  1.00  0.00     0.162 HD
BRANCH  11  13
HETATM   13  C11 UNL     1       5.425   1.423   0.411  1.00  0.00     0.084 A 
HETATM   14  C12 UNL     1       5.795   0.769  -0.874  1.00  0.00     0.025 A 
HETATM   15  C13 UNL     1       5.888  -0.568  -0.191  1.00  0.00     0.004 A 
HETATM   16  C14 UNL     1       5.405   0.076   1.085  1.00  0.00     0.025 A 
ENDBRANCH  11  13
ENDBRANCH   8   9
ENDBRANCH   7   8
ENDBRANCH   1   7
BRANCH   6  17
HETATM   17  C4  UNL     1      -2.060  -0.928  -0.580  1.00  0.00     0.136 C 
BRANCH  17  18
HETATM   18  C5  UNL     1      -2.484  -2.353  -0.741  1.00  0.00     0.191 C 
BRANCH  18  19
HETATM   19  O2  UNL     1      -3.072  -2.878   0.409  1.00  0.00    -0.399 OA
ATOM     20  H2  UNL     1      -3.341  -3.783   0.307  1.00  0.00     0.209 HD
ENDBRANCH  18  19
ENDBRANCH  17  18
BRANCH  17  21
HETATM   21  C6  UNL     1      -3.161   0.065  -0.390  1.00  0.00     0.012 C 
HETATM   22  C7  UNL     1      -4.160   0.020  -1.516  1.00  0.00     0.007 C 
HETATM   23  C8  UNL     1      -5.529   0.171  -0.844  1.00  0.00     0.000 C 
HETATM   24  C9  UNL     1      -5.346  -0.415   0.533  1.00  0.00     0.000 C 
HETATM   25  C10 UNL     1      -3.935  -0.066   0.862  1.00  0.00     0.007 C 
ENDBRANCH  17  21
ENDBRANCH   6  17
TORSDOF 8
