REMARK  5 active torsions:
REMARK  status: ('A' for Active; 'I' for Inactive)
REMARK    1  A    between atoms: C2_2  and  C3_4 
REMARK    2  A    between atoms: C3_4  and  O2_6 
REMARK    3  A    between atoms: C3_4  and  C5_8 
REMARK    4  A    between atoms: C6_11  and  O3_12 
REMARK    5  A    between atoms: O3_12  and  C7_13 
ROOT
HETATM    1  C5  UNL     1      -1.663   0.069  -0.806  1.00  0.00     0.092 A 
HETATM    2  N1  UNL     1      -0.540  -0.311  -0.208  1.00  0.00    -0.332 N 
ATOM      3  H1  UNL     1      -0.566  -0.485   0.797  1.00  0.00     0.168 HD
HETATM    4  C6  UNL     1       0.656  -0.483  -0.865  1.00  0.00     0.188 A 
HETATM    5  C13 UNL     1       0.640  -0.236  -2.205  1.00  0.00     0.170 A 
HETATM    6  F1  UNL     1       1.719  -0.329  -3.025  1.00  0.00    -0.201 F 
HETATM    7  C14 UNL     1      -0.526   0.168  -2.875  1.00  0.00     0.091 A 
HETATM    8  C15 UNL     1      -1.671   0.318  -2.171  1.00  0.00     0.145 A 
HETATM    9  F2  UNL     1      -2.846   0.700  -2.703  1.00  0.00    -0.204 F 
ENDROOT
BRANCH   4  10
HETATM   10  O3  UNL     1       1.733  -0.863  -0.194  1.00  0.00    -0.288 OA
BRANCH  10  11
HETATM   11  C7  UNL     1       2.858  -0.341   0.312  1.00  0.00     0.112 A 
HETATM   12  C8  UNL     1       2.925   0.687   1.242  1.00  0.00     0.047 A 
HETATM   13 BR1  UNL     1       1.311   1.476   1.872  1.00  0.00    -0.048 Br
HETATM   14  C9  UNL     1       4.146   1.133   1.690  1.00  0.00     0.041 A 
HETATM   15  C10 UNL     1       5.341   0.616   1.269  1.00  0.00     0.013 A 
HETATM   16 BR2  UNL     1       7.022   1.255   1.908  1.00  0.00    -0.051 Br
HETATM   17  C11 UNL     1       5.305  -0.396   0.356  1.00  0.00     0.041 A 
HETATM   18  C12 UNL     1       4.085  -0.857  -0.104  1.00  0.00     0.047 A 
HETATM   19 BR3  UNL     1       4.182  -2.355  -1.312  1.00  0.00    -0.048 Br
ENDBRANCH  10  11
ENDBRANCH   4  10
BRANCH   1  20
HETATM   20  C3  UNL     1      -2.913   0.207  -0.046  1.00  0.00     0.159 C 
HETATM   21  C4  UNL     1      -3.570   1.527  -0.104  1.00  0.00     0.061 C 
BRANCH  20  22
HETATM   22  C2  UNL     1      -2.827  -0.261   1.357  1.00  0.00     0.163 C 
HETATM   23  C1  UNL     1      -3.498  -1.524   1.849  1.00  0.00     0.094 C 
HETATM   24  O1  UNL     1      -2.206   0.347   2.208  1.00  0.00    -0.295 OA
ENDBRANCH  20  22
BRANCH  20  25
HETATM   25  O2  UNL     1      -3.805  -0.726  -0.667  1.00  0.00    -0.376 OA
ATOM     26  H2  UNL     1      -3.860  -0.426  -1.567  1.00  0.00     0.211 HD
ENDBRANCH  20  25
ENDBRANCH   1  20
TORSDOF 5
