REMARK  7 active torsions:
REMARK  status: ('A' for Active; 'I' for Inactive)
REMARK    1  A    between atoms: O1_2  and  C2_3 
REMARK    2  A    between atoms: C2_3  and  C3_5 
REMARK       I    between atoms: C3_5  and  N1_7 
REMARK    3  A    between atoms: N1_7  and  C4_9 
REMARK    4  A    between atoms: C5_14  and  S1_15 
REMARK    5  A    between atoms: S1_15  and  C6_16 
REMARK    6  A    between atoms: C9_23  and  N6_24 
REMARK    7  A    between atoms: N7_27  and  N8_28 
ROOT
HETATM    1  C4  UNL     1       1.344  -0.016   0.073  1.00  0.00     0.723 A 
HETATM    2  N2  UNL     1       1.142   0.277  -1.225  1.00  0.00    -0.128 N 
ATOM      3  H2  UNL     1       1.741  -0.014  -1.997  1.00  0.00     0.205 HD
HETATM    4  N3  UNL     1       0.026   1.014  -1.341  1.00  0.00    -0.263 N 
ATOM      5  H3  UNL     1      -0.362   1.374  -2.213  1.00  0.00     0.189 HD
HETATM    6  C5  UNL     1      -0.494   1.197  -0.114  1.00  0.00     0.203 A 
HETATM    7  N7  UNL     1       0.347   0.546   0.739  1.00  0.00    -0.067 N 
ENDROOT
BRANCH   6   8
HETATM    8  S1  UNL     1      -1.948   2.120   0.249  1.00  0.00    -0.044 SA
BRANCH   8   9
HETATM    9  C6  UNL     1      -3.452   1.177   0.209  1.00  0.00     0.077 A 
HETATM   10  C7  UNL     1      -3.697  -0.147  -0.058  1.00  0.00     0.043 A 
HETATM   11  C8  UNL     1      -2.686  -1.178  -0.401  1.00  0.00     0.071 C 
HETATM   12  N4  UNL     1      -5.024  -0.352   0.046  1.00  0.00    -0.302 N 
HETATM   13  N5  UNL     1      -5.642   0.767   0.363  1.00  0.00    -0.285 N 
ATOM     14  H4  UNL     1      -5.486  -1.249  -0.100  1.00  0.00     0.186 HD
HETATM   15  C9  UNL     1      -4.718   1.717   0.470  1.00  0.00     0.133 A 
ATOM     16  H5  UNL     1      -6.646   0.884   0.501  1.00  0.00     0.188 HD
BRANCH  15  17
HETATM   17  N6  UNL     1      -4.923   2.953   0.768  1.00  0.00    -0.383 N 
ATOM     18  H62 UNL     1      -4.214   3.682   0.850  1.00  0.00     0.157 HD
ATOM     19  H61 UNL     1      -5.845   3.346   0.958  1.00  0.00     0.157 HD
ENDBRANCH  15  17
ENDBRANCH   8   9
ENDBRANCH   6   8
BRANCH   7  20
HETATM   20  N8  UNL     1       0.130   0.515   2.108  1.00  0.00    -0.322 N 
ATOM     21  H82 UNL     1       0.759   0.028   2.746  1.00  0.00     0.178 HD
ATOM     22  H81 UNL     1      -0.638   0.948   2.621  1.00  0.00     0.178 HD
ENDBRANCH   7  20
BRANCH   1  23
HETATM   23  N1  UNL     1       2.314  -0.705   0.552  1.00  0.00    -0.148 N 
HETATM   24  C3  UNL     1       3.345  -1.275  -0.230  1.00  0.00     0.335 C 
HETATM   25  O3  UNL     1       3.046  -2.196  -1.028  1.00  0.00    -0.261 OA
ATOM     26  H1  UNL     1       2.344  -0.851   1.561  1.00  0.00     0.188 HD
BRANCH  24  27
HETATM   27  C2  UNL     1       4.729  -0.847  -0.154  1.00  0.00     0.351 C 
HETATM   28  O2  UNL     1       5.083   0.074   0.631  1.00  0.00    -0.254 OA
BRANCH  27  29
HETATM   29  O1  UNL     1       5.686  -1.449  -0.949  1.00  0.00    -0.319 OA
HETATM   30  C1  UNL     1       7.023  -1.028  -0.870  1.00  0.00     0.213 C 
ENDBRANCH  27  29
ENDBRANCH  24  27
ENDBRANCH   1  23
TORSDOF 7
