REMARK  9 active torsions:
REMARK  status: ('A' for Active; 'I' for Inactive)
REMARK    1  A    between atoms: O1_2  and  C2_3 
REMARK    2  A    between atoms: C2_3  and  C3_5 
REMARK    3  A    between atoms: C3_5  and  O3_7 
REMARK    4  A    between atoms: C3_5  and  C14_30 
REMARK    5  A    between atoms: O3_7  and  C5_8 
REMARK    6  A    between atoms: C5_8  and  C6_12 
REMARK    7  A    between atoms: C6_12  and  N2_13 
REMARK    8  A    between atoms: N2_13  and  C7_15 
REMARK    9  A    between atoms: C10_19  and  O4_20 
ROOT
HETATM    1  N2  UNL     1      -0.467  -1.213   0.238  1.00  0.00    -0.354 N 
ATOM      2  H2  UNL     1      -0.203  -2.184   0.403  1.00  0.00     0.166 HD
ENDROOT
BRANCH   1   3
HETATM    3  C6  UNL     1       0.436  -0.306   0.179  1.00  0.00     0.144 C 
BRANCH   3   4
HETATM    4  C5  UNL     1       1.828  -0.703   0.353  1.00  0.00     0.153 C 
HETATM    5  N1  UNL     1       2.162  -1.927   0.561  1.00  0.00    -0.379 N 
ATOM      6  H12 UNL     1       3.136  -2.205   0.683  1.00  0.00     0.158 HD
ATOM      7  H11 UNL     1       1.397  -2.600   0.597  1.00  0.00     0.158 HD
BRANCH   4   8
HETATM    8  O3  UNL     1       2.874   0.217   0.304  1.00  0.00    -0.302 OA
BRANCH   8   9
HETATM    9  C3  UNL     1       4.209  -0.175   0.153  1.00  0.00     0.239 C 
HETATM   10  C4  UNL     1       4.721  -1.061   1.240  1.00  0.00     0.070 C 
BRANCH   9  11
HETATM   11  C2  UNL     1       5.039   1.079   0.144  1.00  0.00     0.304 C 
HETATM   12  O2  UNL     1       6.294   1.041   0.020  1.00  0.00    -0.261 OA
BRANCH  11  13
HETATM   13  O1  UNL     1       4.469   2.339   0.270  1.00  0.00    -0.324 OA
HETATM   14  C1  UNL     1       5.254   3.522   0.261  1.00  0.00     0.213 C 
ENDBRANCH  11  13
ENDBRANCH   9  11
BRANCH   9  15
HETATM   15  C14 UNL     1       4.434  -0.890  -1.147  1.00  0.00     0.220 C 
HETATM   16  O6  UNL     1       5.604  -1.286  -1.382  1.00  0.00    -0.645 OA
HETATM   17  O7  UNL     1       3.450  -1.126  -2.065  1.00  0.00    -0.645 OA
ENDBRANCH   9  15
ENDBRANCH   8   9
ENDBRANCH   4   8
ENDBRANCH   3   4
ENDBRANCH   1   3
BRANCH   1  18
HETATM   18  C7  UNL     1      -1.862  -0.862   0.071  1.00  0.00     0.110 A 
HETATM   19  S1  UNL     1      -2.651  -0.139  -1.250  1.00  0.00    -0.050 SA
HETATM   20  C8  UNL     1      -4.240  -0.085  -0.632  1.00  0.00     0.099 A 
HETATM   21  C9  UNL     1      -4.113  -0.639   0.604  1.00  0.00     0.102 A 
HETATM   22  N4  UNL     1      -5.450   0.359  -1.104  1.00  0.00    -0.321 N 
HETATM   23  C10 UNL     1      -2.873  -1.047   0.978  1.00  0.00     0.118 A 
HETATM   24  C11 UNL     1      -5.301  -0.719   1.348  1.00  0.00     0.263 A 
HETATM   25  O5  UNL     1      -5.324  -1.214   2.516  1.00  0.00    -0.267 OA
HETATM   26  N3  UNL     1      -6.463  -0.278   0.860  1.00  0.00    -0.299 N 
HETATM   27  C12 UNL     1      -6.558   0.264  -0.362  1.00  0.00     0.181 A 
ATOM     28  H3  UNL     1      -7.303  -0.356   1.434  1.00  0.00     0.171 HD
HETATM   29  S2  UNL     1      -7.999   0.782  -0.898  1.00  0.00    -0.040 SA
HETATM   30  C13 UNL     1      -5.453   0.927  -2.429  1.00  0.00     0.159 C 
BRANCH  23  31
HETATM   31  O4  UNL     1      -2.581  -1.647   2.244  1.00  0.00    -0.357 OA
ATOM     32  H4  UNL     1      -3.282  -1.775   2.873  1.00  0.00     0.218 HD
ENDBRANCH  23  31
ENDBRANCH   1  18
TORSDOF 9
