REMARK  1 active torsions:
REMARK  status: ('A' for Active; 'I' for Inactive)
REMARK    1  A    between atoms: N2_5  and  C3_6 
ROOT
HETATM    1  C1  UNL     1       0.364  -4.043  -0.057  1.00  0.00     0.065 C 
HETATM    2  C2  UNL     1       0.294  -2.609  -0.387  1.00  0.00    -0.000 C 
HETATM    3  N1  UNL     1      -0.677  -1.807  -0.017  1.00  0.00    -0.311 N 
ATOM      4  H1  UNL     1      -1.456  -2.162   0.538  1.00  0.00     0.186 HD
HETATM    5  N2  UNL     1      -0.630  -0.437  -0.399  1.00  0.00    -0.317 N 
HETATM    6  C10 UNL     1       0.639   0.220  -0.346  1.00  0.00     0.125 C 
HETATM    7  C11 UNL     1       0.866   0.927   0.979  1.00  0.00     0.154 C 
HETATM    8  N3  UNL     1       2.224   1.413   1.074  1.00  0.00    -0.330 N 
HETATM    9  C12 UNL     1       3.450   1.055   1.768  1.00  0.00     0.152 C 
HETATM   10  C13 UNL     1       4.410   1.149   0.568  1.00  0.00     0.104 C 
HETATM   11  C14 UNL     1       4.217  -0.054  -0.257  1.00  0.00     0.027 C 
HETATM   12  C15 UNL     1       3.016  -0.123  -1.135  1.00  0.00     0.009 C 
HETATM   13  C16 UNL     1       1.811  -0.741  -0.482  1.00  0.00     0.017 C 
HETATM   14  C17 UNL     1       1.357  -1.979  -1.189  1.00  0.00     0.060 C 
HETATM   15  N4  UNL     1       3.984   2.406  -0.009  1.00  0.00    -0.337 N 
ATOM     16  H4  UNL     1       4.561   3.054  -0.545  1.00  0.00     0.164 HD
HETATM   17  C18 UNL     1       2.606   2.567   0.313  1.00  0.00     0.318 C 
HETATM   18  O1  UNL     1       1.842   3.517   0.008  1.00  0.00    -0.247 OA
ENDROOT
BRANCH   5  19
HETATM   19  C3  UNL     1      -1.869   0.170  -0.822  1.00  0.00     0.102 C 
HETATM   20  C4  UNL     1      -2.259   1.404  -0.050  1.00  0.00     0.027 C 
HETATM   21  C5  UNL     1      -3.627   1.819  -0.594  1.00  0.00     0.002 C 
HETATM   22  C6  UNL     1      -4.776   1.165   0.067  1.00  0.00     0.000 C 
HETATM   23  C7  UNL     1      -4.454   0.205   1.157  1.00  0.00     0.000 C 
HETATM   24  C8  UNL     1      -3.538  -0.909   0.730  1.00  0.00     0.002 C 
HETATM   25  C9  UNL     1      -3.037  -0.784  -0.675  1.00  0.00     0.027 C 
ENDBRANCH   5  19
TORSDOF 1
