REMARK  5 active torsions:
REMARK  status: ('A' for Active; 'I' for Inactive)
REMARK    1  A    between atoms: C2_2  and  O1_3 
REMARK    2  A    between atoms: O1_3  and  C3_4 
REMARK    3  A    between atoms: C3_4  and  C4_6 
REMARK    4  A    between atoms: C6_8  and  O3_9 
REMARK    5  A    between atoms: C10_14  and  C11_15 
ROOT
HETATM    1  C4  UNL     1       1.840  -0.428   1.274  1.00  0.00     0.093 C 
HETATM    2  C5  UNL     1       1.335   0.369   2.474  1.00  0.00     0.047 C 
HETATM    3  C6  UNL     1      -0.041  -0.230   2.798  1.00  0.00     0.125 C 
HETATM    4  C7  UNL     1      -0.305  -1.313   1.849  1.00  0.00     0.053 C 
HETATM    5  C8  UNL     1       0.776  -1.242   0.756  1.00  0.00     0.013 C 
HETATM    6  C9  UNL     1      -0.031  -0.860  -0.446  1.00  0.00     0.003 C 
HETATM    7  C10 UNL     1      -0.560   0.520  -0.471  1.00  0.00     0.018 C 
HETATM    8  C13 UNL     1      -1.991   0.673  -0.034  1.00  0.00     0.278 C 
HETATM    9  N1  UNL     1      -2.399  -0.282   0.958  1.00  0.00     0.094 N 
HETATM   10  C14 UNL     1      -3.707  -0.779   0.493  1.00  0.00     0.273 C 
HETATM   11  C15 UNL     1      -3.607  -1.752  -0.612  1.00  0.00     0.031 C 
HETATM   12  C16 UNL     1      -2.229  -1.927  -1.215  1.00  0.00     0.009 C 
HETATM   13  C17 UNL     1      -1.150  -1.896  -0.236  1.00  0.00     0.024 C 
HETATM   14  C18 UNL     1      -1.588  -1.401   1.154  1.00  0.00     0.234 C 
ENDROOT
BRANCH   1  15
HETATM   15  C3  UNL     1       2.636   0.398   0.364  1.00  0.00     0.263 C 
HETATM   16  O2  UNL     1       2.834   1.599   0.683  1.00  0.00    -0.265 OA
BRANCH  15  17
HETATM   17  O1  UNL     1       3.164  -0.073  -0.798  1.00  0.00    -0.322 OA
BRANCH  17  18
HETATM   18  C2  UNL     1       3.934   0.806  -1.633  1.00  0.00     0.174 C 
HETATM   19  C1  UNL     1       5.118   1.307  -0.857  1.00  0.00     0.034 C 
ENDBRANCH  17  18
ENDBRANCH  15  17
ENDBRANCH   1  15
BRANCH   3  20
HETATM   20  O3  UNL     1      -1.012   0.752   2.905  1.00  0.00    -0.395 OA
ATOM     21  H3  UNL     1      -1.863   0.381   3.105  1.00  0.00     0.210 HD
ENDBRANCH   3  20
BRANCH   7  22
HETATM   22  C11 UNL     1      -0.379   1.212  -1.831  1.00  0.00     0.002 C 
HETATM   23  C12 UNL     1      -0.961   2.608  -1.717  1.00  0.00     0.005 C 
ENDBRANCH   7  22
TORSDOF 5
