REMARK  4 active torsions:
REMARK  status: ('A' for Active; 'I' for Inactive)
REMARK    1  A    between atoms: C1_2  and  C2_4 
REMARK    2  A    between atoms: C2_4  and  O2_5 
REMARK    3  A    between atoms: O2_5  and  C3_6 
REMARK    4  A    between atoms: C3_6  and  C4_8 
ROOT
HETATM    1  C4  UNL     1       0.099  -0.611  -0.599  1.00  0.00     0.057 C 
HETATM    2  C5  UNL     1       0.309  -1.904   0.200  1.00  0.00     0.025 C 
HETATM    3  C6  UNL     1      -0.985  -2.624   0.367  1.00  0.00    -0.013 C 
HETATM    4  C7  UNL     1      -1.664  -2.962  -0.926  1.00  0.00     0.009 C 
HETATM    5  C8  UNL     1      -1.886  -1.679  -1.715  1.00  0.00    -0.013 C 
HETATM    6  C9  UNL     1      -2.806  -0.778  -0.917  1.00  0.00     0.010 C 
HETATM    7  C10 UNL     1      -2.119  -0.443   0.379  1.00  0.00    -0.004 C 
HETATM    8  C11 UNL     1      -1.927  -1.717   1.147  1.00  0.00     0.010 C 
HETATM    9  C12 UNL     1      -0.814   0.285   0.192  1.00  0.00    -0.016 C 
HETATM   10  C13 UNL     1      -1.054   1.564  -0.585  1.00  0.00     0.037 C 
HETATM   11  C14 UNL     1      -1.900   2.531   0.213  1.00  0.00     0.168 C 
HETATM   12  O4  UNL     1      -1.339   2.815   1.433  1.00  0.00    -0.391 OA
HETATM   13  C15 UNL     1      -0.138   2.188   1.673  1.00  0.00     0.168 C 
HETATM   14  C16 UNL     1      -0.296   0.667   1.539  1.00  0.00     0.037 C 
HETATM   15  C17 UNL     1      -0.568  -1.006  -1.874  1.00  0.00     0.025 C 
ENDROOT
BRANCH   1  16
HETATM   16  C3  UNL     1       1.405   0.007  -0.912  1.00  0.00     0.268 C 
HETATM   17  O3  UNL     1       1.740   0.191  -2.107  1.00  0.00    -0.264 OA
BRANCH  16  18
HETATM   18  O2  UNL     1       2.320   0.414   0.047  1.00  0.00    -0.312 OA
BRANCH  18  19
HETATM   19  C2  UNL     1       3.573   1.008  -0.326  1.00  0.00     0.278 C 
BRANCH  19  20
HETATM   20  C1  UNL     1       4.370   1.354   0.853  1.00  0.00     0.255 C 
HETATM   21  N1  UNL     1       5.641   1.952   0.706  1.00  0.00    -0.060 NA
HETATM   22  O1  UNL     1       3.921   1.118   1.994  1.00  0.00    -0.274 OA
ENDBRANCH  19  20
ENDBRANCH  18  19
ENDBRANCH  16  18
ENDBRANCH   1  16
TORSDOF 4
