REMARK  3 active torsions:
REMARK  status: ('A' for Active; 'I' for Inactive)
REMARK    1  A    between atoms: C2_2  and  N1_3 
REMARK    2  A    between atoms: C4_6  and  N2_7 
REMARK    3  A    between atoms: C5_10  and  O3_12 
ROOT
HETATM    1  N1  UNL     1       1.867  -0.842  -0.378  1.00  0.00    -0.393 N 
ATOM      2  H1  UNL     1       1.849  -1.296  -1.291  1.00  0.00     0.159 HD
HETATM    3  C3  UNL     1       0.725  -0.715   0.059  1.00  0.00     0.042 C 
HETATM    4  C4  UNL     1      -0.432  -1.208  -0.754  1.00  0.00     0.237 C 
HETATM    5  C5  UNL     1      -1.319  -0.151  -1.291  1.00  0.00     0.094 C 
HETATM    6  C6  UNL     1      -2.374  -0.842  -2.141  1.00  0.00     0.049 C 
HETATM    7  C7  UNL     1      -1.941   0.740  -0.260  1.00  0.00     0.063 C 
HETATM    8  C8  UNL     1      -1.538   2.204  -0.441  1.00  0.00     0.019 C 
HETATM    9  C9  UNL     1      -1.816   0.355   1.123  1.00  0.00    -0.014 C 
HETATM   10  C10 UNL     1      -3.075   0.340   1.916  1.00  0.00     0.063 C 
HETATM   11  N3  UNL     1      -0.796   0.021   1.792  1.00  0.00    -0.382 N 
ATOM     12  H3  UNL     1      -0.975  -0.211   2.769  1.00  0.00     0.160 HD
HETATM   13  C11 UNL     1       0.569  -0.080   1.385  1.00  0.00     0.063 C 
HETATM   14  C12 UNL     1       1.284  -0.995   2.392  1.00  0.00     0.044 C 
HETATM   15  C13 UNL     1       1.187   1.272   1.507  1.00  0.00     0.044 C 
ENDROOT
BRANCH   1  16
HETATM   16  C2  UNL     1       3.161  -0.558  -0.009  1.00  0.00     0.115 C 
HETATM   17  C1  UNL     1       3.799   0.313  -1.106  1.00  0.00     0.026 C 
ENDBRANCH   1  16
BRANCH   4  18
HETATM   18  N2  UNL     1       0.005  -2.084  -1.811  1.00  0.00    -0.142 N 
HETATM   19  O1  UNL     1      -0.180  -1.808  -3.009  1.00  0.00    -0.536 OA
HETATM   20  O2  UNL     1       0.665  -3.283  -1.563  1.00  0.00    -0.536 OA
ENDBRANCH   4  18
BRANCH   5  21
HETATM   21  O3  UNL     1      -0.666   0.697  -2.205  1.00  0.00    -0.387 OA
ATOM     22  H3  UNL     1      -1.235   1.375  -2.550  1.00  0.00     0.210 HD
ENDBRANCH   5  21
TORSDOF 3
