REMARK  14 active torsions:
REMARK  status: ('A' for Active; 'I' for Inactive)
REMARK    1  A    between atoms: C2_2  and  C3_3 
REMARK    2  A    between atoms: C3_3  and  C4_4 
REMARK    3  A    between atoms: C4_4  and  C5_5 
REMARK    4  A    between atoms: C5_5  and  C6_6 
REMARK    5  A    between atoms: C6_6  and  N1_7 
REMARK       I    between atoms: N1_7  and  C7_8 
REMARK    6  A    between atoms: N1_7  and  C23_42 
REMARK    7  A    between atoms: C7_8  and  C8_10 
REMARK    8  A    between atoms: C8_10  and  N2_11 
REMARK    9  A    between atoms: C9_12  and  C10_13 
REMARK   10  A    between atoms: C10_13  and  C11_14 
REMARK   11  A    between atoms: N3_16  and  C13_17 
REMARK   12  A    between atoms: C13_17  and  C14_18 
REMARK       I    between atoms: C14_18  and  N4_20 
REMARK   13  A    between atoms: C16_22  and  O3_23 
REMARK   14  A    between atoms: C21_35  and  N7_36 
ROOT
HETATM    1  N2  UNL     1       0.711  -1.376  -1.382  1.00  0.00    -0.311 N 
HETATM    2  C9  UNL     1       1.614  -0.656  -2.055  1.00  0.00     0.086 A 
HETATM    3  N5  UNL     1       2.467  -1.504  -2.669  1.00  0.00    -0.338 N 
ATOM      4  H5  UNL     1       3.258  -1.235  -3.255  1.00  0.00     0.167 HD
HETATM    5  C19 UNL     1       2.100  -2.749  -2.380  1.00  0.00     0.148 A 
HETATM    6  C20 UNL     1       2.634  -3.965  -2.754  1.00  0.00     0.290 A 
HETATM    7  O5  UNL     1       3.633  -4.069  -3.485  1.00  0.00    -0.265 OA
HETATM    8  N6  UNL     1       2.011  -5.074  -2.279  1.00  0.00    -0.154 N 
ATOM      9  H6  UNL     1       2.377  -5.991  -2.534  1.00  0.00     0.187 HD
HETATM   10  C21 UNL     1       0.937  -5.006  -1.491  1.00  0.00     0.680 A 
HETATM   11  N8  UNL     1       0.421  -3.820  -1.131  1.00  0.00    -0.174 N 
ATOM     12  H8  UNL     1      -0.401  -3.781  -0.528  1.00  0.00     0.186 HD
HETATM   13  C22 UNL     1       0.997  -2.672  -1.572  1.00  0.00     0.157 A 
ENDROOT
BRANCH   1  14
HETATM   14  C8  UNL     1      -0.444  -0.922  -0.585  1.00  0.00     0.235 C 
BRANCH  14  15
HETATM   15  C7  UNL     1      -1.633  -0.832  -1.469  1.00  0.00     0.238 C 
HETATM   16  N1  UNL     1      -2.911  -0.443  -1.017  1.00  0.00    -0.346 N 
HETATM   17  O1  UNL     1      -1.497  -1.120  -2.696  1.00  0.00    -0.272 OA
BRANCH  16  18
HETATM   18  C6  UNL     1      -3.096  -0.100   0.369  1.00  0.00     0.126 C 
BRANCH  18  19
HETATM   19  C5  UNL     1      -2.889   1.341   0.687  1.00  0.00     0.020 C 
BRANCH  19  20
HETATM   20  C4  UNL     1      -3.067   1.688   2.140  1.00  0.00     0.002 C 
BRANCH  20  21
HETATM   21  C3  UNL     1      -4.461   1.363   2.616  1.00  0.00    -0.000 C 
BRANCH  21  22
HETATM   22  C2  UNL     1      -4.643   1.727   4.080  1.00  0.00    -0.005 C 
HETATM   23  C1  UNL     1      -4.424   3.179   4.339  1.00  0.00     0.005 C 
ENDBRANCH  21  22
ENDBRANCH  20  21
ENDBRANCH  19  20
ENDBRANCH  18  19
ENDBRANCH  16  18
BRANCH  16  24
HETATM   24  C23 UNL     1      -4.010  -0.404  -1.934  1.00  0.00     0.087 C 
HETATM   25  C24 UNL     1      -4.689   0.913  -2.082  1.00  0.00     0.025 C 
HETATM   26  C25 UNL     1      -5.525   0.837  -3.364  1.00  0.00     0.002 C 
HETATM   27  C26 UNL     1      -6.513  -0.292  -3.304  1.00  0.00     0.000 C 
HETATM   28  C27 UNL     1      -5.946  -1.582  -2.810  1.00  0.00     0.002 C 
HETATM   29  C28 UNL     1      -5.091  -1.422  -1.563  1.00  0.00     0.025 C 
ENDBRANCH  16  24
ENDBRANCH  14  15
ENDBRANCH   1  14
BRANCH   2  30
HETATM   30  C10 UNL     1       1.696   0.807  -2.108  1.00  0.00     0.092 C 
BRANCH  30  31
HETATM   31  C11 UNL     1       2.641   1.460  -1.180  1.00  0.00     0.103 C 
HETATM   32  C12 UNL     1       4.108   1.057  -1.369  1.00  0.00     0.141 C 
HETATM   33  N3  UNL     1       4.237   1.375   0.023  1.00  0.00    -0.342 N 
HETATM   34  C18 UNL     1       2.869   0.934   0.168  1.00  0.00     0.226 C 
HETATM   35  O4  UNL     1       2.341   0.361   1.145  1.00  0.00    -0.273 OA
BRANCH  33  36
HETATM   36  C13 UNL     1       5.215   1.888   0.925  1.00  0.00     0.228 C 
BRANCH  36  37
HETATM   37  C14 UNL     1       6.007   0.770   1.501  1.00  0.00     0.237 C 
HETATM   38  O2  UNL     1       5.736  -0.425   1.144  1.00  0.00    -0.272 OA
HETATM   39  N4  UNL     1       7.053   0.975   2.431  1.00  0.00    -0.346 N 
HETATM   40  C15 UNL     1       7.979   0.134   3.151  1.00  0.00     0.159 C 
HETATM   41  C17 UNL     1       7.652   2.126   3.068  1.00  0.00     0.159 C 
HETATM   42  C16 UNL     1       8.941   1.315   3.172  1.00  0.00     0.154 C 
BRANCH  42  43
HETATM   43  O3  UNL     1       9.651   1.484   4.332  1.00  0.00    -0.392 OA
ATOM     44  H3  UNL     1      10.251   2.220   4.345  1.00  0.00     0.210 HD
ENDBRANCH  42  43
ENDBRANCH  36  37
ENDBRANCH  33  36
ENDBRANCH  30  31
ENDBRANCH   2  30
BRANCH  10  45
HETATM   45  N7  UNL     1       0.361  -6.073  -1.051  1.00  0.00    -0.234 N 
ATOM     46  H72 UNL     1       0.753  -6.974  -1.325  1.00  0.00     0.174 HD
ATOM     47  H71 UNL     1      -0.460  -6.021  -0.448  1.00  0.00     0.174 HD
ENDBRANCH  10  45
TORSDOF 14
