REMARK  14 active torsions:
REMARK  status: ('A' for Active; 'I' for Inactive)
REMARK    1  A    between atoms: O1_2  and  N1_3 
REMARK    2  A    between atoms: C2_5  and  C3_6 
REMARK    3  A    between atoms: C2_5  and  C11_28 
REMARK       I    between atoms: C3_6  and  N2_8 
REMARK    4  A    between atoms: N2_8  and  C4_10 
REMARK    5  A    between atoms: C4_10  and  O3_12 
REMARK    6  A    between atoms: C4_10  and  C6_14 
REMARK    7  A    between atoms: C6_14  and  C7_15 
REMARK    8  A    between atoms: C7_15  and  C8_16 
REMARK    9  A    between atoms: C8_16  and  N3_17 
REMARK   10  A    between atoms: C9_19  and  N4_21 
REMARK   11  A    between atoms: N4_21  and  N5_23 
REMARK       I    between atoms: C11_28  and  N7_30 
REMARK   12  A    between atoms: C16_35  and  N8_36 
REMARK       I    between atoms: N8_36  and  C17_38 
REMARK   13  A    between atoms: C17_38  and  C18_40 
REMARK   14  A    between atoms: C18_40  and  C19_42 
ROOT
HETATM    1  N1  UNL     1       1.761   1.827  -0.433  1.00  0.00    -0.257 N 
ATOM      2  H1  UNL     1       0.766   1.725  -0.631  1.00  0.00     0.194 HD
HETATM    3  C2  UNL     1       2.439   0.739  -0.129  1.00  0.00     0.190 C 
ENDROOT
BRANCH   3   4
HETATM    4  C3  UNL     1       3.832   0.906   0.143  1.00  0.00     0.278 C 
HETATM    5  O2  UNL     1       4.307   2.103   0.068  1.00  0.00    -0.266 OA
HETATM    6  N2  UNL     1       4.713  -0.122   0.482  1.00  0.00    -0.324 N 
ATOM      7  H2  UNL     1       4.404  -1.091   0.560  1.00  0.00     0.165 HD
BRANCH   6   8
HETATM    8  C4  UNL     1       6.138   0.276   0.725  1.00  0.00     0.130 C 
HETATM    9  C5  UNL     1       6.133   1.244   1.850  1.00  0.00     0.070 C 
BRANCH   8  10
HETATM   10  O3  UNL     1       6.565   0.955  -0.443  1.00  0.00    -0.371 OA
ATOM     11  H3  UNL     1       7.468   1.207  -0.289  1.00  0.00     0.212 HD
ENDBRANCH   8  10
BRANCH   8  12
HETATM   12  C6  UNL     1       6.955  -0.947   0.905  1.00  0.00     0.062 C 
BRANCH  12  13
HETATM   13  C7  UNL     1       8.394  -0.801   1.183  1.00  0.00     0.024 C 
BRANCH  13  14
HETATM   14  C8  UNL     1       9.126  -0.083   0.102  1.00  0.00     0.121 C 
BRANCH  14  15
HETATM   15  N3  UNL     1      10.567  -0.016   0.441  1.00  0.00    -0.379 N 
HETATM   16  C9  UNL     1      11.405  -0.506  -0.389  1.00  0.00     0.089 C 
HETATM   17  C10 UNL     1      10.975  -1.130  -1.660  1.00  0.00     0.090 C 
ATOM     18  H3  UNL     1      10.881   0.410   1.313  1.00  0.00     0.160 HD
BRANCH  16  19
HETATM   19  N4  UNL     1      12.788  -0.446  -0.073  1.00  0.00    -0.276 N 
ATOM     20  H4  UNL     1      13.237   0.467   0.001  1.00  0.00     0.189 HD
BRANCH  19  21
HETATM   21  N5  UNL     1      13.555  -1.592   0.140  1.00  0.00    -0.248 N 
HETATM   22  N6  UNL     1      13.160  -2.580   0.839  1.00  0.00    -0.331 N 
ATOM     23  H62 UNL     1      12.232  -2.514   1.258  1.00  0.00     0.178 HD
ATOM     24  H61 UNL     1      13.721  -3.418   0.995  1.00  0.00     0.178 HD
ATOM     25  H5  UNL     1      14.480  -1.641  -0.287  1.00  0.00     0.207 HD
ENDBRANCH  19  21
ENDBRANCH  16  19
ENDBRANCH  14  15
ENDBRANCH  13  14
ENDBRANCH  12  13
ENDBRANCH   8  12
ENDBRANCH   6   8
ENDBRANCH   3   4
BRANCH   3  26
HETATM   26  C11 UNL     1       1.777  -0.543  -0.088  1.00  0.00     0.277 C 
HETATM   27  O4  UNL     1       2.339  -1.636   0.200  1.00  0.00    -0.266 OA
HETATM   28  N7  UNL     1       0.377  -0.644  -0.385  1.00  0.00    -0.346 N 
HETATM   29  C12 UNL     1      -0.372  -1.903  -0.345  1.00  0.00     0.131 C 
HETATM   30  C28 UNL     1      -0.469   0.443  -0.760  1.00  0.00     0.131 C 
HETATM   31  C13 UNL     1      -1.811  -1.406  -0.160  1.00  0.00     0.009 C 
HETATM   32  C14 UNL     1      -1.977  -1.069   1.294  1.00  0.00     0.009 C 
HETATM   33  C27 UNL     1      -1.804  -0.218  -1.052  1.00  0.00     0.011 C 
HETATM   34  C15 UNL     1      -3.099  -0.091   1.544  1.00  0.00     0.026 C 
HETATM   35  C16 UNL     1      -3.840   0.096   0.237  1.00  0.00     0.085 C 
HETATM   36  C26 UNL     1      -2.883   0.787  -0.715  1.00  0.00     0.032 C 
BRANCH  35  37
HETATM   37  N8  UNL     1      -5.075   0.792   0.380  1.00  0.00    -0.350 N 
HETATM   38  C17 UNL     1      -6.279   0.171  -0.054  1.00  0.00     0.288 C 
HETATM   39  O5  UNL     1      -6.261  -0.993  -0.566  1.00  0.00    -0.264 OA
ATOM     40  H8  UNL     1      -5.096   1.726   0.789  1.00  0.00     0.163 HD
BRANCH  38  41
HETATM   41  C18 UNL     1      -7.576   0.834   0.067  1.00  0.00     0.224 C 
HETATM   42  O6  UNL     1      -7.559   2.003   0.583  1.00  0.00    -0.286 OA
BRANCH  41  43
HETATM   43  C19 UNL     1      -8.841   0.184  -0.385  1.00  0.00     0.026 C 
HETATM   44  C20 UNL     1      -8.777  -0.152  -1.865  1.00  0.00     0.024 C 
HETATM   45  C21 UNL     1      -9.039  -1.078   0.384  1.00  0.00     0.017 C 
HETATM   46  C22 UNL     1     -10.449  -1.551   0.506  1.00  0.00     0.001 C 
HETATM   47  C23 UNL     1     -11.480  -0.478   0.612  1.00  0.00     0.000 C 
HETATM   48  C24 UNL     1     -11.253   0.597  -0.461  1.00  0.00     0.001 C 
HETATM   49  C25 UNL     1      -9.933   1.223  -0.145  1.00  0.00     0.017 C 
ENDBRANCH  41  43
ENDBRANCH  38  41
ENDBRANCH  35  37
ENDBRANCH   3  26
BRANCH   1  50
HETATM   50  O1  UNL     1       2.291   3.072  -0.502  1.00  0.00    -0.285 OA
HETATM   51  C1  UNL     1       2.235   3.901  -1.640  1.00  0.00     0.237 C 
ENDBRANCH   1  50
TORSDOF 14
