REMARK  6 active torsions:
REMARK  status: ('A' for Active; 'I' for Inactive)
REMARK    1  A    between atoms: C2_2  and  O2_4 
REMARK    2  A    between atoms: O2_4  and  C3_5 
REMARK    3  A    between atoms: C7_11  and  O5_12 
REMARK    4  A    between atoms: C8_14  and  O6_15 
REMARK    5  A    between atoms: C9_17  and  O7_18 
REMARK    6  A    between atoms: C11_22  and  O9_23 
ROOT
HETATM    1  C3  UNL     1       1.912  -0.440  -0.469  1.00  0.00     0.284 C 
HETATM    2  C4  UNL     1       1.349  -1.744  -0.036  1.00  0.00     0.236 C 
HETATM    3  O3  UNL     1       2.174  -2.706   0.076  1.00  0.00    -0.285 OA
HETATM    4  C5  UNL     1      -0.069  -1.916   0.245  1.00  0.00     0.234 C 
HETATM    5  O4  UNL     1      -0.553  -3.052   0.491  1.00  0.00    -0.283 OA
HETATM    6  C6  UNL     1      -0.974  -0.776   0.250  1.00  0.00     0.071 C 
HETATM    7  C7  UNL     1      -2.296  -1.117   0.538  1.00  0.00     0.117 C 
HETATM    8  C8  UNL     1      -3.450  -0.388   0.346  1.00  0.00     0.137 C 
HETATM    9  C9  UNL     1      -3.527   0.996   0.399  1.00  0.00     0.155 C 
HETATM   10  C10 UNL     1      -2.511   1.938   0.305  1.00  0.00     0.241 C 
HETATM   11  O8  UNL     1      -2.795   3.139   0.562  1.00  0.00    -0.282 OA
HETATM   12  C11 UNL     1      -1.192   1.670  -0.051  1.00  0.00     0.134 C 
HETATM   13  C12 UNL     1      -0.476   0.474  -0.015  1.00  0.00     0.067 C 
HETATM   14  C13 UNL     1       0.945   0.668  -0.299  1.00  0.00     0.200 C 
HETATM   15  O10 UNL     1       1.371   1.844  -0.407  1.00  0.00    -0.289 OA
ENDROOT
BRANCH   1  16
HETATM   16  O2  UNL     1       3.102  -0.171   0.278  1.00  0.00    -0.300 OA
BRANCH  16  17
HETATM   17  C2  UNL     1       4.296  -0.000  -0.397  1.00  0.00     0.256 C 
HETATM   18  C1  UNL     1       5.582   0.285   0.328  1.00  0.00     0.126 C 
HETATM   19  O1  UNL     1       4.279  -0.092  -1.650  1.00  0.00    -0.266 OA
ENDBRANCH  16  17
ENDBRANCH   1  16
BRANCH  12  20
HETATM   20  O9  UNL     1      -0.472   2.742  -0.513  1.00  0.00    -0.356 OA
ATOM     21  H9  UNL     1       0.428   2.559  -0.756  1.00  0.00     0.218 HD
ENDBRANCH  12  20
BRANCH   7  22
HETATM   22  O5  UNL     1      -2.472  -2.353   1.090  1.00  0.00    -0.357 OA
ATOM     23  H5  UNL     1      -3.372  -2.585   1.286  1.00  0.00     0.217 HD
ENDBRANCH   7  22
BRANCH   8  24
HETATM   24  O6  UNL     1      -4.643  -1.018   0.077  1.00  0.00    -0.356 OA
ATOM     25  H6  UNL     1      -5.438  -0.516  -0.055  1.00  0.00     0.218 HD
ENDBRANCH   8  24
BRANCH   9  26
HETATM   26  O7  UNL     1      -4.786   1.537   0.570  1.00  0.00    -0.355 OA
ATOM     27  H7  UNL     1      -4.839   2.485   0.606  1.00  0.00     0.218 HD
ENDBRANCH   9  26
TORSDOF 6
