REMARK  2 active torsions:
REMARK  status: ('A' for Active; 'I' for Inactive)
REMARK       I    between atoms: N2_7  and  C5_9 
REMARK       I    between atoms: C5_9  and  N3_11 
REMARK    1  A    between atoms: N3_11  and  C6_13 
REMARK    2  A    between atoms: C12_23  and  C13_24 
ROOT
HETATM    1  C6  UNL     1      -0.303  -0.028   0.526  1.00  0.00     0.118 A 
HETATM    2  C7  UNL     1      -1.091   1.094   0.408  1.00  0.00     0.077 A 
HETATM    3  C8  UNL     1      -0.557   2.337   0.051  1.00  0.00     0.074 A 
HETATM    4  N4  UNL     1      -1.410   3.469  -0.058  1.00  0.00    -0.101 NA
HETATM    5  C9  UNL     1       0.775   2.465  -0.191  1.00  0.00     0.113 A 
HETATM    6  C10 UNL     1       1.333   3.738  -0.558  1.00  0.00     0.105 C 
HETATM    7  N5  UNL     1       1.786   4.775  -0.838  1.00  0.00    -0.191 NA
HETATM    8  C11 UNL     1       1.553   1.331  -0.068  1.00  0.00     0.136 A 
HETATM    9  N6  UNL     1       2.886   1.193  -0.252  1.00  0.00    -0.339 N 
ATOM     10  H6  UNL     1       3.528   1.940  -0.518  1.00  0.00     0.167 HD
HETATM   11  C12 UNL     1       3.228  -0.087  -0.028  1.00  0.00     0.060 A 
HETATM   12  C19 UNL     1       2.057  -0.743   0.303  1.00  0.00     0.130 A 
HETATM   13  N7  UNL     1       1.028   0.143   0.275  1.00  0.00    -0.290 N 
ENDROOT
BRANCH   1  14
HETATM   14  N3  UNL     1      -0.737  -1.171   0.844  1.00  0.00    -0.294 N 
HETATM   15  C5  UNL     1      -2.064  -1.537   1.137  1.00  0.00     0.327 C 
HETATM   16  N2  UNL     1      -2.942  -2.139   0.222  1.00  0.00    -0.288 N 
HETATM   17  O1  UNL     1      -2.505  -1.310   2.317  1.00  0.00    -0.247 OA
HETATM   18  C4  UNL     1      -4.120  -1.641  -0.011  1.00  0.00     0.152 A 
ATOM     19  H2  UNL     1      -2.650  -2.984  -0.270  1.00  0.00     0.172 HD
HETATM   20  N1  UNL     1      -4.727  -0.570   0.490  1.00  0.00    -0.345 N 
HETATM   21  S1  UNL     1      -5.314  -2.258  -1.102  1.00  0.00    -0.058 SA
HETATM   22  C3  UNL     1      -5.928  -0.273   0.092  1.00  0.00     0.104 A 
ATOM     23  H1  UNL     1      -4.255   0.013   1.181  1.00  0.00     0.167 HD
HETATM   24  C2  UNL     1      -6.521  -1.085  -0.835  1.00  0.00    -0.003 A 
HETATM   25  C1  UNL     1      -7.892  -0.958  -1.450  1.00  0.00     0.058 C 
ATOM     26  H3  UNL     1      -0.043  -1.917   0.894  1.00  0.00     0.172 HD
ENDBRANCH   1  14
BRANCH  11  27
HETATM   27  C13 UNL     1       4.571  -0.673  -0.116  1.00  0.00    -0.008 A 
HETATM   28  C14 UNL     1       5.621   0.139  -0.462  1.00  0.00     0.014 A 
HETATM   29  C15 UNL     1       6.920  -0.316  -0.571  1.00  0.00     0.001 A 
HETATM   30  C16 UNL     1       7.151  -1.640  -0.320  1.00  0.00     0.000 A 
HETATM   31  C17 UNL     1       6.106  -2.476   0.030  1.00  0.00     0.001 A 
HETATM   32  C18 UNL     1       4.808  -2.000   0.135  1.00  0.00     0.014 A 
ENDBRANCH  11  27
TORSDOF 2
