REMARK  4 active torsions:
REMARK  status: ('A' for Active; 'I' for Inactive)
REMARK       I    between atoms: C2_2  and  N1_4 
REMARK    1  A    between atoms: N1_4  and  C3_6 
REMARK    2  A    between atoms: C7_11  and  N2_12 
REMARK    3  A    between atoms: N2_12  and  C8_14 
REMARK    4  A    between atoms: C20_31  and  N6_32 
ROOT
HETATM    1  C3  UNL     1       4.059   1.053   0.064  1.00  0.00     0.121 A 
HETATM    2  S1  UNL     1       2.384   1.459  -0.065  1.00  0.00    -0.066 SA
HETATM    3  C4  UNL     1       1.377   0.096  -0.005  1.00  0.00     0.035 A 
HETATM    4  C5  UNL     1      -0.005   0.188  -0.091  1.00  0.00     0.037 A 
HETATM    5  C6  UNL     1      -0.800  -0.947  -0.038  1.00  0.00     0.020 A 
HETATM    6  C7  UNL     1      -2.201  -0.810  -0.129  1.00  0.00     0.067 A 
HETATM    7  C14 UNL     1      -2.882  -1.994  -0.065  1.00  0.00     0.087 A 
HETATM    8  C15 UNL     1      -4.308  -1.992  -0.146  1.00  0.00     0.103 C 
HETATM    9  N3  UNL     1      -5.443  -2.019  -0.208  1.00  0.00    -0.191 NA
HETATM   10  C16 UNL     1      -2.233  -3.234   0.079  1.00  0.00     0.113 A 
HETATM   11  N4  UNL     1      -0.895  -3.258   0.156  1.00  0.00    -0.364 N 
ATOM     12  H4  UNL     1      -0.420  -4.155   0.259  1.00  0.00     0.165 HD
HETATM   13  C17 UNL     1      -0.166  -2.140   0.101  1.00  0.00     0.046 A 
HETATM   14  C18 UNL     1       1.211  -2.270   0.190  1.00  0.00     0.061 A 
HETATM   15  C19 UNL     1       2.012  -1.112   0.136  1.00  0.00     0.053 A 
HETATM   16  N5  UNL     1       3.333  -1.237   0.221  1.00  0.00    -0.339 N 
ATOM     17  H5  UNL     1       3.676  -2.192   0.322  1.00  0.00     0.167 HD
HETATM   18  C20 UNL     1       4.267  -0.299   0.193  1.00  0.00     0.134 A 
ENDROOT
BRANCH   6  19
HETATM   19  N2  UNL     1      -2.666   0.331  -0.254  1.00  0.00    -0.354 N 
ATOM     20  H2  UNL     1      -1.895   0.999  -0.268  1.00  0.00     0.166 HD
BRANCH  19  21
HETATM   21  C8  UNL     1      -3.825   1.007  -0.378  1.00  0.00     0.032 A 
HETATM   22  C9  UNL     1      -4.502   1.479   0.738  1.00  0.00     0.029 A 
HETATM   23  C10 UNL     1      -5.671   2.183   0.671  1.00  0.00     0.002 A 
HETATM   24  C11 UNL     1      -6.232   2.454  -0.543  1.00  0.00     0.000 A 
HETATM   25  C12 UNL     1      -5.598   2.007  -1.685  1.00  0.00     0.002 A 
HETATM   26  C13 UNL     1      -4.414   1.294  -1.613  1.00  0.00     0.029 A 
ENDBRANCH  19  21
ENDBRANCH   6  19
BRANCH   1  27
HETATM   27  N1  UNL     1       4.992   1.918   0.042  1.00  0.00    -0.319 N 
HETATM   28  C2  UNL     1       6.361   1.785   0.131  1.00  0.00     0.218 C 
HETATM   29  C1  UNL     1       7.147   1.851   1.414  1.00  0.00     0.117 C 
HETATM   30  O1  UNL     1       7.044   1.593  -0.924  1.00  0.00    -0.274 OA
ATOM     31  H1  UNL     1       4.670   2.880  -0.059  1.00  0.00     0.169 HD
ENDBRANCH   1  27
BRANCH  18  32
HETATM   32  N6  UNL     1       5.519  -0.666   0.295  1.00  0.00    -0.383 N 
ATOM     33  H62 UNL     1       6.239   0.057   0.273  1.00  0.00     0.157 HD
ATOM     34  H61 UNL     1       5.673  -1.670   0.391  1.00  0.00     0.157 HD
ENDBRANCH  18  32
TORSDOF 4
