REMARK  7 active torsions:
REMARK  status: ('A' for Active; 'I' for Inactive)
REMARK    1  A    between atoms: C2_2  and  O1_5 
REMARK    2  A    between atoms: O1_5  and  C5_6 
REMARK    3  A    between atoms: C7_9  and  C8_10 
REMARK    4  A    between atoms: C8_10  and  C9_11 
REMARK       I    between atoms: C9_11  and  N1_13 
REMARK    5  A    between atoms: C10_16  and  C11_17 
REMARK    6  A    between atoms: C11_17  and  O5_18 
REMARK    7  A    between atoms: N2_20  and  O6_22 
ROOT
HETATM    1  C9  UNL     1       3.251   0.699   0.929  1.00  0.00     0.323 C 
HETATM    2  O3  UNL     1       3.113  -0.306   1.657  1.00  0.00    -0.254 OA
HETATM    3  N1  UNL     1       3.972   1.811   1.271  1.00  0.00    -0.244 NA
HETATM    4  O4  UNL     1       4.630   2.826   1.583  1.00  0.00    -0.215 OA
ATOM      5  H4  UNL     1       5.130   3.598   1.820  1.00  0.00     0.261 HD
ENDROOT
BRANCH   1   6
HETATM    6  C8  UNL     1       2.598   0.738  -0.433  1.00  0.00     0.154 C 
BRANCH   6   7
HETATM    7  C7  UNL     1       1.882  -0.479  -0.823  1.00  0.00     0.146 C 
HETATM    8  O2  UNL     1       1.343  -0.249  -2.113  1.00  0.00    -0.382 OA
HETATM    9  C6  UNL     1       0.212   0.522  -1.904  1.00  0.00     0.201 C 
HETATM   10  C5  UNL     1      -0.510  -0.219  -0.766  1.00  0.00     0.160 C 
HETATM   11  C10 UNL     1       0.661  -0.868  -0.063  1.00  0.00     0.122 C 
BRANCH  10  12
HETATM   12  O1  UNL     1      -1.080   0.662   0.121  1.00  0.00    -0.373 OA
BRANCH  12  13
HETATM   13  C2  UNL     1      -2.419   0.649   0.279  1.00  0.00     0.050 C 
HETATM   14  C1  UNL     1      -3.075  -0.620   0.689  1.00  0.00     0.045 C 
HETATM   15  C3  UNL     1      -2.715   1.650   1.429  1.00  0.00     0.045 C 
HETATM   16  C4  UNL     1      -3.104   1.201  -0.943  1.00  0.00     0.045 C 
ENDBRANCH  12  13
ENDBRANCH  10  12
BRANCH  11  17
HETATM   17  C11 UNL     1       0.581  -2.350  -0.096  1.00  0.00     0.144 C 
HETATM   18  N2  UNL     1      -0.352  -3.026  -0.670  1.00  0.00    -0.251 N 
ATOM     19  H2  UNL     1      -1.104  -2.528  -1.146  1.00  0.00     0.196 HD
BRANCH  17  20
HETATM   20  O5  UNL     1       1.580  -3.075   0.536  1.00  0.00    -0.348 OA
ATOM     21  H5  UNL     1       1.529  -4.023   0.515  1.00  0.00     0.219 HD
ENDBRANCH  17  20
BRANCH  18  22
HETATM   22  O6  UNL     1      -0.363  -4.398  -0.660  1.00  0.00    -0.288 OA
ATOM     23  H6  UNL     1      -1.052  -4.897  -1.084  1.00  0.00     0.244 HD
ENDBRANCH  18  22
ENDBRANCH  11  17
ENDBRANCH   6   7
ENDBRANCH   1   6
TORSDOF 7
