REMARK  13 active torsions:
REMARK  status: ('A' for Active; 'I' for Inactive)
REMARK    1  A    between atoms: O1_2  and  C2_3 
REMARK    2  A    between atoms: C3_4  and  O2_5 
REMARK    3  A    between atoms: C7_10  and  C8_11 
REMARK    4  A    between atoms: C8_11  and  O4_13 
REMARK    5  A    between atoms: O4_13  and  C9_14 
REMARK    6  A    between atoms: C9_14  and  C10_15 
REMARK    7  A    between atoms: C10_15  and  N1_16 
REMARK    8  A    between atoms: C12_18  and  C13_19 
REMARK    9  A    between atoms: C13_19  and  N2_21 
REMARK   10  A    between atoms: N2_21  and  N3_22 
REMARK       I    between atoms: N3_22  and  C15_24 
REMARK   11  A    between atoms: C15_24  and  C16_26 
REMARK   12  A    between atoms: C17_27  and  O6_28 
REMARK   13  A    between atoms: N6_40  and  O10_41 
ROOT
HETATM    1  N1  UNL     1      -0.679   0.362  -0.803  1.00  0.00    -0.305 N 
HETATM    2  C11 UNL     1       0.248   0.759   0.061  1.00  0.00     0.116 A 
HETATM    3  C12 UNL     1       1.620   0.449  -0.049  1.00  0.00     0.088 A 
HETATM    4  C20 UNL     1       1.995  -0.306  -1.127  1.00  0.00     0.290 A 
HETATM    5  O9  UNL     1       3.182  -0.642  -1.326  1.00  0.00    -0.265 OA
HETATM    6  N6  UNL     1       1.017  -0.693  -1.998  1.00  0.00    -0.133 N 
HETATM    7  C21 UNL     1      -0.272  -0.386  -1.865  1.00  0.00     0.355 A 
HETATM    8  O11 UNL     1      -1.110  -0.797  -2.733  1.00  0.00    -0.244 OA
ENDROOT
BRANCH   3   9
HETATM    9  C13 UNL     1       2.517   0.825   1.028  1.00  0.00     0.122 C 
HETATM   10  C14 UNL     1       1.931   1.815   2.039  1.00  0.00     0.088 C 
BRANCH   9  11
HETATM   11  N2  UNL     1       3.647   0.453   1.234  1.00  0.00    -0.327 NA
BRANCH  11  12
HETATM   12  N3  UNL     1       4.783   0.077   1.439  1.00  0.00    -0.198 N 
HETATM   13  C15 UNL     1       6.048  -0.010   0.796  1.00  0.00     0.290 C 
HETATM   14  O5  UNL     1       6.038   0.546  -0.374  1.00  0.00    -0.265 OA
ATOM     15  H3  UNL     1       4.853  -0.301   2.384  1.00  0.00     0.205 HD
BRANCH  13  16
HETATM   16  C16 UNL     1       7.267  -0.593   1.229  1.00  0.00     0.153 A 
HETATM   17  C17 UNL     1       8.411  -0.518   0.401  1.00  0.00     0.165 A 
HETATM   18  N4  UNL     1       9.571  -1.081   0.685  1.00  0.00    -0.288 N 
HETATM   19  C18 UNL     1       9.719  -1.775   1.818  1.00  0.00     0.329 A 
ATOM     20  H4  UNL     1      10.355  -0.986   0.039  1.00  0.00     0.172 HD
HETATM   21  O7  UNL     1      10.808  -2.313   2.101  1.00  0.00    -0.247 OA
HETATM   22  N5  UNL     1       8.688  -1.879   2.632  1.00  0.00    -0.274 N 
HETATM   23  C19 UNL     1       7.463  -1.313   2.380  1.00  0.00     0.269 A 
ATOM     24  H5  UNL     1       8.807  -2.408   3.496  1.00  0.00     0.173 HD
HETATM   25  O8  UNL     1       6.566  -1.480   3.220  1.00  0.00    -0.267 OA
BRANCH  17  26
HETATM   26  O6  UNL     1       8.307   0.201  -0.798  1.00  0.00    -0.345 OA
ATOM     27  H6  UNL     1       9.075   0.251  -1.354  1.00  0.00     0.219 HD
ENDBRANCH  17  26
ENDBRANCH  13  16
ENDBRANCH  11  12
ENDBRANCH   9  11
ENDBRANCH   3   9
BRANCH   1  28
HETATM   28  C10 UNL     1      -2.077   0.587  -0.564  1.00  0.00     0.160 C 
BRANCH  28  29
HETATM   29  C9  UNL     1      -2.720   1.772  -1.214  1.00  0.00     0.199 C 
BRANCH  29  30
HETATM   30  O4  UNL     1      -4.098   1.725  -0.764  1.00  0.00    -0.316 OA
BRANCH  30  31
HETATM   31  C8  UNL     1      -4.955   0.707  -1.116  1.00  0.00     0.296 C 
HETATM   32  O3  UNL     1      -4.530  -0.185  -1.892  1.00  0.00    -0.259 OA
BRANCH  31  33
HETATM   33  C7  UNL     1      -6.334   0.608  -0.621  1.00  0.00     0.075 A 
HETATM   34  C2  UNL     1      -7.093  -0.465  -0.967  1.00  0.00     0.117 A 
HETATM   35  C3  UNL     1      -8.411  -0.469  -0.457  1.00  0.00     0.100 A 
HETATM   36  C4  UNL     1      -8.877   0.544   0.328  1.00  0.00     0.039 A 
HETATM   37  C5  UNL     1      -8.069   1.628   0.664  1.00  0.00     0.004 A 
HETATM   38  C6  UNL     1      -6.799   1.654   0.184  1.00  0.00     0.021 A 
BRANCH  34  39
HETATM   39  O1  UNL     1      -6.689  -1.523  -1.754  1.00  0.00    -0.352 OA
HETATM   40  C1  UNL     1      -6.156  -2.730  -1.294  1.00  0.00     0.210 C 
ENDBRANCH  34  39
BRANCH  35  41
HETATM   41  O2  UNL     1      -9.225  -1.534  -0.777  1.00  0.00    -0.358 OA
ATOM     42  H2  UNL     1     -10.111  -1.537  -0.434  1.00  0.00     0.217 HD
ENDBRANCH  35  41
ENDBRANCH  31  33
ENDBRANCH  30  31
ENDBRANCH  29  30
ENDBRANCH  28  29
ENDBRANCH   1  28
BRANCH   6  43
HETATM   43  O10 UNL     1       1.422  -1.440  -3.098  1.00  0.00    -0.276 OA
ATOM     44  H10 UNL     1       0.742  -1.709  -3.704  1.00  0.00     0.245 HD
ENDBRANCH   6  43
TORSDOF 13
