REMARK  12 active torsions:
REMARK  status: ('A' for Active; 'I' for Inactive)
REMARK    1  A    between atoms: N1_2  and  C2_3 
REMARK    2  A    between atoms: N1_2  and  N13_43 
REMARK    3  A    between atoms: C3_6  and  N3_7 
REMARK    4  A    between atoms: N5_13  and  C5_15 
REMARK    5  A    between atoms: C5_15  and  C6_16 
REMARK    6  A    between atoms: C6_16  and  N6_17 
REMARK    7  A    between atoms: N6_17  and  C7_19 
REMARK    8  A    between atoms: C9_21  and  N7_22 
REMARK    9  A    between atoms: N7_22  and  C10_24 
REMARK   10  A    between atoms: C10_24  and  N8_25 
REMARK   11  A    between atoms: C10_24  and  C11_29 
REMARK   12  A    between atoms: C16_50  and  O3_51 
ROOT
HETATM    1  C2  UNL     1      -4.463   0.394   0.629  1.00  0.00     0.729 A 
HETATM    2  N2  UNL     1      -4.330   1.637   1.202  1.00  0.00    -0.020 N 
ATOM      3  H2  UNL     1      -5.050   2.336   1.020  1.00  0.00     0.203 HD
HETATM    4  C3  UNL     1      -3.305   1.969   1.983  1.00  0.00     0.705 A 
HETATM    5  N4  UNL     1      -2.372   1.016   2.201  1.00  0.00    -0.022 N 
ATOM      6  H4  UNL     1      -1.577   1.249   2.797  1.00  0.00     0.203 HD
HETATM    7  C4  UNL     1      -2.430  -0.213   1.682  1.00  0.00     0.707 A 
HETATM    8  N5  UNL     1      -1.559  -1.145   1.869  1.00  0.00    -0.224 N 
ATOM      9  H5  UNL     1      -1.702  -2.050   1.421  1.00  0.00     0.177 HD
HETATM   10  N12 UNL     1      -3.516  -0.504   0.878  1.00  0.00    -0.020 N 
ATOM     11  H12 UNL     1      -3.592  -1.433   0.465  1.00  0.00     0.203 HD
ENDROOT
BRANCH   8  12
HETATM   12  C5  UNL     1      -0.405  -0.954   2.678  1.00  0.00     0.157 C 
BRANCH  12  13
HETATM   13  C6  UNL     1       0.846  -0.677   1.860  1.00  0.00     0.141 C 
BRANCH  13  14
HETATM   14  N6  UNL     1       0.738   0.495   1.043  1.00  0.00    -0.375 N 
ATOM     15  H6  UNL     1      -0.152   0.983   0.940  1.00  0.00     0.161 HD
BRANCH  14  16
HETATM   16  C7  UNL     1       1.813   0.920   0.434  1.00  0.00     0.102 A 
HETATM   17  C8  UNL     1       3.003   0.247   0.586  1.00  0.00     0.077 A 
HETATM   18  C9  UNL     1       4.180   0.662  -0.044  1.00  0.00     0.034 A 
HETATM   19  C13 UNL     1       4.065   1.786  -0.823  1.00  0.00     0.046 A 
HETATM   20  C14 UNL     1       2.870   2.464  -0.977  1.00  0.00     0.092 A 
HETATM   21  N11 UNL     1       1.778   2.016  -0.347  1.00  0.00    -0.352 N 
ATOM     22  H11 UNL     1       0.897   2.517  -0.461  1.00  0.00     0.166 HD
BRANCH  18  23
HETATM   23  N7  UNL     1       5.390  -0.020   0.117  1.00  0.00    -0.357 N 
ATOM     24  H7  UNL     1       5.434  -0.811   0.760  1.00  0.00     0.162 HD
BRANCH  23  25
HETATM   25  C10 UNL     1       6.570   0.365  -0.599  1.00  0.00     0.352 C 
BRANCH  25  26
HETATM   26  N8  UNL     1       6.382   0.211  -2.017  1.00  0.00    -0.051 N 
ATOM     27  H83 UNL     1       6.087  -0.735  -2.258  1.00  0.00     0.277 HD
ATOM     28  H82 UNL     1       5.560   0.717  -2.345  1.00  0.00     0.277 HD
ATOM     29  H81 UNL     1       7.222   0.485  -2.527  1.00  0.00     0.277 HD
ENDBRANCH  25  26
BRANCH  25  30
HETATM   30  C11 UNL     1       7.773  -0.399  -0.183  1.00  0.00     0.157 A 
HETATM   31  N9  UNL     1       8.131  -0.663   1.085  1.00  0.00    -0.240 N 
HETATM   32  O1  UNL     1       9.223  -1.342   1.068  1.00  0.00    -0.179 OA
ATOM     33  H9  UNL     1       7.622  -0.374   1.920  1.00  0.00     0.196 HD
HETATM   34  C12 UNL     1       9.610  -1.541  -0.169  1.00  0.00     0.388 A 
HETATM   35  O2  UNL     1      10.639  -2.169  -0.511  1.00  0.00    -0.236 OA
HETATM   36  N10 UNL     1       8.711  -0.955  -0.959  1.00  0.00    -0.286 N 
ATOM     37  H10 UNL     1       8.734  -0.934  -1.979  1.00  0.00     0.172 HD
ENDBRANCH  25  30
ENDBRANCH  23  25
ENDBRANCH  18  23
ENDBRANCH  14  16
ENDBRANCH  13  14
ENDBRANCH  12  13
ENDBRANCH   8  12
BRANCH   4  38
HETATM   38  N3  UNL     1      -3.199   3.153   2.515  1.00  0.00    -0.234 N 
ATOM     39  H32 UNL     1      -3.903   3.872   2.350  1.00  0.00     0.174 HD
ATOM     40  H31 UNL     1      -2.413   3.407   3.114  1.00  0.00     0.174 HD
ENDBRANCH   4  38
BRANCH   1  41
HETATM   41  N1  UNL     1      -5.609   0.199  -0.174  1.00  0.00    -0.102 N 
HETATM   42  C1  UNL     1      -6.546   1.336  -0.312  1.00  0.00     0.200 C 
BRANCH  41  43
HETATM   43  N13 UNL     1      -5.942  -0.965  -0.851  1.00  0.00    -0.139 N 
HETATM   44  N14 UNL     1      -5.308  -2.102  -0.909  1.00  0.00    -0.217 N 
HETATM   45  N15 UNL     1      -5.913  -2.993  -1.649  1.00  0.00    -0.268 N 
ATOM     46  H14 UNL     1      -4.428  -2.279  -0.425  1.00  0.00     0.210 HD
HETATM   47  C15 UNL     1      -7.015  -2.438  -2.121  1.00  0.00     0.186 A 
ATOM     48  H15 UNL     1      -5.593  -3.944  -1.829  1.00  0.00     0.190 HD
HETATM   49  N16 UNL     1      -7.999  -3.009  -2.972  1.00  0.00    -0.076 NA
HETATM   50  C16 UNL     1      -7.049  -1.138  -1.620  1.00  0.00     0.224 A 
BRANCH  50  51
HETATM   51  O3  UNL     1      -8.053  -0.243  -1.893  1.00  0.00    -0.341 OA
ATOM     52  H3  UNL     1      -8.827  -0.364  -2.431  1.00  0.00     0.219 HD
ENDBRANCH  50  51
ENDBRANCH  41  43
ENDBRANCH   1  41
TORSDOF 12
