REMARK  6 active torsions:
REMARK  status: ('A' for Active; 'I' for Inactive)
REMARK    1  A    between atoms: C2_2  and  N1_3 
REMARK    2  A    between atoms: C2_2  and  C3_7 
REMARK    3  A    between atoms: C3_7  and  N2_8 
REMARK    4  A    between atoms: C3_7  and  O1_12 
REMARK    5  A    between atoms: O1_12  and  C4_13 
REMARK    6  A    between atoms: C4_13  and  C5_14 
ROOT
HETATM    1  C3  UNL     1      -0.924  -0.556   0.582  1.00  0.00     0.348 C 
ENDROOT
BRANCH   1   2
HETATM    2  C2  UNL     1      -1.737   0.499  -0.171  1.00  0.00     0.235 C 
HETATM    3  C1  UNL     1      -3.075  -0.092  -0.516  1.00  0.00     0.044 C 
BRANCH   2   4
HETATM    4  N1  UNL     1      -1.045   0.864  -1.390  1.00  0.00    -0.071 N 
ATOM      5  H13 UNL     1      -0.966   0.081  -2.039  1.00  0.00     0.274 HD
ATOM      6  H12 UNL     1      -1.601   1.484  -1.979  1.00  0.00     0.274 HD
ATOM      7  H11 UNL     1      -0.137   1.265  -1.156  1.00  0.00     0.274 HD
ENDBRANCH   2   4
ENDBRANCH   1   2
BRANCH   1   8
HETATM    8  N2  UNL     1      -1.714  -0.917   1.744  1.00  0.00    -0.051 N 
ATOM      9  H23 UNL     1      -1.977  -0.118   2.321  1.00  0.00     0.277 HD
ATOM     10  H22 UNL     1      -2.660  -1.221   1.514  1.00  0.00     0.277 HD
ATOM     11  H21 UNL     1      -1.172  -1.620   2.246  1.00  0.00     0.277 HD
ENDBRANCH   1   8
BRANCH   1  12
HETATM   12  O1  UNL     1       0.326  -0.087   0.917  1.00  0.00    -0.357 OA
BRANCH  12  13
HETATM   13  C4  UNL     1       1.299  -0.819   0.293  1.00  0.00     0.175 C 
BRANCH  13  14
HETATM   14  C5  UNL     1       2.698  -0.367   0.607  1.00  0.00     0.009 A 
HETATM   15  C6  UNL     1       3.001   1.095   0.208  1.00  0.00     0.007 A 
HETATM   16  C7  UNL     1       3.001   0.647   1.615  1.00  0.00     0.007 A 
ENDBRANCH  13  14
ENDBRANCH  12  13
ENDBRANCH   1  12
TORSDOF 6
