REMARK  4 active torsions:
REMARK  status: ('A' for Active; 'I' for Inactive)
REMARK    1  A    between atoms: C2_2  and  N1_4 
REMARK    2  A    between atoms: N1_4  and  N2_6 
REMARK    3  A    between atoms: N2_6  and  C5_8 
REMARK    4  A    between atoms: C5_8  and  C6_9 
ROOT
HETATM    1  N2  UNL     1       0.089   0.738   0.293  1.00  0.00    -0.334 N 
HETATM    2  C4  UNL     1       0.173   2.146   0.179  1.00  0.00     0.170 C 
ENDROOT
BRANCH   1   3
HETATM    3  N1  UNL     1      -0.675   0.056  -0.592  1.00  0.00    -0.335 N 
ATOM      4  H1  UNL     1      -0.442   0.049  -1.585  1.00  0.00     0.180 HD
BRANCH   3   5
HETATM    5  C2  UNL     1      -1.803  -0.647  -0.111  1.00  0.00     0.091 C 
HETATM    6  C1  UNL     1      -2.834   0.232   0.583  1.00  0.00     0.033 C 
HETATM    7  C3  UNL     1      -2.518  -1.290  -1.292  1.00  0.00     0.033 C 
ENDBRANCH   3   5
ENDBRANCH   1   3
BRANCH   1   8
HETATM    8  C5  UNL     1       1.236   0.087   0.815  1.00  0.00     0.176 C 
BRANCH   8   9
HETATM    9  C6  UNL     1       2.441   0.128  -0.099  1.00  0.00     0.230 A 
HETATM   10  C7  UNL     1       3.650  -0.573   0.484  1.00  0.00     0.267 A 
HETATM   11  N3  UNL     1       2.966  -1.071  -0.688  1.00  0.00    -0.066 N 
ATOM     12  H32 UNL     1       2.550  -1.973  -0.921  1.00  0.00     0.277 HD
ATOM     13  H31 UNL     1       3.279  -1.305  -1.630  1.00  0.00     0.277 HD
ENDBRANCH   8   9
ENDBRANCH   1   8
TORSDOF 4
