REMARK  5 active torsions:
REMARK  status: ('A' for Active; 'I' for Inactive)
REMARK    1  A    between atoms: N1_2  and  C2_5 
REMARK    2  A    between atoms: C2_5  and  C3_6 
REMARK    3  A    between atoms: C3_6  and  N2_7 
REMARK    4  A    between atoms: N2_7  and  C4_9 
REMARK    5  A    between atoms: C12_20  and  N4_21 
ROOT
HETATM    1  C4  UNL     1       0.282  -0.767   0.170  1.00  0.00     0.092 C 
HETATM    2  C5  UNL     1       0.096   0.463   1.012  1.00  0.00     0.034 C 
HETATM    3  C6  UNL     1      -1.408   0.735   1.052  1.00  0.00     0.050 C 
HETATM    4  C7  UNL     1      -1.766   2.116   0.526  1.00  0.00     0.239 C 
HETATM    5  N3  UNL     1      -2.870   2.096  -0.418  1.00  0.00    -0.074 N 
ATOM      6  H31 UNL     1      -3.125   3.044  -0.694  1.00  0.00     0.277 HD
ATOM      7  H32 UNL     1      -3.734   1.815   0.045  1.00  0.00     0.277 HD
HETATM    8  C8  UNL     1      -2.621   1.263  -1.599  1.00  0.00     0.240 C 
HETATM    9  C9  UNL     1      -1.347   0.570  -1.303  1.00  0.00     0.061 A 
HETATM   10  C10 UNL     1      -0.836  -0.667  -0.890  1.00  0.00     0.018 A 
HETATM   11  C11 UNL     1      -1.034  -1.952  -1.654  1.00  0.00     0.020 C 
HETATM   12  C12 UNL     1      -1.864  -0.169  -0.045  1.00  0.00     0.146 A 
ENDROOT
BRANCH   1  13
HETATM   13  N2  UNL     1       1.504  -0.920  -0.512  1.00  0.00    -0.395 N 
ATOM     14  H2  UNL     1       1.510  -0.902  -1.532  1.00  0.00     0.159 HD
BRANCH  13  15
HETATM   15  C3  UNL     1       2.707  -1.096   0.173  1.00  0.00     0.083 C 
BRANCH  15  16
HETATM   16  C2  UNL     1       3.292   0.067   0.915  1.00  0.00     0.275 C 
BRANCH  16  17
HETATM   17  N1  UNL     1       3.573   1.186  -0.007  1.00  0.00    -0.075 N 
HETATM   18  C1  UNL     1       4.666   0.757  -0.893  1.00  0.00     0.267 C 
ATOM     19  H12 UNL     1       3.772   2.062   0.477  1.00  0.00     0.277 HD
ATOM     20  H11 UNL     1       2.747   1.501  -0.516  1.00  0.00     0.277 HD
ENDBRANCH  16  17
ENDBRANCH  15  16
ENDBRANCH  13  15
ENDBRANCH   1  13
BRANCH  12  21
HETATM   21  N4  UNL     1      -3.102  -0.820   0.011  1.00  0.00    -0.068 N 
HETATM   22  C13 UNL     1      -3.082  -1.728   1.143  1.00  0.00     0.267 C 
ATOM     23  H42 UNL     1      -3.888  -0.171   0.040  1.00  0.00     0.277 HD
ATOM     24  H41 UNL     1      -3.342  -1.286  -0.864  1.00  0.00     0.277 HD
ENDBRANCH  12  21
TORSDOF 5
