REMARK  5 active torsions:
REMARK  status: ('A' for Active; 'I' for Inactive)
REMARK    1  A    between atoms: C2_3  and  N2_4 
REMARK    2  A    between atoms: N2_4  and  C3_7 
REMARK    3  A    between atoms: C3_7  and  C4_8 
REMARK    4  A    between atoms: C5_9  and  N3_10 
REMARK    5  A    between atoms: N4_14  and  N5_15 
ROOT
HETATM    1  N1  UNL     1       3.910   0.784   1.226  1.00  0.00    -0.196 NA
HETATM    2  C1  UNL     1       3.448   0.021   0.477  1.00  0.00     0.086 C 
HETATM    3  C2  UNL     1       2.850  -0.960  -0.444  1.00  0.00     0.355 C 
ENDROOT
BRANCH   3   4
HETATM    4  N2  UNL     1       1.461  -1.117  -0.053  1.00  0.00    -0.061 N 
ATOM      5  H22 UNL     1       1.034  -1.952  -0.454  1.00  0.00     0.278 HD
ATOM      6  H21 UNL     1       1.358  -1.365   0.931  1.00  0.00     0.278 HD
BRANCH   4   7
HETATM    7  C3  UNL     1       0.746   0.090  -0.397  1.00  0.00     0.264 C 
BRANCH   7   8
HETATM    8  C4  UNL     1      -0.563   0.206   0.307  1.00  0.00     0.183 A 
HETATM    9  C5  UNL     1      -1.678  -0.708   0.286  1.00  0.00     0.326 A 
HETATM   10  N4  UNL     1      -1.753   0.381  -0.643  1.00  0.00    -0.271 N 
BRANCH   9  11
HETATM   11  N3  UNL     1      -2.498  -0.781   1.452  1.00  0.00    -0.055 N 
ATOM     12  H33 UNL     1      -1.913  -0.983   2.262  1.00  0.00     0.276 HD
ATOM     13  H32 UNL     1      -2.834   0.153   1.686  1.00  0.00     0.276 HD
ATOM     14  H31 UNL     1      -3.287  -1.428   1.437  1.00  0.00     0.276 HD
ENDBRANCH   9  11
BRANCH  10  15
HETATM   15  N5  UNL     1      -2.325   1.127  -1.657  1.00  0.00    -0.249 N 
HETATM   16  N6  UNL     1      -2.801   2.249  -1.618  1.00  0.00    -0.331 N 
ATOM     17  H62 UNL     1      -2.764   2.686  -0.697  1.00  0.00     0.178 HD
ATOM     18  H61 UNL     1      -3.223   2.799  -2.366  1.00  0.00     0.178 HD
ATOM     19  H5  UNL     1      -2.353   0.673  -2.570  1.00  0.00     0.207 HD
ENDBRANCH  10  15
ENDBRANCH   7   8
ENDBRANCH   4   7
ENDBRANCH   3   4
TORSDOF 5
