REMARK  4 active torsions:
REMARK  status: ('A' for Active; 'I' for Inactive)
REMARK    1  A    between atoms: N1_2  and  C2_5 
REMARK    2  A    between atoms: C2_5  and  C3_6 
REMARK    3  A    between atoms: C5_12  and  N4_13 
REMARK    4  A    between atoms: N4_13  and  N5_14 
ROOT
HETATM    1  C3  UNL     1      -0.277   1.000  -0.267  1.00  0.00     0.090 C 
HETATM    2  N2  UNL     1       0.491  -0.108  -0.188  1.00  0.00    -0.327 N 
HETATM    3  C4  UNL     1       0.416  -1.362  -0.743  1.00  0.00     0.363 C 
HETATM    4  N3  UNL     1       1.647  -1.705   0.042  1.00  0.00    -0.022 N 
ATOM      5  H31 UNL     1       2.405  -2.247  -0.374  1.00  0.00     0.283 HD
ATOM      6  H32 UNL     1       1.615  -2.381   0.805  1.00  0.00     0.283 HD
HETATM    7  C5  UNL     1       1.799  -0.243   0.311  1.00  0.00     0.403 C 
ENDROOT
BRANCH   1   8
HETATM    8  C2  UNL     1      -1.648   1.016   0.361  1.00  0.00     0.276 C 
BRANCH   8   9
HETATM    9  N1  UNL     1      -2.542   0.020  -0.176  1.00  0.00    -0.075 N 
HETATM   10  C1  UNL     1      -3.905   0.177   0.365  1.00  0.00     0.267 C 
ATOM     11  H12 UNL     1      -2.186  -0.924  -0.025  1.00  0.00     0.277 HD
ATOM     12  H11 UNL     1      -2.541   0.027  -1.196  1.00  0.00     0.277 HD
ENDBRANCH   8   9
ENDBRANCH   1   8
BRANCH   7  13
HETATM   13  N4  UNL     1       2.786   0.331  -0.612  1.00  0.00    -0.093 NA
BRANCH  13  14
HETATM   14  N5  UNL     1       4.091   0.224  -0.115  1.00  0.00    -0.345 N 
ATOM     15  H52 UNL     1       4.313  -0.205   0.784  1.00  0.00     0.172 HD
ATOM     16  H51 UNL     1       4.777   0.623  -0.756  1.00  0.00     0.172 HD
ENDBRANCH  13  14
ENDBRANCH   7  13
TORSDOF 4
