REMARK  3 active torsions:
REMARK  status: ('A' for Active; 'I' for Inactive)
REMARK    1  A    between atoms: N1_1  and  C1_4 
REMARK    2  A    between atoms: C2_7  and  C3_8 
REMARK    3  A    between atoms: C8_16  and  C9_17 
ROOT
HETATM    1  C1  UNL     1      -1.209   3.294  -0.776  1.00  0.00     0.143 A 
HETATM    2  N2  UNL     1      -1.748   2.081  -0.724  1.00  0.00    -0.335 N 
ATOM      3  H2  UNL     1      -2.734   1.946  -0.947  1.00  0.00     0.168 HD
HETATM    4  C2  UNL     1      -0.999   1.057  -0.383  1.00  0.00     0.065 A 
HETATM    5  C8  UNL     1       0.314   1.306  -0.098  1.00  0.00     0.046 A 
HETATM    6  S1  UNL     1       0.411   3.019  -0.335  1.00  0.00    -0.051 SA
ENDROOT
BRANCH   4   7
HETATM    7  C3  UNL     1      -1.532  -0.343  -0.297  1.00  0.00     0.033 A 
HETATM    8  C4  UNL     1      -1.844  -0.858   0.926  1.00  0.00     0.034 A 
HETATM    9  C5  UNL     1      -2.342  -2.131   1.086  1.00  0.00     0.088 A 
HETATM   10  N3  UNL     1      -2.513  -2.864  -0.026  1.00  0.00    -0.372 N 
HETATM   11  C6  UNL     1      -2.224  -2.411  -1.255  1.00  0.00     0.130 A 
ATOM     12  H3  UNL     1      -2.880  -3.811   0.068  1.00  0.00     0.164 HD
HETATM   13  C7  UNL     1      -1.718  -1.115  -1.411  1.00  0.00     0.144 A 
HETATM   14  F1  UNL     1      -1.414  -0.623  -2.655  1.00  0.00    -0.204 F 
ENDBRANCH   4   7
BRANCH   5  15
HETATM   15  C9  UNL     1       1.410   0.399   0.305  1.00  0.00    -0.017 A 
HETATM   16  C10 UNL     1       2.380   0.139  -0.641  1.00  0.00     0.013 A 
HETATM   17  C11 UNL     1       3.432  -0.684  -0.320  1.00  0.00     0.001 A 
HETATM   18  C12 UNL     1       3.566  -1.274   0.926  1.00  0.00     0.000 A 
HETATM   19  C13 UNL     1       2.590  -1.009   1.871  1.00  0.00     0.001 A 
HETATM   20  C14 UNL     1       1.520  -0.170   1.541  1.00  0.00     0.013 A 
ENDBRANCH   5  15
BRANCH   1  21
HETATM   21  N1  UNL     1      -1.814   4.422  -1.098  1.00  0.00    -0.380 N 
ATOM     22  H12 UNL     1      -2.785   4.587  -1.362  1.00  0.00     0.158 HD
ATOM     23  H11 UNL     1      -1.400   5.353  -1.138  1.00  0.00     0.158 HD
ENDBRANCH   1  21
TORSDOF 3
