REMARK  12 active torsions:
REMARK  status: ('A' for Active; 'I' for Inactive)
REMARK    1  A    between atoms: C2_7  and  N3_8 
REMARK    2  A    between atoms: N3_8  and  N4_10 
REMARK    3  A    between atoms: N4_10  and  N5_12 
REMARK    4  A    between atoms: N8_22  and  C6_23 
REMARK    5  A    between atoms: C6_23  and  N9_24 
REMARK    6  A    between atoms: N9_24  and  C7_26 
REMARK    7  A    between atoms: C7_26  and  C8_27 
REMARK    8  A    between atoms: C8_27  and  C9_28 
REMARK    9  A    between atoms: C9_28  and  N10_29 
REMARK   10  A    between atoms: C9_28  and  N11_33 
REMARK   11  A    between atoms: N11_33  and  C10_35 
REMARK   12  A    between atoms: C10_35  and  N12_36 
ROOT
HETATM    1  N1  UNL     1       4.058  -3.843  -0.402  1.00  0.00    -0.383 N 
ATOM      2  H11 UNL     1       3.682  -4.238  -1.264  1.00  0.00     0.157 HD
ATOM      3  H12 UNL     1       4.739  -4.377   0.138  1.00  0.00     0.157 HD
HETATM    4  C1  UNL     1       3.693  -2.680   0.039  1.00  0.00     0.145 A 
HETATM    5  N2  UNL     1       4.185  -2.163   1.166  1.00  0.00    -0.173 N 
ATOM      6  H2  UNL     1       4.864  -2.686   1.719  1.00  0.00     0.186 HD
HETATM    7  C2  UNL     1       3.777  -0.944   1.567  1.00  0.00     0.701 A 
HETATM    8  N6  UNL     1       2.890  -0.240   0.871  1.00  0.00    -0.172 N 
ATOM      9  H6  UNL     1       2.608   0.678   1.214  1.00  0.00     0.186 HD
HETATM   10  C3  UNL     1       2.349  -0.707  -0.282  1.00  0.00     0.160 A 
HETATM   11  C4  UNL     1       2.765  -1.953  -0.697  1.00  0.00     0.123 A 
HETATM   12  N7  UNL     1       2.126  -2.220  -1.830  1.00  0.00    -0.346 N 
ATOM     13  H7  UNL     1       2.230  -3.077  -2.373  1.00  0.00     0.167 HD
HETATM   14  C5  UNL     1       1.340  -1.217  -2.147  1.00  0.00     0.191 A 
HETATM   15  N8  UNL     1       1.471  -0.250  -1.172  1.00  0.00    -0.288 N 
ENDROOT
BRANCH  15  16
HETATM   16  C6  UNL     1       0.811   1.004  -1.209  1.00  0.00     0.186 C 
BRANCH  16  17
HETATM   17  N9  UNL     1      -0.405   1.172  -0.488  1.00  0.00    -0.386 N 
ATOM     18  H9  UNL     1      -0.448   1.268   0.527  1.00  0.00     0.160 HD
BRANCH  17  19
HETATM   19  C7  UNL     1      -1.572   1.192  -1.338  1.00  0.00     0.124 C 
BRANCH  19  20
HETATM   20  C8  UNL     1      -2.777   1.884  -0.814  1.00  0.00     0.073 C 
BRANCH  20  21
HETATM   21  C9  UNL     1      -3.304   1.515   0.520  1.00  0.00     0.280 C 
BRANCH  21  22
HETATM   22  N10 UNL     1      -4.517   2.309   0.783  1.00  0.00    -0.059 N 
ATOM     23 3H10 UNL     1      -4.355   3.312   0.691  1.00  0.00     0.276 HD
ATOM     24 2H10 UNL     1      -5.215   2.211   0.046  1.00  0.00     0.276 HD
ATOM     25 1H10 UNL     1      -4.880   2.055   1.702  1.00  0.00     0.276 HD
ENDBRANCH  21  22
BRANCH  21  26
HETATM   26  N11 UNL     1      -3.510   0.180   0.831  1.00  0.00    -0.374 N 
ATOM     27  H11 UNL     1      -2.964  -0.236   1.586  1.00  0.00     0.156 HD
BRANCH  26  28
HETATM   28  C10 UNL     1      -4.438  -0.624   0.152  1.00  0.00     0.348 C 
BRANCH  28  29
HETATM   29  N12 UNL     1      -4.369  -1.961   0.780  1.00  0.00    -0.064 N 
ATOM     30 3H12 UNL     1      -3.428  -2.353   0.794  1.00  0.00     0.276 HD
ATOM     31 2H12 UNL     1      -4.513  -1.942   1.790  1.00  0.00     0.276 HD
ATOM     32 1H12 UNL     1      -5.044  -2.545   0.286  1.00  0.00     0.276 HD
ENDBRANCH  28  29
ENDBRANCH  26  28
ENDBRANCH  21  26
ENDBRANCH  20  21
ENDBRANCH  19  20
ENDBRANCH  17  19
ENDBRANCH  16  17
ENDBRANCH  15  16
BRANCH   7  33
HETATM   33  N3  UNL     1       4.393  -0.478   2.802  1.00  0.00    -0.118 N 
ATOM     34  H3  UNL     1       4.177  -0.898   3.706  1.00  0.00     0.207 HD
BRANCH  33  35
HETATM   35  N4  UNL     1       5.231   0.501   2.682  1.00  0.00    -0.235 N 
ATOM     36  H4  UNL     1       5.690   0.851   3.523  1.00  0.00     0.208 HD
BRANCH  35  37
HETATM   37  N5  UNL     1       5.534   1.093   1.478  1.00  0.00    -0.330 N 
ATOM     38  H52 UNL     1       5.066   0.730   0.648  1.00  0.00     0.178 HD
ATOM     39  H51 UNL     1       6.194   1.865   1.383  1.00  0.00     0.178 HD
ENDBRANCH  35  37
ENDBRANCH  33  35
ENDBRANCH   7  33
TORSDOF 12
