REMARK  7 active torsions:
REMARK  status: ('A' for Active; 'I' for Inactive)
REMARK    1  A    between atoms: C3_3  and  N1_4 
REMARK    2  A    between atoms: C3_3  and  C10_24 
REMARK       I    between atoms: N1_4  and  C4_6 
REMARK    3  A    between atoms: C4_6  and  C5_8 
REMARK    4  A    between atoms: C5_8  and  N2_9 
REMARK    5  A    between atoms: C5_8  and  C6_13 
REMARK    6  A    between atoms: C6_13  and  C7_14 
REMARK    7  A    between atoms: C9_18  and  N4_19 
ROOT
HETATM    1  C1  UNL     1      -4.554   1.568  -1.986  1.00  0.00     0.015 C 
HETATM    2  C2  UNL     1      -3.964   0.900  -1.163  1.00  0.00    -0.083 C 
HETATM    3  C3  UNL     1      -3.265   0.098  -0.176  1.00  0.00     0.253 C 
ENDROOT
BRANCH   3   4
HETATM    4  N1  UNL     1      -1.860   0.357  -0.286  1.00  0.00    -0.337 N 
HETATM    5  C4  UNL     1      -0.930  -0.676  -0.586  1.00  0.00     0.250 C 
HETATM    6  O1  UNL     1      -1.317  -1.858  -0.765  1.00  0.00    -0.271 OA
ATOM      7  H1  UNL     1      -1.518   1.308  -0.145  1.00  0.00     0.164 HD
BRANCH   5   8
HETATM    8  C5  UNL     1       0.504  -0.394  -0.696  1.00  0.00     0.280 C 
BRANCH   8   9
HETATM    9  N2  UNL     1       0.818   1.002  -0.469  1.00  0.00    -0.066 N 
ATOM     10  H23 UNL     1       0.278   1.604  -1.090  1.00  0.00     0.275 HD
ATOM     11  H22 UNL     1       0.451   1.319   0.428  1.00  0.00     0.275 HD
ATOM     12  H21 UNL     1       1.816   1.198  -0.546  1.00  0.00     0.275 HD
ENDBRANCH   8   9
BRANCH   8  13
HETATM   13  C6  UNL     1       1.326  -1.210   0.285  1.00  0.00     0.101 C 
BRANCH  13  14
HETATM   14  C7  UNL     1       2.755  -0.855   0.097  1.00  0.00     0.045 A 
HETATM   15  C8  UNL     1       3.674  -1.455  -0.764  1.00  0.00     0.131 A 
HETATM   16  N3  UNL     1       4.856  -0.831  -0.624  1.00  0.00    -0.200 N 
HETATM   17  C9  UNL     1       4.701   0.140   0.296  1.00  0.00     0.675 A 
ATOM     18  H3  UNL     1       5.716  -1.053  -1.125  1.00  0.00     0.183 HD
HETATM   19  N5  UNL     1       3.437   0.117   0.723  1.00  0.00    -0.194 N 
ATOM     20  H5  UNL     1       3.046   0.747   1.424  1.00  0.00     0.184 HD
BRANCH  17  21
HETATM   21  N4  UNL     1       5.642   0.958   0.695  1.00  0.00    -0.234 N 
ATOM     22  H42 UNL     1       6.608   0.976   0.369  1.00  0.00     0.174 HD
ATOM     23  H41 UNL     1       5.525   1.694   1.392  1.00  0.00     0.174 HD
ENDBRANCH  17  21
ENDBRANCH  13  14
ENDBRANCH   8  13
ENDBRANCH   5   8
ENDBRANCH   3   4
BRANCH   3  24
HETATM   24  C10 UNL     1      -3.771   0.370   1.210  1.00  0.00     0.265 C 
HETATM   25  N6  UNL     1      -5.137   0.179   1.544  1.00  0.00    -0.059 NA
HETATM   26  O2  UNL     1      -3.009   0.776   2.126  1.00  0.00    -0.273 OA
ENDBRANCH   3  24
TORSDOF 7
