REMARK  2 active torsions:
REMARK  status: ('A' for Active; 'I' for Inactive)
REMARK       I    between atoms: N5_10  and  C4_12 
REMARK       I    between atoms: C4_12  and  N6_13 
REMARK       I    between atoms: C4_12  and  N7_17 
REMARK    1  A    between atoms: C5_21  and  C6_22 
REMARK    2  A    between atoms: C7_25  and  O2_26 
ROOT
HETATM    1  C1  UNL     1       4.340  -0.105  -0.413  1.00  0.00     0.175 C 
HETATM    2  N1  UNL     1       3.162   0.343  -1.099  1.00  0.00    -0.274 N 
HETATM    3  N2  UNL     1       3.060   0.945  -2.281  1.00  0.00    -0.018 NA
HETATM    4  N3  UNL     1       1.800   1.206  -2.580  1.00  0.00    -0.267 N 
ATOM      5  H3  UNL     1       1.465   1.661  -3.429  1.00  0.00     0.186 HD
HETATM    6  C2  UNL     1       1.029   0.758  -1.550  1.00  0.00     0.151 A 
HETATM    7  N4  UNL     1      -0.293   0.756  -1.313  1.00  0.00    -0.325 N 
ATOM      8  H4  UNL     1      -0.916   1.162  -2.012  1.00  0.00     0.169 HD
HETATM    9  C3  UNL     1      -0.819   0.251  -0.214  1.00  0.00     0.124 A 
HETATM   10  N5  UNL     1      -2.063   0.222   0.063  1.00  0.00    -0.326 N 
ATOM     11  H5  UNL     1      -2.322  -0.202   0.954  1.00  0.00     0.164 HD
HETATM   12  C4  UNL     1      -3.128   0.717  -0.737  1.00  0.00     0.481 C 
HETATM   13  N6  UNL     1      -4.158   1.233   0.178  1.00  0.00    -0.033 N 
ATOM     14  H61 UNL     1      -4.922   1.588  -0.396  1.00  0.00     0.278 HD
ATOM     15  H62 UNL     1      -3.798   1.925   0.835  1.00  0.00     0.278 HD
ATOM     16  H63 UNL     1      -4.462   0.544   0.866  1.00  0.00     0.278 HD
HETATM   17  N7  UNL     1      -3.756  -0.440  -1.394  1.00  0.00    -0.033 N 
ATOM     18  H71 UNL     1      -4.520  -0.085  -1.968  1.00  0.00     0.278 HD
ATOM     19  H72 UNL     1      -4.053  -1.160  -0.735  1.00  0.00     0.278 HD
ATOM     20  H73 UNL     1      -3.093  -1.008  -1.920  1.00  0.00     0.278 HD
HETATM   21  C5  UNL     1       0.052  -0.309   0.749  1.00  0.00     0.108 A 
HETATM   22  C7  UNL     1       1.415  -0.341   0.573  1.00  0.00     0.116 A 
HETATM   23  C8  UNL     1       1.900   0.226  -0.642  1.00  0.00     0.128 A 
ENDROOT
BRANCH  21  24
HETATM   24  C6  UNL     1      -0.546  -0.858   1.949  1.00  0.00     0.271 C 
HETATM   25  N8  UNL     1       0.185  -1.439   2.980  1.00  0.00    -0.057 NA
HETATM   26  O1  UNL     1      -1.818  -0.815   2.088  1.00  0.00    -0.271 OA
ENDBRANCH  21  24
BRANCH  22  27
HETATM   27  O2  UNL     1       2.351  -0.846   1.415  1.00  0.00    -0.357 OA
ATOM     28  H2  UNL     1       3.293  -0.868   1.293  1.00  0.00     0.217 HD
ENDBRANCH  22  27
TORSDOF 2
