REMARK  8 active torsions:
REMARK  status: ('A' for Active; 'I' for Inactive)
REMARK    1  A    between atoms: C2_2  and  N1_3 
REMARK    2  A    between atoms: C3_8  and  C4_9 
REMARK    3  A    between atoms: C4_9  and  O3_11 
REMARK    4  A    between atoms: O3_11  and  C5_12 
REMARK    5  A    between atoms: C5_12  and  C6_13 
REMARK    6  A    between atoms: C7_14  and  N2_15 
REMARK    7  A    between atoms: C8_18  and  N3_19 
REMARK    8  A    between atoms: C10_24  and  N4_25 
ROOT
HETATM    1  C1  UNL     1      -2.964  -1.780  -0.091  1.00  0.00     0.080 C 
HETATM    2  C2  UNL     1      -2.092  -0.556  -0.378  1.00  0.00     0.249 C 
HETATM    3  O1  UNL     1      -0.783  -0.963  -0.305  1.00  0.00    -0.335 OA
HETATM    4  C3  UNL     1       0.024   0.137  -0.582  1.00  0.00     0.254 C 
HETATM    5  C8  UNL     1      -0.044   1.027   0.667  1.00  0.00     0.224 C 
HETATM    6  C9  UNL     1      -1.421   1.607   0.710  1.00  0.00     0.073 C 
HETATM    7  C10 UNL     1      -2.421   0.471   0.655  1.00  0.00     0.247 C 
ENDROOT
BRANCH   4   8
HETATM    8  C4  UNL     1       1.393  -0.273  -0.896  1.00  0.00     0.291 C 
HETATM    9  O2  UNL     1       2.232   0.647  -1.168  1.00  0.00    -0.262 OA
BRANCH   8  10
HETATM   10  O3  UNL     1       1.807  -1.587  -0.910  1.00  0.00    -0.307 OA
BRANCH  10  11
HETATM   11  C5  UNL     1       3.151  -1.867  -1.227  1.00  0.00     0.274 C 
BRANCH  11  12
HETATM   12  C6  UNL     1       4.012  -1.204  -0.249  1.00  0.00    -0.057 C 
HETATM   13  C7  UNL     1       4.723  -0.639   0.555  1.00  0.00     0.005 C 
BRANCH  13  14
HETATM   14  N2  UNL     1       5.557   0.002   1.487  1.00  0.00    -0.359 N 
ATOM     15  H22 UNL     1       5.362  -0.826   0.924  1.00  0.00     0.166 HD
ATOM     16  H21 UNL     1       6.155   0.477   2.163  1.00  0.00     0.166 HD
ENDBRANCH  13  14
ENDBRANCH  11  12
ENDBRANCH  10  11
ENDBRANCH   8  10
ENDBRANCH   4   8
BRANCH   5  17
HETATM   17  N3  UNL     1       1.011   1.969   0.581  1.00  0.00    -0.072 N 
ATOM     18  H33 UNL     1       1.924   1.532   0.455  1.00  0.00     0.274 HD
ATOM     19  H32 UNL     1       0.996   2.503  -0.288  1.00  0.00     0.274 HD
ATOM     20  H31 UNL     1       0.966   2.560   1.411  1.00  0.00     0.274 HD
ENDBRANCH   5  17
BRANCH   2  21
HETATM   21  N1  UNL     1      -2.346  -0.095  -1.727  1.00  0.00    -0.045 N 
ATOM     22  H13 UNL     1      -2.217  -0.833  -2.419  1.00  0.00     0.278 HD
ATOM     23  H12 UNL     1      -3.336   0.087  -1.894  1.00  0.00     0.278 HD
ATOM     24  H11 UNL     1      -1.765   0.721  -1.918  1.00  0.00     0.278 HD
ENDBRANCH   2  21
BRANCH   7  25
HETATM   25  N4  UNL     1      -3.771   0.955   0.462  1.00  0.00    -0.070 N 
ATOM     26  H43 UNL     1      -3.920   1.304  -0.485  1.00  0.00     0.274 HD
ATOM     27  H42 UNL     1      -4.451   0.195   0.449  1.00  0.00     0.274 HD
ATOM     28  H41 UNL     1      -3.996   1.656   1.168  1.00  0.00     0.274 HD
ENDBRANCH   7  25
TORSDOF 8
