REMARK  3 active torsions:
REMARK  status: ('A' for Active; 'I' for Inactive)
REMARK    1  A    between atoms: N1_3  and  C3_5 
REMARK    2  A    between atoms: C5_10  and  C6_11 
REMARK       I    between atoms: C6_11  and  N4_13 
REMARK    3  A    between atoms: N4_13  and  N5_15 
REMARK       I    between atoms: N5_15  and  C7_17 
ROOT
HETATM    1  C3  UNL     1      -2.098  -0.306  -0.587  1.00  0.00     0.142 A 
HETATM    2  C4  UNL     1      -1.387   0.540   0.249  1.00  0.00     0.150 A 
HETATM    3  N2  UNL     1      -2.146   1.488   0.983  1.00  0.00    -0.080 NA
HETATM    4  N3  UNL     1      -0.042   0.457   0.351  1.00  0.00    -0.324 N 
ATOM      5  H3  UNL     1       0.455   1.093   0.974  1.00  0.00     0.169 HD
HETATM    6  C5  UNL     1       0.650  -0.452  -0.357  1.00  0.00     0.180 A 
HETATM    7  N7  UNL     1      -0.024  -1.280  -1.172  1.00  0.00    -0.303 N 
ATOM      8  H7  UNL     1       0.496  -1.972  -1.712  1.00  0.00     0.171 HD
HETATM    9  C8  UNL     1      -1.368  -1.227  -1.300  1.00  0.00     0.277 A 
HETATM   10  O3  UNL     1      -1.954  -2.023  -2.076  1.00  0.00    -0.266 OA
ENDROOT
BRANCH   6  11
HETATM   11  C6  UNL     1       2.107  -0.522  -0.228  1.00  0.00     0.304 C 
HETATM   12  O1  UNL     1       2.794  -1.358  -0.870  1.00  0.00    -0.263 OA
HETATM   13  N4  UNL     1       2.776   0.376   0.644  1.00  0.00    -0.260 N 
ATOM     14  H4  UNL     1       2.230   1.059   1.169  1.00  0.00     0.190 HD
BRANCH  13  15
HETATM   15  N5  UNL     1       4.160   0.347   0.800  1.00  0.00    -0.251 N 
HETATM   16  C7  UNL     1       5.067   0.554  -0.251  1.00  0.00     0.347 C 
HETATM   17  N6  UNL     1       6.469   0.513  -0.032  1.00  0.00    -0.038 NA
HETATM   18  O2  UNL     1       4.650   0.785  -1.426  1.00  0.00    -0.249 OA
ATOM     19  H5  UNL     1       4.536   0.165   1.731  1.00  0.00     0.191 HD
ENDBRANCH  13  15
ENDBRANCH   6  11
BRANCH   1  20
HETATM   20  N1  UNL     1      -3.501  -0.226  -0.700  1.00  0.00    -0.363 N 
HETATM   21  C2  UNL     1      -4.324  -0.320   0.267  1.00  0.00     0.057 C 
HETATM   22  C1  UNL     1      -5.785  -0.207  -0.068  1.00  0.00     0.054 C 
ATOM     23  H1  UNL     1      -3.888  -0.081  -1.632  1.00  0.00     0.165 HD
ENDBRANCH   1  20
TORSDOF 3
