REMARK  6 active torsions:
REMARK  status: ('A' for Active; 'I' for Inactive)
REMARK    1  A    between atoms: C5_5  and  O1_6 
REMARK    2  A    between atoms: C8_10  and  C9_11 
REMARK    3  A    between atoms: C10_12  and  O2_13 
REMARK    4  A    between atoms: C12_16  and  O3_17 
REMARK    5  A    between atoms: C13_19  and  C14_20 
REMARK    6  A    between atoms: C22_29  and  O5_30 
ROOT
HETATM    1  C9  UNL     1      -1.339  -0.503   0.119  1.00  0.00     0.034 A 
HETATM    2  C10 UNL     1      -1.373  -1.868  -0.086  1.00  0.00     0.081 A 
HETATM    3  C11 UNL     1      -0.228  -2.684  -0.206  1.00  0.00     0.074 A 
HETATM    4  C12 UNL     1       0.997  -2.078  -0.111  1.00  0.00     0.080 A 
HETATM    5  C13 UNL     1       1.134  -0.688   0.096  1.00  0.00     0.038 A 
HETATM    6  C22 UNL     1      -0.032   0.070   0.209  1.00  0.00     0.090 A 
ENDROOT
BRANCH   1   7
HETATM    7  C8  UNL     1      -2.591   0.189   0.394  1.00  0.00    -0.054 C 
HETATM    8  C2  UNL     1      -3.166   1.053  -0.714  1.00  0.00     0.012 C 
HETATM    9  C1  UNL     1      -2.132   1.372  -1.749  1.00  0.00     0.015 C 
HETATM   10  C3  UNL     1      -4.325   0.297  -1.392  1.00  0.00     0.011 C 
HETATM   11  C4  UNL     1      -5.318  -0.215  -0.453  1.00  0.00     0.033 C 
HETATM   12  C5  UNL     1      -4.994  -0.431   0.949  1.00  0.00     0.126 C 
HETATM   13  C6  UNL     1      -3.567  -0.315   1.385  1.00  0.00     0.041 C 
HETATM   14  C7  UNL     1      -3.642   0.595   2.650  1.00  0.00     0.017 C 
BRANCH  12  15
HETATM   15  O1  UNL     1      -5.486  -1.661   1.390  1.00  0.00    -0.395 OA
ATOM     16  H1  UNL     1      -5.274  -1.802   2.305  1.00  0.00     0.210 HD
ENDBRANCH  12  15
ENDBRANCH   1   7
BRANCH   2  17
HETATM   17  O2  UNL     1      -2.565  -2.505  -0.190  1.00  0.00    -0.360 OA
ATOM     18  H2  UNL     1      -2.588  -3.444  -0.331  1.00  0.00     0.217 HD
ENDBRANCH   2  17
BRANCH   6  19
HETATM   19  O5  UNL     1      -0.007   1.401   0.412  1.00  0.00    -0.359 OA
ATOM     20  H5  UNL     1       0.861   1.782   0.472  1.00  0.00     0.217 HD
ENDBRANCH   6  19
BRANCH   5  21
HETATM   21  C14 UNL     1       2.514  -0.252   0.364  1.00  0.00     0.165 C 
HETATM   22  O4  UNL     1       2.384   0.641   1.443  1.00  0.00    -0.381 OA
HETATM   23  C15 UNL     1       3.139   1.678   1.667  1.00  0.00     0.169 C 
HETATM   24  C16 UNL     1       4.269   2.061   0.717  1.00  0.00     0.032 C 
HETATM   25  C17 UNL     1       4.644   0.747   0.165  1.00  0.00     0.003 A 
HETATM   26  C18 UNL     1       3.326   0.442  -0.640  1.00  0.00     0.032 A 
HETATM   27  C19 UNL     1       4.653   0.128  -1.115  1.00  0.00    -0.037 A 
HETATM   28  C20 UNL     1       5.288   0.850  -2.251  1.00  0.00     0.015 C 
HETATM   29  C21 UNL     1       5.260  -1.307  -1.078  1.00  0.00     0.015 C 
ENDBRANCH   5  21
BRANCH   4  30
HETATM   30  O3  UNL     1       2.162  -2.815  -0.218  1.00  0.00    -0.360 OA
ATOM     31  H3  UNL     1       3.011  -2.395  -0.152  1.00  0.00     0.217 HD
ENDBRANCH   4  30
TORSDOF 6
