REMARK  6 active torsions:
REMARK  status: ('A' for Active; 'I' for Inactive)
REMARK    1  A    between atoms: C2_3  and  C3_4 
REMARK    2  A    between atoms: C6_7  and  O1_8 
REMARK    3  A    between atoms: C8_11  and  O2_12 
REMARK    4  A    between atoms: C16_21  and  C17_22 
REMARK    5  A    between atoms: C17_22  and  O3_23 
REMARK    6  A    between atoms: C20_27  and  O4_29 
ROOT
HETATM    1  C1  UNL     1       1.373   1.904  -0.014  1.00  0.00     0.311 C 
HETATM    2  N1  UNL     1       0.411   0.850  -0.240  1.00  0.00     0.101 N 
HETATM    3  C2  UNL     1       1.139  -0.114  -1.070  1.00  0.00     0.259 C 
HETATM    4  C9  UNL     1       0.530  -1.376  -1.379  1.00  0.00     0.041 C 
HETATM    5  C10 UNL     1       0.926  -2.667  -0.755  1.00  0.00     0.002 C 
HETATM    6  C11 UNL     1      -0.301  -3.504  -0.309  1.00  0.00     0.000 C 
HETATM    7  C12 UNL     1      -0.565  -3.313   1.138  1.00  0.00     0.000 C 
HETATM    8  C13 UNL     1      -1.818  -2.634   1.518  1.00  0.00     0.000 C 
HETATM    9  C14 UNL     1      -1.725  -1.103   1.536  1.00  0.00     0.001 C 
HETATM   10  C15 UNL     1      -2.449  -0.589   0.391  1.00  0.00     0.014 C 
HETATM   11  C16 UNL     1      -2.127   0.643  -0.292  1.00  0.00     0.015 C 
HETATM   12  C18 UNL     1      -3.015   1.675   0.491  1.00  0.00     0.017 C 
HETATM   13  C19 UNL     1      -2.718   2.843  -0.335  1.00  0.00     0.040 C 
HETATM   14  C20 UNL     1      -1.173   2.744  -0.285  1.00  0.00     0.086 C 
HETATM   15  C21 UNL     1      -0.860   3.147   1.105  1.00  0.00     0.048 C 
HETATM   16  C22 UNL     1      -0.875   1.258  -0.612  1.00  0.00     0.267 C 
ENDROOT
BRANCH   3  17
HETATM   17  C3  UNL     1       2.401  -0.363  -0.286  1.00  0.00     0.008 A 
HETATM   18  C4  UNL     1       2.455  -0.443   1.090  1.00  0.00     0.015 A 
HETATM   19  C5  UNL     1       3.682  -0.460   1.761  1.00  0.00     0.037 A 
HETATM   20  C6  UNL     1       4.877  -0.404   1.092  1.00  0.00     0.068 A 
HETATM   21  C7  UNL     1       4.844  -0.327  -0.280  1.00  0.00     0.073 A 
HETATM   22  C8  UNL     1       3.646  -0.307  -0.947  1.00  0.00     0.076 A 
BRANCH  20  23
HETATM   23  O1  UNL     1       6.107  -0.418   1.770  1.00  0.00    -0.361 OA
ATOM     24  H1  UNL     1       6.935  -0.379   1.306  1.00  0.00     0.217 HD
ENDBRANCH  20  23
BRANCH  22  25
HETATM   25  O2  UNL     1       3.617  -0.238  -2.343  1.00  0.00    -0.360 OA
ATOM     26  H2  UNL     1       4.455  -0.200  -2.788  1.00  0.00     0.217 HD
ENDBRANCH  22  25
ENDBRANCH   3  17
BRANCH  11  27
HETATM   27  C17 UNL     1      -2.961   0.592  -1.616  1.00  0.00     0.175 C 
BRANCH  27  28
HETATM   28  O3  UNL     1      -4.300   0.522  -1.391  1.00  0.00    -0.400 OA
ATOM     29  H3  UNL     1      -4.806   0.491  -2.194  1.00  0.00     0.209 HD
ENDBRANCH  27  28
ENDBRANCH  11  27
BRANCH  14  30
HETATM   30  O4  UNL     1      -0.886   3.620  -1.300  1.00  0.00    -0.388 OA
ATOM     31  H4  UNL     1       0.062   3.559  -1.269  1.00  0.00     0.210 HD
ENDBRANCH  14  30
TORSDOF 6
