REMARK  22 active torsions:
REMARK  status: ('A' for Active; 'I' for Inactive)
REMARK    1  A    between atoms: C2_2  and  C3_3 
REMARK    2  A    between atoms: C3_3  and  C4_4 
REMARK    3  A    between atoms: C4_4  and  C5_5 
REMARK    4  A    between atoms: C5_5  and  C6_6 
REMARK    5  A    between atoms: C6_6  and  N1_7 
REMARK       I    between atoms: N1_7  and  C7_9 
REMARK    6  A    between atoms: C7_9  and  C8_11 
REMARK    7  A    between atoms: C8_11  and  C9_12 
REMARK    8  A    between atoms: C8_11  and  N3_24 
REMARK    9  A    between atoms: C9_12  and  C10_13 
REMARK   10  A    between atoms: C10_13  and  C11_14 
REMARK   11  A    between atoms: C11_14  and  N2_15 
REMARK       I    between atoms: N2_15  and  C12_17 
REMARK   12  A    between atoms: C12_17  and  O3_19 
REMARK   13  A    between atoms: O3_19  and  C13_20 
REMARK   14  A    between atoms: C21_32  and  C22_33 
REMARK   15  A    between atoms: C22_33  and  C23_34 
REMARK   16  A    between atoms: C26_39  and  O5_40 
REMARK   17  A    between atoms: C27_42  and  C28_43 
REMARK   18  A    between atoms: C28_43  and  C29_44 
REMARK   19  A    between atoms: C29_44  and  C30_45 
REMARK   20  A    between atoms: C30_45  and  C31_46 
REMARK   21  A    between atoms: C31_46  and  N6_47 
REMARK   22  A    between atoms: C32_53  and  O6_54 
ROOT
HETATM    1  N3  UNL     1       0.586   0.576  -0.345  1.00  0.00    -0.312 N 
HETATM    2  C17 UNL     1       1.679   1.347  -0.981  1.00  0.00     0.134 C 
HETATM    3  C18 UNL     1       1.930   2.667  -0.354  1.00  0.00     0.040 C 
HETATM    4  C19 UNL     1       3.161   2.751   0.514  1.00  0.00     0.124 C 
HETATM    5  N4  UNL     1       4.395   2.506  -0.197  1.00  0.00    -0.356 N 
ATOM      6  H4  UNL     1       4.642   3.233  -0.869  1.00  0.00     0.162 HD
HETATM    7  C20 UNL     1       5.305   1.458  -0.130  1.00  0.00     0.264 C 
HETATM    8  O4  UNL     1       5.858   1.133  -1.225  1.00  0.00    -0.266 OA
HETATM    9  C21 UNL     1       5.763   0.627   1.008  1.00  0.00     0.079 C 
HETATM   10  N5  UNL     1       4.832  -0.255   1.596  1.00  0.00    -0.338 N 
ATOM     11  H5  UNL     1       5.117  -0.491   2.546  1.00  0.00     0.167 HD
HETATM   12  C26 UNL     1       3.658  -0.892   1.276  1.00  0.00     0.139 C 
HETATM   13  C27 UNL     1       3.171  -1.831   0.283  1.00  0.00     0.159 C 
HETATM   14  N7  UNL     1       1.767  -1.704  -0.039  1.00  0.00    -0.344 N 
ATOM     15  H7  UNL     1       1.398  -2.515  -0.535  1.00  0.00     0.164 HD
HETATM   16  C32 UNL     1       0.815  -0.727   0.177  1.00  0.00     0.220 C 
ENDROOT
BRANCH   1  17
HETATM   17  C8  UNL     1      -0.686   1.274  -0.327  1.00  0.00     0.083 C 
BRANCH  17  18
HETATM   18  C7  UNL     1      -1.220   1.637   0.966  1.00  0.00     0.264 C 
HETATM   19  N1  UNL     1      -2.546   2.109   1.069  1.00  0.00    -0.356 N 
ATOM     20  H1  UNL     1      -3.107   2.190   0.221  1.00  0.00     0.162 HD
HETATM   21  O1  UNL     1      -0.544   1.546   2.001  1.00  0.00    -0.266 OA
BRANCH  19  22
HETATM   22  C6  UNL     1      -3.140   2.484   2.344  1.00  0.00     0.123 C 
BRANCH  22  23
HETATM   23  C5  UNL     1      -4.564   2.957   2.180  1.00  0.00     0.020 C 
BRANCH  23  24
HETATM   24  C4  UNL     1      -4.656   4.168   1.290  1.00  0.00     0.002 C 
BRANCH  24  25
HETATM   25  C3  UNL     1      -6.120   4.577   1.181  1.00  0.00    -0.000 C 
BRANCH  25  26
HETATM   26  C2  UNL     1      -6.206   5.798   0.285  1.00  0.00    -0.005 C 
HETATM   27  C1  UNL     1      -7.644   6.262   0.131  1.00  0.00     0.005 C 
ENDBRANCH  25  26
ENDBRANCH  24  25
ENDBRANCH  23  24
ENDBRANCH  22  23
ENDBRANCH  19  22
ENDBRANCH  17  18
BRANCH  17  28
HETATM   28  C9  UNL     1      -1.657   0.739  -1.311  1.00  0.00     0.065 C 
BRANCH  28  29
HETATM   29  C10 UNL     1      -2.432  -0.479  -1.000  1.00  0.00     0.026 C 
BRANCH  29  30
HETATM   30  C11 UNL     1      -3.392  -0.711  -2.190  1.00  0.00     0.125 C 
BRANCH  30  31
HETATM   31  N2  UNL     1      -4.214  -1.862  -1.968  1.00  0.00    -0.337 N 
HETATM   32  C12 UNL     1      -5.145  -2.048  -0.919  1.00  0.00     0.361 C 
HETATM   33  O2  UNL     1      -5.316  -1.159  -0.066  1.00  0.00    -0.238 OA
ATOM     34  H2  UNL     1      -4.119  -2.627  -2.635  1.00  0.00     0.164 HD
BRANCH  32  35
HETATM   35  O3  UNL     1      -5.878  -3.199  -0.816  1.00  0.00    -0.294 OA
BRANCH  35  36
HETATM   36  C13 UNL     1      -6.828  -3.442   0.209  1.00  0.00     0.061 C 
HETATM   37  C14 UNL     1      -7.397  -4.820  -0.072  1.00  0.00     0.046 C 
HETATM   38  C15 UNL     1      -6.194  -3.493   1.569  1.00  0.00     0.046 C 
HETATM   39  C16 UNL     1      -7.938  -2.437   0.222  1.00  0.00     0.046 C 
ENDBRANCH  35  36
ENDBRANCH  32  35
ENDBRANCH  30  31
ENDBRANCH  29  30
ENDBRANCH  28  29
ENDBRANCH  17  28
ENDBRANCH   1  17
BRANCH  16  40
HETATM   40  O6  UNL     1      -0.092  -1.057   1.062  1.00  0.00    -0.332 OA
ATOM     41  H6  UNL     1       0.061  -1.927   1.411  1.00  0.00     0.220 HD
ENDBRANCH  16  40
BRANCH  13  42
HETATM   42  C28 UNL     1       3.967  -2.005  -0.979  1.00  0.00     0.034 C 
BRANCH  42  43
HETATM   43  C29 UNL     1       3.404  -2.986  -1.920  1.00  0.00     0.004 C 
BRANCH  43  44
HETATM   44  C30 UNL     1       4.158  -3.111  -3.194  1.00  0.00     0.027 C 
BRANCH  44  45
HETATM   45  C31 UNL     1       5.567  -3.528  -3.199  1.00  0.00     0.229 C 
BRANCH  45  46
HETATM   46  N6  UNL     1       6.458  -2.615  -2.539  1.00  0.00    -0.079 N 
ATOM     47  H63 UNL     1       6.363  -1.678  -2.932  1.00  0.00     0.274 HD
ATOM     48  H62 UNL     1       6.143  -2.437  -1.585  1.00  0.00     0.274 HD
ATOM     49  H61 UNL     1       7.436  -2.904  -2.542  1.00  0.00     0.274 HD
ENDBRANCH  45  46
ENDBRANCH  44  45
ENDBRANCH  43  44
ENDBRANCH  42  43
ENDBRANCH  13  42
BRANCH  12  50
HETATM   50  O5  UNL     1       2.661  -0.589   2.082  1.00  0.00    -0.348 OA
ATOM     51  H5  UNL     1       1.849  -1.030   1.861  1.00  0.00     0.219 HD
ENDBRANCH  12  50
BRANCH   9  52
HETATM   52  C22 UNL     1       7.145   0.129   0.710  1.00  0.00     0.067 C 
BRANCH  52  53
HETATM   53  C23 UNL     1       7.811  -0.714   1.735  1.00  0.00    -0.017 C 
HETATM   54  C24 UNL     1       9.237  -1.073   1.222  1.00  0.00     0.010 C 
HETATM   55  C25 UNL     1       7.194  -2.069   1.984  1.00  0.00     0.010 C 
ENDBRANCH  52  53
ENDBRANCH   9  52
TORSDOF 22
