REMARK  6 active torsions:
REMARK  status: ('A' for Active; 'I' for Inactive)
REMARK    1  A    between atoms: C2_2  and  C3_4 
REMARK    2  A    between atoms: C10_11  and  C11_12 
REMARK       I    between atoms: C11_12  and  N1_14 
REMARK    3  A    between atoms: C13_16  and  C14_17 
REMARK       I    between atoms: C14_17  and  N2_19 
REMARK    4  A    between atoms: N2_19  and  C15_21 
REMARK    5  A    between atoms: C15_21  and  C16_22 
REMARK    6  A    between atoms: C16_22  and  N3_23 
ROOT
HETATM    1  C11 UNL     1      -2.289   1.523  -0.421  1.00  0.00     0.229 C 
HETATM    2  O2  UNL     1      -2.115   2.571  -1.099  1.00  0.00    -0.272 OA
HETATM    3  N1  UNL     1      -1.315   1.203   0.565  1.00  0.00    -0.334 N 
HETATM    4  C12 UNL     1      -0.896   0.253   1.617  1.00  0.00     0.161 A 
HETATM    5  C13 UNL     1      -0.093   1.468   1.290  1.00  0.00     0.197 A 
ENDROOT
BRANCH   1   6
HETATM    6  C10 UNL     1      -3.463   0.685  -0.664  1.00  0.00     0.043 C 
HETATM    7  C9  UNL     1      -3.075  -0.739  -1.079  1.00  0.00     0.024 C 
HETATM    8  C7  UNL     1      -4.325  -1.518  -1.360  1.00  0.00    -0.012 C 
HETATM    9  C6  UNL     1      -5.179  -0.880  -2.432  1.00  0.00     0.009 C 
HETATM   10  C8  UNL     1      -5.113  -1.666  -0.093  1.00  0.00     0.022 C 
HETATM   11  C5  UNL     1      -5.586   0.506  -1.965  1.00  0.00    -0.012 C 
HETATM   12  C4  UNL     1      -6.364   0.424  -0.665  1.00  0.00     0.022 C 
HETATM   13  C23 UNL     1      -4.328   1.300  -1.731  1.00  0.00     0.024 C 
HETATM   14  C3  UNL     1      -5.512  -0.275   0.362  1.00  0.00     0.022 C 
HETATM   15  C24 UNL     1      -4.282   0.553   0.605  1.00  0.00     0.036 C 
BRANCH  14  16
HETATM   16  C2  UNL     1      -6.278  -0.377   1.621  1.00  0.00     0.131 C 
HETATM   17  C1  UNL     1      -7.585  -1.105   1.709  1.00  0.00     0.091 C 
HETATM   18  O1  UNL     1      -5.872   0.132   2.654  1.00  0.00    -0.298 OA
ENDBRANCH  14  16
ENDBRANCH   1   6
BRANCH   5  19
HETATM   19  C14 UNL     1       1.214   1.205   0.640  1.00  0.00     0.242 C 
HETATM   20  O3  UNL     1       1.276   0.364  -0.279  1.00  0.00    -0.271 OA
HETATM   21  N2  UNL     1       2.356   1.895   1.060  1.00  0.00    -0.358 N 
ATOM     22  H2  UNL     1       2.264   2.577   1.813  1.00  0.00     0.162 HD
BRANCH  21  23
HETATM   23  C15 UNL     1       3.650   1.685   0.479  1.00  0.00     0.152 C 
BRANCH  23  24
HETATM   24  C16 UNL     1       4.147   0.279   0.645  1.00  0.00     0.292 C 
BRANCH  24  25
HETATM   25  N3  UNL     1       5.448   0.112   0.056  1.00  0.00     0.090 N 
HETATM   26  C17 UNL     1       6.513   0.797   0.720  1.00  0.00     0.272 C 
HETATM   27  C18 UNL     1       7.457  -0.134   1.444  1.00  0.00     0.030 C 
HETATM   28  C19 UNL     1       8.340  -0.944   0.577  1.00  0.00     0.002 C 
HETATM   29  C20 UNL     1       8.159  -0.714  -0.904  1.00  0.00     0.002 C 
HETATM   30  C21 UNL     1       6.822  -1.169  -1.401  1.00  0.00     0.030 C 
HETATM   31  C22 UNL     1       5.784  -1.230  -0.303  1.00  0.00     0.272 C 
ENDBRANCH  24  25
ENDBRANCH  23  24
ENDBRANCH  21  23
ENDBRANCH   5  19
TORSDOF 6
