REMARK  4 active torsions:
REMARK  status: ('A' for Active; 'I' for Inactive)
REMARK    1  A    between atoms: C6_6  and  N1_7 
REMARK    2  A    between atoms: N1_7  and  C7_9 
REMARK    3  A    between atoms: C13_16  and  C14_17 
REMARK    4  A    between atoms: C16_22  and  O1_23 
ROOT
HETATM    1  C1  UNL     1      -2.344   2.102   1.369  1.00  0.00     0.015 C 
HETATM    2  C2  UNL     1      -2.523   1.193   0.143  1.00  0.00    -0.041 C 
HETATM    3  C3  UNL     1      -3.542   1.923  -0.742  1.00  0.00     0.015 C 
HETATM    4  C4  UNL     1      -1.264   1.050  -0.639  1.00  0.00     0.050 C 
HETATM    5  C5  UNL     1      -0.526  -0.253  -0.330  1.00  0.00    -0.013 A 
HETATM    6  C6  UNL     1       0.846  -0.388  -0.234  1.00  0.00     0.082 A 
HETATM    7  S1  UNL     1       1.058  -2.042   0.119  1.00  0.00    -0.067 SA
HETATM    8  C13 UNL     1      -0.566  -2.525   0.139  1.00  0.00     0.100 A 
HETATM    9  C15 UNL     1      -1.238  -1.375  -0.133  1.00  0.00     0.002 A 
HETATM   10  C16 UNL     1      -2.749  -1.251  -0.232  1.00  0.00     0.154 C 
HETATM   11  C17 UNL     1      -3.114  -0.076   0.643  1.00  0.00     0.045 C 
ENDROOT
BRANCH   6  12
HETATM   12  N1  UNL     1       1.822   0.657  -0.424  1.00  0.00    -0.350 N 
ATOM     13  H1  UNL     1       1.479   1.583  -0.681  1.00  0.00     0.166 HD
BRANCH  12  14
HETATM   14  C7  UNL     1       3.204   0.494  -0.282  1.00  0.00     0.032 A 
HETATM   15  C8  UNL     1       3.868  -0.483   0.409  1.00  0.00     0.029 A 
HETATM   16  C9  UNL     1       5.251  -0.579   0.468  1.00  0.00     0.002 A 
HETATM   17  C10 UNL     1       6.031   0.341  -0.193  1.00  0.00     0.000 A 
HETATM   18  C11 UNL     1       5.396   1.324  -0.889  1.00  0.00     0.002 A 
HETATM   19  C12 UNL     1       4.026   1.415  -0.944  1.00  0.00     0.029 A 
ENDBRANCH  12  14
ENDBRANCH   6  12
BRANCH   8  20
HETATM   20  C14 UNL     1      -1.103  -3.906   0.398  1.00  0.00     0.424 C 
HETATM   21  F1  UNL     1      -1.804  -4.269  -0.736  1.00  0.00    -0.166 F 
HETATM   22  F2  UNL     1      -0.016  -4.745   0.615  1.00  0.00    -0.166 F 
HETATM   23  F3  UNL     1      -1.897  -3.948   1.506  1.00  0.00    -0.166 F 
ENDBRANCH   8  20
BRANCH  10  24
HETATM   24  O1  UNL     1      -3.060  -1.083  -1.555  1.00  0.00    -0.391 OA
ATOM     25  H1  UNL     1      -4.005  -1.005  -1.617  1.00  0.00     0.210 HD
ENDBRANCH  10  24
TORSDOF 4
