REMARK  11 active torsions:
REMARK  status: ('A' for Active; 'I' for Inactive)
REMARK    1  A    between atoms: C2_2  and  C3_3 
REMARK    2  A    between atoms: C3_3  and  C4_4 
REMARK    3  A    between atoms: C4_4  and  C5_5 
REMARK    4  A    between atoms: C5_5  and  C6_6 
REMARK    5  A    between atoms: C6_6  and  C7_7 
REMARK    6  A    between atoms: C7_7  and  C8_8 
REMARK    7  A    between atoms: C9_9  and  C10_10 
REMARK    8  A    between atoms: C10_10  and  C11_11 
REMARK    9  A    between atoms: C11_11  and  C12_12 
REMARK   10  A    between atoms: C12_12  and  C13_13 
REMARK   11  A    between atoms: C13_13  and  N1_14 
ROOT
HETATM    1  C10 UNL     1      -1.173   1.433   0.270  1.00  0.00     0.027 C 
ENDROOT
BRANCH   1   2
HETATM    2  C9  UNL     1      -0.732   0.126  -0.224  1.00  0.00    -0.031 C 
HETATM    3  C8  UNL     1       0.468  -0.340   0.055  1.00  0.00    -0.031 C 
BRANCH   3   4
HETATM    4  C7  UNL     1       1.514   0.308   0.849  1.00  0.00     0.027 C 
BRANCH   4   5
HETATM    5  C6  UNL     1       2.741   0.507  -0.022  1.00  0.00     0.004 C 
BRANCH   5   6
HETATM    6  C5  UNL     1       3.300  -0.771  -0.555  1.00  0.00     0.001 C 
BRANCH   6   7
HETATM    7  C4  UNL     1       4.511  -0.457  -1.403  1.00  0.00     0.004 C 
BRANCH   7   8
HETATM    8  C3  UNL     1       5.593   0.243  -0.629  1.00  0.00     0.026 C 
BRANCH   8   9
HETATM    9  C2  UNL     1       6.027  -0.623   0.493  1.00  0.00    -0.037 C 
HETATM   10  C1  UNL     1       7.283  -1.029   0.573  1.00  0.00     0.007 C 
ENDBRANCH   8   9
ENDBRANCH   7   8
ENDBRANCH   6   7
ENDBRANCH   5   6
ENDBRANCH   4   5
ENDBRANCH   3   4
ENDBRANCH   1   2
BRANCH   1  11
HETATM   11  C11 UNL     1      -2.391   1.264   1.152  1.00  0.00     0.005 C 
BRANCH  11  12
HETATM   12  C12 UNL     1      -3.484   0.645   0.356  1.00  0.00     0.021 C 
BRANCH  12  13
HETATM   13  C13 UNL     1      -4.756   0.446   1.157  1.00  0.00     0.129 C 
BRANCH  13  14
HETATM   14  N1  UNL     1      -5.725  -0.156   0.275  1.00  0.00    -0.352 N 
HETATM   15  C14 UNL     1      -5.949  -1.471   0.058  1.00  0.00     0.108 A 
HETATM   16  C15 UNL     1      -6.960  -1.627  -0.857  1.00  0.00     0.106 A 
HETATM   17  N2  UNL     1      -7.345  -0.392  -1.191  1.00  0.00    -0.361 N 
HETATM   18  C16 UNL     1      -6.590   0.516  -0.499  1.00  0.00     0.182 A 
ATOM     19  H2  UNL     1      -8.084  -0.162  -1.856  1.00  0.00     0.166 HD
ENDBRANCH  13  14
ENDBRANCH  12  13
ENDBRANCH  11  12
ENDBRANCH   1  11
TORSDOF 11
