REMARK  11 active torsions:
REMARK  status: ('A' for Active; 'I' for Inactive)
REMARK    1  A    between atoms: C2_2  and  C3_3 
REMARK    2  A    between atoms: C3_3  and  C4_4 
REMARK    3  A    between atoms: C4_4  and  C5_5 
REMARK    4  A    between atoms: C5_5  and  C6_6 
REMARK    5  A    between atoms: C7_7  and  C8_8 
REMARK    6  A    between atoms: C8_8  and  C9_9 
REMARK    7  A    between atoms: C9_9  and  C10_10 
REMARK    8  A    between atoms: C10_10  and  C11_11 
REMARK    9  A    between atoms: C11_11  and  C12_12 
REMARK   10  A    between atoms: C12_12  and  C13_13 
REMARK   11  A    between atoms: C13_13  and  N1_14 
ROOT
HETATM    1  C10 UNL     1      -1.008   1.811  -0.602  1.00  0.00     0.000 C 
ENDROOT
BRANCH   1   2
HETATM    2  C9  UNL     1      -0.453   0.487  -1.051  1.00  0.00     0.004 C 
BRANCH   2   3
HETATM    3  C8  UNL     1       0.236  -0.250   0.083  1.00  0.00     0.027 C 
BRANCH   3   4
HETATM    4  C7  UNL     1       1.348   0.522   0.623  1.00  0.00    -0.031 C 
HETATM    5  C6  UNL     1       2.618   0.215   0.688  1.00  0.00    -0.031 C 
BRANCH   5   6
HETATM    6  C5  UNL     1       3.153  -1.064   0.181  1.00  0.00     0.027 C 
BRANCH   6   7
HETATM    7  C4  UNL     1       4.175  -0.830  -0.907  1.00  0.00     0.007 C 
BRANCH   7   8
HETATM    8  C3  UNL     1       5.332  -0.015  -0.409  1.00  0.00     0.026 C 
BRANCH   8   9
HETATM    9  C2  UNL     1       6.009  -0.713   0.710  1.00  0.00    -0.037 C 
HETATM   10  C1  UNL     1       7.275  -1.052   0.582  1.00  0.00     0.007 C 
ENDBRANCH   8   9
ENDBRANCH   7   8
ENDBRANCH   6   7
ENDBRANCH   5   6
ENDBRANCH   3   4
ENDBRANCH   2   3
ENDBRANCH   1   2
BRANCH   1  11
HETATM   11  C11 UNL     1      -2.027   1.683   0.501  1.00  0.00     0.002 C 
BRANCH  11  12
HETATM   12  C12 UNL     1      -3.162   0.849   0.005  1.00  0.00     0.020 C 
BRANCH  12  13
HETATM   13  C13 UNL     1      -4.247   0.660   1.045  1.00  0.00     0.129 C 
BRANCH  13  14
HETATM   14  N1  UNL     1      -5.279  -0.155   0.453  1.00  0.00    -0.352 N 
HETATM   15  C14 UNL     1      -5.365  -1.515   0.475  1.00  0.00     0.108 A 
HETATM   16  C15 UNL     1      -6.497  -1.899  -0.203  1.00  0.00     0.106 A 
HETATM   17  N2  UNL     1      -7.079  -0.775  -0.625  1.00  0.00    -0.361 N 
HETATM   18  C16 UNL     1      -6.340   0.296  -0.228  1.00  0.00     0.182 A 
ATOM     19  H2  UNL     1      -7.945  -0.726  -1.162  1.00  0.00     0.166 HD
ENDBRANCH  13  14
ENDBRANCH  12  13
ENDBRANCH  11  12
ENDBRANCH   1  11
TORSDOF 11
