REMARK  9 active torsions:
REMARK  status: ('A' for Active; 'I' for Inactive)
REMARK    1  A    between atoms: C2_2  and  O1_3 
REMARK    2  A    between atoms: O1_3  and  C3_4 
REMARK    3  A    between atoms: C3_4  and  C4_5 
REMARK    4  A    between atoms: C4_5  and  C5_6 
REMARK    5  A    between atoms: C4_5  and  N3_23 
REMARK    6  A    between atoms: C5_6  and  N1_7 
REMARK       I    between atoms: N1_7  and  C6_9 
REMARK       I    between atoms: C6_9  and  N2_11 
REMARK    7  A    between atoms: N2_11  and  C7_13 
REMARK    8  A    between atoms: N3_23  and  O3_24 
REMARK    9  A    between atoms: N3_23  and  C17_26 
ROOT
HETATM    1  N1  UNL     1       1.780  -0.512   1.756  1.00  0.00    -0.341 N 
ATOM      2  H1  UNL     1       1.884  -1.509   1.944  1.00  0.00     0.164 HD
HETATM    3  C6  UNL     1       0.581  -0.108   1.160  1.00  0.00     0.316 C 
HETATM    4  O2  UNL     1       0.384   1.094   0.908  1.00  0.00    -0.247 OA
HETATM    5  N2  UNL     1      -0.428  -1.070   0.835  1.00  0.00    -0.339 N 
ATOM      6  H2  UNL     1      -0.270  -2.058   1.033  1.00  0.00     0.164 HD
ENDROOT
BRANCH   1   7
HETATM    7  C5  UNL     1       2.885   0.336   2.132  1.00  0.00     0.154 C 
BRANCH   7   8
HETATM    8  C4  UNL     1       3.426   1.015   0.891  1.00  0.00     0.158 C 
BRANCH   8   9
HETATM    9  C3  UNL     1       3.904  -0.024  -0.119  1.00  0.00     0.197 C 
BRANCH   9  10
HETATM   10  O1  UNL     1       4.930  -0.810   0.346  1.00  0.00    -0.389 OA
BRANCH  10  11
HETATM   11  C2  UNL     1       5.324  -1.726  -0.596  1.00  0.00     0.163 C 
HETATM   12  C1  UNL     1       5.817  -1.059  -1.876  1.00  0.00     0.033 C 
ENDBRANCH  10  11
ENDBRANCH   9  10
ENDBRANCH   8   9
BRANCH   8  13
HETATM   13  N3  UNL     1       4.530   1.888   1.225  1.00  0.00    -0.228 N 
BRANCH  13  14
HETATM   14  O3  UNL     1       4.469   3.179   0.834  1.00  0.00    -0.285 OA
ATOM     15  H3  UNL     1       5.194   3.752   1.053  1.00  0.00     0.245 HD
ENDBRANCH  13  14
BRANCH  13  16
HETATM   16  C17 UNL     1       5.667   1.437   1.943  1.00  0.00     0.377 C 
HETATM   17  O4  UNL     1       6.606   2.246   2.203  1.00  0.00    -0.281 OA
ENDBRANCH  13  16
ENDBRANCH   8  13
ENDBRANCH   7   8
ENDBRANCH   1   7
BRANCH   5  18
HETATM   18  C7  UNL     1      -1.701  -0.638   0.212  1.00  0.00     0.086 C 
HETATM   19  C8  UNL     1      -1.285  -0.189  -1.128  1.00  0.00     0.025 C 
HETATM   20  C9  UNL     1      -2.251  -0.484  -2.296  1.00  0.00     0.002 C 
HETATM   21  C10 UNL     1      -3.569  -0.248  -1.716  1.00  0.00     0.000 C 
HETATM   22  C11 UNL     1      -4.857  -0.153  -2.394  1.00  0.00     0.000 C 
HETATM   23  C12 UNL     1      -5.808   0.356  -1.285  1.00  0.00     0.000 C 
HETATM   24  C13 UNL     1      -5.568  -0.169   0.077  1.00  0.00     0.000 C 
HETATM   25  C14 UNL     1      -4.824   0.669   1.057  1.00  0.00     0.000 C 
HETATM   26  C15 UNL     1      -3.644  -0.019   1.753  1.00  0.00     0.002 C 
HETATM   27  C16 UNL     1      -2.298   0.391   1.147  1.00  0.00     0.025 C 
ENDBRANCH   5  18
TORSDOF 9
