REMARK  10 active torsions:
REMARK  status: ('A' for Active; 'I' for Inactive)
REMARK    1  A    between atoms: C4_4  and  C5_5 
REMARK    2  A    between atoms: C5_5  and  N3_13 
REMARK    3  A    between atoms: N1_6  and  C6_8 
REMARK    4  A    between atoms: C6_8  and  C7_9 
REMARK    5  A    between atoms: N3_13  and  C10_15 
REMARK    6  A    between atoms: C10_15  and  C11_16 
REMARK    7  A    between atoms: C10_15  and  C17_22 
REMARK    8  A    between atoms: C11_16  and  C12_17 
REMARK    9  A    between atoms: C17_22  and  O1_23 
REMARK   10  A    between atoms: C17_22  and  O2_25 
ROOT
HETATM    1  C7  UNL     1      -1.737   3.536  -1.318  1.00  0.00     0.003 C 
HETATM    2  C8  UNL     1      -2.492   4.612  -1.260  1.00  0.00     0.091 C 
HETATM    3  C9  UNL     1      -2.001   5.892  -1.684  1.00  0.00     0.087 C 
HETATM    4  N2  UNL     1      -1.593   6.939  -2.017  1.00  0.00    -0.192 NA
ENDROOT
BRANCH   1   5
HETATM    5  C6  UNL     1      -2.245   2.215  -0.880  1.00  0.00     0.148 C 
BRANCH   5   6
HETATM    6  N1  UNL     1      -1.489   1.649   0.183  1.00  0.00    -0.376 N 
HETATM    7  C5  UNL     1      -1.160   0.431   0.382  1.00  0.00     0.079 C 
ATOM      8  H1  UNL     1      -1.163   2.310   0.888  1.00  0.00     0.161 HD
BRANCH   7   9
HETATM    9  C4  UNL     1      -1.471  -0.737  -0.432  1.00  0.00     0.070 A 
HETATM   10  C2  UNL     1      -1.989  -1.958   0.361  1.00  0.00    -0.029 A 
HETATM   11  C1  UNL     1      -2.386  -1.745   1.792  1.00  0.00     0.016 C 
HETATM   12  C3  UNL     1      -1.322  -3.291   0.096  1.00  0.00     0.016 C 
HETATM   13  C18 UNL     1      -2.775  -1.286  -0.737  1.00  0.00    -0.029 A 
HETATM   14  C19 UNL     1      -4.104  -0.669  -0.399  1.00  0.00     0.016 C 
HETATM   15  C20 UNL     1      -2.881  -2.168  -1.994  1.00  0.00     0.016 C 
ENDBRANCH   7   9
BRANCH   7  16
HETATM   16  N3  UNL     1      -0.349   0.218   1.562  1.00  0.00    -0.370 N 
ATOM     17  H3  UNL     1      -0.719   0.438   2.486  1.00  0.00     0.161 HD
BRANCH  16  18
HETATM   18  C10 UNL     1       1.017  -0.320   1.418  1.00  0.00     0.138 C 
BRANCH  18  19
HETATM   19  C11 UNL     1       1.757   0.659   0.572  1.00  0.00     0.034 C 
BRANCH  19  20
HETATM   20  C12 UNL     1       3.170   0.349   0.248  1.00  0.00    -0.012 C 
HETATM   21  C13 UNL     1       3.359  -0.931  -0.509  1.00  0.00     0.005 C 
HETATM   22  C14 UNL     1       4.731  -0.710  -1.161  1.00  0.00     0.000 C 
HETATM   23  C15 UNL     1       4.833   0.762  -1.433  1.00  0.00     0.000 C 
HETATM   24  C16 UNL     1       3.610   1.369  -0.820  1.00  0.00     0.005 C 
ENDBRANCH  19  20
ENDBRANCH  18  19
BRANCH  18  25
HETATM   25  C17 UNL     1       1.592  -0.508   2.805  1.00  0.00     0.276 C 
BRANCH  25  26
HETATM   26  O1  UNL     1       2.880  -1.020   2.814  1.00  0.00    -0.369 OA
ATOM     27  H1  UNL     1       3.241  -1.138   3.685  1.00  0.00     0.212 HD
ENDBRANCH  25  26
BRANCH  25  28
HETATM   28  O2  UNL     1       1.455   0.612   3.593  1.00  0.00    -0.369 OA
ATOM     29  H2  UNL     1       1.816   0.494   4.464  1.00  0.00     0.212 HD
ENDBRANCH  25  28
ENDBRANCH  18  25
ENDBRANCH  16  18
ENDBRANCH   7  16
ENDBRANCH   5   6
ENDBRANCH   1   5
TORSDOF 10
