REMARK  12 active torsions:
REMARK  status: ('A' for Active; 'I' for Inactive)
REMARK    1  A    between atoms: C2_2  and  C4_4 
REMARK    2  A    between atoms: C4_4  and  C7_7 
REMARK    3  A    between atoms: C7_7  and  C8_8 
REMARK    4  A    between atoms: C8_8  and  O1_9 
REMARK    5  A    between atoms: C8_8  and  C9_11 
REMARK    6  A    between atoms: C9_11  and  C10_12 
REMARK    7  A    between atoms: C9_11  and  C23_31 
REMARK       I    between atoms: C10_12  and  N1_14 
REMARK    8  A    between atoms: C15_19  and  C16_20 
REMARK       I    between atoms: C16_20  and  N2_22 
REMARK    9  A    between atoms: N2_22  and  C17_24 
REMARK   10  A    between atoms: C17_24  and  C18_25 
REMARK   11  A    between atoms: C17_24  and  C20_28 
REMARK   12  A    between atoms: C23_31  and  O5_33 
ROOT
HETATM    1  C10 UNL     1       0.762  -1.573   0.640  1.00  0.00     0.229 C 
HETATM    2  O2  UNL     1       0.819  -0.708   1.590  1.00  0.00    -0.273 OA
HETATM    3  N1  UNL     1      -0.425  -2.304   0.578  1.00  0.00    -0.338 N 
HETATM    4  C11 UNL     1      -0.568  -3.268  -0.493  1.00  0.00     0.127 C 
HETATM    5  C12 UNL     1      -1.996  -3.634  -0.780  1.00  0.00     0.020 C 
HETATM    6  C13 UNL     1      -2.904  -3.792   0.368  1.00  0.00     0.004 C 
HETATM    7  C14 UNL     1      -2.241  -3.472   1.650  1.00  0.00     0.035 C 
HETATM    8  C15 UNL     1      -1.472  -2.125   1.563  1.00  0.00     0.179 C 
ENDROOT
BRANCH   1   9
HETATM    9  C9  UNL     1       1.933  -1.661  -0.212  1.00  0.00     0.135 C 
BRANCH   9  10
HETATM   10  C8  UNL     1       2.792  -0.421  -0.158  1.00  0.00     0.134 C 
BRANCH  10  11
HETATM   11  C7  UNL     1       2.049   0.792  -0.640  1.00  0.00     0.046 C 
BRANCH  11  12
HETATM   12  C4  UNL     1       2.887   2.051  -0.622  1.00  0.00    -0.023 C 
HETATM   13  C5  UNL     1       1.886   3.169  -0.996  1.00  0.00     0.019 C 
HETATM   14  C6  UNL     1       3.917   2.081  -1.710  1.00  0.00     0.019 C 
BRANCH  12  15
HETATM   15  C2  UNL     1       3.388   2.419   0.716  1.00  0.00    -0.085 C 
HETATM   16  C1  UNL     1       4.656   2.659   0.936  1.00  0.00     0.014 C 
HETATM   17  C3  UNL     1       2.423   2.527   1.837  1.00  0.00     0.043 C 
ENDBRANCH  12  15
ENDBRANCH  11  12
ENDBRANCH  10  11
BRANCH  10  18
HETATM   18  O1  UNL     1       3.885  -0.549  -1.036  1.00  0.00    -0.395 OA
ATOM     19  H1  UNL     1       4.355  -1.316  -0.731  1.00  0.00     0.210 HD
ENDBRANCH  10  18
ENDBRANCH   9  10
BRANCH   9  20
HETATM   20  C23 UNL     1       2.784  -2.891   0.029  1.00  0.00     0.129 C 
HETATM   21  C24 UNL     1       3.474  -2.876   1.374  1.00  0.00     0.040 C 
BRANCH  20  22
HETATM   22  O5  UNL     1       3.844  -2.901  -0.912  1.00  0.00    -0.395 OA
ATOM     23  H5  UNL     1       4.378  -3.672  -0.761  1.00  0.00     0.210 HD
ENDBRANCH  20  22
ENDBRANCH   9  20
ENDBRANCH   1   9
BRANCH   8  24
HETATM   24  C16 UNL     1      -2.412  -1.035   1.309  1.00  0.00     0.241 C 
HETATM   25  O3  UNL     1      -3.329  -0.899   2.199  1.00  0.00    -0.271 OA
HETATM   26  N2  UNL     1      -2.474  -0.126   0.264  1.00  0.00    -0.348 N 
ATOM     27  H2  UNL     1      -1.761  -0.196  -0.462  1.00  0.00     0.163 HD
BRANCH  26  28
HETATM   28  C17 UNL     1      -3.480   0.925   0.120  1.00  0.00     0.157 C 
BRANCH  28  29
HETATM   29  C18 UNL     1      -4.332   0.612  -1.083  1.00  0.00     0.145 C 
HETATM   30  C19 UNL     1      -5.489   1.403  -1.544  1.00  0.00     0.093 C 
HETATM   31  O4  UNL     1      -4.068  -0.390  -1.765  1.00  0.00    -0.296 OA
ENDBRANCH  28  29
BRANCH  28  32
HETATM   32  C20 UNL     1      -2.922   2.284   0.156  1.00  0.00     0.007 C 
HETATM   33  C21 UNL     1      -1.947   2.659  -0.893  1.00  0.00     0.012 C 
HETATM   34  C22 UNL     1      -3.998   3.317   0.294  1.00  0.00     0.012 C 
ENDBRANCH  28  32
ENDBRANCH  26  28
ENDBRANCH   8  24
TORSDOF 12
