REMARK  16 active torsions:
REMARK  status: ('A' for Active; 'I' for Inactive)
REMARK    1  A    between atoms: N2_3  and  C2_5 
REMARK    2  A    between atoms: C2_5  and  N3_6 
REMARK    3  A    between atoms: C2_5  and  C10_41 
REMARK    4  A    between atoms: N3_6  and  C3_8 
REMARK    5  A    between atoms: C3_8  and  O1_9 
REMARK    6  A    between atoms: C3_8  and  C4_11 
REMARK    7  A    between atoms: C6_15  and  N5_16 
REMARK    8  A    between atoms: N5_16  and  N6_18 
REMARK    9  A    between atoms: N6_18  and  C7_20 
REMARK   10  A    between atoms: N8_23  and  N9_24 
REMARK   11  A    between atoms: C9_32  and  N12_33 
REMARK   12  A    between atoms: C12_43  and  N16_44 
REMARK   13  A    between atoms: N16_44  and  C13_46 
REMARK   14  A    between atoms: C13_46  and  O2_47 
REMARK   15  A    between atoms: C13_46  and  O3_49 
REMARK   16  A    between atoms: C14_53  and  N18_54 
ROOT
HETATM    1  N1  UNL     1       4.093  -0.383   4.034  1.00  0.00    -0.172 NA
HETATM    2  C1  UNL     1       3.293  -0.502   3.206  1.00  0.00     0.179 C 
HETATM    3  N2  UNL     1       2.335  -0.635   2.219  1.00  0.00    -0.301 N 
ATOM      4  H2  UNL     1       1.685  -1.419   2.270  1.00  0.00     0.174 HD
ENDROOT
BRANCH   3   5
HETATM    5  C2  UNL     1       2.216   0.301   1.107  1.00  0.00     0.241 C 
BRANCH   5   6
HETATM    6  N3  UNL     1       1.941   1.628   1.487  1.00  0.00    -0.365 N 
ATOM      7  H3  UNL     1       2.604   2.366   1.250  1.00  0.00     0.158 HD
BRANCH   6   8
HETATM    8  C3  UNL     1       0.771   1.950   2.186  1.00  0.00     0.285 C 
BRANCH   8   9
HETATM    9  O1  UNL     1       0.740   1.228   3.402  1.00  0.00    -0.370 OA
ATOM     10  H1  UNL     1      -0.054   1.446   3.876  1.00  0.00     0.212 HD
ENDBRANCH   8   9
BRANCH   8  11
HETATM   11  C4  UNL     1      -0.501   1.857   1.472  1.00  0.00     0.145 A 
HETATM   12  N4  UNL     1      -0.836   0.818   0.689  1.00  0.00    -0.347 N 
HETATM   13  C5  UNL     1      -2.003   0.733   0.035  1.00  0.00     0.140 A 
ATOM     14  H4  UNL     1      -0.168   0.054   0.587  1.00  0.00     0.166 HD
HETATM   15  C6  UNL     1      -2.934   1.744   0.145  1.00  0.00     0.150 A 
HETATM   16  N14 UNL     1      -2.591   2.780   0.931  1.00  0.00    -0.282 N 
HETATM   17  N15 UNL     1      -1.421   2.842   1.573  1.00  0.00    -0.284 N 
ATOM     18  H14 UNL     1      -3.251   3.550   1.041  1.00  0.00     0.188 HD
ATOM     19  H15 UNL     1      -1.217   3.654   2.155  1.00  0.00     0.188 HD
BRANCH  15  20
HETATM   20  N5  UNL     1      -4.190   1.694  -0.535  1.00  0.00    -0.269 N 
ATOM     21  H5  UNL     1      -4.860   2.456  -0.434  1.00  0.00     0.189 HD
BRANCH  20  22
HETATM   22  N6  UNL     1      -4.492   0.595  -1.337  1.00  0.00    -0.128 N 
ATOM     23  H6  UNL     1      -4.022   0.491  -2.236  1.00  0.00     0.205 HD
BRANCH  22  24
HETATM   24  C7  UNL     1      -5.438  -0.383  -0.932  1.00  0.00     0.750 A 
HETATM   25  N7  UNL     1      -5.243  -1.517  -0.228  1.00  0.00    -0.093 N 
HETATM   26  N8  UNL     1      -6.376  -2.165  -0.052  1.00  0.00    -0.009 N 
ATOM     27  H7  UNL     1      -4.338  -1.831   0.122  1.00  0.00     0.208 HD
HETATM   28  C8  UNL     1      -7.328  -1.439  -0.653  1.00  0.00     0.770 A 
HETATM   29  N10 UNL     1      -8.644  -1.423  -0.901  1.00  0.00    -0.113 N 
HETATM   30  N13 UNL     1      -6.759  -0.348  -1.192  1.00  0.00     0.207 N 
HETATM   31  N11 UNL     1      -8.910  -0.332  -1.593  1.00  0.00    -0.116 N 
ATOM     32  H10 UNL     1      -9.320  -2.128  -0.607  1.00  0.00     0.206 HD
HETATM   33  C9  UNL     1      -7.774   0.327  -1.775  1.00  0.00     0.727 A 
ATOM     34  H11 UNL     1      -9.829  -0.045  -1.929  1.00  0.00     0.206 HD
BRANCH  26  35
HETATM   35  N9  UNL     1      -6.532  -3.368   0.629  1.00  0.00    -0.308 N 
ATOM     36  H92 UNL     1      -5.807  -3.921   1.087  1.00  0.00     0.179 HD
ATOM     37  H91 UNL     1      -7.409  -3.870   0.765  1.00  0.00     0.179 HD
ENDBRANCH  26  35
BRANCH  33  38
HETATM   38  N12 UNL     1      -7.614   1.438  -2.401  1.00  0.00    -0.232 N 
ATOM     39 2H12 UNL     1      -8.380   1.948  -2.841  1.00  0.00     0.174 HD
ATOM     40 1H12 UNL     1      -6.740   1.945  -2.541  1.00  0.00     0.174 HD
ENDBRANCH  33  38
ENDBRANCH  22  24
ENDBRANCH  20  22
ENDBRANCH  15  20
ENDBRANCH   8  11
ENDBRANCH   6   8
ENDBRANCH   5   6
BRANCH   5  41
HETATM   41  C10 UNL     1       3.572   0.285   0.459  1.00  0.00     0.072 A 
HETATM   42  C11 UNL     1       4.266  -0.885   0.212  1.00  0.00     0.078 A 
HETATM   43  C12 UNL     1       5.521  -0.860  -0.393  1.00  0.00     0.122 A 
HETATM   44  N17 UNL     1       6.063   0.312  -0.739  1.00  0.00    -0.177 N 
HETATM   45  C14 UNL     1       5.385   1.433  -0.496  1.00  0.00     0.677 A 
ATOM     46  H17 UNL     1       6.981   0.348  -1.182  1.00  0.00     0.185 HD
HETATM   47  N19 UNL     1       4.176   1.425   0.085  1.00  0.00    -0.192 N 
ATOM     48  H19 UNL     1       3.700   2.312   0.248  1.00  0.00     0.184 HD
BRANCH  43  49
HETATM   49  N16 UNL     1       6.134  -1.949  -0.607  1.00  0.00    -0.328 N 
ATOM     50  H16 UNL     1       5.669  -2.810  -0.320  1.00  0.00     0.166 HD
BRANCH  49  51
HETATM   51  C13 UNL     1       7.425  -2.072  -1.218  1.00  0.00     0.366 C 
BRANCH  51  52
HETATM   52  O2  UNL     1       7.941  -3.356  -1.114  1.00  0.00    -0.355 OA
ATOM     53  H2  UNL     1       8.797  -3.438  -1.519  1.00  0.00     0.214 HD
ENDBRANCH  51  52
BRANCH  51  54
HETATM   54  O3  UNL     1       7.311  -1.746  -2.573  1.00  0.00    -0.355 OA
ATOM     55  H3  UNL     1       8.167  -1.828  -2.978  1.00  0.00     0.214 HD
ENDBRANCH  51  54
ENDBRANCH  49  51
ENDBRANCH  43  49
BRANCH  45  56
HETATM   56  N18 UNL     1       5.925   2.574  -0.840  1.00  0.00    -0.234 N 
ATOM     57 2H18 UNL     1       6.844   2.580  -1.282  1.00  0.00     0.174 HD
ATOM     58 1H18 UNL     1       5.406   3.432  -0.654  1.00  0.00     0.174 HD
ENDBRANCH  45  56
ENDBRANCH   5  41
ENDBRANCH   3   5
TORSDOF 16
