REMARK  11 active torsions:
REMARK  status: ('A' for Active; 'I' for Inactive)
REMARK    1  A    between atoms: C2_2  and  C3_3 
REMARK    2  A    between atoms: C3_3  and  C4_4 
REMARK    3  A    between atoms: C4_4  and  C5_5 
REMARK    4  A    between atoms: C4_4  and  C7_7 
REMARK    5  A    between atoms: C7_7  and  C8_8 
REMARK    6  A    between atoms: C8_8  and  O1_10 
REMARK    7  A    between atoms: O1_10  and  C10_11 
REMARK    8  A    between atoms: C13_14  and  O2_15 
REMARK    9  A    between atoms: C22_25  and  O3_26 
REMARK   10  A    between atoms: C25_30  and  C26_31 
REMARK   11  A    between atoms: C27_32  and  C29_34 
ROOT
HETATM    1  C10 UNL     1       0.826  -0.091  -1.166  1.00  0.00     0.122 C 
HETATM    2  C11 UNL     1       0.002  -0.769  -2.241  1.00  0.00     0.035 C 
HETATM    3  C12 UNL     1      -1.442  -0.245  -2.088  1.00  0.00     0.042 C 
HETATM    4  C13 UNL     1      -2.041  -0.787  -0.832  1.00  0.00     0.073 C 
HETATM    5  C14 UNL     1      -1.046  -0.857   0.231  1.00  0.00     0.027 C 
HETATM    6  C15 UNL     1       0.118   0.104   0.138  1.00  0.00     0.040 C 
HETATM    7  C16 UNL     1      -1.531  -1.016   1.647  1.00  0.00    -0.011 C 
HETATM    8  C17 UNL     1      -0.429  -0.714   2.608  1.00  0.00     0.010 C 
HETATM    9  C18 UNL     1      -2.752  -0.195   1.884  1.00  0.00     0.011 C 
HETATM   10  C19 UNL     1      -3.760  -0.597   0.836  1.00  0.00     0.007 C 
HETATM   11  C20 UNL     1      -5.170  -0.538   1.242  1.00  0.00     0.015 C 
HETATM   12  C21 UNL     1      -5.260  -1.145   2.640  1.00  0.00     0.013 C 
HETATM   13  C22 UNL     1      -5.958  -1.427   0.324  1.00  0.00     0.122 C 
HETATM   14  C23 UNL     1      -5.378  -1.614  -1.019  1.00  0.00     0.033 C 
HETATM   15  C24 UNL     1      -4.337  -0.693  -1.508  1.00  0.00     0.019 C 
HETATM   16  C25 UNL     1      -3.384  -0.094  -0.528  1.00  0.00     0.013 C 
ENDROOT
BRANCH   1  17
HETATM   17  O1  UNL     1       1.970  -0.886  -0.924  1.00  0.00    -0.377 OA
BRANCH  17  18
HETATM   18  C8  UNL     1       3.158  -0.182  -1.233  1.00  0.00     0.141 C 
HETATM   19  C9  UNL     1       3.926  -0.891  -2.295  1.00  0.00     0.044 C 
BRANCH  18  20
HETATM   20  C7  UNL     1       3.886  -0.000   0.032  1.00  0.00     0.011 C 
BRANCH  20  21
HETATM   21  C4  UNL     1       5.138   0.795   0.116  1.00  0.00    -0.064 C 
BRANCH  21  22
HETATM   22  C3  UNL     1       6.328   0.390  -0.616  1.00  0.00    -0.020 C 
BRANCH  22  23
HETATM   23  C2  UNL     1       7.126  -0.788  -0.241  1.00  0.00     0.023 C 
HETATM   24  C1  UNL     1       7.773  -0.764   1.098  1.00  0.00     0.009 C 
ENDBRANCH  22  23
ENDBRANCH  21  22
BRANCH  21  25
HETATM   25  C5  UNL     1       5.285   1.202   1.568  1.00  0.00     0.033 C 
HETATM   26  C6  UNL     1       6.175   2.397   1.723  1.00  0.00     0.010 C 
ENDBRANCH  21  25
ENDBRANCH  20  21
ENDBRANCH  18  20
ENDBRANCH  17  18
ENDBRANCH   1  17
BRANCH   4  27
HETATM   27  O2  UNL     1      -2.355  -2.153  -1.174  1.00  0.00    -0.388 OA
ATOM     28  H2  UNL     1      -2.736  -2.498  -0.375  1.00  0.00     0.210 HD
ENDBRANCH   4  27
BRANCH  16  29
HETATM   29  C26 UNL     1      -3.260   1.317  -0.707  1.00  0.00    -0.004 C 
HETATM   30  C27 UNL     1      -3.872   2.407  -0.923  1.00  0.00    -0.027 C 
HETATM   31  C28 UNL     1      -3.039   3.725  -1.015  1.00  0.00     0.051 C 
BRANCH  30  32
HETATM   32  C29 UNL     1      -5.239   2.719  -1.081  1.00  0.00     0.265 C 
HETATM   33  O4  UNL     1      -6.193   1.933  -1.028  1.00  0.00    -0.302 OA
ENDBRANCH  30  32
ENDBRANCH  16  29
BRANCH  13  34
HETATM   34  O3  UNL     1      -7.289  -0.988   0.218  1.00  0.00    -0.395 OA
ATOM     35  H3  UNL     1      -7.788  -1.551  -0.363  1.00  0.00     0.210 HD
ENDBRANCH  13  34
TORSDOF 11
