REMARK  7 active torsions:
REMARK  status: ('A' for Active; 'I' for Inactive)
REMARK    1  A    between atoms: O1_2  and  C2_3 
REMARK    2  A    between atoms: N1_11  and  O2_13 
REMARK    3  A    between atoms: C16_22  and  C17_24 
REMARK    4  A    between atoms: C17_24  and  C18_26 
REMARK    5  A    between atoms: C18_26  and  O5_27 
REMARK    6  A    between atoms: C18_26  and  C19_29 
REMARK    7  A    between atoms: C25_36  and  O7_37 
ROOT
HETATM    1  C2  UNL     1      -0.584   2.122   0.592  1.00  0.00     0.154 C 
HETATM    2  C3  UNL     1      -1.905   1.615   0.851  1.00  0.00     0.044 C 
HETATM    3  C4  UNL     1      -2.871   1.011  -0.082  1.00  0.00    -0.041 C 
HETATM    4  C5  UNL     1      -4.252   1.529   0.458  1.00  0.00     0.015 C 
HETATM    5  C6  UNL     1      -2.942   1.495  -1.465  1.00  0.00     0.015 C 
HETATM    6  C7  UNL     1      -3.075  -0.480   0.096  1.00  0.00     0.007 C 
HETATM    7  C8  UNL     1      -4.490  -0.909  -0.341  1.00  0.00     0.060 C 
HETATM    8  C9  UNL     1      -4.701  -2.322   0.075  1.00  0.00     0.010 C 
HETATM    9  N1  UNL     1      -5.555  -2.727   0.940  1.00  0.00    -0.277 N 
ATOM     10  H1  UNL     1      -6.156  -2.042   1.400  1.00  0.00     0.193 HD
HETATM   11  C10 UNL     1      -3.839  -3.311  -0.585  1.00  0.00     0.055 C 
HETATM   12  C11 UNL     1      -2.739  -2.546  -1.215  1.00  0.00     0.015 C 
HETATM   13  C12 UNL     1      -2.114  -1.468  -0.287  1.00  0.00    -0.032 C 
HETATM   14  C13 UNL     1      -1.661  -2.314   0.931  1.00  0.00     0.016 C 
HETATM   15  C14 UNL     1      -0.865  -1.182  -1.011  1.00  0.00     0.092 C 
HETATM   16  C15 UNL     1       0.170  -0.372  -0.340  1.00  0.00     0.177 C 
HETATM   17  O3  UNL     1       0.441  -0.709   0.804  1.00  0.00    -0.294 OA
HETATM   18  C16 UNL     1       0.851   0.792  -1.014  1.00  0.00     0.253 C 
HETATM   19  F1  UNL     1       0.542   0.555  -2.384  1.00  0.00    -0.223 F 
HETATM   20  C25 UNL     1       0.119   2.086  -0.714  1.00  0.00     0.205 C 
ENDROOT
BRANCH  18  21
HETATM   21  C17 UNL     1       2.287   0.825  -0.914  1.00  0.00     0.205 C 
HETATM   22  O4  UNL     1       2.934   0.848  -1.991  1.00  0.00    -0.291 OA
BRANCH  21  23
HETATM   23  C18 UNL     1       3.251   0.841   0.184  1.00  0.00     0.195 C 
BRANCH  23  24
HETATM   24  O5  UNL     1       2.838   0.732   1.461  1.00  0.00    -0.388 OA
ATOM     25  H5  UNL     1       3.465   0.742   2.175  1.00  0.00     0.210 HD
ENDBRANCH  23  24
BRANCH  23  26
HETATM   26  C19 UNL     1       4.336  -0.216  -0.015  1.00  0.00     0.022 C 
HETATM   27  C20 UNL     1       5.285  -0.117   1.178  1.00  0.00     0.015 C 
HETATM   28  C21 UNL     1       6.382  -1.155   1.035  1.00  0.00     0.079 C 
HETATM   29  C22 UNL     1       6.275  -1.915  -0.224  1.00  0.00     0.127 C 
HETATM   30  O6  UNL     1       7.238  -2.089  -0.926  1.00  0.00    -0.298 OA
HETATM   31  C23 UNL     1       4.962  -2.474  -0.635  1.00  0.00     0.079 C 
HETATM   32  C24 UNL     1       3.837  -1.609  -0.089  1.00  0.00     0.015 C 
ENDBRANCH  23  26
ENDBRANCH  21  23
ENDBRANCH  18  21
BRANCH  20  33
HETATM   33  O7  UNL     1       1.190   3.022  -0.647  1.00  0.00    -0.384 OA
HETATM   34  C26 UNL     1       1.130   4.011  -1.579  1.00  0.00     0.202 C 
ENDBRANCH  20  33
BRANCH   1  35
HETATM   35  O1  UNL     1      -0.503   3.495   0.990  1.00  0.00    -0.388 OA
HETATM   36  C1  UNL     1       0.373   3.712   2.016  1.00  0.00     0.202 C 
ENDBRANCH   1  35
BRANCH   9  37
HETATM   37  O2  UNL     1      -5.685  -4.035   1.263  1.00  0.00    -0.290 OA
ATOM     38  H2  UNL     1      -6.318  -4.335   1.904  1.00  0.00     0.244 HD
ENDBRANCH   9  37
TORSDOF 7
