REMARK  13 active torsions:
REMARK  status: ('A' for Active; 'I' for Inactive)
REMARK    1  A    between atoms: C2_2  and  C4_4 
REMARK    2  A    between atoms: C4_4  and  C5_5 
REMARK    3  A    between atoms: C5_5  and  O1_6 
REMARK    4  A    between atoms: O1_6  and  C6_7 
REMARK       I    between atoms: C6_7  and  N1_9 
REMARK    5  A    between atoms: N1_9  and  C7_10 
REMARK    6  A    between atoms: C9_12  and  C10_13 
REMARK       I    between atoms: C10_13  and  N2_15 
REMARK    7  A    between atoms: N2_15  and  N3_17 
REMARK    8  A    between atoms: N3_17  and  C11_19 
REMARK    9  A    between atoms: C13_21  and  O4_22 
REMARK   10  A    between atoms: C14_26  and  O5_27 
REMARK       I    between atoms: N5_29  and  C15_30 
REMARK   11  A    between atoms: C15_30  and  C16_32 
REMARK       I    between atoms: C16_32  and  N6_34 
REMARK   12  A    between atoms: N6_34  and  O8_36 
REMARK   13  A    between atoms: O8_36  and  S1_37 
ROOT
HETATM    1  C7  UNL     1       0.478   0.622  -1.537  1.00  0.00     0.193 C 
HETATM    2  C8  UNL     1       0.341  -0.943  -1.649  1.00  0.00     0.104 C 
HETATM    3  C9  UNL     1      -0.640  -1.190  -0.550  1.00  0.00     0.087 C 
HETATM    4  N5  UNL     1      -0.834  -0.018   0.243  1.00  0.00    -0.305 N 
HETATM    5  C15 UNL     1      -1.931   0.489   0.941  1.00  0.00     0.318 C 
HETATM    6  O6  UNL     1      -2.841  -0.305   1.170  1.00  0.00    -0.262 OA
HETATM    7  C19 UNL     1       0.366   0.745   0.045  1.00  0.00     0.172 C 
ENDROOT
BRANCH   3   8
HETATM    8  C10 UNL     1      -0.540  -2.509  -0.008  1.00  0.00     0.282 C 
HETATM    9  O3  UNL     1       0.423  -3.073   0.483  1.00  0.00    -0.265 OA
HETATM   10  N2  UNL     1      -1.798  -3.212  -0.069  1.00  0.00    -0.264 N 
ATOM     11  H2  UNL     1      -2.712  -2.791  -0.235  1.00  0.00     0.190 HD
BRANCH  10  12
HETATM   12  N3  UNL     1      -1.518  -4.716   0.162  1.00  0.00    -0.294 N 
ATOM     13  H3  UNL     1      -0.653  -5.231   0.325  1.00  0.00     0.187 HD
BRANCH  12  14
HETATM   14  C11 UNL     1      -2.956  -5.166   0.065  1.00  0.00     0.103 A 
HETATM   15  C12 UNL     1      -3.646  -6.048   0.787  1.00  0.00     0.091 A 
HETATM   16  C13 UNL     1      -4.930  -6.045   0.156  1.00  0.00     0.144 A 
HETATM   17  N4  UNL     1      -4.987  -4.999  -0.876  1.00  0.00    -0.316 N 
HETATM   18  C14 UNL     1      -3.590  -4.529  -0.866  1.00  0.00     0.171 A 
ATOM     19  H4  UNL     1      -5.775  -4.685  -1.442  1.00  0.00     0.170 HD
BRANCH  16  20
HETATM   20  O4  UNL     1      -6.004  -6.894   0.336  1.00  0.00    -0.346 OA
ATOM     21  H4  UNL     1      -6.857  -6.892  -0.083  1.00  0.00     0.219 HD
ENDBRANCH  16  20
BRANCH  18  22
HETATM   22  O5  UNL     1      -3.288  -3.592  -1.748  1.00  0.00    -0.344 OA
ATOM     23  H5  UNL     1      -3.753  -3.124  -2.431  1.00  0.00     0.219 HD
ENDBRANCH  18  22
ENDBRANCH  12  14
ENDBRANCH  10  12
ENDBRANCH   3   8
BRANCH   1  24
HETATM   24  N1  UNL     1       1.799   0.786  -1.711  1.00  0.00    -0.383 NA
HETATM   25  C6  UNL     1       3.093   0.947  -1.882  1.00  0.00     0.435 C 
HETATM   26  O2  UNL     1       4.032   1.387  -2.335  1.00  0.00    -0.221 OA
BRANCH  25  27
HETATM   27  O1  UNL     1       3.408  -0.180  -0.736  1.00  0.00    -0.293 OA
BRANCH  27  28
HETATM   28  C5  UNL     1       4.691  -0.642  -0.545  1.00  0.00     0.182 C 
BRANCH  28  29
HETATM   29  C4  UNL     1       5.490   0.555  -0.057  1.00  0.00     0.031 C 
BRANCH  29  30
HETATM   30  C2  UNL     1       6.365   0.103   1.079  1.00  0.00    -0.021 C 
HETATM   31  C1  UNL     1       7.073   1.307   1.624  1.00  0.00     0.009 C 
HETATM   32  C3  UNL     1       7.326  -0.940   0.701  1.00  0.00     0.009 C 
ENDBRANCH  29  30
ENDBRANCH  28  29
ENDBRANCH  27  28
ENDBRANCH  25  27
ENDBRANCH   1  24
BRANCH   5  33
HETATM   33  C16 UNL     1      -2.025   1.818   1.345  1.00  0.00     0.334 C 
HETATM   34  O7  UNL     1      -1.606   2.244   2.438  1.00  0.00    -0.260 OA
HETATM   35  N6  UNL     1      -2.541   2.765   0.342  1.00  0.00    -0.212 N 
ATOM     36  H6  UNL     1      -2.824   2.455  -0.588  1.00  0.00     0.199 HD
BRANCH  35  37
HETATM   37  O8  UNL     1      -2.624   4.081   0.715  1.00  0.00    -0.185 OA
BRANCH  37  38
HETATM   38  S1  UNL     1      -3.935   4.918   0.507  1.00  0.00     0.074 S 
HETATM   39  C17 UNL     1      -3.855   6.090   1.862  1.00  0.00     0.145 C 
HETATM   40  C18 UNL     1      -5.140   3.634   0.074  1.00  0.00     0.145 C 
HETATM   41  O9  UNL     1      -2.771   5.484  -1.139  1.00  0.00    -0.242 OA
ENDBRANCH  37  38
ENDBRANCH  35  37
ENDBRANCH   5  33
TORSDOF 13
