REMARK  5 active torsions:
REMARK  status: ('A' for Active; 'I' for Inactive)
REMARK    1  A    between atoms: C2_2  and  N1_3 
REMARK    2  A    between atoms: C2_2  and  C3_7 
REMARK    3  A    between atoms: C3_7  and  C4_8 
REMARK    4  A    between atoms: C5_9  and  C6_10 
REMARK    5  A    between atoms: C11_18  and  O1_19 
ROOT
HETATM    1  C6  UNL     1       1.701   0.396  -0.089  1.00  0.00     0.000 A 
HETATM    2  C7  UNL     1       2.069  -0.886   0.237  1.00  0.00     0.040 A 
HETATM    3  C8  UNL     1       3.389  -1.307   0.043  1.00  0.00     0.058 A 
HETATM    4 CL1  UNL     1       3.877  -2.940   0.453  1.00  0.00    -0.082 Cl
HETATM    5  C9  UNL     1       4.319  -0.439  -0.473  1.00  0.00     0.080 A 
HETATM    6 CL2  UNL     1       5.973  -1.023  -0.698  1.00  0.00    -0.081 Cl
HETATM    7  C10 UNL     1       3.963   0.846  -0.803  1.00  0.00     0.091 A 
HETATM    8 CL3  UNL     1       5.136   1.965  -1.462  1.00  0.00    -0.079 Cl
HETATM    9  C11 UNL     1       2.638   1.264  -0.607  1.00  0.00     0.099 A 
ENDROOT
BRANCH   1  10
HETATM   10  C5  UNL     1       0.345   0.848   0.104  1.00  0.00     0.010 C 
HETATM   11  C4  UNL     1      -0.566   0.040   0.596  1.00  0.00    -0.024 C 
BRANCH  11  12
HETATM   12  C3  UNL     1      -1.967   0.535   0.787  1.00  0.00     0.059 C 
BRANCH  12  13
HETATM   13  C2  UNL     1      -2.856  -0.371  -0.077  1.00  0.00     0.183 C 
HETATM   14  C1  UNL     1      -4.261   0.107   0.098  1.00  0.00     0.040 C 
BRANCH  13  15
HETATM   15  N1  UNL     1      -2.677  -1.728   0.406  1.00  0.00    -0.075 N 
ATOM     16  H13 UNL     1      -2.980  -1.818   1.376  1.00  0.00     0.274 HD
ATOM     17  H12 UNL     1      -3.342  -2.367  -0.031  1.00  0.00     0.274 HD
ATOM     18  H11 UNL     1      -1.718  -2.054   0.287  1.00  0.00     0.274 HD
ENDBRANCH  13  15
ENDBRANCH  12  13
ENDBRANCH  11  12
ENDBRANCH   1  10
BRANCH   9  19
HETATM   19  O1  UNL     1       2.338   2.539  -0.947  1.00  0.00    -0.358 OA
ATOM     20  H1  UNL     1       2.984   3.137  -1.304  1.00  0.00     0.217 HD
ENDBRANCH   9  19
TORSDOF 5
