REMARK  10 active torsions:
REMARK  status: ('A' for Active; 'I' for Inactive)
REMARK    1  A    between atoms: C2_2  and  C3_3 
REMARK    2  A    between atoms: C3_3  and  C4_4 
REMARK    3  A    between atoms: C4_4  and  C5_5 
REMARK    4  A    between atoms: C5_5  and  N1_6 
REMARK       I    between atoms: N1_6  and  C6_8 
REMARK    5  A    between atoms: C6_8  and  C7_10 
REMARK    6  A    between atoms: C9_12  and  C10_13 
REMARK       I    between atoms: C10_13  and  N2_15 
REMARK    7  A    between atoms: N3_19  and  C13_20 
REMARK    8  A    between atoms: C13_20  and  N4_22 
REMARK    9  A    between atoms: N4_22  and  C14_24 
REMARK   10  A    between atoms: C14_24  and  C15_25 
ROOT
HETATM    1  C7  UNL     1      -0.137   0.860   0.403  1.00  0.00     0.182 C 
HETATM    2  C8  UNL     1      -0.401   1.795  -0.759  1.00  0.00     0.070 C 
HETATM    3  C9  UNL     1      -1.786   1.294  -0.635  1.00  0.00     0.182 C 
HETATM    4  N3  UNL     1      -1.267   0.109   0.028  1.00  0.00    -0.331 N 
ENDROOT
BRANCH   1   5
HETATM    5  C6  UNL     1       1.227   0.282   0.173  1.00  0.00     0.244 C 
HETATM    6  N1  UNL     1       2.318   0.970   0.691  1.00  0.00    -0.339 N 
ATOM      7  H1  UNL     1       2.038   1.807   1.202  1.00  0.00     0.167 HD
HETATM    8  O1  UNL     1       1.312  -0.765  -0.458  1.00  0.00    -0.271 OA
BRANCH   6   9
HETATM    9  C5  UNL     1       3.714   0.795   0.684  1.00  0.00     0.064 C 
BRANCH   9  10
HETATM   10  C4  UNL     1       4.415   0.944  -0.587  1.00  0.00     0.048 C 
BRANCH  10  11
HETATM   11  C3  UNL     1       4.169   0.006  -1.682  1.00  0.00     0.031 C 
BRANCH  11  12
HETATM   12  C2  UNL     1       4.613  -1.365  -1.381  1.00  0.00    -0.037 C 
HETATM   13  C1  UNL     1       5.398  -1.711  -0.391  1.00  0.00     0.007 C 
ENDBRANCH  11  12
ENDBRANCH  10  11
ENDBRANCH   9  10
ENDBRANCH   6   9
ENDBRANCH   1   5
BRANCH   4  14
HETATM   14  C13 UNL     1      -1.886  -1.183   0.142  1.00  0.00     0.171 C 
HETATM   15  S1  UNL     1      -3.326  -1.512  -0.606  1.00  0.00    -0.041 SA
BRANCH  14  16
HETATM   16  N4  UNL     1      -1.323  -2.261   0.874  1.00  0.00    -0.366 N 
ATOM     17  H4  UNL     1      -0.431  -2.084   1.336  1.00  0.00     0.161 HD
BRANCH  16  18
HETATM   18  C14 UNL     1      -1.875  -3.562   1.029  1.00  0.00     0.133 C 
BRANCH  18  19
HETATM   19  C15 UNL     1      -3.099  -3.685   1.858  1.00  0.00     0.104 C 
HETATM   20 BR1  UNL     1      -2.858  -3.093   3.669  1.00  0.00    -0.095 Br
ENDBRANCH  18  19
ENDBRANCH  16  18
ENDBRANCH  14  16
ENDBRANCH   4  14
BRANCH   3  21
HETATM   21  C10 UNL     1      -2.598   2.148   0.289  1.00  0.00     0.244 C 
HETATM   22  O2  UNL     1      -2.742   1.780   1.479  1.00  0.00    -0.271 OA
HETATM   23  N2  UNL     1      -3.212   3.354  -0.121  1.00  0.00    -0.339 N 
HETATM   24  C11 UNL     1      -4.432   3.414  -0.546  1.00  0.00     0.059 C 
ATOM     25  H2  UNL     1      -2.668   4.216  -0.080  1.00  0.00     0.167 HD
HETATM   26  C12 UNL     1      -5.272   2.207  -0.631  1.00  0.00     0.055 C 
ENDBRANCH   3  21
TORSDOF 10
