REMARK  3 active torsions:
REMARK  status: ('A' for Active; 'I' for Inactive)
REMARK    1  A    between atoms: C5_9  and  N2_10 
REMARK    2  A    between atoms: N2_10  and  C6_12 
REMARK    3  A    between atoms: C6_12  and  C7_13 
ROOT
HETATM    1  N2  UNL     1       0.023  -1.173  -1.269  1.00  0.00    -0.350 N 
ATOM      2  H2  UNL     1       0.053  -1.613  -2.188  1.00  0.00     0.166 HD
ENDROOT
BRANCH   1   3
HETATM    3  C5  UNL     1       1.298  -0.894  -0.884  1.00  0.00     0.134 A 
HETATM    4  C4  UNL     1       2.343  -1.242  -1.730  1.00  0.00     0.145 A 
HETATM    5  C3  UNL     1       3.681  -0.925  -1.464  1.00  0.00     0.272 A 
HETATM    6 CL1  UNL     1       2.008  -2.123  -3.190  1.00  0.00    -0.074 Cl
HETATM    7  N1  UNL     1       3.943  -0.259  -0.353  1.00  0.00    -0.312 N 
HETATM    8  O1  UNL     1       4.567  -1.276  -2.251  1.00  0.00    -0.266 OA
HETATM    9  C2  UNL     1       2.972   0.106   0.504  1.00  0.00     0.081 A 
ATOM     10  H1  UNL     1       4.910  -0.014  -0.139  1.00  0.00     0.170 HD
HETATM   11  C1  UNL     1       3.417   0.858   1.699  1.00  0.00     0.089 C 
HETATM   12  N4  UNL     1       1.702  -0.210   0.237  1.00  0.00    -0.331 N 
ATOM     13  H4  UNL     1       0.987   0.074   0.907  1.00  0.00     0.168 HD
ENDBRANCH   1   3
BRANCH   1  14
HETATM   14  C6  UNL     1      -1.319  -1.078  -0.867  1.00  0.00     0.104 C 
BRANCH  14  15
HETATM   15  C7  UNL     1      -1.803   0.118  -0.239  1.00  0.00     0.023 A 
HETATM   16  C8  UNL     1      -2.052   1.243  -1.073  1.00  0.00     0.050 A 
HETATM   17 CL2  UNL     1      -1.281   1.249  -2.648  1.00  0.00    -0.083 Cl
HETATM   18  C9  UNL     1      -2.782   2.291  -0.649  1.00  0.00     0.067 A 
HETATM   19  C10 UNL     1      -3.299   2.274   0.628  1.00  0.00     0.105 A 
HETATM   20 CL3  UNL     1      -4.271   3.583   1.249  1.00  0.00    -0.065 Cl
HETATM   21  N3  UNL     1      -3.056   1.198   1.442  1.00  0.00    -0.350 N 
HETATM   22  C11 UNL     1      -2.332   0.126   1.043  1.00  0.00     0.019 A 
ATOM     23  H3  UNL     1      -3.437   1.205   2.388  1.00  0.00     0.166 HD
HETATM   24  C12 UNL     1      -2.219  -1.083   1.869  1.00  0.00     0.069 C 
ENDBRANCH  14  15
ENDBRANCH   1  14
TORSDOF 3
