REMARK  6 active torsions:
REMARK  status: ('A' for Active; 'I' for Inactive)
REMARK    1  A    between atoms: C2_2  and  C3_3 
REMARK    2  A    between atoms: C3_3  and  C4_4 
REMARK    3  A    between atoms: C4_4  and  C5_5 
REMARK    4  A    between atoms: C8_10  and  O2_11 
REMARK    5  A    between atoms: C9_13  and  C10_14 
REMARK    6  A    between atoms: C13_18  and  O3_19 
ROOT
HETATM    1  C1  UNL     1      -2.341  -0.678  -2.210  1.00  0.00     0.044 C 
HETATM    2  C2  UNL     1      -1.908  -0.472  -0.798  1.00  0.00    -0.068 C 
HETATM    3  C6  UNL     1      -0.628  -0.245  -0.522  1.00  0.00     0.043 A 
HETATM    4  C7  UNL     1       0.389  -0.165  -1.592  1.00  0.00     0.217 A 
HETATM    5  O1  UNL     1       0.034  -0.222  -2.789  1.00  0.00    -0.284 OA
HETATM    6  C8  UNL     1       1.805  -0.017  -1.258  1.00  0.00     0.128 A 
HETATM    7  C9  UNL     1       2.246   0.053  -0.019  1.00  0.00     0.037 A 
HETATM    8  C13 UNL     1       1.248  -0.028   1.011  1.00  0.00     0.099 A 
HETATM    9  C14 UNL     1      -0.066  -0.166   0.818  1.00  0.00     0.082 A 
HETATM   10 CL3  UNL     1      -1.088  -0.379   2.250  1.00  0.00    -0.080 Cl
ENDROOT
BRANCH   2  11
HETATM   11  C3  UNL     1      -2.940  -0.339   0.244  1.00  0.00     0.036 C 
BRANCH  11  12
HETATM   12  C4  UNL     1      -4.269   0.226  -0.315  1.00  0.00     0.019 C 
BRANCH  12  13
HETATM   13  C5  UNL     1      -5.187   0.327   0.918  1.00  0.00     0.115 C 
HETATM   14 CL1  UNL     1      -4.542   1.411   2.144  1.00  0.00    -0.130 Cl
ENDBRANCH  12  13
ENDBRANCH  11  12
ENDBRANCH   2  11
BRANCH   6  15
HETATM   15  O2  UNL     1       2.687   0.048  -2.344  1.00  0.00    -0.356 OA
ATOM     16  H2  UNL     1       3.607   0.144  -2.127  1.00  0.00     0.218 HD
ENDBRANCH   6  15
BRANCH   8  17
HETATM   17  O3  UNL     1       1.675   0.041   2.331  1.00  0.00    -0.358 OA
ATOM     18  H3  UNL     1       1.015  -0.013   3.012  1.00  0.00     0.217 HD
ENDBRANCH   8  17
BRANCH   7  19
HETATM   19  C10 UNL     1       3.688   0.202   0.208  1.00  0.00     0.062 C 
HETATM   20  C11 UNL     1       4.283  -0.935   1.009  1.00  0.00     0.037 C 
HETATM   21  C12 UNL     1       4.019   1.485   0.971  1.00  0.00     0.037 C 
HETATM   22 CL2  UNL     1       4.599   0.280  -1.319  1.00  0.00    -0.115 Cl
ENDBRANCH   7  19
TORSDOF 6
