REMARK  19 active torsions:
REMARK  status: ('A' for Active; 'I' for Inactive)
REMARK    1  A    between atoms: C4_7  and  C5_8 
REMARK    2  A    between atoms: C5_8  and  C6_9 
REMARK    3  A    between atoms: C6_9  and  O2_10 
REMARK    4  A    between atoms: C6_9  and  C7_12 
REMARK    5  A    between atoms: C7_12  and  O3_13 
REMARK    6  A    between atoms: C7_12  and  C8_15 
REMARK    7  A    between atoms: C8_15  and  O4_16 
REMARK    8  A    between atoms: C8_15  and  C9_18 
REMARK    9  A    between atoms: C9_18  and  O5_19 
REMARK   10  A    between atoms: C9_18  and  O6_21 
REMARK   11  A    between atoms: C11_24  and  O7_25 
REMARK   12  A    between atoms: C12_27  and  O8_28 
REMARK   13  A    between atoms: C13_32  and  N3_33 
REMARK   14  A    between atoms: C14_38  and  C15_39 
REMARK   15  A    between atoms: C15_39  and  O9_40 
REMARK   16  A    between atoms: C15_39  and  C16_42 
REMARK   17  A    between atoms: C16_42  and  O10_43 
REMARK   18  A    between atoms: C17_45  and  C18_46 
REMARK   19  A    between atoms: C18_46  and  O11_47 
ROOT
HETATM    1  O1  UNL     1      -0.725  -2.758   1.327  1.00  0.00    -0.283 OA
HETATM    2  C1  UNL     1       0.263  -2.489   0.626  1.00  0.00     0.233 C 
HETATM    3  C2  UNL     1       0.609  -1.129   0.489  1.00  0.00     0.131 C 
HETATM    4  C3  UNL     1      -0.491  -0.221   0.722  1.00  0.00     0.100 A 
HETATM    5  N1  UNL     1      -1.695  -0.750   1.041  1.00  0.00    -0.355 N 
ATOM      6  H1  UNL     1      -1.747  -1.767   1.098  1.00  0.00     0.166 HD
HETATM    7  C4  UNL     1      -2.813  -0.084   1.287  1.00  0.00     0.015 A 
HETATM    8  C10 UNL     1      -2.751   1.291   1.211  1.00  0.00     0.064 A 
HETATM    9  C11 UNL     1      -1.579   1.933   0.895  1.00  0.00     0.103 A 
HETATM   10  C12 UNL     1      -0.436   1.152   0.648  1.00  0.00     0.128 A 
HETATM   11  N2  UNL     1       1.829  -0.746   0.174  1.00  0.00    -0.183 N 
ATOM     12  H2  UNL     1       2.023   0.217   0.448  1.00  0.00     0.184 HD
HETATM   13  C13 UNL     1       2.876  -1.336  -0.426  1.00  0.00     0.707 C 
HETATM   14  N6  UNL     1       3.012  -2.648  -0.643  1.00  0.00    -0.170 N 
ATOM     15  H6  UNL     1       3.936  -2.929  -0.972  1.00  0.00     0.186 HD
HETATM   16  C19 UNL     1       2.132  -3.669  -0.500  1.00  0.00     0.175 A 
HETATM   17  N7  UNL     1       2.320  -4.933  -0.896  1.00  0.00    -0.223 N 
ATOM     18  H7  UNL     1       3.147  -5.310  -1.359  1.00  0.00     0.198 HD
HETATM   19  O12 UNL     1       1.242  -5.589  -0.576  1.00  0.00    -0.155 OA
HETATM   20  N8  UNL     1       0.374  -4.828  -0.000  1.00  0.00    -0.234 N 
ATOM     21  H8  UNL     1      -0.544  -5.113   0.340  1.00  0.00     0.197 HD
HETATM   22  C20 UNL     1       0.892  -3.602   0.071  1.00  0.00     0.155 A 
ENDROOT
BRANCH  10  23
HETATM   23  O8  UNL     1       0.681   1.812   0.344  1.00  0.00    -0.356 OA
ATOM     24  H8  UNL     1       0.719   2.760   0.293  1.00  0.00     0.218 HD
ENDBRANCH  10  23
BRANCH  13  25
HETATM   25  N3  UNL     1       3.926  -0.491  -0.866  1.00  0.00    -0.072 N 
HETATM   26  N4  UNL     1       4.041   0.112  -2.061  1.00  0.00    -0.221 N 
HETATM   27  N5  UNL     1       5.147   0.823  -2.125  1.00  0.00    -0.285 N 
ATOM     28  H4  UNL     1       3.362   0.030  -2.818  1.00  0.00     0.209 HD
HETATM   29  C14 UNL     1       5.819   0.713  -0.951  1.00  0.00     0.085 A 
ATOM     30  H5  UNL     1       5.451   1.370  -2.930  1.00  0.00     0.188 HD
HETATM   31  C17 UNL     1       5.029  -0.117  -0.183  1.00  0.00     0.103 A 
BRANCH  29  32
HETATM   32  C15 UNL     1       7.104   1.329  -0.555  1.00  0.00     0.195 C 
BRANCH  32  33
HETATM   33  O9  UNL     1       8.052   0.412  -0.167  1.00  0.00    -0.387 OA
ATOM     34  H9  UNL     1       8.877   0.808   0.087  1.00  0.00     0.210 HD
ENDBRANCH  32  33
BRANCH  32  35
HETATM   35  C16 UNL     1       7.579   2.162  -1.751  1.00  0.00     0.202 C 
BRANCH  35  36
HETATM   36  O10 UNL     1       8.727   2.863  -1.461  1.00  0.00    -0.398 OA
ATOM     37  H10 UNL     1       9.021   3.379  -2.202  1.00  0.00     0.209 HD
ENDBRANCH  35  36
ENDBRANCH  32  35
ENDBRANCH  29  32
BRANCH  31  38
HETATM   38  C18 UNL     1       5.345  -0.540   1.206  1.00  0.00     0.226 C 
BRANCH  38  39
HETATM   39  O11 UNL     1       4.368  -1.375   1.730  1.00  0.00    -0.395 OA
ATOM     40  H11 UNL     1       4.570  -1.645   2.618  1.00  0.00     0.209 HD
ENDBRANCH  38  39
ENDBRANCH  31  38
ENDBRANCH  13  25
BRANCH   7  41
HETATM   41  C5  UNL     1      -4.089  -0.749   1.654  1.00  0.00     0.091 C 
BRANCH  41  42
HETATM   42  C6  UNL     1      -4.844  -1.128   0.421  1.00  0.00     0.155 C 
BRANCH  42  43
HETATM   43  O2  UNL     1      -6.047  -1.782   0.718  1.00  0.00    -0.393 OA
ATOM     44  H2  UNL     1      -6.527  -2.023  -0.066  1.00  0.00     0.210 HD
ENDBRANCH  42  43
BRANCH  42  45
HETATM   45  C7  UNL     1      -5.148   0.007  -0.509  1.00  0.00     0.180 C 
BRANCH  45  46
HETATM   46  O3  UNL     1      -5.681  -0.604  -1.683  1.00  0.00    -0.390 OA
ATOM     47  H3  UNL     1      -5.874   0.116  -2.273  1.00  0.00     0.210 HD
ENDBRANCH  45  46
BRANCH  45  48
HETATM   48  C8  UNL     1      -6.227   0.930   0.029  1.00  0.00     0.204 C 
BRANCH  48  49
HETATM   49  O4  UNL     1      -7.389   0.220   0.332  1.00  0.00    -0.388 OA
ATOM     50  H4  UNL     1      -8.064   0.797   0.669  1.00  0.00     0.210 HD
ENDBRANCH  48  49
BRANCH  48  51
HETATM   51  C9  UNL     1      -6.465   2.042  -0.939  1.00  0.00     0.285 C 
BRANCH  51  52
HETATM   52  O5  UNL     1      -7.363   2.980  -0.491  1.00  0.00    -0.369 OA
ATOM     53  H5  UNL     1      -7.514   3.687  -1.107  1.00  0.00     0.212 HD
ENDBRANCH  51  52
BRANCH  51  54
HETATM   54  O6  UNL     1      -6.856   1.597  -2.191  1.00  0.00    -0.369 OA
ATOM     55  H6  UNL     1      -7.007   2.304  -2.807  1.00  0.00     0.212 HD
ENDBRANCH  51  54
ENDBRANCH  48  51
ENDBRANCH  45  48
ENDBRANCH  42  45
ENDBRANCH  41  42
ENDBRANCH   7  41
BRANCH   9  56
HETATM   56  O7  UNL     1      -1.464   3.303   0.807  1.00  0.00    -0.358 OA
ATOM     57  H7  UNL     1      -0.653   3.747   0.588  1.00  0.00     0.217 HD
ENDBRANCH   9  56
TORSDOF 19
