REMARK  18 active torsions:
REMARK  status: ('A' for Active; 'I' for Inactive)
REMARK    1  A    between atoms: C3_5  and  O3_6 
REMARK    2  A    between atoms: C7_13  and  C8_14 
REMARK    3  A    between atoms: C8_14  and  O6_15 
REMARK    4  A    between atoms: C8_14  and  O7_17 
REMARK    5  A    between atoms: C10_23  and  O9_24 
REMARK    6  A    between atoms: C10_23  and  C11_26 
REMARK    7  A    between atoms: C11_26  and  O10_27 
REMARK    8  A    between atoms: O10_27  and  C12_28 
REMARK    9  A    between atoms: C12_28  and  C13_29 
REMARK   10  A    between atoms: C12_28  and  C14_32 
REMARK   11  A    between atoms: C13_29  and  O11_30 
REMARK   12  A    between atoms: C14_32  and  O12_33 
REMARK   13  A    between atoms: C17_39  and  O15_40 
REMARK   14  A    between atoms: C17_39  and  C18_42 
REMARK   15  A    between atoms: C18_42  and  C19_43 
REMARK   16  A    between atoms: C19_43  and  O16_44 
REMARK   17  A    between atoms: C19_43  and  O17_46 
REMARK   18  A    between atoms: N2_48  and  O18_49 
ROOT
HETATM    1  O1  UNL     1      -2.304   2.797  -0.548  1.00  0.00    -0.265 OA
HETATM    2  C1  UNL     1      -1.355   2.465   0.196  1.00  0.00     0.272 C 
HETATM    3  O2  UNL     1      -0.321   3.351   0.468  1.00  0.00    -0.316 OA
HETATM    4  C2  UNL     1       0.864   2.525   0.420  1.00  0.00     0.248 C 
HETATM    5  C3  UNL     1       0.473   1.276   1.149  1.00  0.00     0.205 C 
HETATM    6  O4  UNL     1       1.160   0.165   0.963  1.00  0.00    -0.292 OA
HETATM    7  C4  UNL     1       2.269   0.009   0.251  1.00  0.00     0.351 C 
HETATM    8  O5  UNL     1       1.962  -0.267  -1.053  1.00  0.00    -0.328 OA
HETATM    9  C5  UNL     1       0.965  -1.147  -1.318  1.00  0.00     0.217 C 
HETATM   10  C6  UNL     1      -0.300  -0.555  -1.851  1.00  0.00     0.030 A 
HETATM   11  C7  UNL     1      -0.643  -0.367  -3.189  1.00  0.00     0.098 A 
HETATM   12  N1  UNL     1      -1.863   0.194  -3.181  1.00  0.00    -0.260 N 
ATOM     13  H1  UNL     1      -2.395   0.457  -4.010  1.00  0.00     0.194 HD
HETATM   14  O8  UNL     1      -2.247   0.344  -1.996  1.00  0.00    -0.238 OA
HETATM   15  C9  UNL     1      -1.335  -0.095  -1.115  1.00  0.00     0.124 A 
HETATM   16  C10 UNL     1      -1.516  -0.043   0.345  1.00  0.00     0.148 C 
HETATM   17  C15 UNL     1      -1.030   1.243   0.933  1.00  0.00     0.193 C 
HETATM   18  C16 UNL     1       3.352   1.017   0.391  1.00  0.00     0.345 C 
HETATM   19  O13 UNL     1       3.816   1.900  -0.365  1.00  0.00    -0.257 OA
HETATM   20  O14 UNL     1       3.826   0.777   1.678  1.00  0.00    -0.261 OA
HETATM   21  C17 UNL     1       3.839  -0.643   1.849  1.00  0.00     0.266 C 
HETATM   22  N2  UNL     1       3.030  -1.147   0.773  1.00  0.00    -0.068 NA
ENDROOT
BRANCH  22  23
HETATM   23  O18 UNL     1       2.283  -2.146   1.203  1.00  0.00    -0.303 OA
ATOM     24  H18 UNL     1       2.772  -2.888   1.538  1.00  0.00     0.237 HD
ENDBRANCH  22  23
BRANCH   5  25
HETATM   25  O3  UNL     1       0.647   1.609   2.526  1.00  0.00    -0.363 OA
ATOM     26  H3  UNL     1       0.399   0.817   2.988  1.00  0.00     0.213 HD
ENDBRANCH   5  25
BRANCH  21  27
HETATM   27  O15 UNL     1       3.213  -0.894   3.066  1.00  0.00    -0.351 OA
ATOM     28  H15 UNL     1       3.222  -1.837   3.180  1.00  0.00     0.214 HD
ENDBRANCH  21  27
BRANCH  21  29
HETATM   29  C18 UNL     1       5.222  -1.194   1.898  1.00  0.00     0.150 C 
BRANCH  29  30
HETATM   30  C19 UNL     1       5.927  -0.854   0.578  1.00  0.00     0.260 C 
BRANCH  30  31
HETATM   31  O16 UNL     1       7.242  -1.368   0.604  1.00  0.00    -0.371 OA
ATOM     32  H16 UNL     1       7.678  -1.158  -0.213  1.00  0.00     0.212 HD
ENDBRANCH  30  31
BRANCH  30  33
HETATM   33  O17 UNL     1       5.276  -1.372  -0.512  1.00  0.00    -0.371 OA
ATOM     34  H17 UNL     1       5.712  -1.162  -1.329  1.00  0.00     0.212 HD
ENDBRANCH  30  33
ENDBRANCH  29  30
ENDBRANCH  21  29
BRANCH  16  35
HETATM   35  O9  UNL     1      -0.902  -1.144   1.010  1.00  0.00    -0.380 OA
ATOM     36  H9  UNL     1      -1.019  -1.110   1.952  1.00  0.00     0.211 HD
ENDBRANCH  16  35
BRANCH  16  37
HETATM   37  C11 UNL     1      -2.968  -0.283   0.735  1.00  0.00     0.214 C 
BRANCH  37  38
HETATM   38  O10 UNL     1      -3.847   0.616   0.228  1.00  0.00    -0.378 OA
BRANCH  38  39
HETATM   39  C12 UNL     1      -5.147   0.385   0.588  1.00  0.00     0.168 C 
BRANCH  39  40
HETATM   40  C13 UNL     1      -5.937   0.154  -0.707  1.00  0.00     0.198 C 
BRANCH  40  41
HETATM   41  O11 UNL     1      -5.408  -0.948  -1.383  1.00  0.00    -0.398 OA
ATOM     42  H11 UNL     1      -5.897  -1.091  -2.185  1.00  0.00     0.209 HD
ENDBRANCH  40  41
ENDBRANCH  39  40
BRANCH  39  43
HETATM   43  C14 UNL     1      -5.797   1.565   1.273  1.00  0.00     0.198 C 
BRANCH  43  44
HETATM   44  O12 UNL     1      -5.097   1.895   2.447  1.00  0.00    -0.398 OA
ATOM     45  H12 UNL     1      -5.506   2.637   2.878  1.00  0.00     0.209 HD
ENDBRANCH  43  44
ENDBRANCH  39  43
ENDBRANCH  38  39
ENDBRANCH  37  38
ENDBRANCH  16  37
BRANCH  11  46
HETATM   46  C8  UNL     1       0.131  -0.704  -4.428  1.00  0.00     0.307 C 
BRANCH  46  47
HETATM   47  O6  UNL     1       0.674  -1.974  -4.392  1.00  0.00    -0.366 OA
ATOM     48  H6  UNL     1       1.164  -2.188  -5.177  1.00  0.00     0.213 HD
ENDBRANCH  46  47
BRANCH  46  49
HETATM   49  O7  UNL     1       1.085   0.271  -4.705  1.00  0.00    -0.366 OA
ATOM     50  H7  UNL     1       1.575   0.057  -5.490  1.00  0.00     0.213 HD
ENDBRANCH  46  49
ENDBRANCH  11  46
TORSDOF 18
