REMARK  11 active torsions:
REMARK  status: ('A' for Active; 'I' for Inactive)
REMARK    1  A    between atoms: N3_5  and  C2_6 
REMARK    2  A    between atoms: C3_10  and  C4_11 
REMARK    3  A    between atoms: C9_18  and  N6_19 
REMARK    4  A    between atoms: N6_19  and  C10_21 
REMARK    5  A    between atoms: C11_23  and  O3_24 
REMARK    6  A    between atoms: C12_27  and  N7_28 
REMARK    7  A    between atoms: C12_27  and  C13_32 
REMARK    8  A    between atoms: C14_35  and  N8_36 
REMARK    9  A    between atoms: C15_40  and  O7_41 
REMARK   10  A    between atoms: C16_43  and  O8_44 
REMARK   11  A    between atoms: C17_48  and  O9_49 
ROOT
HETATM    1  C2  UNL     1       3.052  -0.990  -0.125  1.00  0.00     0.357 C 
HETATM    2  N4  UNL     1       1.717  -1.315   0.319  1.00  0.00    -0.038 N 
ATOM      3  H41 UNL     1       1.576  -1.142   1.314  1.00  0.00     0.280 HD
ATOM      4  H42 UNL     1       1.535  -2.319   0.331  1.00  0.00     0.280 HD
HETATM    5  C3  UNL     1       0.759  -0.559  -0.545  1.00  0.00     0.255 C 
HETATM    6  C14 UNL     1       0.852  -1.340  -1.808  1.00  0.00     0.249 C 
HETATM    7  C15 UNL     1       2.155  -0.873  -2.490  1.00  0.00     0.183 C 
HETATM    8  C16 UNL     1       3.154  -0.407  -1.482  1.00  0.00     0.202 C 
ENDROOT
BRANCH   5   9
HETATM    9  C4  UNL     1      -0.580  -0.457   0.131  1.00  0.00     0.024 C 
HETATM   10  C5  UNL     1      -1.254  -1.780   0.249  1.00  0.00     0.142 C 
HETATM   11  O1  UNL     1      -2.403  -1.952   0.858  1.00  0.00    -0.361 OA
HETATM   12  C6  UNL     1      -3.613  -2.195   0.447  1.00  0.00     0.191 C 
HETATM   13  C7  UNL     1      -4.739  -1.171   0.708  1.00  0.00     0.147 C 
HETATM   14  N5  UNL     1      -4.669   0.018   0.050  1.00  0.00    -0.189 NA
HETATM   15  C8  UNL     1      -3.403   0.040  -0.627  1.00  0.00     0.160 C 
HETATM   16  O4  UNL     1      -4.778   1.247   0.366  1.00  0.00    -0.268 OA
HETATM   17  C9  UNL     1      -2.658   0.788   0.368  1.00  0.00     0.145 C 
HETATM   18  C11 UNL     1      -3.564   1.991   0.154  1.00  0.00     0.312 C 
HETATM   19  C12 UNL     1      -1.264   0.806  -0.172  1.00  0.00     0.268 C 
BRANCH  17  20
HETATM   20  N6  UNL     1      -2.633   0.826   1.743  1.00  0.00    -0.350 N 
ATOM     21  H6  UNL     1      -1.721   0.482   2.043  1.00  0.00     0.163 HD
BRANCH  20  22
HETATM   22  C10 UNL     1      -3.357   1.147   2.888  1.00  0.00     0.349 C 
HETATM   23  O2  UNL     1      -4.514   1.609   2.923  1.00  0.00    -0.284 OA
ENDBRANCH  20  22
ENDBRANCH  17  20
BRANCH  18  24
HETATM   24  O3  UNL     1      -3.503   2.582  -1.060  1.00  0.00    -0.367 OA
ATOM     25  H3  UNL     1      -4.069   3.333  -1.194  1.00  0.00     0.212 HD
ENDBRANCH  18  24
BRANCH  19  26
HETATM   26  N7  UNL     1      -0.638   1.851   0.700  1.00  0.00    -0.053 N 
ATOM     27  H73 UNL     1      -0.654   1.611   1.691  1.00  0.00     0.276 HD
ATOM     28  H72 UNL     1       0.375   1.907   0.599  1.00  0.00     0.276 HD
ATOM     29  H71 UNL     1      -1.113   2.729   0.489  1.00  0.00     0.276 HD
ENDBRANCH  19  26
BRANCH  19  30
HETATM   30  C13 UNL     1      -1.128   1.366  -1.526  1.00  0.00     0.218 C 
HETATM   31  O5  UNL     1      -0.457   2.443  -1.765  1.00  0.00    -0.646 OA
HETATM   32  O6  UNL     1      -1.669   0.860  -2.697  1.00  0.00    -0.646 OA
ENDBRANCH  19  30
ENDBRANCH   5   9
BRANCH   6  33
HETATM   33  N8  UNL     1       1.104  -2.768  -1.568  1.00  0.00    -0.070 N 
ATOM     34  H83 UNL     1       1.934  -2.903  -0.991  1.00  0.00     0.274 HD
ATOM     35  H82 UNL     1       0.403  -3.164  -0.942  1.00  0.00     0.274 HD
ATOM     36  H81 UNL     1       1.168  -3.303  -2.434  1.00  0.00     0.274 HD
ENDBRANCH   6  33
BRANCH   1  37
HETATM   37  N3  UNL     1       3.713  -0.106   0.807  1.00  0.00    -0.196 N 
HETATM   38  N2  UNL     1       4.777   0.611   0.560  1.00  0.00    -0.265 N 
HETATM   39  C1  UNL     1       5.099   1.301   1.654  1.00  0.00     0.184 A 
ATOM     40  H2  UNL     1       5.280   0.638  -0.327  1.00  0.00     0.190 HD
HETATM   41  N1  UNL     1       6.201   2.184   1.746  1.00  0.00    -0.076 NA
HETATM   42  C17 UNL     1       4.167   0.976   2.617  1.00  0.00     0.200 A 
HETATM   43  N9  UNL     1       3.332   0.102   2.044  1.00  0.00    -0.258 N 
ATOM     44  H9  UNL     1       2.528  -0.333   2.497  1.00  0.00     0.191 HD
BRANCH  42  45
HETATM   45  O9  UNL     1       4.176   1.502   3.901  1.00  0.00    -0.343 OA
ATOM     46  H9  UNL     1       3.534   1.278   4.564  1.00  0.00     0.219 HD
ENDBRANCH  42  45
ENDBRANCH   1  37
BRANCH   7  47
HETATM   47  O7  UNL     1       2.632  -1.884  -3.323  1.00  0.00    -0.391 OA
ATOM     48  H7  UNL     1       3.434  -1.596  -3.743  1.00  0.00     0.210 HD
ENDBRANCH   7  47
BRANCH   8  49
HETATM   49  O8  UNL     1       4.451  -0.689  -1.970  1.00  0.00    -0.389 OA
ATOM     50  H8  UNL     1       4.516  -0.315  -2.841  1.00  0.00     0.210 HD
ENDBRANCH   8  49
TORSDOF 11
