REMARK  7 active torsions:
REMARK  status: ('A' for Active; 'I' for Inactive)
REMARK    1  A    between atoms: C3_5  and  C4_6 
REMARK    2  A    between atoms: C4_6  and  N2_7 
REMARK    3  A    between atoms: C6_14  and  N4_15 
REMARK    4  A    between atoms: C7_20  and  N6_21 
REMARK    5  A    between atoms: N6_21  and  C8_23 
REMARK    6  A    between atoms: C8_23  and  C9_24 
REMARK    7  A    between atoms: C9_24  and  C10_25 
ROOT
HETATM    1  C1  UNL     1      -1.459   1.829   2.222  1.00  0.00     0.161 C 
HETATM    2  N1  UNL     1      -2.040   1.153   1.061  1.00  0.00    -0.301 N 
HETATM    3  C2  UNL     1      -3.348   1.189   0.785  1.00  0.00     0.273 A 
HETATM    4  O1  UNL     1      -4.098   1.907   1.472  1.00  0.00    -0.266 OA
HETATM    5  C3  UNL     1      -3.912   0.464  -0.235  1.00  0.00     0.104 A 
HETATM    6  N3  UNL     1      -3.129  -0.284  -0.980  1.00  0.00    -0.348 N 
ATOM      7  H3  UNL     1      -3.537  -0.814  -1.750  1.00  0.00     0.166 HD
HETATM    8  C5  UNL     1      -1.784  -0.373  -0.753  1.00  0.00     0.122 A 
HETATM    9  C6  UNL     1      -0.950  -1.178  -1.486  1.00  0.00     0.145 A 
HETATM   10  N5  UNL     1       0.336  -1.269  -1.179  1.00  0.00    -0.174 N 
ATOM     11  H5  UNL     1       0.929  -1.886  -1.734  1.00  0.00     0.186 HD
HETATM   12  C7  UNL     1       0.904  -0.565  -0.143  1.00  0.00     0.685 A 
HETATM   13  N11 UNL     1       0.074   0.252   0.568  1.00  0.00    -0.174 N 
ATOM     14  H11 UNL     1       0.468   0.799   1.334  1.00  0.00     0.186 HD
HETATM   15  C11 UNL     1      -1.243   0.369   0.304  1.00  0.00     0.156 A 
ENDROOT
BRANCH  12  16
HETATM   16  N6  UNL     1       2.050  -0.779   0.374  1.00  0.00    -0.205 N 
ATOM     17  H6  UNL     1       2.227  -0.111   1.124  1.00  0.00     0.183 HD
BRANCH  16  18
HETATM   18  C8  UNL     1       3.128  -1.635   0.235  1.00  0.00     0.086 C 
BRANCH  18  19
HETATM   19  C9  UNL     1       4.390  -1.181   0.882  1.00  0.00     0.124 C 
BRANCH  19  20
HETATM   20  C10 UNL     1       4.955   0.025   0.293  1.00  0.00     0.117 A 
HETATM   21  N7  UNL     1       4.624   0.802  -0.739  1.00  0.00    -0.272 N 
HETATM   22  N8  UNL     1       5.538   1.717  -0.872  1.00  0.00    -0.227 N 
ATOM     23  H7  UNL     1       3.795   0.696  -1.324  1.00  0.00     0.190 HD
HETATM   24  N9  UNL     1       6.488   1.601   0.030  1.00  0.00    -0.227 N 
ATOM     25  H8  UNL     1       5.520   2.440  -1.591  1.00  0.00     0.210 HD
HETATM   26  N10 UNL     1       6.159   0.529   0.785  1.00  0.00    -0.272 N 
ATOM     27  H9  UNL     1       7.307   2.199   0.138  1.00  0.00     0.210 HD
ATOM     28  H10 UNL     1       6.693   0.157   1.570  1.00  0.00     0.190 HD
ENDBRANCH  19  20
ENDBRANCH  18  19
ENDBRANCH  16  18
ENDBRANCH  12  16
BRANCH   9  29
HETATM   29  N4  UNL     1      -1.461  -1.782  -2.539  1.00  0.00    -0.383 N 
ATOM     30  H42 UNL     1      -2.451  -1.712  -2.775  1.00  0.00     0.157 HD
ATOM     31  H41 UNL     1      -0.841  -2.381  -3.084  1.00  0.00     0.157 HD
ENDBRANCH   9  29
BRANCH   5  32
HETATM   32  C4  UNL     1      -5.405   0.648  -0.504  1.00  0.00     0.292 C 
BRANCH  32  33
HETATM   33  N2  UNL     1      -6.076  -0.509   0.100  1.00  0.00    -0.074 N 
ATOM     34  H23 UNL     1      -5.712  -1.404  -0.226  1.00  0.00     0.274 HD
ATOM     35  H22 UNL     1      -5.855  -0.636   1.087  1.00  0.00     0.274 HD
ATOM     36  H21 UNL     1      -7.073  -0.386  -0.080  1.00  0.00     0.274 HD
ENDBRANCH  32  33
ENDBRANCH   5  32
TORSDOF 7
