REMARK  5 active torsions:
REMARK  status: ('A' for Active; 'I' for Inactive)
REMARK    1  A    between atoms: C2_2  and  C3_3 
REMARK    2  A    between atoms: C3_3  and  C4_4 
REMARK    3  A    between atoms: C4_4  and  O1_5 
REMARK    4  A    between atoms: C4_4  and  C5_7 
REMARK    5  A    between atoms: C8_11  and  O2_12 
ROOT
HETATM    1  C5  UNL     1      -0.212  -0.097  -0.250  1.00  0.00     0.106 C 
HETATM    2  C6  UNL     1      -1.079  -1.294  -0.278  1.00  0.00     0.291 C 
HETATM    3  N1  UNL     1      -2.410  -1.009   0.008  1.00  0.00     0.109 N 
HETATM    4  C7  UNL     1      -3.235  -0.380  -0.967  1.00  0.00     0.308 A 
HETATM    5  C8  UNL     1      -3.474   0.752   0.009  1.00  0.00     0.190 A 
HETATM    6  C9  UNL     1      -2.599  -0.009   0.972  1.00  0.00     0.315 A 
HETATM    7  S1  UNL     1      -0.992   0.834   1.132  1.00  0.00    -0.122 SA
ENDROOT
BRANCH   1   8
HETATM    8  C4  UNL     1       1.211  -0.363   0.177  1.00  0.00     0.133 C 
BRANCH   8   9
HETATM    9  C3  UNL     1       1.942   0.957   0.147  1.00  0.00     0.032 C 
BRANCH   9  10
HETATM   10  C2  UNL     1       3.341   0.865   0.680  1.00  0.00    -0.002 C 
HETATM   11  C1  UNL     1       4.115  -0.112  -0.171  1.00  0.00     0.005 C 
ENDBRANCH   9  10
ENDBRANCH   8   9
BRANCH   8  12
HETATM   12  O1  UNL     1       1.798  -1.356  -0.560  1.00  0.00    -0.394 OA
ATOM     13  H1  UNL     1       1.338  -2.187  -0.541  1.00  0.00     0.210 HD
ENDBRANCH   8  12
ENDBRANCH   1   8
BRANCH   5  14
HETATM   14  O2  UNL     1      -4.766   0.835   0.503  1.00  0.00    -0.391 OA
ATOM     15  H2  UNL     1      -4.916   1.545   1.116  1.00  0.00     0.210 HD
ENDBRANCH   5  14
TORSDOF 5
