REMARK  5 active torsions:
REMARK  status: ('A' for Active; 'I' for Inactive)
REMARK       I    between atoms: N2_6  and  C5_7 
REMARK       I    between atoms: C5_7  and  N5_20 
REMARK    1  A    between atoms: N3_8  and  C6_10 
REMARK    2  A    between atoms: C7_12  and  S1_13 
REMARK    3  A    between atoms: S1_13  and  C8_14 
REMARK    4  A    between atoms: N5_20  and  C14_22 
REMARK    5  A    between atoms: C14_22  and  C15_23 
ROOT
HETATM    1  N1  UNL     1       7.838  -0.675   1.507  1.00  0.00    -0.197 NA
HETATM    2  C1  UNL     1       6.757  -0.399   1.789  1.00  0.00     0.064 C 
HETATM    3  C2  UNL     1       5.350  -0.058   2.137  1.00  0.00     0.096 C 
HETATM    4  C3  UNL     1       4.889   0.987   1.184  1.00  0.00     0.039 C 
HETATM    5  C4  UNL     1       3.373   1.153   1.425  1.00  0.00     0.142 C 
HETATM    6  N2  UNL     1       2.832  -0.089   0.948  1.00  0.00    -0.218 N 
HETATM    7  C5  UNL     1       1.826  -0.068  -0.086  1.00  0.00     0.677 C 
HETATM    8  N3  UNL     1       0.737   0.416   0.241  1.00  0.00    -0.179 N 
ATOM      9  H3  UNL     1       0.779   0.711   1.216  1.00  0.00     0.185 HD
HETATM   10  N5  UNL     1       2.248  -0.593  -1.360  1.00  0.00    -0.222 N 
ATOM     11  H5  UNL     1       2.402  -1.593  -1.489  1.00  0.00     0.177 HD
HETATM   12  C16 UNL     1       3.276  -1.351   1.457  1.00  0.00     0.142 C 
HETATM   13  C17 UNL     1       4.511  -1.259   2.291  1.00  0.00     0.039 C 
ENDROOT
BRANCH   8  14
HETATM   14  C6  UNL     1      -0.439   0.676  -0.233  1.00  0.00     0.138 C 
HETATM   15  N4  UNL     1      -0.109   2.290   0.070  1.00  0.00    -0.082 NA
HETATM   16  C7  UNL     1      -1.714   0.962  -0.746  1.00  0.00     0.091 C 
BRANCH  16  17
HETATM   17  S1  UNL     1      -2.775  -0.552  -0.560  1.00  0.00    -0.133 SA
BRANCH  17  18
HETATM   18  C8  UNL     1      -4.471   0.017  -0.956  1.00  0.00     0.052 C 
HETATM   19  C9  UNL     1      -4.937   0.937   0.146  1.00  0.00     0.015 C 
HETATM   20  C10 UNL     1      -5.270   0.103   1.378  1.00  0.00     0.001 C 
HETATM   21  C11 UNL     1      -6.466  -0.758   0.944  1.00  0.00     0.000 C 
HETATM   22  C12 UNL     1      -5.917  -1.801   0.007  1.00  0.00     0.001 C 
HETATM   23  C13 UNL     1      -5.331  -1.159  -1.211  1.00  0.00     0.015 C 
ENDBRANCH  17  18
ENDBRANCH  16  17
ENDBRANCH   8  14
BRANCH  10  24
HETATM   24  C14 UNL     1       2.446   0.333  -2.447  1.00  0.00     0.197 C 
BRANCH  24  25
HETATM   25  C15 UNL     1       3.065  -0.269  -3.669  1.00  0.00     0.204 C 
HETATM   26 CL1  UNL     1       3.228   1.030  -4.900  1.00  0.00    -0.082 Cl
HETATM   27 CL2  UNL     1       4.700  -0.903  -3.342  1.00  0.00    -0.082 Cl
HETATM   28 CL3  UNL     1       2.109  -1.584  -4.357  1.00  0.00    -0.082 Cl
ENDBRANCH  24  25
ENDBRANCH  10  24
TORSDOF 5
