REMARK  5 active torsions:
REMARK  status: ('A' for Active; 'I' for Inactive)
REMARK    1  A    between atoms: C2_2  and  O1_4 
REMARK    2  A    between atoms: O1_4  and  C4_5 
REMARK    3  A    between atoms: C4_5  and  C5_7 
REMARK    4  A    between atoms: C6_8  and  C7_9 
REMARK    5  A    between atoms: C7_9  and  C8_10 
ROOT
HETATM    1  C5  UNL     1      -0.666   0.082   0.021  1.00  0.00     0.075 A 
HETATM    2  C6  UNL     1      -1.326   0.846   0.955  1.00  0.00     0.037 A 
HETATM    3  N1  UNL     1      -2.496   0.221   1.283  1.00  0.00    -0.356 N 
ATOM      4  H1  UNL     1      -3.177   0.574   1.955  1.00  0.00     0.166 HD
HETATM    5  C9  UNL     1      -2.620  -0.926   0.592  1.00  0.00     0.061 A 
HETATM    6  C10 UNL     1      -3.592  -1.917   0.548  1.00  0.00     0.039 A 
HETATM    7 BR1  UNL     1      -5.116  -1.735   1.644  1.00  0.00    -0.049 Br
HETATM    8  C11 UNL     1      -3.427  -3.016  -0.295  1.00  0.00     0.040 A 
HETATM    9  C12 UNL     1      -2.309  -3.131  -1.087  1.00  0.00     0.013 A 
HETATM   10 BR2  UNL     1      -1.994  -4.578  -2.260  1.00  0.00    -0.051 Br
HETATM   11  C13 UNL     1      -1.344  -2.120  -1.025  1.00  0.00     0.034 A 
HETATM   12  C14 UNL     1      -1.492  -1.027  -0.197  1.00  0.00     0.011 A 
ENDROOT
BRANCH   1  13
HETATM   13  C4  UNL     1       0.611   0.304  -0.639  1.00  0.00     0.296 C 
HETATM   14  O2  UNL     1       0.710   0.925  -1.719  1.00  0.00    -0.259 OA
BRANCH  13  15
HETATM   15  O1  UNL     1       1.786  -0.172  -0.091  1.00  0.00    -0.313 OA
BRANCH  15  16
HETATM   16  C2  UNL     1       2.995   0.035  -0.711  1.00  0.00     0.124 C 
HETATM   17  C1  UNL     1       3.911   0.865   0.175  1.00  0.00     0.040 C 
HETATM   18  C3  UNL     1       3.754  -1.207  -1.089  1.00  0.00     0.040 C 
ENDBRANCH  15  16
ENDBRANCH  13  15
ENDBRANCH   1  13
BRANCH   2  19
HETATM   19  C7  UNL     1      -0.868   2.132   1.520  1.00  0.00     0.171 C 
BRANCH  19  20
HETATM   20  C8  UNL     1      -1.080   3.265   0.593  1.00  0.00     0.178 C 
HETATM   21  O3  UNL     1      -1.615   3.055  -0.524  1.00  0.00    -0.648 OA
HETATM   22  O4  UNL     1      -0.710   4.559   0.909  1.00  0.00    -0.648 OA
ENDBRANCH  19  20
ENDBRANCH   2  19
TORSDOF 5
