REMARK  5 active torsions:
REMARK  status: ('A' for Active; 'I' for Inactive)
REMARK    1  A    between atoms: C2_3  and  C3_4 
REMARK       I    between atoms: C3_4  and  N2_6 
REMARK    2  A    between atoms: N2_6  and  C4_8 
REMARK    3  A    between atoms: C7_11  and  C8_12 
REMARK    4  A    between atoms: C8_12  and  C9_13 
REMARK    5  A    between atoms: C9_13  and  N3_14 
ROOT
HETATM    1  N1  UNL     1       5.019   2.984  -0.272  1.00  0.00    -0.196 NA
HETATM    2  C1  UNL     1       5.099   1.831  -0.359  1.00  0.00     0.079 C 
HETATM    3  C2  UNL     1       5.216   0.369  -0.468  1.00  0.00     0.129 C 
HETATM    4  C19 UNL     1       6.339   0.004  -1.395  1.00  0.00     0.034 C 
HETATM    5  C20 UNL     1       7.622   0.667  -0.990  1.00  0.00     0.002 C 
HETATM    6  C21 UNL     1       7.991   0.166   0.390  1.00  0.00     0.000 C 
HETATM    7  C22 UNL     1       6.869   0.366   1.369  1.00  0.00     0.002 C 
HETATM    8  C23 UNL     1       5.566  -0.196   0.902  1.00  0.00     0.034 C 
ENDROOT
BRANCH   3   9
HETATM    9  C3  UNL     1       3.962  -0.237  -0.955  1.00  0.00     0.240 C 
HETATM   10  O1  UNL     1       3.975  -0.889  -2.020  1.00  0.00    -0.272 OA
HETATM   11  N2  UNL     1       2.724  -0.092  -0.230  1.00  0.00    -0.355 N 
ATOM     12  H2  UNL     1       2.730   0.444   0.638  1.00  0.00     0.162 HD
BRANCH  11  13
HETATM   13  C4  UNL     1       1.486  -0.665  -0.670  1.00  0.00     0.084 C 
HETATM   14  C5  UNL     1       0.924  -1.633   0.370  1.00  0.00     0.025 C 
HETATM   15  C6  UNL     1      -0.576  -1.443   0.492  1.00  0.00     0.007 C 
HETATM   16  C7  UNL     1      -0.819  -0.093   1.078  1.00  0.00    -0.013 C 
HETATM   17  C17 UNL     1      -0.199   0.966   0.227  1.00  0.00     0.007 C 
HETATM   18  C18 UNL     1       0.475   0.407  -1.005  1.00  0.00     0.025 C 
BRANCH  16  19
HETATM   19  C8  UNL     1      -2.271   0.182   1.385  1.00  0.00     0.020 C 
BRANCH  19  20
HETATM   20  C9  UNL     1      -3.147   0.112   0.168  1.00  0.00     0.108 C 
BRANCH  20  21
HETATM   21  N3  UNL     1      -4.503   0.388   0.572  1.00  0.00    -0.202 NA
HETATM   22  C10 UNL     1      -5.332   0.776  -0.549  1.00  0.00     0.147 C 
HETATM   23  C11 UNL     1      -6.727   0.459  -0.277  1.00  0.00    -0.020 A 
HETATM   24  C12 UNL     1      -7.871   1.075  -0.774  1.00  0.00     0.033 A 
HETATM   25  C16 UNL     1      -6.926  -0.593   0.576  1.00  0.00     0.082 A 
HETATM   26  C13 UNL     1      -9.117   0.661  -0.437  1.00  0.00     0.034 A 
HETATM   27 CL1  UNL     1     -10.581   1.428  -1.057  1.00  0.00    -0.084 Cl
HETATM   28  C14 UNL     1      -9.269  -0.407   0.428  1.00  0.00     0.025 A 
HETATM   29  C15 UNL     1      -8.156  -1.042   0.941  1.00  0.00     0.027 A 
HETATM   30  S1  UNL     1      -5.314  -1.109   1.011  1.00  0.00     0.244 S 
HETATM   31  O2  UNL     1      -5.168  -1.392   2.454  1.00  0.00    -0.206 OA
HETATM   32  O3  UNL     1      -4.895  -2.218   0.118  1.00  0.00    -0.206 OA
ENDBRANCH  20  21
ENDBRANCH  19  20
ENDBRANCH  16  19
ENDBRANCH  11  13
ENDBRANCH   3   9
TORSDOF 5
