REMARK  13 active torsions:
REMARK  status: ('A' for Active; 'I' for Inactive)
REMARK    1  A    between atoms: O1_2  and  C2_3 
REMARK    2  A    between atoms: C2_3  and  C3_5 
REMARK    3  A    between atoms: C4_6  and  C5_7 
REMARK    4  A    between atoms: C5_7  and  O3_8 
REMARK    5  A    between atoms: C5_7  and  C6_10 
REMARK    6  A    between atoms: C5_7  and  C15_22 
REMARK    7  A    between atoms: C8_12  and  O4_13 
REMARK    8  A    between atoms: C10_15  and  O5_16 
REMARK    9  A    between atoms: C12_18  and  O6_19 
REMARK   10  A    between atoms: C21_31  and  C22_32 
REMARK   11  A    between atoms: C24_34  and  O8_35 
REMARK   12  A    between atoms: C26_37  and  O9_38 
REMARK   13  A    between atoms: C28_40  and  O10_41 
ROOT
HETATM    1  C3  UNL     1       1.080  -0.539   0.403  1.00  0.00     0.104 A 
HETATM    2  C4  UNL     1      -0.238  -0.307   0.221  1.00  0.00     0.091 A 
HETATM    3  N1  UNL     1      -0.395   0.966   0.776  1.00  0.00    -0.260 N 
ATOM      4  H1  UNL     1      -1.289   1.456   0.807  1.00  0.00     0.194 HD
HETATM    5  O7  UNL     1       0.646   1.437   1.222  1.00  0.00    -0.236 OA
HETATM    6  C21 UNL     1       1.639   0.569   1.038  1.00  0.00     0.127 A 
ENDROOT
BRANCH   2   7
HETATM    7  C5  UNL     1      -1.409  -0.916  -0.336  1.00  0.00     0.134 C 
BRANCH   7   8
HETATM    8  O3  UNL     1      -1.688  -1.978   0.666  1.00  0.00    -0.378 OA
ATOM      9  H3  UNL     1      -2.465  -2.382   0.297  1.00  0.00     0.211 HD
ENDBRANCH   7   8
BRANCH   7  10
HETATM   10  C6  UNL     1      -2.624  -0.035  -0.131  1.00  0.00    -0.012 A 
HETATM   11  C7  UNL     1      -3.733  -0.484   0.557  1.00  0.00     0.050 A 
HETATM   12  C8  UNL     1      -4.823   0.321   0.767  1.00  0.00     0.104 A 
HETATM   13  C10 UNL     1      -4.787   1.608   0.272  1.00  0.00     0.135 A 
HETATM   14  C12 UNL     1      -3.704   2.101  -0.420  1.00  0.00     0.104 A 
HETATM   15  C14 UNL     1      -2.633   1.263  -0.612  1.00  0.00     0.050 A 
BRANCH  12  16
HETATM   16  O4  UNL     1      -5.974  -0.047   1.438  1.00  0.00    -0.353 OA
HETATM   17  C9  UNL     1      -6.138  -1.325   1.986  1.00  0.00     0.210 C 
ENDBRANCH  12  16
BRANCH  13  18
HETATM   18  O5  UNL     1      -5.885   2.453   0.475  1.00  0.00    -0.351 OA
HETATM   19  C11 UNL     1      -6.895   2.455  -0.504  1.00  0.00     0.210 C 
ENDBRANCH  13  18
BRANCH  14  20
HETATM   20  O6  UNL     1      -3.783   3.397  -0.860  1.00  0.00    -0.353 OA
HETATM   21  C13 UNL     1      -2.736   4.019  -1.611  1.00  0.00     0.210 C 
ENDBRANCH  14  20
ENDBRANCH   7  10
BRANCH   7  22
HETATM   22  C15 UNL     1      -1.569  -1.529  -1.644  1.00  0.00     0.031 C 
HETATM   23  C16 UNL     1      -0.854  -2.794  -1.894  1.00  0.00     0.008 C 
HETATM   24  C17 UNL     1      -0.789  -3.133  -3.389  1.00  0.00     0.001 C 
HETATM   25  C18 UNL     1      -2.252  -3.301  -3.803  1.00  0.00     0.000 C 
HETATM   26  C19 UNL     1      -3.011  -2.053  -3.554  1.00  0.00     0.001 C 
HETATM   27  C20 UNL     1      -3.041  -1.746  -2.054  1.00  0.00     0.008 C 
ENDBRANCH   7  22
ENDBRANCH   2   7
BRANCH   1  28
HETATM   28  C2  UNL     1       1.834  -1.675  -0.000  1.00  0.00     0.298 C 
HETATM   29  O2  UNL     1       2.433  -1.635  -1.134  1.00  0.00    -0.259 OA
BRANCH  28  30
HETATM   30  O1  UNL     1       1.999  -2.863   0.705  1.00  0.00    -0.322 OA
HETATM   31  C1  UNL     1       2.773  -3.918   0.186  1.00  0.00     0.213 C 
ENDBRANCH  28  30
ENDBRANCH   1  28
BRANCH   6  32
HETATM   32  C22 UNL     1       2.997   0.879   1.470  1.00  0.00     0.006 A 
HETATM   33  C23 UNL     1       4.052   0.029   1.515  1.00  0.00     0.054 A 
HETATM   34  C24 UNL     1       5.361   0.392   1.884  1.00  0.00     0.105 A 
HETATM   35  C26 UNL     1       5.625   1.707   2.232  1.00  0.00     0.135 A 
HETATM   36  C28 UNL     1       4.574   2.577   2.192  1.00  0.00     0.105 A 
HETATM   37  C30 UNL     1       3.296   2.215   1.830  1.00  0.00     0.054 A 
BRANCH  34  38
HETATM   38  O8  UNL     1       6.398  -0.487   1.920  1.00  0.00    -0.353 OA
HETATM   39  C25 UNL     1       6.421  -1.840   1.636  1.00  0.00     0.210 C 
ENDBRANCH  34  38
BRANCH  35  40
HETATM   40  O9  UNL     1       6.908   2.087   2.597  1.00  0.00    -0.351 OA
HETATM   41  C27 UNL     1       7.893   2.528   1.699  1.00  0.00     0.210 C 
ENDBRANCH  35  40
BRANCH  36  42
HETATM   42  O10 UNL     1       4.850   3.899   2.545  1.00  0.00    -0.353 OA
HETATM   43  C29 UNL     1       3.922   4.941   2.570  1.00  0.00     0.210 C 
ENDBRANCH  36  42
ENDBRANCH   6  32
TORSDOF 13
