REMARK  2 active torsions:
REMARK  status: ('A' for Active; 'I' for Inactive)
REMARK    1  A    between atoms: C2_2  and  C3_3 
REMARK       I    between atoms: C3_3  and  N1_5 
REMARK    2  A    between atoms: N1_5  and  C4_7 
ROOT
HETATM    1  C1  UNL     1       0.512  -2.260  -0.331  1.00  0.00     0.027 C 
HETATM    2  C2  UNL     1       1.044  -0.819  -0.244  1.00  0.00     0.053 C 
HETATM    3  C8  UNL     1       2.007  -0.644  -1.354  1.00  0.00     0.023 C 
HETATM    4  C9  UNL     1       3.408  -0.525  -0.778  1.00  0.00     0.041 C 
HETATM    5  C10 UNL     1       3.331   0.713   0.120  1.00  0.00     0.185 C 
HETATM    6  C11 UNL     1       4.700   1.097   0.468  1.00  0.00     0.084 C 
HETATM    7  N2  UNL     1       5.796   1.415   0.747  1.00  0.00    -0.195 NA
HETATM    8  N3  UNL     1       2.602   0.352   1.287  1.00  0.00    -0.405 N 
ATOM      9  H3  UNL     1       2.809   0.767   2.195  1.00  0.00     0.154 HD
HETATM   10  C12 UNL     1       1.574  -0.612   1.129  1.00  0.00     0.134 C 
ENDROOT
BRANCH   2  11
HETATM   11  C3  UNL     1      -0.129   0.053  -0.498  1.00  0.00     0.228 C 
HETATM   12  O1  UNL     1      -0.132   0.854  -1.465  1.00  0.00    -0.273 OA
HETATM   13  N1  UNL     1      -1.285   0.014   0.338  1.00  0.00    -0.355 N 
ATOM     14  H1  UNL     1      -1.301  -0.630   1.129  1.00  0.00     0.162 HD
BRANCH  13  15
HETATM   15  C4  UNL     1      -2.435   0.858   0.101  1.00  0.00     0.094 C 
HETATM   16  C5  UNL     1      -3.606  -0.052  -0.170  1.00  0.00     0.036 C 
HETATM   17  C6  UNL     1      -4.810   0.875  -0.349  1.00  0.00     0.076 C 
HETATM   18  S1  UNL     1      -4.579   1.918   1.147  1.00  0.00    -0.167 SA
HETATM   19  C7  UNL     1      -2.764   1.681   1.307  1.00  0.00     0.099 C 
ENDBRANCH  13  15
ENDBRANCH   2  11
TORSDOF 2
