REMARK  3 active torsions:
REMARK  status: ('A' for Active; 'I' for Inactive)
REMARK    1  A    between atoms: C2_2  and  N1_3 
REMARK    2  A    between atoms: C5_6  and  N2_7 
REMARK       I    between atoms: N2_7  and  C6_9 
REMARK    3  A    between atoms: C6_9  and  C7_11 
ROOT
HETATM    1  N2  UNL     1       0.348   0.261   0.161  1.00  0.00    -0.356 N 
ATOM      2  H2  UNL     1       0.273   0.729  -0.742  1.00  0.00     0.162 HD
HETATM    3  C6  UNL     1      -0.844  -0.146   0.820  1.00  0.00     0.226 C 
HETATM    4  O1  UNL     1      -0.727  -0.722   1.931  1.00  0.00    -0.273 OA
ENDROOT
BRANCH   3   5
HETATM    5  C7  UNL     1      -2.194   0.092   0.228  1.00  0.00     0.041 C 
HETATM    6  C8  UNL     1      -2.281  -0.613  -1.106  1.00  0.00     0.019 C 
HETATM    7  C9  UNL     1      -3.369  -1.663  -1.138  1.00  0.00     0.002 C 
HETATM    8  C10 UNL     1      -4.685  -1.039  -0.801  1.00  0.00     0.005 C 
HETATM    9  C11 UNL     1      -4.582  -0.319   0.527  1.00  0.00    -0.013 C 
HETATM   10  C12 UNL     1      -4.880   1.127   0.330  1.00  0.00     0.005 C 
HETATM   11  C15 UNL     1      -3.231  -0.497   1.138  1.00  0.00     0.023 C 
HETATM   12  C13 UNL     1      -3.716   2.045   0.614  1.00  0.00     0.002 C 
HETATM   13  C14 UNL     1      -2.431   1.568  -0.014  1.00  0.00     0.019 C 
ENDBRANCH   3   5
BRANCH   1  14
HETATM   14  C5  UNL     1       1.647   0.040   0.713  1.00  0.00     0.087 C 
HETATM   15  C4  UNL     1       2.369   1.359   1.011  1.00  0.00     0.055 C 
HETATM   16  C3  UNL     1       3.756   0.979   1.510  1.00  0.00     0.274 C 
HETATM   17  N1  UNL     1       4.537   0.429   0.446  1.00  0.00     0.088 N 
HETATM   18  C17 UNL     1       3.740   0.004  -0.682  1.00  0.00     0.274 C 
HETATM   19  C16 UNL     1       2.551  -0.767  -0.168  1.00  0.00     0.055 C 
BRANCH  17  20
HETATM   20  C2  UNL     1       5.439  -0.602   0.906  1.00  0.00     0.268 C 
HETATM   21  C1  UNL     1       6.266  -1.192  -0.186  1.00  0.00     0.037 C 
ENDBRANCH  17  20
ENDBRANCH   1  14
TORSDOF 3
