REMARK  3 active torsions:
REMARK  status: ('A' for Active; 'I' for Inactive)
REMARK    1  A    between atoms: C2_3  and  C3_4 
REMARK    2  A    between atoms: C9_14  and  O1_15 
REMARK    3  A    between atoms: O1_15  and  C10_16 
ROOT
HETATM    1  N1  UNL     1       6.278   3.337   0.074  1.00  0.00    -0.197 NA
HETATM    2  C1  UNL     1       5.140   3.166   0.210  1.00  0.00     0.064 C 
HETATM    3  C2  UNL     1       3.721   2.949   0.356  1.00  0.00     0.176 C 
ENDROOT
BRANCH   3   4
HETATM    4  C3  UNL     1       3.370   1.481   0.204  1.00  0.00     0.003 C 
HETATM    5  N2  UNL     1       4.264   0.626  -0.072  1.00  0.00    -0.362 N 
HETATM    6  C4  UNL     1       3.963  -0.760  -0.213  1.00  0.00     0.043 A 
ATOM      7  H2  UNL     1       5.227   0.939  -0.197  1.00  0.00     0.165 HD
HETATM    8  C5  UNL     1       5.010  -1.581  -0.581  1.00  0.00     0.047 A 
HETATM    9  C8  UNL     1       2.675  -1.217  -0.042  1.00  0.00     0.013 A 
HETATM   10  C6  UNL     1       4.699  -2.908  -0.776  1.00  0.00     0.090 A 
HETATM   11  N3  UNL     1       3.449  -3.345  -0.611  1.00  0.00    -0.374 N 
HETATM   12  C7  UNL     1       2.429  -2.555  -0.253  1.00  0.00     0.099 A 
ATOM     13  H3  UNL     1       3.260  -4.335  -0.766  1.00  0.00     0.164 HD
HETATM   14  C9  UNL     1       1.657  -0.304   0.399  1.00  0.00     0.164 C 
HETATM   15  C20 UNL     1       1.958   1.139   0.332  1.00  0.00     0.090 C 
BRANCH  14  16
HETATM   16  O1  UNL     1       0.392  -0.492  -0.098  1.00  0.00    -0.375 OA
BRANCH  16  17
HETATM   17  C10 UNL     1      -0.583  -0.850   0.771  1.00  0.00     0.127 C 
HETATM   18  C11 UNL     1      -1.549  -1.924   0.352  1.00  0.00     0.037 C 
HETATM   19  C12 UNL     1      -2.668  -0.997   0.857  1.00  0.00    -0.005 C 
HETATM   20  C13 UNL     1      -3.841  -1.085  -0.029  1.00  0.00     0.010 C 
HETATM   21  C19 UNL     1      -1.741   0.128   0.637  1.00  0.00     0.019 C 
HETATM   22  C14 UNL     1      -4.597   0.152  -0.294  1.00  0.00    -0.013 C 
HETATM   23  C15 UNL     1      -4.051   1.400   0.299  1.00  0.00     0.009 C 
HETATM   24  C17 UNL     1      -4.167   0.710  -1.660  1.00  0.00     0.009 C 
HETATM   25  C16 UNL     1      -3.116   1.509  -0.872  1.00  0.00    -0.013 C 
HETATM   26  C18 UNL     1      -1.880   0.689  -0.751  1.00  0.00     0.012 C 
ENDBRANCH  16  17
ENDBRANCH  14  16
ENDBRANCH   3   4
TORSDOF 3
