REMARK  3 active torsions:
REMARK  status: ('A' for Active; 'I' for Inactive)
REMARK    1  A    between atoms: O1_2  and  C2_3 
REMARK    2  A    between atoms: C4_8  and  C5_9 
REMARK    3  A    between atoms: C13_17  and  O3_18 
ROOT
HETATM    1  C5  UNL     1       1.847  -0.308   0.094  1.00  0.00     0.052 C 
HETATM    2  C6  UNL     1       1.061   0.076   1.388  1.00  0.00     0.012 C 
HETATM    3  C7  UNL     1      -0.310   0.541   1.026  1.00  0.00     0.010 C 
HETATM    4  C8  UNL     1      -1.199  -0.530   0.511  1.00  0.00     0.023 C 
HETATM    5  C9  UNL     1      -0.717  -1.193  -0.717  1.00  0.00    -0.078 C 
HETATM    6  C10 UNL     1      -1.275  -1.000  -1.910  1.00  0.00    -0.023 C 
HETATM    7  C11 UNL     1      -2.434  -0.113  -2.180  1.00  0.00     0.035 C 
HETATM    8  C12 UNL     1      -2.582   0.828  -1.037  1.00  0.00     0.027 C 
HETATM    9  C13 UNL     1      -3.899   1.538  -0.967  1.00  0.00     0.123 C 
HETATM   10  C14 UNL     1      -4.296   1.565   0.505  1.00  0.00     0.033 C 
HETATM   11  C15 UNL     1      -3.044   1.040   1.229  1.00  0.00     0.013 C 
HETATM   12  C16 UNL     1      -2.569   0.019   0.242  1.00  0.00    -0.030 C 
HETATM   13  C17 UNL     1      -3.507  -1.162   0.210  1.00  0.00     0.016 C 
HETATM   14  C18 UNL     1       0.383  -2.156  -0.889  1.00  0.00     0.039 C 
HETATM   15  C19 UNL     1       1.568  -1.810  -0.081  1.00  0.00    -0.004 C 
HETATM   16  C20 UNL     1       2.757  -2.539  -0.638  1.00  0.00     0.011 C 
ENDROOT
BRANCH   1  17
HETATM   17  C4  UNL     1       3.256  -0.210   0.546  1.00  0.00     0.115 A 
HETATM   18  C2  UNL     1       4.231   0.685   0.123  1.00  0.00     0.117 A 
HETATM   19  C3  UNL     1       5.384   0.372   0.810  1.00  0.00     0.153 A 
HETATM   20  N1  UNL     1       5.069  -0.673   1.605  1.00  0.00    -0.269 N 
HETATM   21  O2  UNL     1       3.827  -0.972   1.413  1.00  0.00    -0.239 OA
ATOM     22  H1  UNL     1       5.704  -1.146   2.248  1.00  0.00     0.194 HD
BRANCH  18  23
HETATM   23  O1  UNL     1       4.033   1.688  -0.796  1.00  0.00    -0.352 OA
HETATM   24  C1  UNL     1       5.080   2.578  -1.119  1.00  0.00     0.210 C 
ENDBRANCH  18  23
ENDBRANCH   1  17
BRANCH   9  25
HETATM   25  O3  UNL     1      -4.871   1.003  -1.768  1.00  0.00    -0.395 OA
ATOM     26  H3  UNL     1      -5.706   1.453  -1.724  1.00  0.00     0.210 HD
ENDBRANCH   9  25
TORSDOF 3
