REMARK  2 active torsions:
REMARK  status: ('A' for Active; 'I' for Inactive)
REMARK    1  A    between atoms: O1_2  and  C2_3 
REMARK    2  A    between atoms: C3_4  and  N1_5 
ROOT
HETATM    1  C2  UNL     1      -0.834   0.349  -0.186  1.00  0.00     0.194 C 
HETATM    2  C3  UNL     1      -1.885  -0.308  -1.026  1.00  0.00     0.322 C 
HETATM    3  N2  UNL     1      -1.256  -1.482  -1.600  1.00  0.00    -0.112 NA
HETATM    4  N3  UNL     1       0.110  -1.202  -1.660  1.00  0.00    -0.133 NA
HETATM    5  C4  UNL     1       0.424  -0.460  -0.454  1.00  0.00     0.076 C 
HETATM    6  C5  UNL     1       0.796  -1.355   0.684  1.00  0.00     0.031 C 
HETATM    7  C6  UNL     1       1.887  -0.682   1.470  1.00  0.00     0.002 C 
HETATM    8  C7  UNL     1       2.334   0.519   0.653  1.00  0.00     0.002 C 
HETATM    9  C8  UNL     1       1.630   0.391  -0.668  1.00  0.00     0.031 C 
ENDROOT
BRANCH   2  10
HETATM   10  N1  UNL     1      -2.972  -0.768  -0.186  1.00  0.00    -0.058 N 
ATOM     11  H13 UNL     1      -2.645  -1.377   0.564  1.00  0.00     0.276 HD
ATOM     12  H12 UNL     1      -3.355  -0.018   0.389  1.00  0.00     0.276 HD
ATOM     13  H11 UNL     1      -3.688  -1.216  -0.758  1.00  0.00     0.276 HD
ENDBRANCH   2  10
BRANCH   1  14
HETATM   14  O1  UNL     1      -0.656   1.684  -0.419  1.00  0.00    -0.385 OA
HETATM   15  C1  UNL     1      -0.815   2.499   0.680  1.00  0.00     0.202 C 
ENDBRANCH   1  14
TORSDOF 2
