REMARK  5 active torsions:
REMARK  status: ('A' for Active; 'I' for Inactive)
REMARK    1  A    between atoms: C2_2  and  N2_6 
REMARK    2  A    between atoms: N2_6  and  N3_8 
REMARK    3  A    between atoms: C3_10  and  C5_12 
REMARK    4  A    between atoms: N4_13  and  C6_15 
REMARK    5  A    between atoms: C6_15  and  O1_17 
ROOT
HETATM    1  N3  UNL     1      -1.151   0.464   1.419  1.00  0.00    -0.303 N 
ATOM      2  H3  UNL     1      -1.258   0.131   2.377  1.00  0.00     0.186 HD
HETATM    3  C3  UNL     1       0.009   0.316   0.802  1.00  0.00     0.037 C 
HETATM    4  C4  UNL     1       0.161   0.796  -0.575  1.00  0.00     0.071 C 
ENDROOT
BRANCH   1   5
HETATM    5  N2  UNL     1      -2.228   1.069   0.776  1.00  0.00    -0.290 N 
ATOM      6  H2  UNL     1      -2.096   2.005   0.392  1.00  0.00     0.188 HD
BRANCH   5   7
HETATM    7  C2  UNL     1      -3.499   0.456   0.626  1.00  0.00     0.085 C 
HETATM    8  C1  UNL     1      -3.760  -0.687  -0.277  1.00  0.00     0.090 C 
HETATM    9  N1  UNL     1      -4.471   0.924   1.315  1.00  0.00    -0.388 N 
ATOM     10  H12 UNL     1      -5.385   0.483   1.207  1.00  0.00     0.157 HD
ATOM     11  H11 UNL     1      -4.291   1.712   1.937  1.00  0.00     0.157 HD
ENDBRANCH   5   7
ENDBRANCH   1   5
BRANCH   3  12
HETATM   12  C5  UNL     1       1.063  -0.318   1.544  1.00  0.00     0.111 C 
HETATM   13  N4  UNL     1       2.214  -0.560   1.180  1.00  0.00    -0.372 N 
ATOM     14  H4  UNL     1       2.752  -1.018   1.916  1.00  0.00     0.161 HD
BRANCH  13  15
HETATM   15  C6  UNL     1       2.971  -0.374   0.035  1.00  0.00     0.213 C 
HETATM   16  C7  UNL     1       4.480  -0.235   0.372  1.00  0.00     0.063 C 
BRANCH  15  17
HETATM   17  O1  UNL     1       2.863  -1.502  -0.832  1.00  0.00    -0.377 OA
ATOM     18  H1  UNL     1       3.382  -1.374  -1.617  1.00  0.00     0.212 HD
ENDBRANCH  15  17
ENDBRANCH  13  15
ENDBRANCH   3  12
TORSDOF 5
