REMARK  4 active torsions:
REMARK  status: ('A' for Active; 'I' for Inactive)
REMARK    1  A    between atoms: C2_2  and  C3_3 
REMARK    2  A    between atoms: C6_6  and  C7_7 
REMARK    3  A    between atoms: C7_7  and  C8_8 
REMARK    4  A    between atoms: C20_23  and  O3_25 
ROOT
HETATM    1  C3  UNL     1       0.654  -2.173   0.181  1.00  0.00     0.059 C 
HETATM    2  C4  UNL     1       0.578  -3.468  -0.658  1.00  0.00     0.046 C 
HETATM    3  C5  UNL     1       1.807  -1.381  -0.327  1.00  0.00     0.049 C 
HETATM    4  C6  UNL     1       1.214   0.097  -0.105  1.00  0.00     0.052 C 
HETATM    5  C11 UNL     1      -0.158  -0.118  -0.411  1.00  0.00     0.137 A 
HETATM    6  O1  UNL     1      -0.448  -1.445   0.084  1.00  0.00    -0.362 OA
HETATM    7  C12 UNL     1      -0.835   0.013  -1.672  1.00  0.00     0.090 A 
HETATM    8  C13 UNL     1      -1.425  -1.270  -2.293  1.00  0.00     0.049 C 
HETATM    9  C14 UNL     1      -0.352   0.831  -2.826  1.00  0.00     0.049 C 
HETATM   10  O2  UNL     1      -1.872   0.717  -1.100  1.00  0.00    -0.356 OA
HETATM   11  C15 UNL     1      -1.308   0.711   0.186  1.00  0.00     0.148 A 
HETATM   12  C16 UNL     1      -0.909   2.031   0.674  1.00  0.00     0.018 C 
HETATM   13  C17 UNL     1      -1.236   2.537   1.847  1.00  0.00    -0.001 C 
HETATM   14  C18 UNL     1      -2.066   1.835   2.790  1.00  0.00    -0.001 C 
HETATM   15  C19 UNL     1      -2.526   0.677   2.434  1.00  0.00     0.014 C 
HETATM   16  C20 UNL     1      -2.251   0.079   1.115  1.00  0.00     0.110 C 
HETATM   17  C21 UNL     1      -3.662   0.317   0.400  1.00  0.00     0.054 C 
ENDROOT
BRANCH   4  18
HETATM   18  C7  UNL     1       2.251   0.847  -0.803  1.00  0.00    -0.017 C 
BRANCH  18  19
HETATM   19  C8  UNL     1       2.290   2.294  -0.907  1.00  0.00     0.015 C 
HETATM   20  C9  UNL     1       3.262   3.076  -0.435  1.00  0.00     0.007 C 
HETATM   21  C10 UNL     1       3.222   4.549  -0.586  1.00  0.00     0.062 C 
HETATM   22 CL1  UNL     1       4.591   2.266   0.373  1.00  0.00    -0.089 Cl
ENDBRANCH  18  19
ENDBRANCH   4  18
BRANCH   1  23
HETATM   23  C2  UNL     1       1.080  -2.664   1.549  1.00  0.00     0.033 C 
HETATM   24  C1  UNL     1       0.174  -3.649   2.189  1.00  0.00     0.008 C 
ENDBRANCH   1  23
BRANCH  16  25
HETATM   25  O3  UNL     1      -2.274  -1.315   1.192  1.00  0.00    -0.383 OA
ATOM     26  H3  UNL     1      -2.885  -1.724   1.794  1.00  0.00     0.211 HD
ENDBRANCH  16  25
TORSDOF 4
