REMARK  11 active torsions:
REMARK  status: ('A' for Active; 'I' for Inactive)
REMARK    1  A    between atoms: O1_1  and  C1_3 
REMARK    2  A    between atoms: C1_3  and  C2_4 
REMARK    3  A    between atoms: C3_5  and  S1_6 
REMARK    4  A    between atoms: S1_6  and  C4_7 
REMARK    5  A    between atoms: C4_7  and  C5_8 
REMARK    6  A    between atoms: C5_8  and  C6_9 
REMARK    7  A    between atoms: C6_9  and  C7_10 
REMARK    8  A    between atoms: C7_10  and  C8_11 
REMARK    9  A    between atoms: C8_11  and  N1_12 
REMARK   10  A    between atoms: N2_15  and  C11_16 
REMARK   11  A    between atoms: C27_34  and  O2_35 
ROOT
HETATM    1  C2  UNL     1      -3.921  -0.471  -1.609  1.00  0.00    -0.034 A 
HETATM    2  C3  UNL     1      -2.906  -0.072  -0.910  1.00  0.00    -0.015 A 
HETATM    3  C19 UNL     1      -3.800   0.603   0.143  1.00  0.00     0.061 A 
HETATM    4  C20 UNL     1      -4.905   0.216  -0.703  1.00  0.00     0.002 A 
HETATM    5  C21 UNL     1      -5.723   1.279  -1.378  1.00  0.00    -0.000 C 
HETATM    6  C22 UNL     1      -5.902   2.533  -0.628  1.00  0.00     0.010 C 
HETATM    7  C23 UNL     1      -6.321   2.500   0.769  1.00  0.00     0.039 C 
HETATM    8  C24 UNL     1      -6.689   1.246   1.403  1.00  0.00    -0.051 A 
HETATM    9  C25 UNL     1      -7.301   1.527   2.616  1.00  0.00     0.010 A 
HETATM   10  C26 UNL     1      -7.771   0.557   3.469  1.00  0.00     0.037 A 
HETATM   11  C27 UNL     1      -7.643  -0.769   3.132  1.00  0.00     0.066 A 
HETATM   12  C28 UNL     1      -7.033  -1.066   1.923  1.00  0.00     0.044 A 
HETATM   13  C29 UNL     1      -6.571  -0.085   1.086  1.00  0.00    -0.044 A 
HETATM   14  C30 UNL     1      -5.975  -0.665  -0.120  1.00  0.00     0.033 C 
HETATM   15  C31 UNL     1      -7.071  -0.711  -1.162  1.00  0.00     0.011 C 
HETATM   16  C32 UNL     1      -6.994   0.626  -1.819  1.00  0.00     0.006 C 
ENDROOT
BRANCH   2  17
HETATM   17  S1  UNL     1      -1.129  -0.132  -0.861  1.00  0.00    -0.134 SA
BRANCH  17  18
HETATM   18  C4  UNL     1      -0.330  -0.906  -2.237  1.00  0.00     0.079 C 
BRANCH  18  19
HETATM   19  C5  UNL     1       1.220  -0.838  -2.067  1.00  0.00     0.010 C 
BRANCH  19  20
HETATM   20  C6  UNL     1       1.569  -1.556  -0.810  1.00  0.00     0.002 C 
BRANCH  20  21
HETATM   21  C7  UNL     1       3.038  -1.591  -0.485  1.00  0.00     0.020 C 
BRANCH  21  22
HETATM   22  C8  UNL     1       3.565  -0.201  -0.313  1.00  0.00     0.122 C 
BRANCH  22  23
HETATM   23  N1  UNL     1       4.939  -0.123   0.002  1.00  0.00    -0.390 N 
HETATM   24  C9  UNL     1       5.383  -0.591   1.254  1.00  0.00     0.141 C 
HETATM   25  C10 UNL     1       6.595   0.231   1.716  1.00  0.00     0.143 C 
HETATM   26  N2  UNL     1       7.634   0.060   0.703  1.00  0.00    -0.372 N 
HETATM   27  C17 UNL     1       7.226  -0.438  -0.590  1.00  0.00     0.167 C 
HETATM   28  C18 UNL     1       5.873   0.111  -1.022  1.00  0.00     0.078 C 
BRANCH  26  29
HETATM   29  C11 UNL     1       8.998   0.371   0.982  1.00  0.00     0.074 A 
HETATM   30  C12 UNL     1       9.464   1.639   0.746  1.00  0.00     0.062 A 
HETATM   31 CL1  UNL     1       8.399   2.858   0.111  1.00  0.00    -0.082 Cl
HETATM   32  C13 UNL     1      10.788   2.000   1.000  1.00  0.00     0.026 A 
HETATM   33  C14 UNL     1      11.672   1.070   1.506  1.00  0.00     0.003 A 
HETATM   34  C15 UNL     1      11.202  -0.198   1.741  1.00  0.00     0.026 A 
HETATM   35  C16 UNL     1       9.892  -0.558   1.490  1.00  0.00     0.062 A 
HETATM   36 CL2  UNL     1       9.306  -2.172   1.791  1.00  0.00    -0.082 Cl
ENDBRANCH  26  29
ENDBRANCH  22  23
ENDBRANCH  21  22
ENDBRANCH  20  21
ENDBRANCH  19  20
ENDBRANCH  18  19
ENDBRANCH  17  18
ENDBRANCH   2  17
BRANCH   1  37
HETATM   37  C1  UNL     1      -4.160  -1.273  -2.861  1.00  0.00     0.200 C 
BRANCH  37  38
HETATM   38  O1  UNL     1      -3.024  -1.706  -3.434  1.00  0.00    -0.397 OA
ATOM     39  H1  UNL     1      -3.175  -2.212  -4.224  1.00  0.00     0.209 HD
ENDBRANCH  37  38
ENDBRANCH   1  37
BRANCH  11  40
HETATM   40  O2  UNL     1      -8.110  -1.785   3.977  1.00  0.00    -0.361 OA
ATOM     41  H2  UNL     1      -8.022  -2.702   3.744  1.00  0.00     0.217 HD
ENDBRANCH  11  40
TORSDOF 11
