REMARK  11 active torsions:
REMARK  status: ('A' for Active; 'I' for Inactive)
REMARK    1  A    between atoms: C2_2  and  C3_3 
REMARK    2  A    between atoms: C2_2  and  C29_36 
REMARK    3  A    between atoms: C3_3  and  C4_4 
REMARK    4  A    between atoms: C4_4  and  C5_6 
REMARK    5  A    between atoms: C10_11  and  C11_12 
REMARK    6  A    between atoms: C11_12  and  C12_13 
REMARK    7  A    between atoms: C12_13  and  C13_14 
REMARK    8  A    between atoms: C15_18  and  C17_20 
REMARK    9  A    between atoms: C17_20  and  O4_21 
REMARK   10  A    between atoms: C19_24  and  O5_25 
REMARK   11  A    between atoms: C20_27  and  C21_28 
ROOT
HETATM    1  C12 UNL     1      -1.382   0.972  -1.963  1.00  0.00     0.034 C 
ENDROOT
BRANCH   1   2
HETATM    2  C11 UNL     1      -0.189   1.746  -2.414  1.00  0.00     0.007 C 
BRANCH   2   3
HETATM    3  C10 UNL     1       0.847   2.100  -1.399  1.00  0.00    -0.010 C 
HETATM    4  C8  UNL     1       1.973   2.905  -2.073  1.00  0.00    -0.014 C 
HETATM    5  C7  UNL     1       2.901   2.015  -2.828  1.00  0.00     0.005 C 
HETATM    6  C9  UNL     1       2.722   3.606  -0.964  1.00  0.00     0.010 C 
HETATM    7  C6  UNL     1       3.621   1.185  -1.756  1.00  0.00     0.012 C 
HETATM    8  C5  UNL     1       2.647   0.344  -1.016  1.00  0.00     0.056 C 
HETATM    9  C28 UNL     1       1.380   0.987  -0.584  1.00  0.00     0.017 C 
BRANCH   8  10
HETATM   10  C4  UNL     1       3.348  -0.151   0.216  1.00  0.00     0.131 C 
HETATM   11  O1  UNL     1       2.936   0.110   1.332  1.00  0.00    -0.298 OA
BRANCH  10  12
HETATM   12  C3  UNL     1       4.582  -0.985   0.120  1.00  0.00     0.087 C 
BRANCH  12  13
HETATM   13  C2  UNL     1       5.112  -1.353   1.477  1.00  0.00     0.021 C 
HETATM   14  C1  UNL     1       5.466  -0.124   2.296  1.00  0.00     0.015 C 
BRANCH  13  15
HETATM   15  C29 UNL     1       6.388  -2.115   1.291  1.00  0.00    -0.052 A 
HETATM   16  C30 UNL     1       6.552  -3.365   1.813  1.00  0.00     0.011 A 
HETATM   17  C31 UNL     1       7.719  -4.092   1.658  1.00  0.00     0.044 A 
HETATM   18  C32 UNL     1       8.766  -3.545   0.949  1.00  0.00     0.138 A 
HETATM   19  F1  UNL     1       9.922  -4.223   0.776  1.00  0.00    -0.204 F 
HETATM   20  C33 UNL     1       8.601  -2.282   0.421  1.00  0.00     0.073 A 
HETATM   21 CL1  UNL     1       9.940  -1.589  -0.482  1.00  0.00    -0.081 Cl
HETATM   22  C34 UNL     1       7.441  -1.562   0.577  1.00  0.00     0.034 A 
ENDBRANCH  13  15
ENDBRANCH  12  13
ENDBRANCH  10  12
ENDBRANCH   8  10
ENDBRANCH   2   3
ENDBRANCH   1   2
BRANCH   1  23
HETATM   23  C13 UNL     1      -2.258   1.622  -0.942  1.00  0.00     0.140 C 
HETATM   24  O2  UNL     1      -1.508   1.861   0.207  1.00  0.00    -0.315 OA
HETATM   25  C14 UNL     1      -2.079   2.197   1.371  1.00  0.00     0.270 C 
HETATM   26  O3  UNL     1      -1.683   3.137   2.088  1.00  0.00    -0.264 OA
HETATM   27  C15 UNL     1      -3.231   1.390   1.799  1.00  0.00     0.072 C 
HETATM   28  C16 UNL     1      -2.598   0.333   2.674  1.00  0.00     0.029 C 
HETATM   29  C18 UNL     1      -4.091   0.950   0.693  1.00  0.00     0.045 C 
HETATM   30  C19 UNL     1      -4.930  -0.296   0.950  1.00  0.00     0.128 C 
HETATM   31  C26 UNL     1      -3.586   0.999  -0.717  1.00  0.00    -0.010 C 
HETATM   32  C20 UNL     1      -4.238  -1.584   0.702  1.00  0.00     0.018 C 
HETATM   33  C24 UNL     1      -3.257  -1.465  -0.439  1.00  0.00     0.008 C 
HETATM   34  C25 UNL     1      -3.754  -0.380  -1.323  1.00  0.00     0.012 C 
HETATM   35  C27 UNL     1      -4.576   1.800  -1.616  1.00  0.00     0.018 C 
BRANCH  27  36
HETATM   36  C17 UNL     1      -3.983   2.299   2.805  1.00  0.00     0.184 C 
BRANCH  36  37
HETATM   37  O4  UNL     1      -4.388   3.481   2.185  1.00  0.00    -0.400 OA
ATOM     38  H4  UNL     1      -4.849   4.038   2.801  1.00  0.00     0.209 HD
ENDBRANCH  36  37
ENDBRANCH  27  36
BRANCH  30  39
HETATM   39  O5  UNL     1      -5.433  -0.301   2.242  1.00  0.00    -0.395 OA
ATOM     40  H5  UNL     1      -5.956  -1.078   2.402  1.00  0.00     0.210 HD
ENDBRANCH  30  39
BRANCH  32  41
HETATM   41  C21 UNL     1      -5.181  -2.733   0.567  1.00  0.00    -0.016 C 
HETATM   42  C22 UNL     1      -4.436  -4.052   0.311  1.00  0.00     0.010 C 
HETATM   43  C23 UNL     1      -6.222  -2.625  -0.493  1.00  0.00     0.010 C 
ENDBRANCH  32  41
ENDBRANCH   1  23
TORSDOF 11
