REMARK  12 active torsions:
REMARK  status: ('A' for Active; 'I' for Inactive)
REMARK    1  A    between atoms: C3_3  and  C4_4 
REMARK    2  A    between atoms: C4_4  and  C5_5 
REMARK    3  A    between atoms: C5_5  and  C6_6 
REMARK    4  A    between atoms: C6_6  and  C7_7 
REMARK    5  A    between atoms: C7_7  and  C8_8 
REMARK    6  A    between atoms: C8_8  and  C9_9 
REMARK    7  A    between atoms: C9_9  and  C10_10 
REMARK    8  A    between atoms: C10_10  and  C11_11 
REMARK    9  A    between atoms: C11_11  and  O1_12 
REMARK   10  A    between atoms: C11_11  and  C12_14 
REMARK   11  A    between atoms: C12_14  and  C13_15 
REMARK   12  A    between atoms: C15_18  and  O3_19 
ROOT
HETATM    1  C10 UNL     1      -1.169   0.220  -0.078  1.00  0.00     0.043 C 
ENDROOT
BRANCH   1   2
HETATM    2  C9  UNL     1       0.074   1.041   0.369  1.00  0.00     0.087 C 
BRANCH   2   3
HETATM    3  C8  UNL     1       1.085   0.913  -0.355  1.00  0.00    -0.156 C 
BRANCH   3   4
HETATM    4  C7  UNL     1       2.242   0.766  -1.183  1.00  0.00     0.050 C 
BRANCH   4   5
HETATM    5  C6  UNL     1       3.515   1.397  -0.956  1.00  0.00     0.004 C 
BRANCH   5   6
HETATM    6  C5  UNL     1       4.654   0.783  -0.738  1.00  0.00    -0.022 C 
BRANCH   6   7
HETATM    7  C4  UNL     1       4.830  -0.704  -0.683  1.00  0.00     0.054 C 
BRANCH   7   8
HETATM    8  C3  UNL     1       5.352  -0.988   0.680  1.00  0.00    -0.027 C 
HETATM    9  C2  UNL     1       4.717  -1.667   1.589  1.00  0.00    -0.035 C 
HETATM   10  C1  UNL     1       3.366  -2.255   1.387  1.00  0.00     0.036 C 
ENDBRANCH   7   8
ENDBRANCH   6   7
ENDBRANCH   5   6
ENDBRANCH   4   5
ENDBRANCH   3   4
ENDBRANCH   2   3
ENDBRANCH   1   2
BRANCH   1  11
HETATM   11  C11 UNL     1      -2.244   1.244  -0.322  1.00  0.00     0.121 C 
BRANCH  11  12
HETATM   12  O1  UNL     1      -2.550   1.941   0.814  1.00  0.00    -0.395 OA
ATOM     13  H1  UNL     1      -3.229   2.588   0.660  1.00  0.00     0.210 HD
ENDBRANCH  11  12
BRANCH  11  14
HETATM   14  C12 UNL     1      -3.466   0.732  -1.009  1.00  0.00     0.066 C 
BRANCH  14  15
HETATM   15  C13 UNL     1      -4.081  -0.367  -0.216  1.00  0.00     0.154 C 
HETATM   16  O2  UNL     1      -5.246  -0.916  -0.800  1.00  0.00    -0.381 OA
HETATM   17  C14 UNL     1      -5.566  -1.363   0.498  1.00  0.00     0.202 C 
HETATM   18  C15 UNL     1      -4.920  -0.048   0.962  1.00  0.00     0.171 C 
BRANCH  18  19
HETATM   19  O3  UNL     1      -5.857   0.968   0.835  1.00  0.00    -0.391 OA
ATOM     20  H3  UNL     1      -6.395   1.173   1.591  1.00  0.00     0.210 HD
ENDBRANCH  18  19
ENDBRANCH  14  15
ENDBRANCH  11  14
ENDBRANCH   1  11
TORSDOF 12
