REMARK  7 active torsions:
REMARK  status: ('A' for Active; 'I' for Inactive)
REMARK    1  A    between atoms: O1_1  and  C1_3 
REMARK    2  A    between atoms: C1_3  and  C2_4 
REMARK    3  A    between atoms: C2_4  and  C3_5 
REMARK    4  A    between atoms: C3_5  and  C4_6 
REMARK    5  A    between atoms: C4_6  and  C5_7 
REMARK    6  A    between atoms: C5_7  and  N1_8 
REMARK    7  A    between atoms: N2_11  and  C8_12 
ROOT
HETATM    1  N1  UNL     1       0.468  -0.705   0.338  1.00  0.00     0.091 N 
HETATM    2  C6  UNL     1       0.018  -0.032  -0.831  1.00  0.00     0.292 C 
HETATM    3  C7  UNL     1      -1.394  -0.405  -1.144  1.00  0.00     0.153 C 
HETATM    4  N2  UNL     1      -2.201  -0.655   0.016  1.00  0.00    -0.376 N 
HETATM    5  C14 UNL     1      -1.674  -0.930   1.333  1.00  0.00     0.153 C 
HETATM    6  C15 UNL     1      -0.327  -0.256   1.465  1.00  0.00     0.292 C 
ENDROOT
BRANCH   4   7
HETATM    7  C8  UNL     1      -3.616  -0.632  -0.138  1.00  0.00     0.059 A 
HETATM    8  C9  UNL     1      -4.448  -1.696   0.130  1.00  0.00     0.119 A 
HETATM    9  N3  UNL     1      -5.724  -1.362  -0.113  1.00  0.00    -0.357 N 
HETATM   10  C10 UNL     1      -5.700  -0.060  -0.544  1.00  0.00     0.086 A 
ATOM     11  H3  UNL     1      -6.546  -1.956  -0.000  1.00  0.00     0.166 HD
HETATM   12  S1  UNL     1      -6.636   1.265  -1.081  1.00  0.00    -0.083 SA
HETATM   13  C13 UNL     1      -4.431   0.432  -0.576  1.00  0.00     0.026 A 
HETATM   14  C11 UNL     1      -5.397   2.403  -1.332  1.00  0.00     0.053 A 
HETATM   15  C12 UNL     1      -4.269   1.712  -0.986  1.00  0.00     0.024 A 
ENDBRANCH   4   7
BRANCH   1  16
HETATM   16  C5  UNL     1       1.852  -0.453   0.670  1.00  0.00     0.272 C 
BRANCH  16  17
HETATM   17  C4  UNL     1       2.817  -1.037  -0.296  1.00  0.00     0.030 C 
BRANCH  17  18
HETATM   18  C3  UNL     1       4.226  -0.734   0.136  1.00  0.00     0.004 C 
BRANCH  18  19
HETATM   19  C2  UNL     1       4.542   0.721   0.224  1.00  0.00     0.026 C 
BRANCH  19  20
HETATM   20  C1  UNL     1       5.999   0.898   0.664  1.00  0.00     0.164 C 
BRANCH  20  21
HETATM   21  O1  UNL     1       6.325   2.246   0.759  1.00  0.00    -0.401 OA
ATOM     22  H1  UNL     1       7.228   2.356   1.032  1.00  0.00     0.209 HD
ENDBRANCH  20  21
ENDBRANCH  19  20
ENDBRANCH  18  19
ENDBRANCH  17  18
ENDBRANCH  16  17
ENDBRANCH   1  16
TORSDOF 7
