REMARK  6 active torsions:
REMARK  status: ('A' for Active; 'I' for Inactive)
REMARK    1  A    between atoms: C2_2  and  C3_3 
REMARK    2  A    between atoms: C3_3  and  C4_4 
REMARK    3  A    between atoms: C4_4  and  C5_5 
REMARK    4  A    between atoms: C5_5  and  N1_6 
REMARK       I    between atoms: N1_6  and  C6_8 
REMARK       I    between atoms: C6_8  and  N4_21 
REMARK    5  A    between atoms: N2_9  and  N3_11 
REMARK    6  A    between atoms: N4_21  and  N5_23 
ROOT
HETATM    1  N1  UNL     1       2.236  -1.316  -0.397  1.00  0.00    -0.223 N 
ATOM      2  H1  UNL     1       2.380  -0.617  -1.126  1.00  0.00     0.177 HD
HETATM    3  C6  UNL     1       0.890  -1.750  -0.101  1.00  0.00     0.712 C 
HETATM    4  N2  UNL     1       0.109  -0.899   0.444  1.00  0.00    -0.131 N 
ATOM      5  H2  UNL     1       0.488   0.029   0.634  1.00  0.00     0.205 HD
HETATM    6  N4  UNL     1       0.535  -3.064  -0.429  1.00  0.00    -0.071 N 
ATOM      7  H4  UNL     1       0.394  -3.743   0.319  1.00  0.00     0.212 HD
ENDROOT
BRANCH   1   8
HETATM    8  C5  UNL     1       3.368  -1.833   0.296  1.00  0.00     0.138 C 
BRANCH   8   9
HETATM    9  C4  UNL     1       4.621  -1.146  -0.084  1.00  0.00     0.020 C 
BRANCH   9  10
HETATM   10  C3  UNL     1       4.785   0.281   0.233  1.00  0.00     0.001 C 
BRANCH  10  11
HETATM   11  C2  UNL     1       3.832   1.270  -0.307  1.00  0.00    -0.004 C 
HETATM   12  C1  UNL     1       4.319   2.652   0.189  1.00  0.00     0.005 C 
ENDBRANCH  10  11
ENDBRANCH   9  10
ENDBRANCH   8   9
ENDBRANCH   1   8
BRANCH   4  13
HETATM   13  N3  UNL     1      -1.198  -1.128   0.796  1.00  0.00    -0.295 N 
HETATM   14  C7  UNL     1      -2.242  -0.554   0.240  1.00  0.00     0.004 C 
HETATM   15  C8  UNL     1      -1.801   0.363  -0.807  1.00  0.00     0.054 C 
HETATM   16  C14 UNL     1      -3.461  -1.052   0.871  1.00  0.00     0.054 C 
HETATM   17  C9  UNL     1      -1.800   1.787  -0.312  1.00  0.00     0.006 C 
HETATM   18  C10 UNL     1      -3.013   2.156   0.480  1.00  0.00     0.000 C 
HETATM   19  C11 UNL     1      -4.292   2.030  -0.277  1.00  0.00     0.000 C 
HETATM   20  C12 UNL     1      -4.892   0.663  -0.315  1.00  0.00     0.000 C 
HETATM   21  C13 UNL     1      -4.625  -0.132   0.915  1.00  0.00     0.006 C 
ATOM     22  H3  UNL     1      -1.373  -1.795   1.547  1.00  0.00     0.186 HD
ENDBRANCH   4  13
BRANCH   6  23
HETATM   23  N5  UNL     1       0.368  -3.469  -1.765  1.00  0.00    -0.024 N 
HETATM   24  O1  UNL     1       0.425  -2.618  -2.672  1.00  0.00    -0.516 OA
HETATM   25  O2  UNL     1       0.147  -4.766  -2.087  1.00  0.00    -0.516 OA
ENDBRANCH   6  23
TORSDOF 6
