REMARK  10 active torsions:
REMARK  status: ('A' for Active; 'I' for Inactive)
REMARK    1  A    between atoms: N1_1  and  N2_4 
REMARK    2  A    between atoms: C1_6  and  C2_7 
REMARK    3  A    between atoms: C2_7  and  N3_9 
REMARK    4  A    between atoms: N3_9  and  C3_12 
REMARK    5  A    between atoms: C3_12  and  C4_13 
REMARK    6  A    between atoms: C4_13  and  N4_14 
REMARK       I    between atoms: N4_14  and  C5_16 
REMARK    7  A    between atoms: C5_16  and  C6_18 
REMARK    8  A    between atoms: C6_18  and  N5_19 
REMARK    9  A    between atoms: N5_19  and  C7_21 
REMARK   10  A    between atoms: C7_21  and  C8_22 
ROOT
HETATM    1  C3  UNL     1      -1.949   0.126   0.015  1.00  0.00     0.254 C 
ENDROOT
BRANCH   1   2
HETATM    2  N3  UNL     1      -2.710   0.561   1.186  1.00  0.00    -0.052 N 
ATOM      3  H32 UNL     1      -2.193   1.270   1.707  1.00  0.00     0.279 HD
ATOM      4  H31 UNL     1      -2.742  -0.178   1.888  1.00  0.00     0.279 HD
BRANCH   2   5
HETATM    5  C2  UNL     1      -4.018   1.019   0.884  1.00  0.00     0.321 C 
HETATM    6 CL1  UNL     1      -3.951   2.464  -0.205  1.00  0.00    -0.089 Cl
BRANCH   5   7
HETATM    7  C1  UNL     1      -4.902   0.011   0.330  1.00  0.00     0.128 C 
HETATM    8  N2  UNL     1      -5.895  -0.430   1.013  1.00  0.00    -0.319 N 
ATOM      9  H2  UNL     1      -6.062  -0.069   1.952  1.00  0.00     0.185 HD
BRANCH   8  10
HETATM   10  N1  UNL     1      -6.747  -1.397   0.484  1.00  0.00    -0.346 N 
ATOM     11  H12 UNL     1      -6.566  -1.747  -0.457  1.00  0.00     0.176 HD
ATOM     12  H11 UNL     1      -7.536  -1.748   1.027  1.00  0.00     0.176 HD
ENDBRANCH   8  10
ENDBRANCH   5   7
ENDBRANCH   2   5
ENDBRANCH   1   2
BRANCH   1  13
HETATM   13  C4  UNL     1      -0.512   0.059   0.436  1.00  0.00     0.150 C 
BRANCH  13  14
HETATM   14  N4  UNL     1       0.408  -0.328  -0.616  1.00  0.00    -0.358 N 
HETATM   15  C5  UNL     1       1.795  -0.374  -0.371  1.00  0.00     0.234 C 
HETATM   16  O1  UNL     1       2.237  -0.066   0.791  1.00  0.00    -0.272 OA
ATOM     17  H4  UNL     1       0.049  -0.569  -1.540  1.00  0.00     0.162 HD
BRANCH  15  18
HETATM   18  C6  UNL     1       2.799  -0.773  -1.409  1.00  0.00     0.217 C 
BRANCH  18  19
HETATM   19  N5  UNL     1       4.134  -0.738  -0.878  1.00  0.00    -0.408 N 
ATOM     20  H5  UNL     1       4.659  -1.586  -0.666  1.00  0.00     0.153 HD
BRANCH  19  21
HETATM   21  C7  UNL     1       4.676   0.573  -0.667  1.00  0.00     0.185 C 
BRANCH  21  22
HETATM   22  C8  UNL     1       5.994   0.389   0.120  1.00  0.00     0.370 C 
HETATM   23  F1  UNL     1       5.689  -0.227   1.346  1.00  0.00    -0.213 F 
HETATM   24  F2  UNL     1       6.829  -0.528  -0.505  1.00  0.00    -0.213 F 
ENDBRANCH  21  22
ENDBRANCH  19  21
ENDBRANCH  18  19
ENDBRANCH  15  18
ENDBRANCH  13  14
ENDBRANCH   1  13
TORSDOF 10
