REMARK  3 active torsions:
REMARK  status: ('A' for Active; 'I' for Inactive)
REMARK    1  A    between atoms: C4_4  and  C5_5 
REMARK    2  A    between atoms: C5_5  and  C6_6 
REMARK    3  A    between atoms: C6_6  and  N1_7 
ROOT
HETATM    1  C6  UNL     1       0.960  -0.439  -0.261  1.00  0.00     0.123 C 
ENDROOT
BRANCH   1   2
HETATM    2  C5  UNL     1      -0.274  -0.985   0.406  1.00  0.00     0.024 C 
BRANCH   2   3
HETATM    3  C4  UNL     1      -1.546  -0.601  -0.301  1.00  0.00    -0.013 C 
HETATM    4  C3  UNL     1      -1.767   0.873  -0.386  1.00  0.00     0.005 C 
HETATM    5  C2  UNL     1      -3.099   1.326   0.134  1.00  0.00     0.000 C 
HETATM    6  C1  UNL     1      -4.241   0.481  -0.349  1.00  0.00     0.000 C 
HETATM    7  C11 UNL     1      -4.014  -0.992  -0.194  1.00  0.00     0.000 C 
HETATM    8  C10 UNL     1      -2.687  -1.292   0.435  1.00  0.00     0.005 C 
ENDBRANCH   2   3
ENDBRANCH   1   2
BRANCH   1   9
HETATM    9  N1  UNL     1       2.103  -0.859   0.482  1.00  0.00    -0.356 N 
HETATM   10  C7  UNL     1       3.257  -0.314   0.445  1.00  0.00     0.215 C 
HETATM   11  N2  UNL     1       3.608   0.807  -0.342  1.00  0.00    -0.354 N 
HETATM   12  O1  UNL     1       4.391  -0.679   1.142  1.00  0.00    -0.321 OA
HETATM   13  C8  UNL     1       5.009   1.130  -0.104  1.00  0.00     0.150 C 
ATOM     14  H2  UNL     1       2.983   1.308  -0.973  1.00  0.00     0.163 HD
HETATM   15  C9  UNL     1       5.525  -0.217   0.400  1.00  0.00     0.198 C 
ATOM     16  H1  UNL     1       1.988  -1.665   1.096  1.00  0.00     0.163 HD
ENDBRANCH   1   9
TORSDOF 3
