REMARK  19 active torsions:
REMARK  status: ('A' for Active; 'I' for Inactive)
REMARK    1  A    between atoms: C3_3  and  C5_5 
REMARK    2  A    between atoms: C5_5  and  C6_7 
REMARK    3  A    between atoms: C7_8  and  O2_9 
REMARK    4  A    between atoms: O2_9  and  C8_10 
REMARK       I    between atoms: C8_10  and  N1_12 
REMARK    5  A    between atoms: N1_12  and  C9_14 
REMARK    6  A    between atoms: C13_18  and  C14_19 
REMARK    7  A    between atoms: C15_20  and  C16_21 
REMARK    8  A    between atoms: C16_21  and  O5_23 
REMARK    9  A    between atoms: O5_23  and  C17_24 
REMARK   10  A    between atoms: C21_28  and  C22_29 
REMARK   11  A    between atoms: C22_29  and  O6_30 
REMARK   12  A    between atoms: C22_29  and  C23_32 
REMARK   13  A    between atoms: C23_32  and  C24_33 
REMARK   14  A    between atoms: C27_36  and  O7_37 
REMARK   15  A    between atoms: O7_37  and  C28_38 
REMARK   16  A    between atoms: C28_38  and  O9_40 
REMARK   17  A    between atoms: O9_40  and  C29_41 
REMARK   18  A    between atoms: C29_41  and  C30_42 
REMARK   19  A    between atoms: C33_45  and  C34_46 
ROOT
HETATM    1  C6  UNL     1      -0.552   1.886  -0.722  1.00  0.00     0.059 A 
HETATM    2  C7  UNL     1       0.513   1.111  -0.280  1.00  0.00     0.106 A 
HETATM    3  C13 UNL     1       0.342  -0.223   0.036  1.00  0.00     0.011 A 
HETATM    4  C21 UNL     1      -0.954  -0.728  -0.129  1.00  0.00     0.018 A 
HETATM    5  C27 UNL     1      -1.992   0.057  -0.548  1.00  0.00     0.099 A 
HETATM    6  C33 UNL     1      -1.831   1.411  -0.878  1.00  0.00    -0.003 A 
ENDROOT
BRANCH   2   7
HETATM    7  O2  UNL     1       1.724   1.715  -0.177  1.00  0.00    -0.260 OA
BRANCH   7   8
HETATM    8  C8  UNL     1       2.444   2.049   0.941  1.00  0.00     0.366 C 
HETATM    9  O3  UNL     1       1.953   1.757   2.052  1.00  0.00    -0.238 OA
HETATM   10  N1  UNL     1       3.694   2.705   0.894  1.00  0.00    -0.329 N 
ATOM     11  H1  UNL     1       4.026   2.916  -0.047  1.00  0.00     0.165 HD
BRANCH  10  12
HETATM   12  C9  UNL     1       4.560   3.117   1.925  1.00  0.00     0.024 C 
HETATM   13  C10 UNL     1       5.044   1.957   2.732  1.00  0.00     0.037 C 
HETATM   14  C11 UNL     1       3.796   4.130   2.777  1.00  0.00     0.037 C 
HETATM   15  C12 UNL     1       5.754   3.851   1.284  1.00  0.00     0.037 C 
ENDBRANCH  10  12
ENDBRANCH   7   8
ENDBRANCH   2   7
BRANCH   1  16
HETATM   16  C5  UNL     1      -0.240   3.263  -0.987  1.00  0.00     0.191 C 
HETATM   17  O1  UNL     1      -0.404   4.087  -0.053  1.00  0.00    -0.287 OA
BRANCH  16  18
HETATM   18  C3  UNL     1       0.247   3.742  -2.242  1.00  0.00    -0.015 C 
HETATM   19  C2  UNL     1       0.489   2.982  -3.289  1.00  0.00    -0.020 C 
HETATM   20  C1  UNL     1       0.973   3.472  -4.590  1.00  0.00     0.036 C 
HETATM   21  C4  UNL     1       0.498   5.211  -2.433  1.00  0.00     0.052 C 
ENDBRANCH  16  18
ENDBRANCH   1  16
BRANCH   3  22
HETATM   22  C14 UNL     1       1.496  -0.917   0.503  1.00  0.00     0.021 C 
HETATM   23  C15 UNL     1       1.664  -1.964   1.259  1.00  0.00     0.083 C 
BRANCH  23  24
HETATM   24  C16 UNL     1       2.997  -2.450   1.548  1.00  0.00     0.283 C 
HETATM   25  O4  UNL     1       3.106  -3.487   2.287  1.00  0.00    -0.260 OA
BRANCH  24  26
HETATM   26  O5  UNL     1       4.171  -1.890   1.090  1.00  0.00    -0.308 OA
BRANCH  26  27
HETATM   27  C17 UNL     1       5.446  -2.461   1.416  1.00  0.00     0.060 C 
HETATM   28  C18 UNL     1       5.518  -3.888   0.893  1.00  0.00     0.046 C 
HETATM   29  C19 UNL     1       5.758  -2.483   2.872  1.00  0.00     0.046 C 
HETATM   30  C20 UNL     1       6.550  -1.685   0.702  1.00  0.00     0.046 C 
ENDBRANCH  26  27
ENDBRANCH  24  26
ENDBRANCH  23  24
ENDBRANCH   3  22
BRANCH   6  31
HETATM   31  C34 UNL     1      -2.981   2.145  -1.293  1.00  0.00     0.014 C 
HETATM   32  C35 UNL     1      -3.956   1.259  -2.072  1.00  0.00     0.015 C 
HETATM   33  C36 UNL     1      -2.982   3.432  -1.990  1.00  0.00     0.015 C 
ENDBRANCH   6  31
BRANCH   4  34
HETATM   34  C22 UNL     1      -1.114  -2.231  -0.087  1.00  0.00     0.155 C 
BRANCH  34  35
HETATM   35  O6  UNL     1      -1.892  -2.637   0.945  1.00  0.00    -0.391 OA
ATOM     36  H6  UNL     1      -1.993  -3.581   0.971  1.00  0.00     0.210 HD
ENDBRANCH  34  35
BRANCH  34  37
HETATM   37  C23 UNL     1      -1.848  -2.667  -1.393  1.00  0.00     0.040 C 
BRANCH  37  38
HETATM   38  C24 UNL     1      -1.985  -4.195  -1.440  1.00  0.00    -0.020 C 
HETATM   39  C25 UNL     1      -0.649  -4.895  -1.280  1.00  0.00     0.009 C 
HETATM   40  C26 UNL     1      -2.283  -4.450  -2.977  1.00  0.00     0.009 C 
ENDBRANCH  37  38
ENDBRANCH  34  37
ENDBRANCH   4  34
BRANCH   5  41
HETATM   41  O7  UNL     1      -3.286  -0.553  -0.588  1.00  0.00    -0.254 OA
BRANCH  41  42
HETATM   42  C28 UNL     1      -4.040  -0.419   0.627  1.00  0.00     0.411 C 
HETATM   43  O8  UNL     1      -3.482   0.201   1.579  1.00  0.00    -0.229 OA
BRANCH  42  44
HETATM   44  O9  UNL     1      -5.304  -0.901   0.818  1.00  0.00    -0.297 OA
BRANCH  44  45
HETATM   45  C29 UNL     1      -5.961  -0.683   2.031  1.00  0.00     0.185 C 
BRANCH  45  46
HETATM   46  C30 UNL     1      -7.348  -1.279   1.982  1.00  0.00     0.002 C 
HETATM   47  C31 UNL     1      -7.360  -2.769   1.787  1.00  0.00     0.011 C 
HETATM   48  C32 UNL     1      -8.140  -0.696   0.808  1.00  0.00     0.011 C 
ENDBRANCH  45  46
ENDBRANCH  44  45
ENDBRANCH  42  44
ENDBRANCH  41  42
ENDBRANCH   5  41
TORSDOF 19
