REMARK  13 active torsions:
REMARK  status: ('A' for Active; 'I' for Inactive)
REMARK    1  A    between atoms: C4_4  and  C5_5 
REMARK    2  A    between atoms: C5_5  and  C6_6 
REMARK    3  A    between atoms: C6_6  and  C7_7 
REMARK    4  A    between atoms: C9_9  and  C10_10 
REMARK    5  A    between atoms: C10_10  and  C11_11 
REMARK    6  A    between atoms: C11_11  and  C12_12 
REMARK    7  A    between atoms: C22_24  and  O3_26 
REMARK    8  A    between atoms: C24_28  and  C25_29 
REMARK    9  A    between atoms: C24_28  and  C26_31 
REMARK   10  A    between atoms: C26_31  and  C27_32 
REMARK   11  A    between atoms: C27_32  and  C28_33 
REMARK   12  A    between atoms: C28_33  and  C29_34 
REMARK   13  A    between atoms: C34_39  and  O5_40 
ROOT
HETATM    1  C12 UNL     1       3.310  -1.927   0.177  1.00  0.00     0.183 C 
HETATM    2  C13 UNL     1       3.302  -2.985  -0.867  1.00  0.00     0.061 C 
HETATM    3  O1  UNL     1       2.007  -2.203   0.862  1.00  0.00    -0.216 OA
HETATM    4  O2  UNL     1       1.178  -2.304  -0.158  1.00  0.00    -0.198 OA
HETATM    5  C14 UNL     1       0.747  -1.039  -0.574  1.00  0.00     0.214 C 
HETATM    6  C15 UNL     1       0.623  -1.001  -2.029  1.00  0.00     0.074 C 
HETATM    7  C16 UNL     1      -0.755  -0.481  -2.272  1.00  0.00     0.016 C 
HETATM    8  C17 UNL     1      -1.266   0.162  -0.958  1.00  0.00    -0.027 C 
HETATM    9  C18 UNL     1      -0.379   1.439  -0.870  1.00  0.00     0.016 C 
HETATM   10  C19 UNL     1      -2.642   0.587  -1.028  1.00  0.00     0.006 C 
HETATM   11  C20 UNL     1      -2.843   0.893  -2.517  1.00  0.00     0.009 C 
HETATM   12  C21 UNL     1      -4.101   1.548  -2.883  1.00  0.00     0.039 C 
HETATM   13  C22 UNL     1      -5.185   1.405  -1.919  1.00  0.00     0.069 C 
HETATM   14  C23 UNL     1      -5.476   2.674  -1.248  1.00  0.00     0.047 C 
HETATM   15  C24 UNL     1      -5.124   0.121  -1.065  1.00  0.00     0.053 C 
HETATM   16  C32 UNL     1      -3.806  -0.063  -0.352  1.00  0.00     0.003 C 
HETATM   17  C33 UNL     1      -3.952   0.538   1.040  1.00  0.00     0.019 C 
HETATM   18  C34 UNL     1      -3.619  -1.525  -0.057  1.00  0.00     0.128 C 
HETATM   19  C35 UNL     1      -2.518  -1.890   0.873  1.00  0.00     0.033 C 
HETATM   20  C36 UNL     1      -1.284  -2.135   0.030  1.00  0.00     0.018 C 
HETATM   21  C37 UNL     1      -0.650  -0.732   0.009  1.00  0.00     0.024 C 
HETATM   22  C38 UNL     1      -0.311  -0.288   1.376  1.00  0.00     0.022 C 
HETATM   23  O6  UNL     1       1.711  -0.132  -0.153  1.00  0.00    -0.277 OA
HETATM   24  C39 UNL     1       3.070  -0.548  -0.241  1.00  0.00     0.299 C 
HETATM   25  O7  UNL     1       3.910   0.293  -0.660  1.00  0.00    -0.262 OA
ENDROOT
BRANCH   1  26
HETATM   26  C11 UNL     1       4.330  -2.073   1.235  1.00  0.00     0.078 C 
BRANCH  26  27
HETATM   27  C10 UNL     1       5.750  -2.182   0.917  1.00  0.00    -0.023 C 
BRANCH  27  28
HETATM   28  C9  UNL     1       6.458  -1.156   0.175  1.00  0.00    -0.002 C 
HETATM   29  C7  UNL     1       7.403  -0.383   0.728  1.00  0.00    -0.084 C 
HETATM   30  C8  UNL     1       7.789  -0.530   2.152  1.00  0.00     0.043 C 
BRANCH  29  31
HETATM   31  C6  UNL     1       8.089   0.648  -0.088  1.00  0.00     0.037 C 
BRANCH  31  32
HETATM   32  C5  UNL     1       9.578   0.278  -0.062  1.00  0.00     0.031 C 
BRANCH  32  33
HETATM   33  C4  UNL     1      10.403   1.212  -0.834  1.00  0.00    -0.024 C 
HETATM   34  C2  UNL     1      11.366   1.890  -0.240  1.00  0.00    -0.091 C 
HETATM   35  C1  UNL     1      12.194   2.831  -1.030  1.00  0.00     0.042 C 
HETATM   36  C3  UNL     1      11.664   1.746   1.218  1.00  0.00     0.042 C 
ENDBRANCH  32  33
ENDBRANCH  31  32
ENDBRANCH  29  31
ENDBRANCH  27  28
ENDBRANCH  26  27
ENDBRANCH   1  26
BRANCH  18  37
HETATM   37  O5  UNL     1      -3.536  -2.372  -1.140  1.00  0.00    -0.395 OA
ATOM     38  H5  UNL     1      -3.418  -3.296  -0.954  1.00  0.00     0.210 HD
ENDBRANCH  18  37
BRANCH  15  39
HETATM   39  C25 UNL     1      -5.316  -0.938  -2.137  1.00  0.00     0.244 C 
HETATM   40  O4  UNL     1      -6.183  -1.781  -2.120  1.00  0.00    -0.306 OA
ENDBRANCH  15  39
BRANCH  15  41
HETATM   41  C26 UNL     1      -6.368   0.218  -0.276  1.00  0.00     0.020 C 
BRANCH  41  42
HETATM   42  C27 UNL     1      -6.873  -0.700   0.702  1.00  0.00     0.002 C 
BRANCH  42  43
HETATM   43  C28 UNL     1      -8.209  -0.458   1.346  1.00  0.00     0.004 C 
BRANCH  43  44
HETATM   44  C29 UNL     1      -8.439   0.754   2.143  1.00  0.00    -0.023 C 
HETATM   45  C30 UNL     1      -9.907   0.601   2.662  1.00  0.00     0.009 C 
HETATM   46  C31 UNL     1      -8.431   2.073   1.453  1.00  0.00     0.009 C 
ENDBRANCH  43  44
ENDBRANCH  42  43
ENDBRANCH  41  42
ENDBRANCH  15  41
BRANCH  13  47
HETATM   47  O3  UNL     1      -6.383   1.182  -2.681  1.00  0.00    -0.389 OA
ATOM     48  H3  UNL     1      -7.089   1.089  -2.053  1.00  0.00     0.210 HD
ENDBRANCH  13  47
TORSDOF 13
