REMARK  2 active torsions:
REMARK  status: ('A' for Active; 'I' for Inactive)
REMARK    1  A    between atoms: C2_2  and  C3_3 
REMARK    2  A    between atoms: C6_6  and  C7_7 
ROOT
HETATM    1  C3  UNL     1      -2.227   0.779  -0.351  1.00  0.00     0.186 C 
HETATM    2  C4  UNL     1      -2.524   0.555   1.093  1.00  0.00     0.035 C 
HETATM    3  C5  UNL     1      -1.172   0.123   1.676  1.00  0.00     0.035 C 
HETATM    4  C6  UNL     1      -0.252   0.636   0.623  1.00  0.00     0.191 C 
HETATM    5  N1  UNL     1      -0.942   0.136  -0.578  1.00  0.00    -0.066 N 
ATOM      6  H11 UNL     1      -0.491   0.317  -1.475  1.00  0.00     0.278 HD
ATOM      7  H12 UNL     1      -0.953  -0.875  -0.713  1.00  0.00     0.278 HD
ENDROOT
BRANCH   4   8
HETATM    8  C7  UNL     1       1.153   0.169   0.711  1.00  0.00     0.025 A 
HETATM    9  C8  UNL     1       2.037   0.741  -0.408  1.00  0.00     0.002 A 
HETATM   10  C9  UNL     1       3.477   1.015  -0.059  1.00  0.00     0.084 C 
HETATM   11  C12 UNL     1       1.792  -0.713  -0.271  1.00  0.00     0.002 A 
HETATM   12  C10 UNL     1       4.171  -0.304  -0.204  1.00  0.00     0.244 C 
HETATM   13  F1  UNL     1       4.716  -0.472  -1.462  1.00  0.00    -0.206 F 
HETATM   14  F2  UNL     1       5.208  -0.465   0.711  1.00  0.00    -0.206 F 
HETATM   15  C11 UNL     1       3.119  -1.325   0.103  1.00  0.00     0.084 C 
ENDBRANCH   4   8
BRANCH   1  16
HETATM   16  C2  UNL     1      -3.287   0.283  -1.286  1.00  0.00     0.028 C 
HETATM   17  C1  UNL     1      -3.537  -1.190  -1.175  1.00  0.00     0.007 C 
ENDBRANCH   1  16
TORSDOF 2
