REMARK  2 active torsions:
REMARK  status: ('A' for Active; 'I' for Inactive)
REMARK    1  A    between atoms: C2_2  and  N1_3 
REMARK    2  A    between atoms: C2_2  and  C8_12 
ROOT
HETATM    1  N1  UNL     1       0.281   0.903   0.803  1.00  0.00    -0.369 N 
ATOM      2  H1  UNL     1       0.239   1.425   1.679  1.00  0.00     0.165 HD
HETATM    3  C3  UNL     1       1.432   0.211   0.638  1.00  0.00    -0.008 C 
HETATM    4  C4  UNL     1       2.283   0.624  -0.588  1.00  0.00     0.058 C 
HETATM    5  C5  UNL     1       3.569  -0.135  -0.222  1.00  0.00     0.085 C 
HETATM    6  C6  UNL     1       2.983  -1.509   0.054  1.00  0.00     0.248 C 
HETATM    7  F1  UNL     1       3.777  -2.281   0.855  1.00  0.00    -0.206 F 
HETATM    8  F2  UNL     1       2.793  -2.128  -1.183  1.00  0.00    -0.206 F 
HETATM    9  C7  UNL     1       1.610  -1.225   0.678  1.00  0.00     0.131 C 
ENDROOT
BRANCH   1  10
HETATM   10  C2  UNL     1      -0.843   1.042   0.024  1.00  0.00    -0.010 C 
HETATM   11  C1  UNL     1      -0.667   1.656  -1.348  1.00  0.00     0.064 C 
BRANCH  10  12
HETATM   12  C8  UNL     1      -1.927   0.003   0.082  1.00  0.00    -0.013 C 
HETATM   13  C9  UNL     1      -1.988  -0.513   1.506  1.00  0.00     0.021 C 
HETATM   14  C10 UNL     1      -3.308   0.670  -0.140  1.00  0.00     0.021 C 
HETATM   15  C11 UNL     1      -1.863  -1.104  -0.882  1.00  0.00     0.021 C 
ENDBRANCH  10  12
ENDBRANCH   1  10
TORSDOF 2
