REMARK  5 active torsions:
REMARK  status: ('A' for Active; 'I' for Inactive)
REMARK    1  A    between atoms: C5_5  and  N1_6 
REMARK    2  A    between atoms: C6_9  and  C7_10 
REMARK    3  A    between atoms: C7_10  and  N3_11 
REMARK    4  A    between atoms: N3_11  and  C8_14 
REMARK    5  A    between atoms: C18_26  and  C19_27 
ROOT
HETATM    1  N1  UNL     1       2.774   0.178   0.619  1.00  0.00    -0.219 N 
HETATM    2  N2  UNL     1       1.476   0.454   0.714  1.00  0.00    -0.277 N 
ATOM      3  H2  UNL     1       1.094   1.366   0.963  1.00  0.00     0.189 HD
HETATM    4  C6  UNL     1       0.734  -0.636   0.436  1.00  0.00     0.123 A 
HETATM    5  N4  UNL     1       1.624  -1.603   0.162  1.00  0.00    -0.331 N 
ATOM      6  H4  UNL     1       1.388  -2.563  -0.091  1.00  0.00     0.168 HD
HETATM    7  C18 UNL     1       2.871  -1.117   0.271  1.00  0.00     0.111 A 
ENDROOT
BRANCH   4   8
HETATM    8  C7  UNL     1      -0.780  -0.715   0.442  1.00  0.00     0.310 C 
BRANCH   8   9
HETATM    9  N3  UNL     1      -1.360   0.431  -0.159  1.00  0.00    -0.060 N 
ATOM     10  H32 UNL     1      -1.015   1.294   0.261  1.00  0.00     0.278 HD
ATOM     11  H31 UNL     1      -1.016   0.575  -1.108  1.00  0.00     0.278 HD
BRANCH   9  12
HETATM   12  C8  UNL     1      -2.796   0.355  -0.118  1.00  0.00     0.127 C 
HETATM   13  C9  UNL     1      -3.260  -0.824  -0.907  1.00  0.00     0.043 C 
HETATM   14  C10 UNL     1      -4.786  -0.866  -0.927  1.00  0.00    -0.012 C 
HETATM   15  C11 UNL     1      -5.227  -0.956   0.532  1.00  0.00     0.009 C 
HETATM   16  C15 UNL     1      -5.372   0.378  -1.506  1.00  0.00     0.009 C 
HETATM   17  C12 UNL     1      -4.833   0.297   1.272  1.00  0.00    -0.012 C 
HETATM   18  C13 UNL     1      -5.371   1.543   0.648  1.00  0.00     0.009 C 
HETATM   19  C17 UNL     1      -3.298   0.313   1.309  1.00  0.00     0.043 C 
HETATM   20  C14 UNL     1      -4.855   1.593  -0.767  1.00  0.00    -0.012 C 
HETATM   21  C16 UNL     1      -3.371   1.604  -0.763  1.00  0.00     0.043 C 
ENDBRANCH   9  12
ENDBRANCH   8   9
ENDBRANCH   4   8
BRANCH   1  22
HETATM   22  C5  UNL     1       3.801   1.133   0.858  1.00  0.00     0.170 A 
HETATM   23  C4  UNL     1       4.637   1.118   1.953  1.00  0.00     0.061 A 
HETATM   24  C3  UNL     1       5.468   2.227   1.765  1.00  0.00     0.036 A 
HETATM   25  C2  UNL     1       5.090   2.838   0.585  1.00  0.00     0.051 A 
HETATM   26  C1  UNL     1       5.726   4.062   0.017  1.00  0.00     0.077 C 
HETATM   27  O1  UNL     1       4.101   2.158   0.081  1.00  0.00    -0.297 OA
ENDBRANCH   1  22
BRANCH   7  28
HETATM   28  C19 UNL     1       4.132  -1.871   0.050  1.00  0.00     0.055 C 
HETATM   29  C20 UNL     1       4.156  -3.182   0.808  1.00  0.00     0.012 C 
HETATM   30  C21 UNL     1       4.864  -3.776  -0.417  1.00  0.00     0.002 C 
HETATM   31  C22 UNL     1       4.168  -2.679  -1.224  1.00  0.00     0.012 C 
ENDBRANCH   7  28
TORSDOF 5
