REMARK  6 active torsions:
REMARK  status: ('A' for Active; 'I' for Inactive)
REMARK    1  A    between atoms: C2_2  and  C3_3 
REMARK    2  A    between atoms: C2_2  and  N2_8 
REMARK    3  A    between atoms: N1_4  and  O1_6 
REMARK    4  A    between atoms: N2_8  and  N3_9 
REMARK       I    between atoms: N3_9  and  C4_11 
REMARK    5  A    between atoms: C4_11  and  O3_13 
REMARK    6  A    between atoms: O3_13  and  C5_14 
ROOT
HETATM    1  N3  UNL     1      -0.575  -0.369   1.237  1.00  0.00    -0.248 N 
ATOM      2  H3  UNL     1      -0.810   0.335   1.937  1.00  0.00     0.187 HD
HETATM    3  C4  UNL     1       0.777  -0.509   0.835  1.00  0.00     0.378 C 
HETATM    4  O2  UNL     1       1.040  -1.397  -0.045  1.00  0.00    -0.237 OA
ENDROOT
BRANCH   1   5
HETATM    5  N2  UNL     1      -1.598  -1.162   0.708  1.00  0.00    -0.127 NA
BRANCH   5   6
HETATM    6  C2  UNL     1      -1.917  -0.718  -0.622  1.00  0.00     0.135 C 
HETATM    7  C1  UNL     1      -2.983  -1.678  -1.161  1.00  0.00     0.035 C 
BRANCH   6   8
HETATM    8  C3  UNL     1      -2.451   0.675  -0.656  1.00  0.00     0.109 C 
HETATM    9  N1  UNL     1      -2.663   1.312   0.421  1.00  0.00    -0.283 N 
ATOM     10  H1  UNL     1      -2.445   0.809   1.281  1.00  0.00     0.192 HD
BRANCH   9  11
HETATM   11  O1  UNL     1      -3.138   2.565   0.582  1.00  0.00    -0.291 OA
ATOM     12  H1  UNL     1      -3.297   3.042   1.388  1.00  0.00     0.244 HD
ENDBRANCH   9  11
ENDBRANCH   6   8
ENDBRANCH   5   6
ENDBRANCH   1   5
BRANCH   3  13
HETATM   13  O3  UNL     1       1.839   0.215   1.296  1.00  0.00    -0.276 OA
BRANCH  13  14
HETATM   14  C5  UNL     1       3.166   0.055   0.879  1.00  0.00     0.279 C 
HETATM   15  C6  UNL     1       3.961   1.270   0.558  1.00  0.00     0.248 C 
HETATM   16  O4  UNL     1       4.421   1.186   1.879  1.00  0.00    -0.280 OA
HETATM   17  N4  UNL     1       4.132  -0.155   1.942  1.00  0.00    -0.066 NA
ENDBRANCH  13  14
ENDBRANCH   3  13
TORSDOF 6
