REMARK  3 active torsions:
REMARK  status: ('A' for Active; 'I' for Inactive)
REMARK    1  A    between atoms: C3_4  and  N2_5 
REMARK    2  A    between atoms: C7_12  and  C8_13 
REMARK    3  A    between atoms: C8_13  and  C9_14 
ROOT
HETATM    1  N1  UNL     1      -3.919  -1.089  -2.463  1.00  0.00    -0.196 NA
HETATM    2  C1  UNL     1      -3.399  -0.308  -1.802  1.00  0.00     0.075 C 
HETATM    3  C2  UNL     1      -2.739   0.683  -0.954  1.00  0.00     0.182 C 
HETATM    4  C3  UNL     1      -3.783   1.459  -0.229  1.00  0.00     0.062 C 
HETATM    5  S1  UNL     1      -4.692   0.505   0.982  1.00  0.00    -0.111 SA
HETATM    6  C4  UNL     1      -3.638  -0.905   1.326  1.00  0.00     0.115 C 
HETATM    7  C5  UNL     1      -2.200  -0.659   1.024  1.00  0.00    -0.061 C 
HETATM    8  C6  UNL     1      -1.779   0.054  -0.004  1.00  0.00    -0.025 C 
HETATM    9  C7  UNL     1      -0.305   0.062  -0.015  1.00  0.00    -0.049 C 
HETATM   10  C14 UNL     1       0.070  -0.199   1.398  1.00  0.00     0.043 C 
HETATM   11  C15 UNL     1      -1.051  -1.139   1.806  1.00  0.00     0.040 C 
ENDROOT
BRANCH   4  12
HETATM   12  N2  UNL     1      -3.997   2.664  -0.445  1.00  0.00    -0.396 N 
ATOM     13  H22 UNL     1      -3.479   3.208  -1.135  1.00  0.00     0.156 HD
ATOM     14  H21 UNL     1      -4.712   3.196   0.052  1.00  0.00     0.156 HD
ENDBRANCH   4  12
BRANCH   9  15
HETATM   15  C8  UNL     1       0.532   0.215  -1.020  1.00  0.00     0.020 C 
BRANCH  15  16
HETATM   16  C9  UNL     1       1.964   0.194  -0.805  1.00  0.00    -0.017 A 
HETATM   17  C10 UNL     1       2.611   0.916   0.178  1.00  0.00     0.101 A 
HETATM   18  N3  UNL     1       3.942   0.801   0.327  1.00  0.00    -0.349 N 
HETATM   19  C11 UNL     1       4.701  -0.003  -0.452  1.00  0.00     0.138 A 
ATOM     20  H3  UNL     1       4.400   1.344   1.059  1.00  0.00     0.167 HD
HETATM   21  N4  UNL     1       5.982  -0.077  -0.257  1.00  0.00    -0.383 N 
HETATM   22  C12 UNL     1       4.098  -0.731  -1.433  1.00  0.00     0.160 A 
ATOM     23  H42 UNL     1       6.433   0.468   0.477  1.00  0.00     0.157 HD
ATOM     24  H41 UNL     1       6.554  -0.683  -0.844  1.00  0.00     0.157 HD
HETATM   25  F1  UNL     1       4.864  -1.540  -2.215  1.00  0.00    -0.202 F 
HETATM   26  C13 UNL     1       2.735  -0.629  -1.605  1.00  0.00     0.059 A 
ENDBRANCH  15  16
ENDBRANCH   9  15
TORSDOF 3
