REMARK  3 active torsions:
REMARK  status: ('A' for Active; 'I' for Inactive)
REMARK    1  A    between atoms: N1_1  and  C1_4 
REMARK    2  A    between atoms: C3_9  and  N3_10 
REMARK    3  A    between atoms: N3_10  and  C4_12 
ROOT
HETATM    1  C1  UNL     1       5.985   0.776  -0.427  1.00  0.00     0.139 A 
HETATM    2  N2  UNL     1       4.740   1.280  -0.517  1.00  0.00    -0.331 N 
ATOM      3  H2  UNL     1       4.604   2.220  -0.888  1.00  0.00     0.168 HD
HETATM    4  C2  UNL     1       3.657   0.551  -0.119  1.00  0.00     0.123 A 
HETATM    5  S1  UNL     1       1.952   0.805  -0.064  1.00  0.00    -0.033 SA
HETATM    6  C3  UNL     1       1.487  -0.700   0.592  1.00  0.00     0.148 A 
HETATM    7  N4  UNL     1       2.646  -1.314   0.734  1.00  0.00    -0.321 N 
ATOM      8  H4  UNL     1       2.678  -2.259   1.116  1.00  0.00     0.169 HD
HETATM    9  C12 UNL     1       3.747  -0.717   0.388  1.00  0.00     0.143 A 
HETATM   10  N5  UNL     1       5.022  -1.235   0.480  1.00  0.00    -0.328 N 
ATOM     11  H5  UNL     1       5.169  -2.175   0.849  1.00  0.00     0.168 HD
HETATM   12  C13 UNL     1       6.055  -0.505   0.087  1.00  0.00     0.149 A 
HETATM   13 CL1  UNL     1       7.682  -1.185   0.213  1.00  0.00    -0.060 Cl
ENDROOT
BRANCH   6  14
HETATM   14  N3  UNL     1       0.202  -1.211   0.919  1.00  0.00    -0.366 N 
ATOM     15  H3  UNL     1       0.114  -2.148   1.313  1.00  0.00     0.162 HD
BRANCH  14  16
HETATM   16  C4  UNL     1      -0.980  -0.411   0.696  1.00  0.00     0.083 C 
HETATM   17  C5  UNL     1      -2.182  -1.138   1.162  1.00  0.00     0.025 C 
HETATM   18  C6  UNL     1      -3.064  -0.210   2.012  1.00  0.00     0.002 C 
HETATM   19  C7  UNL     1      -4.218   0.321   1.226  1.00  0.00     0.000 C 
HETATM   20  C8  UNL     1      -3.638   1.158   0.078  1.00  0.00     0.000 C 
HETATM   21  C9  UNL     1      -3.558   0.343  -1.151  1.00  0.00     0.000 C 
HETATM   22  C10 UNL     1      -2.265  -0.276  -1.487  1.00  0.00     0.002 C 
HETATM   23  C11 UNL     1      -1.068   0.130  -0.706  1.00  0.00     0.025 C 
ENDBRANCH  14  16
ENDBRANCH   6  14
BRANCH   1  24
HETATM   24  N1  UNL     1       6.995   1.454  -0.797  1.00  0.00    -0.383 N 
ATOM     25  H12 UNL     1       6.943   2.399  -1.176  1.00  0.00     0.157 HD
ATOM     26  H11 UNL     1       7.938   1.072  -0.729  1.00  0.00     0.157 HD
ENDBRANCH   1  24
TORSDOF 3
