REMARK  12 active torsions:
REMARK  status: ('A' for Active; 'I' for Inactive)
REMARK    1  A    between atoms: C2_3  and  C6_16 
REMARK    2  A    between atoms: N2_4  and  N3_6 
REMARK       I    between atoms: N3_6  and  C3_8 
REMARK    3  A    between atoms: C3_8  and  C4_10 
REMARK    4  A    between atoms: C4_10  and  C5_11 
REMARK    5  A    between atoms: C5_11  and  N4_12 
REMARK    6  A    between atoms: C7_17  and  N5_18 
REMARK    7  A    between atoms: N5_18  and  C8_20 
REMARK    8  A    between atoms: C8_20  and  C9_21 
REMARK    9  A    between atoms: C9_21  and  N6_22 
REMARK   10  A    between atoms: N9_37  and  N10_38 
REMARK   11  A    between atoms: C19_43  and  N12_44 
REMARK   12  A    between atoms: C20_49  and  N14_50 
ROOT
HETATM    1  N1  UNL     1       2.627   2.151   0.450  1.00  0.00    -0.190 NA
HETATM    2  C1  UNL     1       2.776   1.099  -0.057  1.00  0.00     0.120 C 
HETATM    3  C2  UNL     1       3.016  -0.146  -0.665  1.00  0.00     0.146 C 
HETATM    4  N2  UNL     1       4.317  -0.477  -0.648  1.00  0.00    -0.287 N 
ATOM      5  H2  UNL     1       4.609  -1.362  -1.062  1.00  0.00     0.188 HD
ENDROOT
BRANCH   3   6
HETATM    6  C6  UNL     1       2.157  -1.073  -1.316  1.00  0.00     0.091 A 
HETATM    7  C7  UNL     1       0.802  -0.977  -1.450  1.00  0.00     0.134 A 
HETATM    8  N11 UNL     1       0.054  -1.883  -2.159  1.00  0.00    -0.176 N 
HETATM    9  C19 UNL     1       0.696  -2.900  -2.736  1.00  0.00     0.679 A 
ATOM     10  H11 UNL     1      -0.958  -1.782  -2.242  1.00  0.00     0.186 HD
HETATM   11  N13 UNL     1       2.017  -3.050  -2.640  1.00  0.00    -0.176 N 
HETATM   12  C20 UNL     1       2.745  -2.182  -1.960  1.00  0.00     0.131 A 
ATOM     13  H13 UNL     1       2.470  -3.842  -3.096  1.00  0.00     0.186 HD
BRANCH   7  14
HETATM   14  N5  UNL     1       0.044   0.028  -0.803  1.00  0.00    -0.373 N 
ATOM     15  H5  UNL     1       0.504   0.698  -0.187  1.00  0.00     0.161 HD
BRANCH  14  16
HETATM   16  C8  UNL     1      -1.414   0.105  -1.021  1.00  0.00     0.143 C 
BRANCH  16  17
HETATM   17  C9  UNL     1      -1.973   1.267  -0.225  1.00  0.00     0.172 C 
BRANCH  17  18
HETATM   18  N6  UNL     1      -3.382   1.411  -0.384  1.00  0.00    -0.250 N 
HETATM   19  C10 UNL     1      -4.345   0.840   0.366  1.00  0.00     0.141 A 
HETATM   20  N7  UNL     1      -4.365   0.015   1.425  1.00  0.00    -0.334 N 
HETATM   21  C17 UNL     1      -5.581   1.227  -0.108  1.00  0.00     0.082 A 
HETATM   22  C11 UNL     1      -5.538  -0.414   1.996  1.00  0.00     0.087 A 
ATOM     23  H7  UNL     1      -3.480  -0.304   1.819  1.00  0.00     0.168 HD
HETATM   24  S1  UNL     1      -5.908  -1.439   3.318  1.00  0.00    -0.060 SA
HETATM   25  C15 UNL     1      -6.773  -0.045   1.547  1.00  0.00     0.001 A 
HETATM   26  C12 UNL     1      -7.608  -1.366   3.256  1.00  0.00     0.088 A 
HETATM   27  C13 UNL     1      -8.602  -2.016   4.108  1.00  0.00     0.107 C 
HETATM   28  C14 UNL     1      -7.842  -0.534   2.193  1.00  0.00     0.044 A 
HETATM   29  N8  UNL     1      -9.372  -2.539   4.793  1.00  0.00    -0.191 NA
HETATM   30  C16 UNL     1      -6.771   0.820   0.437  1.00  0.00     0.035 A 
HETATM   31  C18 UNL     1      -5.313   2.058  -1.177  1.00  0.00     0.295 A 
HETATM   32  O2  UNL     1      -6.179   2.625  -1.890  1.00  0.00    -0.264 OA
HETATM   33  N9  UNL     1      -3.978   2.155  -1.327  1.00  0.00    -0.159 N 
BRANCH  33  34
HETATM   34  N10 UNL     1      -3.378   2.925  -2.326  1.00  0.00    -0.321 N 
ATOM     35 2H10 UNL     1      -2.367   2.998  -2.440  1.00  0.00     0.179 HD
ATOM     36 1H10 UNL     1      -3.831   3.491  -3.043  1.00  0.00     0.179 HD
ENDBRANCH  33  34
ENDBRANCH  17  18
ENDBRANCH  16  17
ENDBRANCH  14  16
ENDBRANCH   7  14
BRANCH   9  37
HETATM   37  N12 UNL     1       0.047  -3.786  -3.418  1.00  0.00    -0.234 N 
ATOM     38 2H12 UNL     1      -0.964  -3.671  -3.491  1.00  0.00     0.174 HD
ATOM     39 1H12 UNL     1       0.538  -4.564  -3.859  1.00  0.00     0.174 HD
ENDBRANCH   9  37
BRANCH  12  40
HETATM   40  N14 UNL     1       4.030  -2.355  -1.884  1.00  0.00    -0.384 N 
ATOM     41 2H14 UNL     1       4.592  -1.685  -1.359  1.00  0.00     0.157 HD
ATOM     42 1H14 UNL     1       4.455  -3.157  -2.350  1.00  0.00     0.157 HD
ENDBRANCH  12  40
ENDBRANCH   3   6
BRANCH   4  43
HETATM   43  N3  UNL     1       5.273   0.350  -0.084  1.00  0.00    -0.269 N 
HETATM   44  C3  UNL     1       6.356  -0.136   0.690  1.00  0.00     0.237 C 
HETATM   45  O1  UNL     1       6.510  -1.378   0.912  1.00  0.00    -0.272 OA
ATOM     46  H3  UNL     1       5.194   1.356  -0.232  1.00  0.00     0.190 HD
BRANCH  44  47
HETATM   47  C4  UNL     1       7.327   0.839   1.250  1.00  0.00     0.132 C 
BRANCH  47  48
HETATM   48  C5  UNL     1       8.394   0.089   2.039  1.00  0.00     0.239 C 
BRANCH  48  49
HETATM   49  N4  UNL     1       9.347   1.035   2.589  1.00  0.00    -0.079 N 
ATOM     50  H43 UNL     1       9.751   1.636   1.871  1.00  0.00     0.274 HD
ATOM     51  H42 UNL     1       8.893   1.758   3.147  1.00  0.00     0.274 HD
ATOM     52  H41 UNL     1      10.061   0.533   3.117  1.00  0.00     0.274 HD
ENDBRANCH  48  49
ENDBRANCH  47  48
ENDBRANCH  44  47
ENDBRANCH   4  43
TORSDOF 12
