REMARK  3 active torsions:
REMARK  status: ('A' for Active; 'I' for Inactive)
REMARK    1  A    between atoms: C2_3  and  C3_4 
REMARK    2  A    between atoms: C3_4  and  N2_5 
REMARK    3  A    between atoms: N2_5  and  N3_7 
ROOT
HETATM    1  N1  UNL     1       4.269  -1.542  -1.940  1.00  0.00    -0.195 NA
HETATM    2  C1  UNL     1       4.129  -0.947  -0.936  1.00  0.00     0.092 C 
HETATM    3  C2  UNL     1       3.957  -0.249   0.290  1.00  0.00     0.288 C 
HETATM    4  C10 UNL     1       4.922   0.673   0.776  1.00  0.00     0.092 C 
HETATM    5  N4  UNL     1       5.709   1.445   1.170  1.00  0.00    -0.195 NA
ENDROOT
BRANCH   3   6
HETATM    6  C3  UNL     1       2.874  -0.460   0.982  1.00  0.00    -0.020 C 
BRANCH   6   7
HETATM    7  N2  UNL     1       1.685  -0.423   1.495  1.00  0.00    -0.267 N 
ATOM      8  H2  UNL     1       1.400  -1.070   2.230  1.00  0.00     0.196 HD
BRANCH   7   9
HETATM    9  N3  UNL     1       0.813   0.544   0.995  1.00  0.00    -0.302 N 
HETATM   10  C4  UNL     1      -0.185   0.305   0.246  1.00  0.00     0.004 C 
HETATM   11  C5  UNL     1      -0.605  -1.029  -0.230  1.00  0.00     0.054 C 
HETATM   12  C9  UNL     1      -1.010   1.472  -0.195  1.00  0.00     0.054 C 
HETATM   13  C6  UNL     1      -2.079  -1.251  -0.157  1.00  0.00     0.006 C 
HETATM   14  C7  UNL     1      -2.905  -0.038  -0.424  1.00  0.00     0.001 C 
HETATM   15  C8  UNL     1      -2.424   1.195   0.298  1.00  0.00     0.006 C 
ATOM     16  H3  UNL     1       0.990   1.516   1.250  1.00  0.00     0.187 HD
ENDBRANCH   7   9
ENDBRANCH   6   7
ENDBRANCH   3   6
TORSDOF 3
