REMARK  5 active torsions:
REMARK  status: ('A' for Active; 'I' for Inactive)
REMARK    1  A    between atoms: C2_2  and  O1_5 
REMARK    2  A    between atoms: O1_5  and  C5_6 
REMARK    3  A    between atoms: C5_6  and  O3_11 
REMARK    4  A    between atoms: N1_7  and  O2_9 
REMARK    5  A    between atoms: O3_11  and  C6_12 
ROOT
HETATM    1  C5  UNL     1      -0.025  -0.071  -0.155  1.00  0.00     0.286 C 
HETATM    2  N1  UNL     1      -0.150  -0.586   0.934  1.00  0.00    -0.226 N 
ATOM      3  H1  UNL     1      -1.150  -0.665   1.118  1.00  0.00     0.198 HD
ENDROOT
BRANCH   1   4
HETATM    4  O1  UNL     1      -1.180   0.279  -0.875  1.00  0.00    -0.305 OA
BRANCH   4   5
HETATM    5  C2  UNL     1      -2.453   0.343  -0.325  1.00  0.00     0.060 C 
HETATM    6  C1  UNL     1      -2.599   1.325   0.803  1.00  0.00     0.046 C 
HETATM    7  C3  UNL     1      -2.935  -1.037   0.102  1.00  0.00     0.046 C 
HETATM    8  C4  UNL     1      -3.390   0.825  -1.428  1.00  0.00     0.046 C 
ENDBRANCH   4   5
ENDBRANCH   1   4
BRANCH   1   9
HETATM    9  O3  UNL     1       1.155   0.211  -0.770  1.00  0.00    -0.305 OA
BRANCH   9  10
HETATM   10  C6  UNL     1       2.426  -0.063  -0.308  1.00  0.00     0.060 C 
HETATM   11  C7  UNL     1       3.383   0.469  -1.398  1.00  0.00     0.046 C 
HETATM   12  C8  UNL     1       2.621  -1.555  -0.158  1.00  0.00     0.046 C 
HETATM   13  C9  UNL     1       2.746   0.714   0.934  1.00  0.00     0.046 C 
ENDBRANCH   9  10
ENDBRANCH   1   9
BRANCH   2  14
HETATM   14  O2  UNL     1       0.473  -1.081   1.968  1.00  0.00    -0.286 OA
ATOM     15  H2  UNL     1       0.375  -1.485   2.822  1.00  0.00     0.244 HD
ENDBRANCH   2  14
TORSDOF 5
