REMARK  5 active torsions:
REMARK  status: ('A' for Active; 'I' for Inactive)
REMARK    1  A    between atoms: C5_8  and  C6_9 
REMARK    2  A    between atoms: C6_9  and  C7_10 
REMARK    3  A    between atoms: C11_14  and  C12_15 
REMARK    4  A    between atoms: C12_15  and  O1_16 
REMARK    5  A    between atoms: C12_15  and  O2_18 
ROOT
HETATM    1  C1  UNL     1       3.662   2.301   0.683  1.00  0.00     0.063 C 
HETATM    2  C2  UNL     1       3.340   1.096   0.253  1.00  0.00     0.097 A 
HETATM    3  N1  UNL     1       4.158   0.142  -0.252  1.00  0.00    -0.333 N 
ATOM      4  H1  UNL     1       5.166   0.248  -0.365  1.00  0.00     0.168 HD
HETATM    5  C3  UNL     1       3.469  -0.962  -0.585  1.00  0.00     0.142 A 
HETATM    6  C4  UNL     1       4.041  -2.156  -1.148  1.00  0.00     0.120 C 
HETATM    7  N2  UNL     1       4.481  -3.122  -1.600  1.00  0.00    -0.190 NA
HETATM    8  C5  UNL     1       2.153  -0.701  -0.278  1.00  0.00     0.072 A 
HETATM    9  N3  UNL     1       2.101   0.534   0.221  1.00  0.00    -0.341 N 
ATOM     10  H3  UNL     1       1.248   0.995   0.536  1.00  0.00     0.167 HD
ENDROOT
BRANCH   8  11
HETATM   11  C6  UNL     1       1.122  -1.509  -0.440  1.00  0.00     0.044 C 
BRANCH  11  12
HETATM   12  C7  UNL     1      -0.241  -1.144  -0.085  1.00  0.00    -0.033 A 
HETATM   13  C8  UNL     1      -0.940  -1.955   0.785  1.00  0.00     0.011 A 
HETATM   14  C9  UNL     1      -2.237  -1.682   1.174  1.00  0.00     0.002 A 
HETATM   15  C10 UNL     1      -2.861  -0.553   0.673  1.00  0.00     0.012 A 
HETATM   16  C11 UNL     1      -2.191   0.286  -0.204  1.00  0.00    -0.003 A 
HETATM   17  C13 UNL     1      -0.885  -0.025  -0.571  1.00  0.00     0.023 A 
BRANCH  16  18
HETATM   18  C12 UNL     1      -2.895   1.478  -0.714  1.00  0.00     0.288 C 
BRANCH  18  19
HETATM   19  O1  UNL     1      -3.540   2.095   0.368  1.00  0.00    -0.367 OA
ATOM     20  H1  UNL     1      -3.993   2.863   0.040  1.00  0.00     0.213 HD
ENDBRANCH  18  19
BRANCH  18  21
HETATM   21  O2  UNL     1      -3.863   1.182  -1.657  1.00  0.00    -0.367 OA
ATOM     22  H2  UNL     1      -4.316   1.950  -1.985  1.00  0.00     0.213 HD
ENDBRANCH  18  21
ENDBRANCH  16  18
ENDBRANCH  11  12
ENDBRANCH   8  11
TORSDOF 5
