REMARK  10 active torsions:
REMARK  status: ('A' for Active; 'I' for Inactive)
REMARK    1  A    between atoms: C2_2  and  O1_3 
REMARK    2  A    between atoms: O1_3  and  C3_4 
REMARK    3  A    between atoms: C3_4  and  C4_6 
REMARK    4  A    between atoms: C4_6  and  N1_7 
REMARK    5  A    between atoms: N1_7  and  C5_10 
REMARK    6  A    between atoms: C7_14  and  N3_15 
REMARK    7  A    between atoms: C10_22  and  N6_23 
REMARK    8  A    between atoms: N7_25  and  N8_27 
REMARK    9  A    between atoms: C11_34  and  N12_35 
REMARK   10  A    between atoms: N14_40  and  N15_41 
REMARK       I    between atoms: N15_41  and  C12_43 
ROOT
HETATM    1  N3  UNL     1       1.108   0.540   1.090  1.00  0.00    -0.021 N 
ATOM      2  H3  UNL     1       0.941   0.994   1.988  1.00  0.00     0.203 HD
HETATM    3  C8  UNL     1       2.317   0.236   0.780  1.00  0.00     0.699 A 
HETATM    4  N4  UNL     1       3.345   0.518   1.637  1.00  0.00    -0.176 N 
ATOM      5  H4  UNL     1       3.154   0.971   2.531  1.00  0.00     0.185 HD
HETATM    6  C9  UNL     1       4.607   0.198   1.301  1.00  0.00     0.163 A 
HETATM    7  N5  UNL     1       5.691   0.474   2.164  1.00  0.00    -0.080 NA
HETATM    8  C10 UNL     1       4.815  -0.416   0.072  1.00  0.00     0.135 A 
HETATM    9  C11 UNL     1       3.787  -0.700  -0.789  1.00  0.00     0.146 A 
HETATM   10  N13 UNL     1       2.534  -0.358  -0.404  1.00  0.00    -0.174 N 
ATOM     11  H13 UNL     1       1.746  -0.554  -1.021  1.00  0.00     0.186 HD
ENDROOT
BRANCH   1  12
HETATM   12  C7  UNL     1      -0.009   0.280   0.254  1.00  0.00     0.711 C 
HETATM   13  N2  UNL     1      -0.282   0.971  -0.821  1.00  0.00    -0.220 N 
HETATM   14  C6  UNL     1      -1.499   0.449  -1.451  1.00  0.00     0.195 C 
ATOM     15  H2  UNL     1       0.269   1.756  -1.170  1.00  0.00     0.177 HD
HETATM   16  C5  UNL     1      -2.191  -0.185  -0.250  1.00  0.00     0.343 C 
HETATM   17  N14 UNL     1      -1.013  -0.732   0.410  1.00  0.00    -0.087 N 
BRANCH  16  18
HETATM   18  N1  UNL     1      -3.148  -1.168  -0.607  1.00  0.00    -0.041 N 
ATOM     19  H12 UNL     1      -3.505  -1.655   0.215  1.00  0.00     0.280 HD
ATOM     20  H11 UNL     1      -2.710  -1.957  -1.082  1.00  0.00     0.280 HD
BRANCH  18  21
HETATM   21  C4  UNL     1      -4.216  -0.612  -1.391  1.00  0.00     0.345 C 
BRANCH  21  22
HETATM   22  C3  UNL     1      -5.109   0.303  -0.681  1.00  0.00     0.284 C 
HETATM   23  O2  UNL     1      -4.974   0.578   0.537  1.00  0.00    -0.263 OA
BRANCH  22  24
HETATM   24  O1  UNL     1      -6.175   0.933  -1.315  1.00  0.00    -0.321 OA
BRANCH  24  25
HETATM   25  C2  UNL     1      -7.039   1.817  -0.635  1.00  0.00     0.174 C 
HETATM   26  C1  UNL     1      -6.339   3.012  -0.061  1.00  0.00     0.034 C 
ENDBRANCH  24  25
ENDBRANCH  22  24
ENDBRANCH  21  22
ENDBRANCH  18  21
ENDBRANCH  16  18
BRANCH  17  27
HETATM   27  N15 UNL     1      -0.798  -1.919   1.058  1.00  0.00    -0.252 N 
HETATM   28  C12 UNL     1      -0.651  -3.118   0.330  1.00  0.00     0.232 C 
HETATM   29  C13 UNL     1      -0.417  -4.424   1.026  1.00  0.00     0.119 C 
HETATM   30  O3  UNL     1      -0.704  -3.176  -0.928  1.00  0.00    -0.272 OA
ATOM     31  H15 UNL     1      -0.744  -1.936   2.076  1.00  0.00     0.190 HD
ENDBRANCH  17  27
ENDBRANCH   1  12
BRANCH   9  32
HETATM   32  N12 UNL     1       4.036  -1.271  -1.915  1.00  0.00    -0.383 N 
ATOM     33 2H12 UNL     1       4.979  -1.529  -2.205  1.00  0.00     0.157 HD
ATOM     34 1H12 UNL     1       3.271  -1.482  -2.556  1.00  0.00     0.157 HD
ENDBRANCH   9  32
BRANCH   8  35
HETATM   35  N6  UNL     1       6.153  -0.748  -0.266  1.00  0.00    -0.277 N 
HETATM   36  N7  UNL     1       6.895   0.168  -0.723  1.00  0.00    -0.203 N 
ATOM     37  H7  UNL     1       7.858  -0.064  -0.968  1.00  0.00     0.212 HD
ATOM     38  H6  UNL     1       6.505  -1.697  -0.144  1.00  0.00     0.189 HD
BRANCH  36  39
HETATM   39  N8  UNL     1       6.459   1.482  -0.908  1.00  0.00    -0.084 N 
HETATM   40  N9  UNL     1       5.336   2.121  -1.184  1.00  0.00    -0.188 N 
HETATM   41  N10 UNL     1       5.946   3.284  -1.147  1.00  0.00    -0.208 N 
ATOM     42  H9  UNL     1       4.375   1.827  -1.357  1.00  0.00     0.213 HD
HETATM   43  N11 UNL     1       7.073   2.657  -0.871  1.00  0.00    -0.188 N 
ATOM     44  H10 UNL     1       5.667   4.257  -1.276  1.00  0.00     0.211 HD
ATOM     45  H11 UNL     1       8.033   2.956  -0.698  1.00  0.00     0.213 HD
ENDBRANCH  36  39
ENDBRANCH   8  35
TORSDOF 10
