REMARK  3 active torsions:
REMARK  status: ('A' for Active; 'I' for Inactive)
REMARK    1  A    between atoms: C4_5  and  S1_6 
REMARK    2  A    between atoms: S1_6  and  N2_9 
REMARK    3  A    between atoms: N2_9  and  C5_11 
ROOT
HETATM    1  S1  UNL     1       0.040  -1.025   0.512  1.00  0.00     0.264 S 
HETATM    2  O1  UNL     1      -0.142  -1.437   1.971  1.00  0.00    -0.200 OA
HETATM    3  O2  UNL     1      -0.122  -2.310  -0.276  1.00  0.00    -0.200 OA
ENDROOT
BRANCH   1   4
HETATM    4  C4  UNL     1       1.731  -0.504   0.338  1.00  0.00     0.080 A 
HETATM    5  C3  UNL     1       2.367  -0.750  -0.839  1.00  0.00     0.027 A 
HETATM    6  C2  UNL     1       3.684  -0.364  -1.022  1.00  0.00     0.028 A 
HETATM    7  C1  UNL     1       4.335   0.276   0.016  1.00  0.00     0.046 A 
HETATM    8  N1  UNL     1       5.679   0.662  -0.194  1.00  0.00    -0.102 NA
HETATM    9  C11 UNL     1       3.720   0.536   1.208  1.00  0.00     0.028 A 
HETATM   10  C10 UNL     1       2.386   0.127   1.350  1.00  0.00     0.027 A 
ENDBRANCH   1   4
BRANCH   1  11
HETATM   11  N2  UNL     1      -0.996   0.158   0.030  1.00  0.00    -0.264 N 
ATOM     12  H2  UNL     1      -0.459   0.991  -0.211  1.00  0.00     0.180 HD
BRANCH  11  13
HETATM   13  C5  UNL     1      -2.198   0.390  -0.142  1.00  0.00     0.139 A 
HETATM   14  N3  UNL     1      -2.582   1.637  -0.595  1.00  0.00    -0.350 N 
HETATM   15  C6  UNL     1      -3.845   1.966  -0.804  1.00  0.00     0.090 A 
ATOM     16  H3  UNL     1      -1.860   2.334  -0.776  1.00  0.00     0.166 HD
HETATM   17  C7  UNL     1      -4.851   1.059  -0.574  1.00  0.00     0.019 A 
HETATM   18  C8  UNL     1      -4.528  -0.189  -0.125  1.00  0.00     0.032 A 
HETATM   19  C9  UNL     1      -3.190  -0.519   0.090  1.00  0.00     0.091 A 
HETATM   20  N4  UNL     1      -2.973  -1.840   0.555  1.00  0.00    -0.098 NA
ENDBRANCH  11  13
ENDBRANCH   1  11
TORSDOF 3
