REMARK  6 active torsions:
REMARK  status: ('A' for Active; 'I' for Inactive)
REMARK    1  A    between atoms: C4_4  and  O1_5 
REMARK    2  A    between atoms: O1_5  and  C5_6 
REMARK    3  A    between atoms: C5_6  and  C6_8 
REMARK    4  A    between atoms: C6_8  and  O3_10 
REMARK    5  A    between atoms: C6_8  and  C8_12 
REMARK    6  A    between atoms: C8_12  and  C9_13 
ROOT
HETATM    1  C5  UNL     1      -0.849  -0.298  -0.599  1.00  0.00     0.293 C 
HETATM    2  O2  UNL     1      -0.397   0.259  -1.627  1.00  0.00    -0.262 OA
ENDROOT
BRANCH   1   3
HETATM    3  O1  UNL     1       0.090  -0.731   0.326  1.00  0.00    -0.314 OA
BRANCH   3   4
HETATM    4  C4  UNL     1       1.458  -0.568   0.148  1.00  0.00     0.135 C 
HETATM    5  C3  UNL     1       2.111   0.318   1.184  1.00  0.00     0.068 C 
HETATM    6  C2  UNL     1       3.477   0.688   0.598  1.00  0.00     0.221 C 
HETATM    7  C1  UNL     1       4.191   1.703   1.425  1.00  0.00     0.043 C 
HETATM    8  N1  UNL     1       4.263  -0.522   0.496  1.00  0.00     0.088 N 
HETATM    9  C13 UNL     1       3.646  -1.507  -0.356  1.00  0.00     0.275 C 
HETATM   10  C14 UNL     1       5.523  -0.141  -0.156  1.00  0.00     0.310 C 
HETATM   11  C12 UNL     1       2.237  -1.849   0.082  1.00  0.00     0.062 C 
ENDBRANCH   3   4
ENDBRANCH   1   3
BRANCH   1  12
HETATM   12  C6  UNL     1      -2.337  -0.482  -0.392  1.00  0.00     0.143 C 
HETATM   13  C7  UNL     1      -2.783  -1.330  -1.537  1.00  0.00     0.057 C 
BRANCH  12  14
HETATM   14  O3  UNL     1      -2.464  -1.128   0.838  1.00  0.00    -0.380 OA
ATOM     15  H3  UNL     1      -3.398  -1.243   0.968  1.00  0.00     0.211 HD
ENDBRANCH  12  14
BRANCH  12  16
HETATM   16  C8  UNL     1      -2.904   0.871  -0.301  1.00  0.00     0.073 C 
BRANCH  16  17
HETATM   17  C9  UNL     1      -4.347   1.056  -0.094  1.00  0.00     0.033 C 
HETATM   18  C10 UNL     1      -5.237   0.469  -1.168  1.00  0.00     0.032 C 
HETATM   19  C11 UNL     1      -4.875   0.642   1.248  1.00  0.00     0.032 C 
HETATM   20 CL1  UNL     1      -4.654   2.840  -0.142  1.00  0.00    -0.120 Cl
ENDBRANCH  16  17
ENDBRANCH  12  16
ENDBRANCH   1  12
TORSDOF 6
