REMARK  15 active torsions:
REMARK  status: ('A' for Active; 'I' for Inactive)
REMARK       I    between atoms: C2_2  and  N1_4 
REMARK    1  A    between atoms: N1_4  and  C3_6 
REMARK    2  A    between atoms: C4_7  and  C5_8 
REMARK    3  A    between atoms: C5_8  and  O2_9 
REMARK    4  A    between atoms: C5_8  and  O3_11 
REMARK    5  A    between atoms: C6_14  and  C7_15 
REMARK    6  A    between atoms: C7_15  and  O5_16 
REMARK    7  A    between atoms: C7_15  and  O6_18 
REMARK    8  A    between atoms: C9_21  and  N2_22 
REMARK    9  A    between atoms: N2_22  and  N3_24 
REMARK   10  A    between atoms: N3_24  and  C10_26 
REMARK   11  A    between atoms: C11_27  and  O7_28 
REMARK   12  A    between atoms: N5_34  and  C14_35 
REMARK   13  A    between atoms: C14_35  and  C15_36 
REMARK   14  A    between atoms: N7_40  and  O9_42 
REMARK   15  A    between atoms: C18_44  and  N8_45 
ROOT
HETATM    1  C15 UNL     1       6.121   1.429   1.958  1.00  0.00     0.144 C 
HETATM    2  C16 UNL     1       7.046   0.617   1.187  1.00  0.00     0.060 C 
HETATM    3  N6  UNL     1       7.811  -0.047   0.586  1.00  0.00    -0.197 NA
ENDROOT
BRANCH   1   4
HETATM    4  C14 UNL     1       5.040   2.055   1.161  1.00  0.00     0.149 C 
BRANCH   4   5
HETATM    5  N5  UNL     1       4.170   1.173   0.453  1.00  0.00    -0.281 N 
HETATM    6  C13 UNL     1       4.358   0.815  -0.801  1.00  0.00     0.332 A 
HETATM    7  N4  UNL     1       3.523  -0.039  -1.404  1.00  0.00    -0.282 N 
HETATM    8  O8  UNL     1       5.348   1.273  -1.494  1.00  0.00    -0.246 OA
HETATM    9  C11 UNL     1       2.471  -0.563  -0.770  1.00  0.00     0.178 A 
HETATM   10  C12 UNL     1       3.769  -0.404  -2.785  1.00  0.00     0.163 C 
HETATM   11  C10 UNL     1       2.227  -0.212   0.570  1.00  0.00     0.145 A 
HETATM   12  C17 UNL     1       3.088   0.657   1.158  1.00  0.00     0.164 A 
HETATM   13  N7  UNL     1       2.964   1.058   2.340  1.00  0.00    -0.251 N 
ATOM     14  H7  UNL     1       3.702   1.706   2.615  1.00  0.00     0.196 HD
BRANCH   9  15
HETATM   15  O7  UNL     1       1.608  -1.457  -1.415  1.00  0.00    -0.344 OA
ATOM     16  H7  UNL     1       1.773  -1.694  -2.320  1.00  0.00     0.219 HD
ENDBRANCH   9  15
BRANCH  11  17
HETATM   17  N3  UNL     1       1.084  -0.804   1.208  1.00  0.00    -0.293 N 
ATOM     18  H3  UNL     1       0.947  -0.626   2.203  1.00  0.00     0.187 HD
BRANCH  17  19
HETATM   19  N2  UNL     1       0.168  -1.591   0.567  1.00  0.00    -0.298 N 
ATOM     20  H2  UNL     1       0.485  -2.532   0.336  1.00  0.00     0.187 HD
BRANCH  19  21
HETATM   21  C9  UNL     1      -1.004  -1.320   0.224  1.00  0.00     0.079 C 
HETATM   22  C8  UNL     1      -1.693  -2.373  -0.427  1.00  0.00     0.071 C 
HETATM   23  C6  UNL     1      -2.843  -2.326  -1.173  1.00  0.00     0.110 C 
HETATM   24  O4  UNL     1      -3.615  -1.291  -1.386  1.00  0.00    -0.307 OA
HETATM   25  C4  UNL     1      -3.547  -0.033  -0.940  1.00  0.00     0.137 C 
HETATM   26  C3  UNL     1      -2.782   0.401   0.112  1.00  0.00     0.098 C 
HETATM   27  C18 UNL     1      -1.506  -0.073   0.490  1.00  0.00     0.084 C 
BRANCH  23  28
HETATM   28  C7  UNL     1      -3.269  -3.621  -1.827  1.00  0.00     0.312 C 
BRANCH  28  29
HETATM   29  O5  UNL     1      -3.650  -3.441  -3.132  1.00  0.00    -0.365 OA
ATOM     30  H5  UNL     1      -3.918  -4.255  -3.543  1.00  0.00     0.213 HD
ENDBRANCH  28  29
BRANCH  28  31
HETATM   31  O6  UNL     1      -2.206  -4.542  -1.751  1.00  0.00    -0.365 OA
ATOM     32  H6  UNL     1      -2.474  -5.356  -2.162  1.00  0.00     0.213 HD
ENDBRANCH  28  31
ENDBRANCH  23  28
BRANCH  25  33
HETATM   33  C5  UNL     1      -4.362   0.970  -1.638  1.00  0.00     0.315 C 
BRANCH  33  34
HETATM   34  O2  UNL     1      -4.241   0.762  -3.041  1.00  0.00    -0.365 OA
ATOM     35  H2  UNL     1      -4.768   1.411  -3.492  1.00  0.00     0.213 HD
ENDBRANCH  33  34
BRANCH  33  36
HETATM   36  O3  UNL     1      -3.947   2.284  -1.451  1.00  0.00    -0.365 OA
ATOM     37  H3  UNL     1      -4.474   2.933  -1.902  1.00  0.00     0.213 HD
ENDBRANCH  33  36
ENDBRANCH  25  33
BRANCH  26  38
HETATM   38  N1  UNL     1      -3.335   1.429   0.904  1.00  0.00    -0.323 N 
HETATM   39  C2  UNL     1      -4.194   1.068   1.979  1.00  0.00     0.218 C 
HETATM   40  C1  UNL     1      -4.829   2.094   2.875  1.00  0.00     0.117 C 
HETATM   41  O1  UNL     1      -4.443  -0.142   2.205  1.00  0.00    -0.274 OA
ATOM     42  H1  UNL     1      -3.124   2.408   0.710  1.00  0.00     0.169 HD
ENDBRANCH  26  38
BRANCH  27  43
HETATM   43  N8  UNL     1      -0.775   0.745   1.133  1.00  0.00    -0.395 N 
ATOM     44  H82 UNL     1      -1.149   1.673   1.331  1.00  0.00     0.156 HD
ATOM     45  H81 UNL     1       0.146   0.403   1.406  1.00  0.00     0.156 HD
ENDBRANCH  27  43
ENDBRANCH  19  21
ENDBRANCH  17  19
ENDBRANCH  11  17
BRANCH  13  46
HETATM   46  O9  UNL     1       2.113   0.837   3.292  1.00  0.00    -0.288 OA
ATOM     47  H9  UNL     1       2.019   1.141   4.187  1.00  0.00     0.244 HD
ENDBRANCH  13  46
ENDBRANCH   4   5
ENDBRANCH   1   4
TORSDOF 15
