REMARK  6 active torsions:
REMARK  status: ('A' for Active; 'I' for Inactive)
REMARK    1  A    between atoms: C1_2  and  C2_3 
REMARK    2  A    between atoms: N1_5  and  C4_6 
REMARK    3  A    between atoms: C4_6  and  C5_7 
REMARK       I    between atoms: C5_7  and  N2_9 
REMARK    4  A    between atoms: N2_9  and  C6_10 
REMARK       I    between atoms: N3_17  and  C13_18 
REMARK    5  A    between atoms: C13_18  and  O4_20 
REMARK    6  A    between atoms: O4_20  and  C14_21 
ROOT
HETATM    1  C2  UNL     1      -1.421   0.865  -0.180  1.00  0.00     0.179 C 
HETATM    2  C3  UNL     1       0.053   0.960  -0.641  1.00  0.00     0.305 C 
HETATM    3  N1  UNL     1       0.682  -0.258  -0.113  1.00  0.00     0.102 N 
HETATM    4  C11 UNL     1       0.286  -1.407  -0.859  1.00  0.00     0.293 C 
HETATM    5  C12 UNL     1      -1.056  -1.239  -1.542  1.00  0.00     0.159 C 
HETATM    6  N3  UNL     1      -1.930  -0.289  -0.890  1.00  0.00    -0.314 N 
HETATM    7  C13 UNL     1      -3.355  -0.498  -0.964  1.00  0.00     0.363 C 
HETATM    8  O3  UNL     1      -3.909  -1.437  -1.525  1.00  0.00    -0.238 OA
ENDROOT
BRANCH   3   9
HETATM    9  C4  UNL     1       2.085  -0.027  -0.187  1.00  0.00     0.390 C 
BRANCH   9  10
HETATM   10  C5  UNL     1       2.933  -1.081   0.488  1.00  0.00     0.315 C 
HETATM   11  O2  UNL     1       2.258  -2.007   1.002  1.00  0.00    -0.256 OA
HETATM   12  N2  UNL     1       4.287  -0.991   0.521  1.00  0.00    -0.408 NA
BRANCH  12  13
HETATM   13  C6  UNL     1       5.657  -0.901   0.554  1.00  0.00     0.167 C 
HETATM   14  C7  UNL     1       6.179  -0.382   1.945  1.00  0.00     0.039 C 
HETATM   15  C8  UNL     1       7.673  -0.528   1.587  1.00  0.00     0.003 C 
HETATM   16  C9  UNL     1       7.717   0.246   0.270  1.00  0.00     0.003 C 
HETATM   17  C10 UNL     1       6.281   0.195  -0.289  1.00  0.00     0.039 C 
ENDBRANCH  12  13
ENDBRANCH   9  10
ENDBRANCH   3   9
BRANCH   1  18
HETATM   18  C1  UNL     1      -1.488   0.594   1.258  1.00  0.00     0.258 C 
HETATM   19  O1  UNL     1      -1.159   1.498   2.066  1.00  0.00    -0.305 OA
ENDBRANCH   1  18
BRANCH   7  20
HETATM   20  O4  UNL     1      -4.165   0.471  -0.335  1.00  0.00    -0.298 OA
BRANCH  20  21
HETATM   21  C14 UNL     1      -5.580   0.278  -0.426  1.00  0.00     0.133 C 
HETATM   22  C15 UNL     1      -6.108   0.146   0.987  1.00  0.00     0.032 C 
HETATM   23  C16 UNL     1      -7.552   0.579   0.897  1.00  0.00     0.002 C 
HETATM   24  C17 UNL     1      -7.658   1.479  -0.299  1.00  0.00     0.002 C 
HETATM   25  C18 UNL     1      -6.266   1.528  -0.905  1.00  0.00     0.032 C 
ENDBRANCH  20  21
ENDBRANCH   7  20
TORSDOF 6
