REMARK  5 active torsions:
REMARK  status: ('A' for Active; 'I' for Inactive)
REMARK    1  A    between atoms: C2_2  and  C3_3 
REMARK       I    between atoms: C3_3  and  N1_5 
REMARK    2  A    between atoms: N1_5  and  C4_7 
REMARK    3  A    between atoms: N3_17  and  C13_18 
REMARK    4  A    between atoms: C13_18  and  C14_19 
REMARK    5  A    between atoms: C14_19  and  N4_20 
ROOT
HETATM    1  C4  UNL     1      -4.214   0.204  -0.662  1.00  0.00     0.122 C 
HETATM    2  C5  UNL     1      -3.993   0.515  -2.096  1.00  0.00     0.091 C 
HETATM    3  N2  UNL     1      -3.835   0.748  -3.218  1.00  0.00    -0.195 NA
HETATM    4  C6  UNL     1      -4.866   1.434  -0.074  1.00  0.00     0.046 C 
HETATM    5  C7  UNL     1      -6.359   1.456  -0.271  1.00  0.00     0.004 C 
HETATM    6  C8  UNL     1      -6.861   0.274   0.570  1.00  0.00     0.000 C 
HETATM    7  C9  UNL     1      -6.407  -0.963  -0.146  1.00  0.00     0.004 C 
HETATM    8  C10 UNL     1      -4.955  -1.048  -0.435  1.00  0.00     0.046 C 
ENDROOT
BRANCH   1   9
HETATM    9  N1  UNL     1      -2.887   0.092  -0.068  1.00  0.00    -0.338 N 
HETATM   10  C3  UNL     1      -1.900  -0.776  -0.526  1.00  0.00     0.229 C 
HETATM   11  O1  UNL     1      -2.119  -1.526  -1.500  1.00  0.00    -0.273 OA
ATOM     12  H1  UNL     1      -2.669   0.686   0.732  1.00  0.00     0.164 HD
BRANCH  10  13
HETATM   13  C2  UNL     1      -0.577  -0.835   0.130  1.00  0.00     0.065 C 
HETATM   14  C1  UNL     1      -0.463  -2.106   0.958  1.00  0.00     0.027 C 
HETATM   15  C11 UNL     1      -0.466   0.387   1.044  1.00  0.00     0.051 C 
HETATM   16  C12 UNL     1       1.073   0.454   1.144  1.00  0.00     0.273 C 
HETATM   17  N3  UNL     1       1.461   0.359  -0.273  1.00  0.00     0.091 N 
HETATM   18  C19 UNL     1       0.584  -0.671  -0.802  1.00  0.00     0.291 C 
BRANCH  17  19
HETATM   19  C13 UNL     1       2.852  -0.044  -0.292  1.00  0.00     0.302 C 
BRANCH  19  20
HETATM   20  C14 UNL     1       3.682   1.093   0.275  1.00  0.00     0.302 C 
BRANCH  20  21
HETATM   21  N4  UNL     1       5.080   0.857   0.316  1.00  0.00     0.094 N 
HETATM   22  C15 UNL     1       5.735   0.808  -0.973  1.00  0.00     0.298 C 
HETATM   23  C16 UNL     1       7.187   1.213  -0.692  1.00  0.00     0.198 C 
HETATM   24  O2  UNL     1       7.620   0.562   0.453  1.00  0.00    -0.388 OA
HETATM   25  C17 UNL     1       6.927  -0.598   0.717  1.00  0.00     0.198 C 
HETATM   26  C18 UNL     1       5.454  -0.340   1.038  1.00  0.00     0.298 C 
ENDBRANCH  20  21
ENDBRANCH  19  20
ENDBRANCH  17  19
ENDBRANCH  10  13
ENDBRANCH   1   9
TORSDOF 5
