REMARK  6 active torsions:
REMARK  status: ('A' for Active; 'I' for Inactive)
REMARK    1  A    between atoms: C2_2  and  C4_4 
REMARK    2  A    between atoms: C4_4  and  C5_5 
REMARK    3  A    between atoms: C5_5  and  O1_6 
REMARK    4  A    between atoms: O1_6  and  C6_7 
REMARK    5  A    between atoms: C6_7  and  C7_8 
REMARK    6  A    between atoms: C15_16  and  O2_17 
ROOT
HETATM    1  C7  UNL     1       1.364  -1.202   1.859  1.00  0.00     0.152 A 
HETATM    2  C8  UNL     1       1.734   0.236   1.704  1.00  0.00     0.014 C 
HETATM    3  C9  UNL     1       1.071   1.298   1.236  1.00  0.00    -0.020 C 
HETATM    4  C10 UNL     1      -0.317   1.286   0.717  1.00  0.00     0.041 C 
HETATM    5  C11 UNL     1      -0.325   0.698  -0.645  1.00  0.00     0.038 C 
HETATM    6  C12 UNL     1      -1.615   0.581  -1.310  1.00  0.00    -0.022 C 
HETATM    7  C13 UNL     1      -2.837   0.558  -0.830  1.00  0.00    -0.072 C 
HETATM    8  C14 UNL     1      -3.811   0.420  -1.946  1.00  0.00     0.066 C 
HETATM    9  C15 UNL     1      -4.932  -0.516  -1.691  1.00  0.00     0.122 C 
HETATM   10  C16 UNL     1      -5.221  -0.870  -0.291  1.00  0.00     0.033 C 
HETATM   11  C17 UNL     1      -4.148  -0.675   0.709  1.00  0.00     0.016 C 
HETATM   12  C18 UNL     1      -3.368   0.639   0.507  1.00  0.00    -0.015 C 
HETATM   13  C19 UNL     1      -4.404   1.782   0.504  1.00  0.00     0.020 C 
HETATM   14  C20 UNL     1      -2.520   0.848   1.672  1.00  0.00     0.024 C 
HETATM   15  C21 UNL     1      -2.436   2.317   2.121  1.00  0.00     0.014 C 
HETATM   16  C22 UNL     1      -1.106   0.360   1.613  1.00  0.00     0.137 C 
HETATM   17  O3  UNL     1      -0.942  -0.910   1.174  1.00  0.00    -0.351 OA
HETATM   18  C23 UNL     1       0.077  -1.651   1.702  1.00  0.00     0.302 A 
HETATM   19  O4  UNL     1       0.527  -1.449   2.994  1.00  0.00    -0.336 OA
ENDROOT
BRANCH   1  20
HETATM   20  C6  UNL     1       2.539  -2.155   1.886  1.00  0.00     0.215 C 
BRANCH  20  21
HETATM   21  O1  UNL     1       3.398  -2.166   0.859  1.00  0.00    -0.388 OA
BRANCH  21  22
HETATM   22  C5  UNL     1       4.117  -1.110   0.457  1.00  0.00     0.168 C 
BRANCH  22  23
HETATM   23  C4  UNL     1       5.085  -1.479  -0.686  1.00  0.00     0.030 C 
BRANCH  23  24
HETATM   24  C2  UNL     1       5.865  -0.251  -1.095  1.00  0.00    -0.021 C 
HETATM   25  C1  UNL     1       6.803  -0.610  -2.202  1.00  0.00     0.009 C 
HETATM   26  C3  UNL     1       4.956   0.866  -1.549  1.00  0.00     0.009 C 
ENDBRANCH  23  24
ENDBRANCH  22  23
ENDBRANCH  21  22
ENDBRANCH  20  21
ENDBRANCH   1  20
BRANCH   9  27
HETATM   27  O2  UNL     1      -4.798  -1.688  -2.471  1.00  0.00    -0.395 OA
ATOM     28  H2  UNL     1      -5.516  -2.288  -2.308  1.00  0.00     0.210 HD
ENDBRANCH   9  27
TORSDOF 6
