REMARK  11 active torsions:
REMARK  status: ('A' for Active; 'I' for Inactive)
REMARK    1  A    between atoms: C2_2  and  C3_3 
REMARK    2  A    between atoms: C3_3  and  C4_4 
REMARK    3  A    between atoms: C4_4  and  C5_5 
REMARK    4  A    between atoms: C9_10  and  O1_11 
REMARK    5  A    between atoms: C11_13  and  O2_14 
REMARK    6  A    between atoms: C12_16  and  O3_17 
REMARK    7  A    between atoms: C15_21  and  C16_22 
REMARK       I    between atoms: C16_22  and  N1_24 
REMARK    8  A    between atoms: N1_24  and  C17_26 
REMARK    9  A    between atoms: C17_26  and  C18_27 
REMARK   10  A    between atoms: N2_32  and  N3_34 
REMARK   11  A    between atoms: N3_34  and  C22_36 
ROOT
HETATM    1  C5  UNL     1      -1.184  -0.547  -0.517  1.00  0.00    -0.017 A 
HETATM    2  C6  UNL     1      -2.198  -0.405   0.415  1.00  0.00     0.026 A 
HETATM    3  C7  UNL     1      -2.778   0.806   0.724  1.00  0.00    -0.002 A 
HETATM    4  C8  UNL     1      -3.788   0.971   1.653  1.00  0.00     0.058 A 
HETATM    5 BR1  UNL     1      -4.425  -0.591   2.572  1.00  0.00    -0.047 Br
HETATM    6  C9  UNL     1      -4.333   2.218   1.927  1.00  0.00     0.122 A 
HETATM    7  C11 UNL     1      -3.858   3.339   1.256  1.00  0.00     0.135 A 
HETATM    8  C12 UNL     1      -2.858   3.170   0.336  1.00  0.00     0.113 A 
HETATM    9  C13 UNL     1      -2.301   1.935   0.047  1.00  0.00     0.013 A 
HETATM   10  C14 UNL     1      -1.315   1.828  -0.867  1.00  0.00     0.033 A 
HETATM   11  C15 UNL     1      -0.728   0.573  -1.173  1.00  0.00     0.043 A 
ENDROOT
BRANCH   1  12
HETATM   12  C4  UNL     1      -0.638  -1.864  -0.781  1.00  0.00     0.043 C 
BRANCH  12  13
HETATM   13  C3  UNL     1       0.531  -2.331  -0.085  1.00  0.00     0.048 C 
HETATM   14  N2  UNL     1       1.079  -1.789   0.909  1.00  0.00    -0.299 N 
ATOM     15  H2  UNL     1       1.887  -2.307   1.253  1.00  0.00     0.187 HD
BRANCH  13  16
HETATM   16  C2  UNL     1       1.146  -3.590  -0.555  1.00  0.00     0.021 C 
HETATM   17  C1  UNL     1       0.655  -4.253  -1.586  1.00  0.00     0.013 C 
ENDBRANCH  13  16
BRANCH  14  18
HETATM   18  N3  UNL     1       0.825  -0.661   1.623  1.00  0.00    -0.285 N 
ATOM     19  H3  UNL     1       0.797   0.231   1.130  1.00  0.00     0.188 HD
BRANCH  18  20
HETATM   20  C22 UNL     1       0.613  -0.667   2.922  1.00  0.00     0.119 A 
HETATM   21  C23 UNL     1       0.355   0.477   3.638  1.00  0.00     0.050 A 
HETATM   22  C24 UNL     1       0.103   0.492   4.986  1.00  0.00     0.005 A 
HETATM   23  C25 UNL     1       0.116  -0.743   5.645  1.00  0.00     0.017 A 
HETATM   24  C26 UNL     1       0.380  -1.899   4.907  1.00  0.00     0.089 A 
HETATM   25  N4  UNL     1       0.617  -1.839   3.592  1.00  0.00    -0.351 N 
ATOM     26  H4  UNL     1       0.806  -2.702   3.082  1.00  0.00     0.166 HD
ENDBRANCH  18  20
ENDBRANCH  14  18
ENDBRANCH  12  13
ENDBRANCH   1  12
BRANCH  11  27
HETATM   27  C16 UNL     1       0.294   0.641  -2.175  1.00  0.00     0.252 C 
HETATM   28  O4  UNL     1      -0.086   0.991  -3.356  1.00  0.00    -0.268 OA
HETATM   29  N1  UNL     1       1.644   0.376  -1.994  1.00  0.00    -0.354 N 
ATOM     30  H1  UNL     1       1.988   0.116  -1.069  1.00  0.00     0.162 HD
BRANCH  29  31
HETATM   31  C17 UNL     1       2.590   0.466  -3.128  1.00  0.00     0.155 C 
BRANCH  31  32
HETATM   32  C18 UNL     1       3.965   0.146  -2.584  1.00  0.00     0.139 C 
HETATM   33  C19 UNL     1       5.002   0.144  -3.688  1.00  0.00     0.035 C 
HETATM   34  C20 UNL     1       5.935  -0.953  -3.130  1.00  0.00     0.029 C 
HETATM   35  C21 UNL     1       4.857  -1.929  -2.666  1.00  0.00     0.168 C 
HETATM   36  O5  UNL     1       3.952  -1.104  -2.034  1.00  0.00    -0.384 OA
ENDBRANCH  31  32
ENDBRANCH  29  31
ENDBRANCH  11  27
BRANCH   6  37
HETATM   37  O1  UNL     1      -5.335   2.300   2.866  1.00  0.00    -0.352 OA
HETATM   38  C10 UNL     1      -6.710   2.190   2.636  1.00  0.00     0.210 C 
ENDBRANCH   6  37
BRANCH   8  39
HETATM   39  O3  UNL     1      -2.357   4.262  -0.357  1.00  0.00    -0.357 OA
ATOM     40  H3  UNL     1      -1.663   4.145  -0.995  1.00  0.00     0.217 HD
ENDBRANCH   8  39
BRANCH   7  41
HETATM   41  O2  UNL     1      -4.405   4.584   1.535  1.00  0.00    -0.356 OA
ATOM     42  H2  UNL     1      -4.080   5.350   1.076  1.00  0.00     0.218 HD
ENDBRANCH   7  41
TORSDOF 11
