REMARK  13 active torsions:
REMARK  status: ('A' for Active; 'I' for Inactive)
REMARK    1  A    between atoms: C2_2  and  C3_3 
REMARK    2  A    between atoms: C3_3  and  C4_4 
REMARK    3  A    between atoms: C4_4  and  N1_5 
REMARK       I    between atoms: N1_5  and  C5_7 
REMARK    4  A    between atoms: C5_7  and  C6_9 
REMARK    5  A    between atoms: C6_9  and  N2_10 
REMARK    6  A    between atoms: C6_9  and  C27_46 
REMARK       I    between atoms: N2_10  and  C7_12 
REMARK    7  A    between atoms: C7_12  and  C8_14 
REMARK    8  A    between atoms: C9_15  and  N3_16 
REMARK    9  A    between atoms: C10_17  and  O3_18 
REMARK   10  A    between atoms: C13_22  and  O4_23 
REMARK   11  A    between atoms: C14_25  and  C21_33 
REMARK   12  A    between atoms: C17_28  and  C18_29 
REMARK       I    between atoms: N5_40  and  C25_42 
REMARK   13  A    between atoms: C25_42  and  O6_44 
ROOT
HETATM    1  C8  UNL     1      -0.695   1.309   1.972  1.00  0.00     0.103 A 
HETATM    2  C9  UNL     1      -1.943   0.904   1.729  1.00  0.00     0.064 A 
HETATM    3  C22 UNL     1      -2.917   1.402   2.647  1.00  0.00     0.048 A 
HETATM    4  C23 UNL     1      -2.601   2.218   3.682  1.00  0.00     0.092 A 
HETATM    5  N4  UNL     1      -1.347   2.593   3.884  1.00  0.00    -0.351 N 
ATOM      6  H4  UNL     1      -1.114   3.207   4.664  1.00  0.00     0.166 HD
HETATM    7  C24 UNL     1      -0.396   2.163   3.063  1.00  0.00     0.127 A 
HETATM    8  N5  UNL     1       0.812   2.523   3.248  1.00  0.00    -0.287 N 
ATOM      9  H5  UNL     1       1.545   2.198   2.618  1.00  0.00     0.172 HD
HETATM   10  C25 UNL     1       1.133   3.375   4.331  1.00  0.00     0.365 C 
HETATM   11  O5  UNL     1       0.857   4.622   4.250  1.00  0.00    -0.238 OA
ENDROOT
BRANCH   2  12
HETATM   12  N3  UNL     1      -2.446   0.042   0.765  1.00  0.00    -0.270 N 
HETATM   13  C10 UNL     1      -3.389   0.476  -0.150  1.00  0.00     0.157 A 
HETATM   14  C11 UNL     1      -3.768  -0.543  -0.981  1.00  0.00     0.013 A 
HETATM   15  C12 UNL     1      -3.040  -1.653  -0.575  1.00  0.00     0.014 A 
HETATM   16  C17 UNL     1      -4.675  -0.805  -2.129  1.00  0.00     0.057 C 
HETATM   17  C13 UNL     1      -2.264  -1.248   0.475  1.00  0.00     0.157 A 
HETATM   18  C14 UNL     1      -3.314  -2.883  -1.369  1.00  0.00     0.072 C 
HETATM   19  C15 UNL     1      -3.043  -2.442  -2.793  1.00  0.00    -0.019 C 
HETATM   20  C16 UNL     1      -3.743  -1.376  -3.179  1.00  0.00    -0.020 C 
BRANCH  13  21
HETATM   21  O3  UNL     1      -3.920   1.763  -0.261  1.00  0.00    -0.345 OA
ATOM     22  H3  UNL     1      -4.567   2.061  -0.889  1.00  0.00     0.219 HD
ENDBRANCH  13  21
BRANCH  17  23
HETATM   23  O4  UNL     1      -1.377  -2.008   1.201  1.00  0.00    -0.345 OA
ATOM     24  H4  UNL     1      -1.247  -2.926   0.995  1.00  0.00     0.219 HD
ENDBRANCH  17  23
BRANCH  18  25
HETATM   25  C21 UNL     1      -4.804  -3.109  -1.258  1.00  0.00     0.075 A 
HETATM   26  C18 UNL     1      -5.584  -1.926  -1.689  1.00  0.00     0.009 A 
HETATM   27  C19 UNL     1      -6.733  -1.427  -0.806  1.00  0.00     0.020 C 
HETATM   28  C20 UNL     1      -5.726  -3.199  -2.374  1.00  0.00     0.118 A 
HETATM   29 CL1  UNL     1      -5.239  -3.485  -4.049  1.00  0.00    -0.122 Cl
HETATM   30 CL2  UNL     1      -5.285  -3.803   0.329  1.00  0.00    -0.116 Cl
ENDBRANCH  18  25
ENDBRANCH   2  12
BRANCH   1  31
HETATM   31  C7  UNL     1       0.393   0.972   1.139  1.00  0.00     0.262 C 
HETATM   32  N2  UNL     1       0.422   0.689  -0.233  1.00  0.00    -0.321 N 
ATOM     33  H2  UNL     1      -0.464   0.746  -0.735  1.00  0.00     0.169 HD
HETATM   34  O2  UNL     1       1.558   0.910   1.691  1.00  0.00    -0.267 OA
BRANCH  32  35
HETATM   35  C6  UNL     1       1.581   0.326  -1.000  1.00  0.00     0.084 C 
BRANCH  35  36
HETATM   36  C5  UNL     1       2.354  -0.830  -0.497  1.00  0.00     0.264 C 
HETATM   37  N1  UNL     1       3.545  -1.210  -1.162  1.00  0.00    -0.356 N 
ATOM     38  H1  UNL     1       3.839  -0.671  -1.977  1.00  0.00     0.162 HD
HETATM   39  O1  UNL     1       2.030  -1.518   0.496  1.00  0.00    -0.266 OA
BRANCH  37  40
HETATM   40  C4  UNL     1       4.365  -2.326  -0.741  1.00  0.00     0.123 C 
BRANCH  40  41
HETATM   41  C3  UNL     1       5.554  -2.501  -1.626  1.00  0.00     0.019 C 
BRANCH  41  42
HETATM   42  C2  UNL     1       6.392  -1.249  -1.582  1.00  0.00    -0.003 C 
HETATM   43  C1  UNL     1       7.585  -1.459  -2.488  1.00  0.00     0.005 C 
ENDBRANCH  41  42
ENDBRANCH  40  41
ENDBRANCH  37  40
ENDBRANCH  35  36
BRANCH  35  44
HETATM   44  C27 UNL     1       2.395   1.475  -1.476  1.00  0.00     0.033 C 
HETATM   45  C28 UNL     1       1.464   2.595  -1.960  1.00  0.00     0.016 C 
HETATM   46  C29 UNL     1       3.431   1.989  -0.539  1.00  0.00     0.016 C 
ENDBRANCH  35  44
ENDBRANCH  32  35
ENDBRANCH   1  31
BRANCH  10  47
HETATM   47  O6  UNL     1       1.735   2.974   5.498  1.00  0.00    -0.309 OA
HETATM   48  C26 UNL     1       2.037   3.887   6.562  1.00  0.00     0.215 C 
ENDBRANCH  10  47
TORSDOF 13
