REMARK  5 active torsions:
REMARK  status: ('A' for Active; 'I' for Inactive)
REMARK    1  A    between atoms: C2_2  and  N1_3 
REMARK    2  A    between atoms: C6_7  and  C7_8 
REMARK    3  A    between atoms: C8_9  and  C9_10 
REMARK    4  A    between atoms: C13_14  and  C14_15 
REMARK    5  A    between atoms: C24_33  and  O1_34 
ROOT
HETATM    1  N1  UNL     1      -2.312  -1.391  -0.113  1.00  0.00    -0.356 N 
HETATM    2  C3  UNL     1      -1.617  -0.527  -0.991  1.00  0.00     0.103 C 
HETATM    3  C4  UNL     1      -0.626   0.480  -0.643  1.00  0.00    -0.008 A 
HETATM    4  C5  UNL     1       0.706   0.028  -0.709  1.00  0.00     0.034 A 
HETATM    5  C6  UNL     1       1.791   0.819  -0.513  1.00  0.00     0.018 A 
HETATM    6  C16 UNL     1       1.580   2.144  -0.231  1.00  0.00     0.021 A 
HETATM    7  C17 UNL     1       0.291   2.609  -0.159  1.00  0.00     0.014 A 
HETATM    8  C18 UNL     1      -0.848   1.824  -0.356  1.00  0.00    -0.014 A 
HETATM    9  C19 UNL     1      -2.135   2.535  -0.195  1.00  0.00    -0.020 A 
HETATM   10  C20 UNL     1      -2.080   3.244   1.039  1.00  0.00     0.029 A 
HETATM   11  C21 UNL     1      -3.176   3.848   1.597  1.00  0.00     0.090 A 
HETATM   12  N4  UNL     1      -4.277   3.726   0.919  1.00  0.00    -0.352 N 
ATOM     13  H4  UNL     1      -5.112   4.163   1.309  1.00  0.00     0.166 HD
HETATM   14  C22 UNL     1      -4.422   3.051  -0.296  1.00  0.00     0.108 A 
HETATM   15  C23 UNL     1      -3.323   2.445  -0.885  1.00  0.00     0.061 A 
HETATM   16  N5  UNL     1      -5.840   2.994  -0.533  1.00  0.00    -0.308 N 
ATOM     17  H5  UNL     1      -6.238   3.914  -0.720  1.00  0.00     0.171 HD
HETATM   18  C24 UNL     1      -6.810   1.977  -0.569  1.00  0.00     0.223 C 
HETATM   19  N6  UNL     1      -6.907   0.671   0.026  1.00  0.00    -0.322 N 
ATOM     20  H6  UNL     1      -7.809   0.465   0.456  1.00  0.00     0.169 HD
HETATM   21  C25 UNL     1      -5.928  -0.407   0.116  1.00  0.00     0.037 A 
HETATM   22  C26 UNL     1      -6.457  -1.635  -0.363  1.00  0.00     0.029 A 
HETATM   23  C27 UNL     1      -5.694  -2.756  -0.611  1.00  0.00     0.004 A 
HETATM   24  C28 UNL     1      -4.343  -2.623  -0.373  1.00  0.00     0.030 A 
HETATM   25  C29 UNL     1      -3.796  -1.406   0.101  1.00  0.00     0.036 A 
HETATM   26  C30 UNL     1      -4.586  -0.335   0.355  1.00  0.00     0.059 A 
ENDROOT
BRANCH   5  27
HETATM   27  C7  UNL     1       3.122   0.307  -0.607  1.00  0.00    -0.061 C 
HETATM   28  C8  UNL     1       4.216  -0.144  -0.701  1.00  0.00    -0.061 C 
BRANCH  28  29
HETATM   29  C9  UNL     1       5.523  -0.718  -0.831  1.00  0.00     0.019 A 
HETATM   30  C10 UNL     1       5.879  -1.421  -1.991  1.00  0.00     0.020 A 
HETATM   31  C11 UNL     1       7.143  -1.968  -2.083  1.00  0.00     0.002 A 
HETATM   32  C12 UNL     1       8.020  -1.808  -1.029  1.00  0.00     0.015 A 
HETATM   33  C13 UNL     1       7.680  -1.120   0.113  1.00  0.00     0.006 A 
HETATM   34  C15 UNL     1       6.415  -0.572   0.204  1.00  0.00     0.035 A 
BRANCH  33  35
HETATM   35  C14 UNL     1       8.649  -0.972   1.226  1.00  0.00     0.120 C 
HETATM   36  N2  UNL     1       9.740  -1.454   1.150  1.00  0.00    -0.387 N 
ATOM     37  H22 UNL     1      10.054  -1.980   0.335  1.00  0.00     0.157 HD
ATOM     38  H21 UNL     1      10.406  -1.352   1.915  1.00  0.00     0.157 HD
HETATM   39  N3  UNL     1       8.208  -0.234   2.370  1.00  0.00    -0.082 NA
ENDBRANCH  33  35
ENDBRANCH  28  29
ENDBRANCH   5  27
BRANCH   1  40
HETATM   40  C2  UNL     1      -1.593  -2.457   0.592  1.00  0.00     0.124 C 
HETATM   41  C1  UNL     1      -0.751  -1.820   1.666  1.00  0.00     0.027 C 
ENDBRANCH   1  40
BRANCH  18  42
HETATM   42  O1  UNL     1      -7.856   2.297  -1.310  1.00  0.00    -0.332 OA
ATOM     43  H1  UNL     1      -8.511   1.610  -1.334  1.00  0.00     0.220 HD
ENDBRANCH  18  42
TORSDOF 5
