REMARK  6 active torsions:
REMARK  status: ('A' for Active; 'I' for Inactive)
REMARK    1  A    between atoms: C6_8  and  N2_9 
REMARK    2  A    between atoms: N2_9  and  C7_11 
REMARK    3  A    between atoms: C10_14  and  N3_15 
REMARK    4  A    between atoms: N3_15  and  C11_17 
REMARK    5  A    between atoms: C15_25  and  C16_26 
REMARK    6  A    between atoms: C17_27  and  C18_28 
ROOT
HETATM    1  C11 UNL     1      -0.027  -0.912   0.601  1.00  0.00     0.133 A 
HETATM    2  N4  UNL     1       0.760  -1.069   1.676  1.00  0.00    -0.284 N 
ATOM      3  H4  UNL     1       1.778  -1.127   1.656  1.00  0.00     0.188 HD
HETATM    4  N5  UNL     1       0.016  -1.137   2.761  1.00  0.00    -0.298 N 
ATOM      5  H5  UNL     1       0.363  -1.255   3.713  1.00  0.00     0.187 HD
HETATM    6  C12 UNL     1      -1.289  -1.024   2.402  1.00  0.00     0.062 A 
HETATM    7  C13 UNL     1      -2.471  -1.027   3.098  1.00  0.00     0.033 A 
HETATM    8  C14 UNL     1      -3.655  -0.888   2.425  1.00  0.00     0.023 A 
HETATM    9  C15 UNL     1      -3.732  -0.743   1.053  1.00  0.00     0.019 A 
HETATM   10  C27 UNL     1      -2.508  -0.746   0.390  1.00  0.00     0.038 A 
HETATM   11  C28 UNL     1      -1.317  -0.882   1.040  1.00  0.00     0.039 A 
ENDROOT
BRANCH   1  12
HETATM   12  N3  UNL     1       0.381  -0.810  -0.628  1.00  0.00    -0.341 N 
ATOM     13  H3  UNL     1      -0.297  -0.694  -1.381  1.00  0.00     0.167 HD
BRANCH  12  14
HETATM   14  C10 UNL     1       1.777  -0.860  -0.927  1.00  0.00     0.033 A 
HETATM   15  C9  UNL     1       2.515  -2.009  -0.733  1.00  0.00     0.032 A 
HETATM   16  C8  UNL     1       3.861  -2.031  -1.030  1.00  0.00     0.032 A 
HETATM   17  C7  UNL     1       4.535  -0.934  -1.527  1.00  0.00     0.049 A 
HETATM   18  C30 UNL     1       3.789   0.218  -1.720  1.00  0.00     0.032 A 
HETATM   19  C29 UNL     1       2.441   0.255  -1.427  1.00  0.00     0.032 A 
BRANCH  17  20
HETATM   20  N2  UNL     1       5.910  -1.037  -1.805  1.00  0.00    -0.192 N 
ATOM     21  H2  UNL     1       6.180  -1.692  -2.539  1.00  0.00     0.184 HD
BRANCH  20  22
HETATM   22  C6  UNL     1       6.847  -0.401  -1.239  1.00  0.00     0.683 A 
HETATM   23  N1  UNL     1       6.689   0.496  -0.259  1.00  0.00    -0.196 N 
HETATM   24  C4  UNL     1       7.731   1.133   0.296  1.00  0.00     0.024 A 
ATOM     25  H1  UNL     1       5.748   0.702   0.076  1.00  0.00     0.184 HD
HETATM   26  C3  UNL     1       9.013   0.860  -0.153  1.00  0.00     0.050 A 
HETATM   27  C5  UNL     1       7.475   2.115   1.378  1.00  0.00     0.068 C 
HETATM   28  C2  UNL     1       9.188  -0.050  -1.149  1.00  0.00     0.024 A 
HETATM   29  C1  UNL     1      10.548  -0.370  -1.657  1.00  0.00     0.068 C 
HETATM   30  N7  UNL     1       8.114  -0.654  -1.664  1.00  0.00    -0.196 N 
ATOM     31  H7  UNL     1       8.250  -1.336  -2.410  1.00  0.00     0.184 HD
ENDBRANCH  20  22
ENDBRANCH  17  20
ENDBRANCH  12  14
ENDBRANCH   1  12
BRANCH   9  32
HETATM   32  C16 UNL     1      -4.984  -0.599   0.368  1.00  0.00    -0.061 C 
HETATM   33  C17 UNL     1      -6.038  -0.463  -0.212  1.00  0.00    -0.060 C 
BRANCH  33  34
HETATM   34  C18 UNL     1      -7.292  -0.300  -0.899  1.00  0.00     0.032 A 
HETATM   35  C19 UNL     1      -7.653  -1.124  -1.932  1.00  0.00     0.038 A 
HETATM   36  C20 UNL     1      -8.867  -0.952  -2.585  1.00  0.00     0.090 A 
HETATM   37  N6  UNL     1      -9.704   0.036  -2.199  1.00  0.00    -0.365 N 
HETATM   38  C21 UNL     1      -9.397   0.870  -1.192  1.00  0.00     0.043 A 
ATOM     39  H6  UNL     1     -10.593   0.152  -2.686  1.00  0.00     0.165 HD
HETATM   40  C22 UNL     1     -10.286   1.862  -0.838  1.00  0.00     0.030 A 
HETATM   41  C26 UNL     1      -8.194   0.704  -0.542  1.00  0.00     0.009 A 
HETATM   42  C23 UNL     1      -9.932   2.696   0.200  1.00  0.00     0.002 A 
HETATM   43  C24 UNL     1      -8.728   2.553   0.873  1.00  0.00     0.001 A 
HETATM   44  C25 UNL     1      -7.852   1.546   0.495  1.00  0.00     0.015 A 
ENDBRANCH  33  34
ENDBRANCH   9  32
TORSDOF 6
