REMARK  5 active torsions:
REMARK  status: ('A' for Active; 'I' for Inactive)
REMARK    1  A    between atoms: C2_2  and  N1_3 
REMARK    2  A    between atoms: C3_4  and  C4_5 
REMARK    3  A    between atoms: C4_5  and  O2_7 
REMARK    4  A    between atoms: C6_9  and  N2_10 
REMARK    5  A    between atoms: N3_12  and  N4_14 
ROOT
HETATM    1  N1  UNL     1      -0.827  -1.009  -0.058  1.00  0.00    -0.326 N 
HETATM    2  C3  UNL     1      -1.163   0.207   0.398  1.00  0.00     0.141 A 
HETATM    3  C6  UNL     1       0.024   0.848   0.786  1.00  0.00     0.102 A 
HETATM    4  C7  UNL     1       1.046  -0.040   0.536  1.00  0.00     0.107 A 
HETATM    5  C8  UNL     1       2.422   0.002   0.701  1.00  0.00     0.267 A 
HETATM    6  O3  UNL     1       2.952   1.034   1.176  1.00  0.00    -0.267 OA
HETATM    7  N5  UNL     1       3.219  -1.019   0.372  1.00  0.00    -0.270 N 
HETATM    8  C9  UNL     1       4.654  -0.967   0.547  1.00  0.00     0.164 C 
HETATM    9  C10 UNL     1       2.663  -2.131  -0.139  1.00  0.00     0.330 A 
HETATM   10  O4  UNL     1       3.354  -3.130  -0.470  1.00  0.00    -0.246 OA
HETATM   11  N6  UNL     1       1.318  -2.231  -0.323  1.00  0.00    -0.293 N 
ATOM     12  H6  UNL     1       0.912  -3.083  -0.710  1.00  0.00     0.172 HD
HETATM   13  C11 UNL     1       0.529  -1.193   0.012  1.00  0.00     0.130 A 
ENDROOT
BRANCH   3  14
HETATM   14  N2  UNL     1       0.148   2.146   1.326  1.00  0.00    -0.283 N 
HETATM   15  N3  UNL     1       0.440   3.181   0.696  1.00  0.00    -0.249 N 
ATOM     16  H3  UNL     1       0.490   4.048   1.232  1.00  0.00     0.207 HD
ATOM     17  H2  UNL     1      -0.017   2.247   2.327  1.00  0.00     0.188 HD
BRANCH  15  18
HETATM   18  N4  UNL     1       0.703   3.268  -0.663  1.00  0.00    -0.331 N 
ATOM     19  H42 UNL     1       0.648   2.392  -1.182  1.00  0.00     0.178 HD
ATOM     20  H41 UNL     1       0.942   4.115  -1.179  1.00  0.00     0.178 HD
ENDBRANCH  15  18
ENDBRANCH   3  14
BRANCH   2  21
HETATM   21  C4  UNL     1      -2.459   0.865   0.512  1.00  0.00     0.312 C 
HETATM   22  O1  UNL     1      -3.530   0.311   0.149  1.00  0.00    -0.258 OA
BRANCH  21  23
HETATM   23  O2  UNL     1      -2.554   2.150   1.035  1.00  0.00    -0.321 OA
HETATM   24  C5  UNL     1      -3.824   2.762   1.134  1.00  0.00     0.213 C 
ENDBRANCH  21  23
ENDBRANCH   2  21
BRANCH   1  25
HETATM   25  C2  UNL     1      -1.757  -1.995  -0.545  1.00  0.00     0.126 C 
HETATM   26  C1  UNL     1      -2.055  -1.888  -2.001  1.00  0.00     0.027 C 
ENDBRANCH   1  25
TORSDOF 5
