REMARK  11 active torsions:
REMARK  status: ('A' for Active; 'I' for Inactive)
REMARK       I    between atoms: C2_2  and  N1_4 
REMARK    1  A    between atoms: N1_4  and  C3_6 
REMARK    2  A    between atoms: C4_7  and  N2_8 
REMARK    3  A    between atoms: C6_13  and  N3_14 
REMARK    4  A    between atoms: C7_16  and  N4_18 
REMARK    5  A    between atoms: N4_18  and  C9_20 
REMARK    6  A    between atoms: C11_22  and  C12_23 
REMARK    7  A    between atoms: S2_28  and  N5_29 
REMARK    8  A    between atoms: N5_29  and  O4_31 
REMARK    9  A    between atoms: O4_31  and  C14_32 
REMARK   10  A    between atoms: C14_32  and  O5_33 
REMARK   11  A    between atoms: C16_36  and  O6_37 
ROOT
HETATM    1  O5  UNL     1      -0.024   2.978   1.272  1.00  0.00    -0.255 OA
HETATM    2  C15 UNL     1      -0.265   3.678   2.419  1.00  0.00     0.230 C 
HETATM    3  N6  UNL     1      -0.489   4.269   3.411  1.00  0.00    -0.164 NA
ENDROOT
BRANCH   1   4
HETATM    4  C14 UNL     1       0.842   3.488   0.267  1.00  0.00     0.391 C 
BRANCH   4   5
HETATM    5  O4  UNL     1       0.925   2.585  -0.809  1.00  0.00    -0.248 OA
BRANCH   5   6
HETATM    6  N5  UNL     1      -0.219   2.254  -1.496  1.00  0.00    -0.244 N 
ATOM      7  H5  UNL     1      -0.635   2.884  -2.182  1.00  0.00     0.202 HD
BRANCH   6   8
HETATM    8  S2  UNL     1      -0.866   0.818  -1.159  1.00  0.00    -0.050 SA
HETATM    9  C6  UNL     1      -0.132  -0.346   0.081  1.00  0.00     0.161 C 
HETATM   10  C5  UNL     1      -1.405  -0.893   0.745  1.00  0.00     0.072 C 
HETATM   11  C4  UNL     1      -2.244  -1.554  -0.339  1.00  0.00     0.212 C 
HETATM   12  C3  UNL     1      -3.168  -0.628  -1.028  1.00  0.00     0.154 C 
HETATM   13  C16 UNL     1      -2.711   0.820  -1.019  1.00  0.00     0.217 C 
BRANCH   9  14
HETATM   14  N3  UNL     1       0.509  -1.421  -0.602  1.00  0.00    -0.366 N 
HETATM   15  C7  UNL     1       1.725  -1.805  -0.410  1.00  0.00     0.070 C 
HETATM   16  C8  UNL     1       2.289  -2.928  -1.170  1.00  0.00     0.088 C 
ATOM     17  H3  UNL     1      -0.038  -1.927  -1.298  1.00  0.00     0.162 HD
BRANCH  15  18
HETATM   18  N4  UNL     1       2.528  -1.133   0.548  1.00  0.00    -0.372 N 
ATOM     19  H4  UNL     1       2.106  -0.905   1.448  1.00  0.00     0.161 HD
BRANCH  18  20
HETATM   20  C9  UNL     1       3.904  -0.751   0.330  1.00  0.00     0.117 C 
HETATM   21  C10 UNL     1       4.446  -0.083   1.494  1.00  0.00     0.024 C 
HETATM   22  C11 UNL     1       5.393   0.800   1.316  1.00  0.00     0.075 C 
HETATM   23  S1  UNL     1       5.677   0.879  -0.451  1.00  0.00    -0.121 SA
HETATM   24  C13 UNL     1       4.063   0.102  -0.908  1.00  0.00     0.108 C 
BRANCH  22  25
HETATM   25  C12 UNL     1       6.095   1.596   2.300  1.00  0.00     0.216 C 
HETATM   26  O2  UNL     1       5.807   1.474   3.515  1.00  0.00    -0.644 OA
HETATM   27  O3  UNL     1       7.070   2.484   1.937  1.00  0.00    -0.644 OA
ENDBRANCH  22  25
ENDBRANCH  18  20
ENDBRANCH  15  18
ENDBRANCH   9  14
BRANCH  11  28
HETATM   28  N2  UNL     1      -2.874  -2.700   0.278  1.00  0.00    -0.073 N 
ATOM     29  H23 UNL     1      -3.609  -2.396   0.917  1.00  0.00     0.274 HD
ATOM     30  H22 UNL     1      -3.433  -3.207  -0.409  1.00  0.00     0.274 HD
ATOM     31  H21 UNL     1      -2.237  -3.339   0.753  1.00  0.00     0.274 HD
ENDBRANCH  11  28
BRANCH  12  32
HETATM   32  N1  UNL     1      -4.529  -0.644  -0.560  1.00  0.00    -0.351 N 
HETATM   33  C2  UNL     1      -5.665  -0.946  -1.302  1.00  0.00     0.214 C 
HETATM   34  C1  UNL     1      -7.026  -0.932  -0.716  1.00  0.00     0.117 C 
HETATM   35  O1  UNL     1      -5.554  -1.245  -2.517  1.00  0.00    -0.274 OA
ATOM     36  H1  UNL     1      -4.676  -0.408   0.422  1.00  0.00     0.163 HD
ENDBRANCH  12  32
BRANCH  13  37
HETATM   37  O6  UNL     1      -3.335   1.561  -2.010  1.00  0.00    -0.382 OA
ATOM     38  H6  UNL     1      -3.049   2.467  -2.004  1.00  0.00     0.211 HD
ENDBRANCH  13  37
ENDBRANCH   6   8
ENDBRANCH   5   6
ENDBRANCH   4   5
ENDBRANCH   1   4
TORSDOF 11
