REMARK  3 active torsions:
REMARK  status: ('A' for Active; 'I' for Inactive)
REMARK    1  A    between atoms: N1_2  and  N2_3 
REMARK    2  A    between atoms: C4_6  and  C5_7 
REMARK       I    between atoms: C5_7  and  N3_9 
REMARK    3  A    between atoms: N3_9  and  C6_11 
ROOT
HETATM    1  C5  UNL     1      -0.508   0.984   0.452  1.00  0.00     0.223 C 
HETATM    2  O1  UNL     1       0.014   1.966   1.038  1.00  0.00    -0.273 OA
HETATM    3  N3  UNL     1       0.372  -0.036  -0.016  1.00  0.00    -0.356 N 
ATOM      4  H3  UNL     1      -0.022  -0.845  -0.496  1.00  0.00     0.162 HD
ENDROOT
BRANCH   1   5
HETATM    5  C4  UNL     1      -1.960   0.944   0.286  1.00  0.00     0.093 C 
HETATM    6  C3  UNL     1      -2.374   0.892  -1.177  1.00  0.00     0.031 C 
HETATM    7  C2  UNL     1      -3.548  -0.051  -1.257  1.00  0.00     0.110 C 
HETATM    8  N2  UNL     1      -3.840  -0.437   0.102  1.00  0.00    -0.234 NA
HETATM    9  C13 UNL     1      -2.585  -0.320   0.833  1.00  0.00     0.123 C 
BRANCH   8  10
HETATM   10  N1  UNL     1      -4.760   0.417   0.715  1.00  0.00    -0.170 NA
HETATM   11  C1  UNL     1      -6.133   0.082   0.371  1.00  0.00     0.152 C 
ENDBRANCH   8  10
ENDBRANCH   1   5
BRANCH   3  12
HETATM   12  C6  UNL     1       1.807   0.040   0.168  1.00  0.00     0.084 C 
HETATM   13  C7  UNL     1       2.413   0.037  -1.232  1.00  0.00     0.025 C 
HETATM   14  C8  UNL     1       3.848   0.493  -1.163  1.00  0.00     0.002 C 
HETATM   15  C9  UNL     1       4.618  -0.629  -0.456  1.00  0.00     0.000 C 
HETATM   16  C10 UNL     1       4.617  -0.279   1.032  1.00  0.00     0.000 C 
HETATM   17  C11 UNL     1       3.493  -0.915   1.775  1.00  0.00     0.002 C 
HETATM   18  C12 UNL     1       2.259  -1.153   0.944  1.00  0.00     0.025 C 
ENDBRANCH   3  12
TORSDOF 3
