REMARK  2 active torsions:
REMARK  status: ('A' for Active; 'I' for Inactive)
REMARK    1  A    between atoms: S1_2  and  C2_3 
REMARK    2  A    between atoms: C2_3  and  C3_4 
ROOT
HETATM    1  C3  UNL     1       0.391   0.406   0.591  1.00  0.00     0.167 C 
HETATM    2  O1  UNL     1      -0.179   1.183  -0.411  1.00  0.00    -0.349 OA
HETATM    3  C4  UNL     1      -1.219   0.428  -0.963  1.00  0.00     0.307 C 
HETATM    4  O2  UNL     1      -0.656  -0.717  -1.487  1.00  0.00    -0.207 OA
HETATM    5  O3  UNL     1      -0.305  -1.501  -0.504  1.00  0.00    -0.229 OA
HETATM    6  C5  UNL     1      -0.502  -0.794   0.682  1.00  0.00     0.203 C 
HETATM    7  C6  UNL     1      -1.833  -0.143   0.313  1.00  0.00     0.037 C 
HETATM    8  C7  UNL     1      -2.844  -1.212   0.037  1.00  0.00     0.023 C 
HETATM    9  C8  UNL     1      -2.271   0.897   1.280  1.00  0.00     0.023 C 
ENDROOT
BRANCH   1  10
HETATM   10  C2  UNL     1       1.766  -0.095   0.246  1.00  0.00     0.108 C 
BRANCH  10  11
HETATM   11  S1  UNL     1       2.875   1.185  -0.351  1.00  0.00    -0.171 SA
HETATM   12  C1  UNL     1       4.578   0.651  -0.049  1.00  0.00     0.089 C 
ENDBRANCH  10  11
ENDBRANCH   1  10
TORSDOF 2
