REMARK  4 active torsions:
REMARK  status: ('A' for Active; 'I' for Inactive)
REMARK    1  A    between atoms: C2_2  and  C3_3 
REMARK    2  A    between atoms: C3_3  and  C4_4 
REMARK    3  A    between atoms: C15_21  and  C16_22 
REMARK    4  A    between atoms: C16_22  and  O2_23 
ROOT
HETATM    1  C4  UNL     1      -0.727  -1.141  -0.520  1.00  0.00     0.022 A 
HETATM    2  N1  UNL     1      -0.877  -2.408  -0.024  1.00  0.00    -0.337 N 
ATOM      3  H1  UNL     1      -0.131  -3.071  -0.236  1.00  0.00     0.168 HD
HETATM    4  C5  UNL     1      -1.876  -2.861   0.694  1.00  0.00     0.189 A 
HETATM    5  C6  UNL     1      -1.949  -4.219   1.190  1.00  0.00     0.137 C 
HETATM    6  N2  UNL     1      -2.031  -5.305   1.583  1.00  0.00    -0.188 NA
HETATM    7  N3  UNL     1      -2.866  -2.001   0.983  1.00  0.00    -0.337 N 
ATOM      8  H3  UNL     1      -3.662  -2.310   1.541  1.00  0.00     0.168 HD
HETATM    9  C7  UNL     1      -2.811  -0.728   0.537  1.00  0.00     0.019 A 
HETATM   10  C8  UNL     1      -1.739  -0.252  -0.234  1.00  0.00    -0.013 A 
HETATM   11  C9  UNL     1      -1.537   1.014  -0.886  1.00  0.00     0.042 C 
HETATM   12  C10 UNL     1      -2.733   1.880  -1.107  1.00  0.00     0.005 C 
HETATM   13  C11 UNL     1      -3.580   2.117   0.083  1.00  0.00     0.001 C 
HETATM   14  C12 UNL     1      -4.592   0.989   0.136  1.00  0.00     0.006 C 
HETATM   15  C13 UNL     1      -4.004  -0.027   1.038  1.00  0.00     0.057 C 
ENDROOT
BRANCH   1  16
HETATM   16  C3  UNL     1       0.557  -0.864  -1.157  1.00  0.00     0.097 C 
BRANCH  16  17
HETATM   17  C2  UNL     1       1.733  -0.699  -0.215  1.00  0.00     0.084 C 
HETATM   18  C1  UNL     1       1.874  -2.069   0.522  1.00  0.00     0.049 C 
HETATM   19  C14 UNL     1       1.669   0.299   0.845  1.00  0.00     0.206 C 
HETATM   20  O1  UNL     1       2.315   1.512   0.622  1.00  0.00    -0.379 OA
HETATM   21  C15 UNL     1       3.556   1.396   0.059  1.00  0.00     0.168 C 
HETATM   22  C17 UNL     1       3.379   0.604  -1.216  1.00  0.00     0.203 C 
HETATM   23  O3  UNL     1       2.861  -0.657  -1.027  1.00  0.00    -0.375 OA
BRANCH  21  24
HETATM   24  C16 UNL     1       4.606   0.773   0.955  1.00  0.00     0.198 C 
BRANCH  24  25
HETATM   25  O2  UNL     1       5.828   0.752   0.237  1.00  0.00    -0.398 OA
ATOM     26  H2  UNL     1       6.487   0.361   0.799  1.00  0.00     0.209 HD
ENDBRANCH  24  25
ENDBRANCH  21  24
ENDBRANCH  16  17
ENDBRANCH   1  16
TORSDOF 4
