REMARK  3 active torsions:
REMARK  status: ('A' for Active; 'I' for Inactive)
REMARK    1  A    between atoms: N2_4  and  O1_6 
REMARK    2  A    between atoms: O1_6  and  C3_7 
REMARK    3  A    between atoms: C3_7  and  C4_8 
ROOT
HETATM    1  C4  UNL     1      -0.831  -0.732   0.349  1.00  0.00     0.008 C 
HETATM    2  C5  UNL     1      -0.853  -2.166   0.904  1.00  0.00     0.020 C 
HETATM    3  C6  UNL     1      -1.597   0.104   1.315  1.00  0.00     0.046 C 
HETATM    4  C7  UNL     1      -3.000   0.010   0.708  1.00  0.00     0.122 C 
HETATM    5  C8  UNL     1      -3.116   1.127  -0.294  1.00  0.00     0.034 C 
HETATM    6  C9  UNL     1      -2.112   0.637  -1.338  1.00  0.00     0.035 C 
HETATM    7  C10 UNL     1      -1.726  -0.723  -0.843  1.00  0.00     0.132 C 
HETATM    8  O2  UNL     1      -2.934  -1.089  -0.183  1.00  0.00    -0.380 OA
ENDROOT
BRANCH   1   9
HETATM    9  C3  UNL     1       0.584  -0.366   0.133  1.00  0.00     0.213 C 
BRANCH   9  10
HETATM   10  O1  UNL     1       0.841   0.884  -0.363  1.00  0.00    -0.279 OA
BRANCH  10  11
HETATM   11  N2  UNL     1       2.047   1.380  -0.618  1.00  0.00    -0.257 N 
HETATM   12  C2  UNL     1       3.186   0.854  -0.481  1.00  0.00     0.109 C 
HETATM   13  C1  UNL     1       4.408   1.652  -0.852  1.00  0.00     0.087 C 
HETATM   14  N1  UNL     1       3.419  -0.452   0.004  1.00  0.00    -0.086 NA
ATOM     15  H2  UNL     1       2.053   2.333  -0.981  1.00  0.00     0.195 HD
ENDBRANCH  10  11
ENDBRANCH   9  10
ENDBRANCH   1   9
TORSDOF 3
