REMARK  5 active torsions:
REMARK  status: ('A' for Active; 'I' for Inactive)
REMARK    1  A    between atoms: C5_5  and  N1_6 
REMARK    2  A    between atoms: N1_6  and  C6_9 
REMARK    3  A    between atoms: C6_9  and  C7_10 
REMARK    4  A    between atoms: C7_10  and  C8_11 
REMARK    5  A    between atoms: C8_11  and  N2_12 
ROOT
HETATM    1  N1  UNL     1      -1.261   0.673  -1.207  1.00  0.00    -0.071 N 
ATOM      2  H11 UNL     1      -1.658   1.574  -1.473  1.00  0.00     0.277 HD
ATOM      3  H12 UNL     1      -1.152   0.273  -2.139  1.00  0.00     0.277 HD
ENDROOT
BRANCH   1   4
HETATM    4  C5  UNL     1      -2.197  -0.116  -0.376  1.00  0.00     0.185 C 
HETATM    5  C4  UNL     1      -2.390   0.668   0.862  1.00  0.00     0.033 C 
HETATM    6  C3  UNL     1      -3.773   0.809   1.393  1.00  0.00     0.002 C 
HETATM    7  C2  UNL     1      -4.731   1.332   0.343  1.00  0.00     0.000 C 
HETATM    8  C1  UNL     1      -5.537   0.189  -0.260  1.00  0.00     0.000 C 
HETATM    9  C15 UNL     1      -4.558  -0.964  -0.470  1.00  0.00     0.002 C 
HETATM   10  C14 UNL     1      -3.393  -0.371  -1.222  1.00  0.00     0.033 C 
ENDBRANCH   1   4
BRANCH   1  11
HETATM   11  C6  UNL     1       0.007   0.823  -0.537  1.00  0.00     0.234 C 
BRANCH  11  12
HETATM   12  C7  UNL     1       0.815  -0.446  -0.450  1.00  0.00     0.057 C 
BRANCH  12  13
HETATM   13  C8  UNL     1       2.074  -0.070   0.349  1.00  0.00     0.274 C 
BRANCH  13  14
HETATM   14  N2  UNL     1       2.948  -1.195   0.493  1.00  0.00     0.088 N 
HETATM   15  C9  UNL     1       3.961  -0.873   1.494  1.00  0.00     0.272 C 
HETATM   16  C10 UNL     1       4.740   0.342   1.085  1.00  0.00     0.030 C 
HETATM   17  C11 UNL     1       5.517  -0.019  -0.168  1.00  0.00     0.003 C 
HETATM   18  C12 UNL     1       4.551  -0.443  -1.234  1.00  0.00     0.030 C 
HETATM   19  C13 UNL     1       3.612  -1.514  -0.771  1.00  0.00     0.272 C 
ENDBRANCH  13  14
ENDBRANCH  12  13
ENDBRANCH  11  12
ENDBRANCH   1  11
TORSDOF 5
