REMARK  2 active torsions:
REMARK  status: ('A' for Active; 'I' for Inactive)
REMARK    1  A    between atoms: C4_5  and  N1_6 
REMARK    2  A    between atoms: N1_6  and  C5_9 
ROOT
HETATM    1  N1  UNL     1       0.494   0.088  -1.155  1.00  0.00    -0.066 N 
ATOM      2  H11 UNL     1       0.768  -0.562  -1.892  1.00  0.00     0.278 HD
ATOM      3  H12 UNL     1       0.672   0.974  -1.627  1.00  0.00     0.278 HD
ENDROOT
BRANCH   1   4
HETATM    4  C4  UNL     1       1.361  -0.054  -0.017  1.00  0.00     0.189 C 
HETATM    5  C3  UNL     1       2.221  -1.278  -0.224  1.00  0.00     0.036 C 
HETATM    6  C2  UNL     1       3.647  -0.842   0.008  1.00  0.00     0.039 C 
HETATM    7  C1  UNL     1       3.638   0.599   0.423  1.00  0.00     0.172 C 
HETATM    8  F1  UNL     1       3.880   0.673   1.774  1.00  0.00    -0.249 F 
HETATM    9  C12 UNL     1       2.279   1.132   0.045  1.00  0.00     0.070 C 
ENDBRANCH   1   4
BRANCH   1  10
HETATM   10  C5  UNL     1      -0.896  -0.048  -0.867  1.00  0.00     0.190 C 
HETATM   11  C6  UNL     1      -1.294  -1.332  -0.218  1.00  0.00     0.033 C 
HETATM   12  C7  UNL     1      -2.353  -1.284   0.809  1.00  0.00     0.002 C 
HETATM   13  C8  UNL     1      -3.279  -0.108   0.857  1.00  0.00     0.005 C 
HETATM   14  C9  UNL     1      -3.056   0.713  -0.339  1.00  0.00    -0.008 A 
HETATM   15  C10 UNL     1      -2.530   2.015  -0.542  1.00  0.00     0.012 A 
HETATM   16  C11 UNL     1      -1.534   1.069  -0.169  1.00  0.00     0.020 A 
ENDBRANCH   1  10
TORSDOF 2
