REMARK  3 active torsions:
REMARK  status: ('A' for Active; 'I' for Inactive)
REMARK    1  A    between atoms: C8_8  and  C9_9 
REMARK    2  A    between atoms: C9_9  and  O1_10 
REMARK    3  A    between atoms: C10_13  and  N1_14 
ROOT
HETATM    1  N1  UNL     1       0.266   2.871   0.861  1.00  0.00    -0.273 N 
ATOM      2  H1  UNL     1       0.836   3.467   1.461  1.00  0.00     0.180 HD
HETATM    3  C11 UNL     1      -0.947   3.403   0.381  1.00  0.00     0.183 C 
HETATM    4  N2  UNL     1      -1.967   3.823  -0.034  1.00  0.00    -0.172 NA
ENDROOT
BRANCH   1   5
HETATM    5  C10 UNL     1       0.747   1.596   0.581  1.00  0.00     0.166 A 
HETATM    6  O2  UNL     1       2.058   1.252   0.572  1.00  0.00    -0.294 OA
HETATM    7  C8  UNL     1       2.198   0.002   0.292  1.00  0.00     0.086 A 
HETATM    8  C7  UNL     1       0.934  -0.493   0.094  1.00  0.00    -0.010 A 
HETATM    9  C6  UNL     1       0.584  -1.803  -0.620  1.00  0.00     0.074 C 
HETATM   10  C12 UNL     1       0.006   0.463   0.299  1.00  0.00     0.037 A 
HETATM   11  C5  UNL     1      -0.914  -1.886  -0.648  1.00  0.00     0.127 C 
HETATM   12  C4  UNL     1      -1.457  -0.924  -1.673  1.00  0.00     0.035 C 
HETATM   13  O3  UNL     1      -1.324  -1.408   0.598  1.00  0.00    -0.370 OA
HETATM   14  C3  UNL     1      -2.229   0.077  -0.780  1.00  0.00     0.045 C 
HETATM   15  C2  UNL     1      -1.406   0.032   0.424  1.00  0.00     0.089 C 
HETATM   16  C1  UNL     1      -2.029   0.514   1.724  1.00  0.00     0.051 C 
BRANCH   7  17
HETATM   17  C9  UNL     1       3.440  -0.843   0.216  1.00  0.00     0.229 C 
BRANCH  17  18
HETATM   18  O1  UNL     1       4.240  -0.388  -0.777  1.00  0.00    -0.394 OA
ATOM     19  H1  UNL     1       5.024  -0.922  -0.825  1.00  0.00     0.209 HD
ENDBRANCH  17  18
ENDBRANCH   7  17
ENDBRANCH   1   5
TORSDOF 3
