REMARK  4 active torsions:
REMARK  status: ('A' for Active; 'I' for Inactive)
REMARK    1  A    between atoms: C2_7  and  N3_8 
REMARK    2  A    between atoms: N3_8  and  C3_10 
REMARK    3  A    between atoms: C9_17  and  C10_18 
REMARK    4  A    between atoms: C10_18  and  N4_19 
ROOT
HETATM    1  N1  UNL     1      -3.497   2.591  -0.556  1.00  0.00    -0.388 N 
ATOM      2  H11 UNL     1      -4.306   2.917  -0.027  1.00  0.00     0.157 HD
ATOM      3  H12 UNL     1      -3.217   3.177  -1.342  1.00  0.00     0.157 HD
HETATM    4  C1  UNL     1      -2.855   1.489  -0.245  1.00  0.00     0.092 C 
HETATM    5  N2  UNL     1      -1.754   1.046  -0.964  1.00  0.00    -0.326 N 
ATOM      6  H2  UNL     1      -1.581   1.382  -1.911  1.00  0.00     0.169 HD
HETATM    7  C2  UNL     1      -0.971   0.219  -0.422  1.00  0.00     0.142 C 
HETATM    8  S1  UNL     1      -1.610  -0.132   1.205  1.00  0.00    -0.080 SA
HETATM    9  C9  UNL     1      -3.262   0.637   0.897  1.00  0.00     0.147 C 
ENDROOT
BRANCH   7  10
HETATM   10  N3  UNL     1       0.193  -0.353  -0.967  1.00  0.00    -0.366 N 
ATOM     11  H3  UNL     1       0.184  -0.619  -1.952  1.00  0.00     0.162 HD
BRANCH  10  12
HETATM   12  C3  UNL     1       1.398  -0.583  -0.208  1.00  0.00     0.083 C 
HETATM   13  C4  UNL     1       1.964   0.703   0.360  1.00  0.00     0.025 C 
HETATM   14  C5  UNL     1       3.160   0.321   1.211  1.00  0.00     0.002 C 
HETATM   15  C6  UNL     1       4.232  -0.198   0.268  1.00  0.00     0.000 C 
HETATM   16  C7  UNL     1       3.713  -1.476  -0.336  1.00  0.00     0.002 C 
HETATM   17  C8  UNL     1       2.453  -1.161  -1.122  1.00  0.00     0.025 C 
ENDBRANCH  10  12
ENDBRANCH   7  10
BRANCH   9  18
HETATM   18  C10 UNL     1      -4.252  -0.427   0.507  1.00  0.00     0.253 C 
BRANCH  18  19
HETATM   19  N4  UNL     1      -5.466   0.096  -0.033  1.00  0.00    -0.078 N 
ATOM     20  H43 UNL     1      -5.889   0.765   0.611  1.00  0.00     0.274 HD
ATOM     21  H42 UNL     1      -5.274   0.716  -0.820  1.00  0.00     0.274 HD
ATOM     22  H41 UNL     1      -6.137  -0.625  -0.297  1.00  0.00     0.274 HD
ENDBRANCH  18  19
ENDBRANCH   9  18
TORSDOF 4
