REMARK  3 active torsions:
REMARK  status: ('A' for Active; 'I' for Inactive)
REMARK    1  A    between atoms: N1_2  and  C2_4 
REMARK    2  A    between atoms: C3_8  and  C4_9 
REMARK       I    between atoms: C4_9  and  N3_11 
REMARK    3  A    between atoms: N3_11  and  C5_13 
ROOT
HETATM    1  C2  UNL     1       3.272  -0.136   0.009  1.00  0.00     0.113 A 
HETATM    2  S1  UNL     1       2.938   0.686  -1.443  1.00  0.00     0.006 SA
HETATM    3  N2  UNL     1       1.272   0.725  -1.337  1.00  0.00    -0.319 N 
ATOM      4  H2  UNL     1       0.618   1.133  -2.005  1.00  0.00     0.174 HD
HETATM    5  C3  UNL     1       0.980   0.110  -0.194  1.00  0.00     0.134 A 
HETATM    6  C9  UNL     1       2.029  -0.357   0.540  1.00  0.00     0.114 A 
HETATM    7  N4  UNL     1       1.867  -1.052   1.816  1.00  0.00    -0.097 NA
ENDROOT
BRANCH   5   8
HETATM    8  C4  UNL     1      -0.453  -0.034   0.221  1.00  0.00     0.271 C 
HETATM    9  O1  UNL     1      -0.761  -0.609   1.293  1.00  0.00    -0.266 OA
HETATM   10  N3  UNL     1      -1.489   0.473  -0.586  1.00  0.00    -0.348 N 
ATOM     11  H3  UNL     1      -1.241   0.941  -1.458  1.00  0.00     0.163 HD
BRANCH  10  12
HETATM   12  C5  UNL     1      -2.879   0.363  -0.240  1.00  0.00     0.022 C 
HETATM   13  C6  UNL     1      -3.793   0.977  -1.254  1.00  0.00     0.037 C 
HETATM   14  C7  UNL     1      -3.240  -1.118  -0.147  1.00  0.00     0.037 C 
HETATM   15  C8  UNL     1      -3.190   0.987   1.104  1.00  0.00     0.037 C 
ENDBRANCH  10  12
ENDBRANCH   5   8
BRANCH   1  16
HETATM   16  N1  UNL     1       4.542  -0.526   0.578  1.00  0.00    -0.386 N 
HETATM   17  C1  UNL     1       5.719  -0.183  -0.167  1.00  0.00     0.147 C 
ATOM     18  H1  UNL     1       4.599  -1.022   1.468  1.00  0.00     0.159 HD
ENDBRANCH   1  16
TORSDOF 3
