REMARK  3 active torsions:
REMARK  status: ('A' for Active; 'I' for Inactive)
REMARK    1  A    between atoms: C2_2  and  C4_4 
REMARK    2  A    between atoms: C4_4  and  C5_5 
REMARK    3  A    between atoms: C5_5  and  O1_6 
ROOT
HETATM    1  C4  UNL     1      -0.601   0.346   0.161  1.00  0.00     0.153 C 
HETATM    2  O2  UNL     1      -0.126   1.341  -0.691  1.00  0.00    -0.223 OA
HETATM    3  O3  UNL     1       0.993   1.672  -0.078  1.00  0.00    -0.226 OA
HETATM    4  C6  UNL     1       1.710   0.470  -0.087  1.00  0.00     0.123 C 
HETATM    5  C7  UNL     1       2.819   0.456   0.925  1.00  0.00     0.052 C 
HETATM    6  C8  UNL     1       2.187   0.242  -1.493  1.00  0.00     0.052 C 
HETATM    7  C9  UNL     1       0.614  -0.536   0.292  1.00  0.00     0.247 C 
HETATM    8  F1  UNL     1       0.654  -1.582  -0.570  1.00  0.00    -0.243 F 
ENDROOT
BRANCH   1   9
HETATM    9  C2  UNL     1      -1.770  -0.407  -0.389  1.00  0.00     0.020 C 
HETATM   10  C1  UNL     1      -2.153  -1.462   0.633  1.00  0.00     0.013 C 
HETATM   11  C3  UNL     1      -1.567  -0.993  -1.733  1.00  0.00     0.013 C 
ENDBRANCH   1   9
BRANCH   1  12
HETATM   12  C5  UNL     1      -0.925   1.024   1.473  1.00  0.00     0.209 C 
BRANCH  12  13
HETATM   13  O1  UNL     1      -1.885   2.011   1.322  1.00  0.00    -0.398 OA
ATOM     14  H1  UNL     1      -2.089   2.437   2.146  1.00  0.00     0.209 HD
ENDBRANCH  12  13
ENDBRANCH   1  12
TORSDOF 3
