REMARK  5 active torsions:
REMARK  status: ('A' for Active; 'I' for Inactive)
REMARK    1  A    between atoms: C1_2  and  C2_3 
REMARK    2  A    between atoms: C1_2  and  O2_7 
REMARK    3  A    between atoms: C2_3  and  C3_4 
REMARK    4  A    between atoms: C3_4  and  C4_5 
REMARK    5  A    between atoms: O2_7  and  N1_8 
ROOT
HETATM    1  N1  UNL     1       0.477   0.574  -0.351  1.00  0.00    -0.263 N 
ATOM      2  H1  UNL     1       0.250   1.551  -0.167  1.00  0.00     0.194 HD
HETATM    3  C5  UNL     1      -0.388  -0.353  -0.126  1.00  0.00     0.048 C 
HETATM    4  C6  UNL     1      -0.306  -1.827  -0.308  1.00  0.00     0.084 C 
HETATM    5  C7  UNL     1      -1.085  -2.321   0.904  1.00  0.00     0.239 C 
HETATM    6  N2  UNL     1      -1.746  -1.178   1.481  1.00  0.00    -0.061 N 
ATOM      7  H21 UNL     1      -1.313  -0.844   2.342  1.00  0.00     0.278 HD
ATOM      8  H22 UNL     1      -2.660  -1.391   1.882  1.00  0.00     0.278 HD
HETATM    9  C8  UNL     1      -1.789  -0.172   0.413  1.00  0.00     0.165 C 
HETATM   10  C9  UNL     1      -1.977   1.152   1.003  1.00  0.00     0.045 C 
HETATM   11  C10 UNL     1      -3.268   1.851   0.705  1.00  0.00     0.003 C 
HETATM   12  C11 UNL     1      -3.772   1.544  -0.695  1.00  0.00     0.000 C 
HETATM   13  C12 UNL     1      -4.053   0.036  -0.670  1.00  0.00     0.003 C 
HETATM   14  C13 UNL     1      -2.725  -0.639  -0.619  1.00  0.00     0.045 C 
ENDROOT
BRANCH   1  15
HETATM   15  O2  UNL     1       1.710   0.224  -0.843  1.00  0.00    -0.200 OA
BRANCH  15  16
HETATM   16  C1  UNL     1       2.740  -0.301  -0.075  1.00  0.00     0.281 C 
HETATM   17  O1  UNL     1       2.511  -0.459   1.156  1.00  0.00    -0.263 OA
BRANCH  16  18
HETATM   18  C2  UNL     1       4.053  -0.673  -0.609  1.00  0.00     0.114 C 
BRANCH  18  19
HETATM   19  C3  UNL     1       4.985   0.393  -1.005  1.00  0.00     0.020 C 
BRANCH  19  20
HETATM   20  C4  UNL     1       5.383   1.341   0.076  1.00  0.00     0.085 C 
HETATM   21 BR1  UNL     1       3.850   2.302   0.715  1.00  0.00    -0.097 Br
ENDBRANCH  19  20
ENDBRANCH  18  19
ENDBRANCH  16  18
ENDBRANCH  15  16
ENDBRANCH   1  15
TORSDOF 5
