REMARK  7 active torsions:
REMARK  status: ('A' for Active; 'I' for Inactive)
REMARK    1  A    between atoms: N1_1  and  C1_5 
REMARK    2  A    between atoms: C1_5  and  C2_6 
REMARK    3  A    between atoms: C2_6  and  C3_7 
REMARK    4  A    between atoms: C3_7  and  C4_8 
REMARK    5  A    between atoms: C4_8  and  C5_9 
REMARK    6  A    between atoms: C7_11  and  N2_12 
REMARK    7  A    between atoms: N6_23  and  O3_24 
ROOT
HETATM    1  C5  UNL     1      -0.980   0.309   0.178  1.00  0.00    -0.022 A 
HETATM    2  C6  UNL     1      -1.925   1.244  -0.186  1.00  0.00     0.064 A 
HETATM    3  C7  UNL     1      -3.287   0.915  -0.198  1.00  0.00     0.176 A 
HETATM    4  N3  UNL     1      -3.670  -0.328   0.151  1.00  0.00    -0.319 N 
ATOM      5  H3  UNL     1      -4.662  -0.563   0.140  1.00  0.00     0.169 HD
HETATM    6  C8  UNL     1      -2.779  -1.267   0.514  1.00  0.00     0.184 A 
HETATM    7  C9  UNL     1      -1.414  -0.950   0.529  1.00  0.00     0.104 A 
HETATM    8  N4  UNL     1      -0.747  -2.050   0.923  1.00  0.00    -0.280 N 
ATOM      9  H4  UNL     1       0.262  -2.146   1.036  1.00  0.00     0.188 HD
HETATM   10  N5  UNL     1      -1.656  -2.977   1.133  1.00  0.00    -0.214 N 
ATOM     11  H5  UNL     1      -1.432  -3.923   1.442  1.00  0.00     0.211 HD
HETATM   12  N6  UNL     1      -2.876  -2.565   0.906  1.00  0.00    -0.129 N 
ENDROOT
BRANCH   1  13
HETATM   13  C4  UNL     1       0.472   0.599   0.206  1.00  0.00     0.041 C 
BRANCH  13  14
HETATM   14  C3  UNL     1       1.228   0.051  -0.961  1.00  0.00     0.006 C 
BRANCH  14  15
HETATM   15  C2  UNL     1       2.675   0.434  -0.815  1.00  0.00     0.027 C 
BRANCH  15  16
HETATM   16  C1  UNL     1       3.336  -0.093   0.411  1.00  0.00     0.229 C 
BRANCH  16  17
HETATM   17  N1  UNL     1       4.747   0.329   0.462  1.00  0.00    -0.079 N 
ATOM     18  H13 UNL     1       5.252   0.064  -0.384  1.00  0.00     0.274 HD
ATOM     19  H12 UNL     1       4.842   1.342   0.386  1.00  0.00     0.274 HD
ATOM     20  H11 UNL     1       5.200  -0.032   1.302  1.00  0.00     0.274 HD
ENDBRANCH  16  17
ENDBRANCH  15  16
ENDBRANCH  14  15
ENDBRANCH  13  14
ENDBRANCH   1  13
BRANCH   3  21
HETATM   21  N2  UNL     1      -4.242   1.890  -0.580  1.00  0.00    -0.098 N 
HETATM   22  O1  UNL     1      -3.845   3.032  -0.891  1.00  0.00    -0.531 OA
HETATM   23  O2  UNL     1      -5.565   1.540  -0.593  1.00  0.00    -0.531 OA
ENDBRANCH   3  21
BRANCH  12  24
HETATM   24  O3  UNL     1      -4.061  -3.280   1.030  1.00  0.00    -0.265 OA
ATOM     25  H3  UNL     1      -4.129  -4.187   1.304  1.00  0.00     0.247 HD
ENDBRANCH  12  24
TORSDOF 7
