REMARK  7 active torsions:
REMARK  status: ('A' for Active; 'I' for Inactive)
REMARK    1  A    between atoms: C1_2  and  C2_4 
REMARK    2  A    between atoms: C2_4  and  N2_5 
REMARK    3  A    between atoms: C2_4  and  C3_9 
REMARK    4  A    between atoms: C3_9  and  N3_10 
REMARK    5  A    between atoms: C3_9  and  C4_14 
REMARK    6  A    between atoms: C4_14  and  C5_16 
REMARK    7  A    between atoms: C5_16  and  C6_17 
ROOT
HETATM    1  C3  UNL     1      -0.988   0.269  -0.534  1.00  0.00     0.291 C 
ENDROOT
BRANCH   1   2
HETATM    2  C2  UNL     1      -1.791   0.009   0.734  1.00  0.00     0.309 C 
BRANCH   2   3
HETATM    3  C1  UNL     1      -3.228   0.104   0.356  1.00  0.00     0.264 C 
HETATM    4  N1  UNL     1      -3.838   1.257  -0.184  1.00  0.00    -0.060 NA
HETATM    5  O1  UNL     1      -3.967  -0.902   0.522  1.00  0.00    -0.274 OA
ENDBRANCH   2   3
BRANCH   2   6
HETATM    6  N2  UNL     1      -1.566  -1.311   1.283  1.00  0.00    -0.064 N 
ATOM      7  H23 UNL     1      -2.194  -1.531   2.056  1.00  0.00     0.275 HD
ATOM      8  H22 UNL     1      -1.860  -2.057   0.653  1.00  0.00     0.275 HD
ATOM      9  H21 UNL     1      -0.582  -1.376   1.542  1.00  0.00     0.275 HD
ENDBRANCH   2   6
ENDBRANCH   1   2
BRANCH   1  10
HETATM   10  N3  UNL     1      -1.417   1.632  -0.932  1.00  0.00    -0.066 N 
ATOM     11  H33 UNL     1      -2.425   1.746  -1.037  1.00  0.00     0.275 HD
ATOM     12  H32 UNL     1      -1.307   2.341  -0.207  1.00  0.00     0.275 HD
ATOM     13  H31 UNL     1      -0.879   1.806  -1.781  1.00  0.00     0.275 HD
ENDBRANCH   1  10
BRANCH   1  14
HETATM   14  C4  UNL     1       0.476   0.272  -0.315  1.00  0.00     0.164 C 
HETATM   15  O2  UNL     1       1.052   1.362  -0.376  1.00  0.00    -0.295 OA
BRANCH  14  16
HETATM   16  C5  UNL     1       1.208  -0.962  -0.043  1.00  0.00     0.128 C 
BRANCH  16  17
HETATM   17  C6  UNL     1       2.671  -0.704   0.111  1.00  0.00     0.006 A 
HETATM   18  C7  UNL     1       3.397  -0.403   1.235  1.00  0.00     0.102 A 
HETATM   19  N4  UNL     1       4.685  -0.222   1.081  1.00  0.00    -0.368 N 
HETATM   20  C8  UNL     1       5.223  -0.333  -0.118  1.00  0.00     0.138 A 
ATOM     21  H4  UNL     1       5.270   0.004   1.886  1.00  0.00     0.165 HD
HETATM   22  S1  UNL     1       3.873  -0.710  -1.093  1.00  0.00    -0.088 SA
ENDBRANCH  16  17
ENDBRANCH  14  16
ENDBRANCH   1  14
TORSDOF 7
