REMARK  5 active torsions:
REMARK  status: ('A' for Active; 'I' for Inactive)
REMARK    1  A    between atoms: C2_2  and  O2_4 
REMARK    2  A    between atoms: O2_4  and  C3_5 
REMARK    3  A    between atoms: C4_6  and  C5_7 
REMARK    4  A    between atoms: C6_8  and  C7_9 
REMARK    5  A    between atoms: N1_10  and  N2_12 
REMARK       I    between atoms: N2_12  and  C8_14 
ROOT
HETATM    1  C5  UNL     1      -0.597  -0.590  -0.337  1.00  0.00     0.003 C 
HETATM    2  C6  UNL     1       0.450  -0.782  -1.081  1.00  0.00     0.019 C 
ENDROOT
BRANCH   2   3
HETATM    3  C7  UNL     1       1.758  -0.277  -0.786  1.00  0.00     0.107 C 
HETATM    4  N1  UNL     1       2.743  -0.525  -1.596  1.00  0.00    -0.307 N 
ATOM      5  H1  UNL     1       2.565  -1.079  -2.434  1.00  0.00     0.186 HD
BRANCH   4   6
HETATM    6  N2  UNL     1       4.042  -0.056  -1.357  1.00  0.00    -0.244 N 
HETATM    7  C8  UNL     1       4.678  -0.175  -0.099  1.00  0.00     0.303 C 
HETATM    8  O3  UNL     1       4.087  -0.720   0.875  1.00  0.00    -0.628 OA
HETATM    9  O4  UNL     1       5.958   0.314   0.050  1.00  0.00    -0.628 OA
ATOM     10  H2  UNL     1       4.550   0.389  -2.121  1.00  0.00     0.193 HD
ENDBRANCH   4   6
ENDBRANCH   2   3
BRANCH   1  11
HETATM   11  C4  UNL     1      -0.524   0.174   0.887  1.00  0.00     0.025 C 
HETATM   12  C3  UNL     1      -1.608   0.360   1.635  1.00  0.00     0.145 C 
BRANCH  12  13
HETATM   13  O2  UNL     1      -2.855  -0.170   1.274  1.00  0.00    -0.291 OA
BRANCH  13  14
HETATM   14  C2  UNL     1      -3.730   0.538   0.497  1.00  0.00     0.259 C 
HETATM   15  C1  UNL     1      -5.073   0.030   0.079  1.00  0.00     0.126 C 
HETATM   16  O1  UNL     1      -3.393   1.681   0.109  1.00  0.00    -0.265 OA
ENDBRANCH  13  14
ENDBRANCH  12  13
ENDBRANCH   1  11
TORSDOF 5
