REMARK  15 active torsions:
REMARK  status: ('A' for Active; 'I' for Inactive)
REMARK    1  A    between atoms: O1_2  and  N1_3 
REMARK    2  A    between atoms: N1_3  and  C2_5 
REMARK    3  A    between atoms: N2_7  and  C4_8 
REMARK    4  A    between atoms: C5_11  and  C6_12 
REMARK    5  A    between atoms: C10_22  and  C11_23 
REMARK    6  A    between atoms: C11_23  and  O4_24 
REMARK    7  A    between atoms: C11_23  and  N6_26 
REMARK    8  A    between atoms: N6_26  and  C12_28 
REMARK    9  A    between atoms: N8_32  and  N9_33 
REMARK   10  A    between atoms: N9_33  and  C14_35 
REMARK   11  A    between atoms: C15_38  and  O5_39 
REMARK   12  A    between atoms: N12_43  and  N13_44 
REMARK   13  A    between atoms: C17_51  and  C18_52 
REMARK   14  A    between atoms: C18_52  and  C19_53 
REMARK   15  A    between atoms: C19_53  and  N16_54 
ROOT
HETATM    1  C4  UNL     1      -4.053  -0.368   1.716  1.00  0.00     0.137 A 
HETATM    2  N3  UNL     1      -4.356   0.158   2.941  1.00  0.00    -0.321 N 
ATOM      3  H3  UNL     1      -5.300   0.507   3.109  1.00  0.00     0.169 HD
HETATM    4  C5  UNL     1      -3.451   0.230   3.930  1.00  0.00     0.187 A 
HETATM    5  N4  UNL     1      -2.198  -0.217   3.751  1.00  0.00    -0.321 N 
ATOM      6  H4  UNL     1      -1.523  -0.154   4.513  1.00  0.00     0.169 HD
HETATM    7  C7  UNL     1      -1.828  -0.746   2.577  1.00  0.00     0.134 A 
HETATM    8  C8  UNL     1      -2.778  -0.819   1.550  1.00  0.00     0.117 A 
HETATM    9  N5  UNL     1      -2.349  -1.410   0.355  1.00  0.00    -0.382 N 
ATOM     10  H5  UNL     1      -3.036  -1.873  -0.241  1.00  0.00     0.160 HD
HETATM   11  C9  UNL     1      -0.963  -1.386  -0.063  1.00  0.00     0.149 C 
HETATM   12  C10 UNL     1      -0.083  -1.791   1.067  1.00  0.00     0.149 C 
HETATM   13  N15 UNL     1      -0.519  -1.236   2.334  1.00  0.00    -0.364 N 
ATOM     14  H15 UNL     1       0.157  -1.195   3.097  1.00  0.00     0.161 HD
ENDROOT
BRANCH  12  15
HETATM   15  C11 UNL     1       1.356  -1.415   0.880  1.00  0.00     0.244 C 
BRANCH  15  16
HETATM   16  O4  UNL     1       1.474  -0.008   0.872  1.00  0.00    -0.375 OA
ATOM     17  H4  UNL     1       2.386   0.230   0.753  1.00  0.00     0.212 HD
ENDBRANCH  15  16
BRANCH  15  18
HETATM   18  N6  UNL     1       1.949  -1.914  -0.306  1.00  0.00    -0.333 N 
ATOM     19  H6  UNL     1       1.395  -2.478  -0.951  1.00  0.00     0.165 HD
BRANCH  18  20
HETATM   20  C12 UNL     1       3.317  -1.633  -0.605  1.00  0.00     0.195 A 
HETATM   21  N7  UNL     1       4.226  -2.477  -0.953  1.00  0.00    -0.342 N 
HETATM   22  C13 UNL     1       5.501  -1.894  -1.186  1.00  0.00     0.294 A 
ATOM     23  H7  UNL     1       4.046  -3.476  -1.053  1.00  0.00     0.164 HD
HETATM   24  N8  UNL     1       5.329  -0.502  -0.941  1.00  0.00    -0.199 N 
HETATM   25  N14 UNL     1       3.950  -0.364  -0.579  1.00  0.00    -0.253 N 
ATOM     26  H14 UNL     1       3.492   0.515  -0.339  1.00  0.00     0.192 HD
BRANCH  24  27
HETATM   27  N9  UNL     1       6.234   0.514  -1.017  1.00  0.00    -0.112 N 
ATOM     28  H9  UNL     1       5.867   1.439  -0.794  1.00  0.00     0.207 HD
BRANCH  27  29
HETATM   29  C14 UNL     1       7.458   0.482  -1.322  1.00  0.00     0.722 A 
HETATM   30  N10 UNL     1       8.285  -0.522  -1.670  1.00  0.00    -0.164 N 
HETATM   31  C15 UNL     1       9.525  -0.034  -1.904  1.00  0.00     0.199 A 
ATOM     32  H10 UNL     1       8.017  -1.503  -1.746  1.00  0.00     0.186 HD
HETATM   33  C16 UNL     1       9.480   1.316  -1.699  1.00  0.00     0.206 A 
HETATM   34  N11 UNL     1      10.574   2.238  -1.834  1.00  0.00    -0.075 NA
HETATM   35  N12 UNL     1       8.241   1.617  -1.351  1.00  0.00    -0.073 N 
BRANCH  31  36
HETATM   36  O5  UNL     1      10.643  -0.762  -2.283  1.00  0.00    -0.343 OA
ATOM     37  H5  UNL     1      11.514  -0.419  -2.447  1.00  0.00     0.219 HD
ENDBRANCH  31  36
BRANCH  35  38
HETATM   38  N13 UNL     1       7.723   2.884  -1.042  1.00  0.00    -0.323 N 
ATOM     39 2H13 UNL     1       6.767   3.116  -0.773  1.00  0.00     0.178 HD
ATOM     40 1H13 UNL     1       8.302   3.723  -1.063  1.00  0.00     0.178 HD
ENDBRANCH  35  38
ENDBRANCH  27  29
ENDBRANCH  24  27
ENDBRANCH  18  20
ENDBRANCH  15  18
ENDBRANCH  12  15
BRANCH   1  41
HETATM   41  N2  UNL     1      -5.012  -0.403   0.677  1.00  0.00    -0.350 N 
HETATM   42  C3  UNL     1      -6.477  -0.599   0.850  1.00  0.00     0.182 C 
HETATM   43  C2  UNL     1      -6.653   0.086  -0.441  1.00  0.00     0.050 C 
HETATM   44  C17 UNL     1      -5.255  -0.286  -0.727  1.00  0.00     0.137 C 
BRANCH  43  45
HETATM   45  N1  UNL     1      -7.641   0.699  -0.975  1.00  0.00    -0.272 N 
ATOM     46  H1  UNL     1      -7.521   1.103  -1.904  1.00  0.00     0.193 HD
BRANCH  45  47
HETATM   47  O1  UNL     1      -8.856   0.836  -0.349  1.00  0.00    -0.285 OA
HETATM   48  C1  UNL     1      -8.988   1.397   0.939  1.00  0.00     0.237 C 
ENDBRANCH  45  47
ENDBRANCH  43  45
BRANCH  44  49
HETATM   49  C18 UNL     1      -4.460   0.712  -1.503  1.00  0.00     0.059 C 
BRANCH  49  50
HETATM   50  C19 UNL     1      -5.113   0.940  -2.857  1.00  0.00     0.232 C 
BRANCH  50  51
HETATM   51  N16 UNL     1      -4.328   1.899  -3.639  1.00  0.00    -0.079 N 
ATOM     52 3H16 UNL     1      -4.180   2.773  -3.134  1.00  0.00     0.274 HD
ATOM     53 2H16 UNL     1      -3.353   1.612  -3.729  1.00  0.00     0.274 HD
ATOM     54 1H16 UNL     1      -4.766   2.052  -4.547  1.00  0.00     0.274 HD
ENDBRANCH  50  51
ENDBRANCH  49  50
ENDBRANCH  44  49
ENDBRANCH   1  41
BRANCH   4  55
HETATM   55  C6  UNL     1      -3.809   0.795   5.214  1.00  0.00     0.245 C 
HETATM   56  O2  UNL     1      -2.976   0.870   6.149  1.00  0.00    -0.642 OA
HETATM   57  O3  UNL     1      -5.099   1.259   5.405  1.00  0.00    -0.642 OA
ENDBRANCH   4  55
TORSDOF 15
