REMARK  13 active torsions:
REMARK  status: ('A' for Active; 'I' for Inactive)
REMARK    1  A    between atoms: C2_2  and  C3_3 
REMARK    2  A    between atoms: C4_4  and  N1_5 
REMARK    3  A    between atoms: N1_5  and  C5_6 
REMARK    4  A    between atoms: N1_5  and  C7_8 
REMARK    5  A    between atoms: C7_8  and  O1_9 
REMARK    6  A    between atoms: C8_11  and  C10_13 
REMARK    7  A    between atoms: C10_13  and  C11_14 
REMARK    8  A    between atoms: N2_17  and  C14_18 
REMARK    9  A    between atoms: C14_18  and  C15_19 
REMARK   10  A    between atoms: C15_19  and  C16_20 
REMARK   11  A    between atoms: C16_20  and  O2_21 
REMARK   12  A    between atoms: O2_21  and  C17_22 
REMARK   13  A    between atoms: C17_22  and  C18_24 
ROOT
HETATM    1  C11 UNL     1      -0.957   0.208   1.883  1.00  0.00    -0.024 A 
HETATM    2  C12 UNL     1      -1.431  -1.085   2.087  1.00  0.00    -0.026 A 
HETATM    3  C13 UNL     1      -0.498  -1.920   1.489  1.00  0.00     0.022 A 
HETATM    4  N2  UNL     1       0.489  -1.217   0.948  1.00  0.00    -0.353 N 
HETATM    5  C25 UNL     1       0.243   0.081   1.169  1.00  0.00     0.015 A 
HETATM    6  C26 UNL     1       1.071   1.244   0.765  1.00  0.00     0.069 C 
HETATM    7  C27 UNL     1      -0.736  -3.375   1.577  1.00  0.00     0.037 C 
HETATM    8  C28 UNL     1      -1.975  -3.821   0.893  1.00  0.00     0.011 C 
HETATM    9  C29 UNL     1      -3.071  -3.955   1.937  1.00  0.00     0.005 C 
HETATM   10  C30 UNL     1      -2.497  -3.106   3.078  1.00  0.00    -0.010 C 
HETATM   11  C31 UNL     1      -2.609  -1.654   2.780  1.00  0.00     0.045 C 
HETATM   12  C32 UNL     1      -1.070  -3.600   3.065  1.00  0.00     0.015 C 
ENDROOT
BRANCH   1  13
HETATM   13  C10 UNL     1      -1.562   1.469   2.301  1.00  0.00     0.079 C 
BRANCH  13  14
HETATM   14  C8  UNL     1      -2.595   2.125   1.475  1.00  0.00    -0.029 C 
HETATM   15  C7  UNL     1      -3.820   1.429   1.195  1.00  0.00     0.144 C 
HETATM   16  C9  UNL     1      -2.044   3.002   0.360  1.00  0.00     0.048 C 
BRANCH  15  17
HETATM   17  N1  UNL     1      -4.277   0.657   0.111  1.00  0.00    -0.339 N 
BRANCH  17  18
HETATM   18  C4  UNL     1      -3.635   0.328  -1.103  1.00  0.00     0.089 C 
HETATM   19  C3  UNL     1      -3.550   1.084  -2.327  1.00  0.00    -0.010 C 
BRANCH  19  20
HETATM   20  C2  UNL     1      -4.704   1.611  -3.085  1.00  0.00     0.024 C 
HETATM   21  C1  UNL     1      -5.478   2.708  -2.418  1.00  0.00     0.009 C 
ENDBRANCH  19  20
ENDBRANCH  17  18
BRANCH  17  22
HETATM   22  C5  UNL     1      -5.549  -0.063   0.391  1.00  0.00     0.126 C 
HETATM   23  C6  UNL     1      -6.795   0.666   0.172  1.00  0.00     0.027 C 
ENDBRANCH  17  22
ENDBRANCH  15  17
BRANCH  15  24
HETATM   24  O1  UNL     1      -4.721   1.527   2.156  1.00  0.00    -0.346 OA
ATOM     25  H1  UNL     1      -4.412   2.048   2.888  1.00  0.00     0.219 HD
ENDBRANCH  15  24
ENDBRANCH  13  14
ENDBRANCH   1  13
BRANCH   4  26
HETATM   26  C14 UNL     1       1.604  -1.778   0.258  1.00  0.00     0.131 C 
BRANCH  26  27
HETATM   27  C15 UNL     1       2.770  -2.071   1.134  1.00  0.00     0.047 C 
BRANCH  27  28
HETATM   28  C16 UNL     1       3.912  -2.682   0.366  1.00  0.00     0.180 C 
BRANCH  28  29
HETATM   29  O2  UNL     1       4.437  -1.930  -0.666  1.00  0.00    -0.321 OA
BRANCH  29  30
HETATM   30  C17 UNL     1       5.016  -0.674  -0.600  1.00  0.00     0.264 C 
HETATM   31  O3  UNL     1       5.065  -0.153   0.546  1.00  0.00    -0.265 OA
BRANCH  30  32
HETATM   32  C18 UNL     1       5.551   0.025  -1.796  1.00  0.00     0.102 A 
HETATM   33  C19 UNL     1       5.415   1.499  -1.975  1.00  0.00    -0.027 A 
HETATM   34  C20 UNL     1       4.463   2.199  -1.073  1.00  0.00     0.016 C 
HETATM   35  C21 UNL     1       5.366   2.050  -3.411  1.00  0.00     0.016 C 
HETATM   36  C22 UNL     1       6.711   0.960  -1.577  1.00  0.00    -0.027 A 
HETATM   37  C23 UNL     1       7.805   0.823  -2.636  1.00  0.00     0.016 C 
HETATM   38  C24 UNL     1       7.270   1.120  -0.183  1.00  0.00     0.016 C 
ENDBRANCH  30  32
ENDBRANCH  29  30
ENDBRANCH  28  29
ENDBRANCH  27  28
ENDBRANCH  26  27
ENDBRANCH   4  26
TORSDOF 13
