REMARK  8 active torsions:
REMARK  status: ('A' for Active; 'I' for Inactive)
REMARK    1  A    between atoms: C2_2  and  C3_3 
REMARK    2  A    between atoms: C3_3  and  C4_4 
REMARK    3  A    between atoms: C4_4  and  N1_6 
REMARK    4  A    between atoms: N1_6  and  C6_8 
REMARK    5  A    between atoms: C6_8  and  C7_9 
REMARK    6  A    between atoms: C6_8  and  C8_12 
REMARK    7  A    between atoms: C7_9  and  O1_10 
REMARK    8  A    between atoms: N2_13  and  C9_15 
ROOT
HETATM    1  C8  UNL     1       0.265  -1.177   0.599  1.00  0.00     0.083 C 
HETATM    2  N2  UNL     1       1.524  -1.209   0.070  1.00  0.00    -0.386 N 
ATOM      3  H2  UNL     1       1.773  -2.079  -0.401  1.00  0.00     0.159 HD
ENDROOT
BRANCH   1   4
HETATM    4  C6  UNL     1      -0.854  -0.501  -0.171  1.00  0.00     0.138 C 
BRANCH   4   5
HETATM    5  N1  UNL     1      -1.996  -0.547   0.632  1.00  0.00    -0.407 N 
ATOM      6  H1  UNL     1      -1.886  -1.084   1.492  1.00  0.00     0.154 HD
BRANCH   5   7
HETATM    7  C4  UNL     1      -3.230   0.001   0.465  1.00  0.00     0.073 C 
HETATM    8  C5  UNL     1      -4.017  -0.366   1.774  1.00  0.00     0.031 C 
BRANCH   7   9
HETATM    9  C3  UNL     1      -4.151  -0.302  -0.653  1.00  0.00     0.024 C 
BRANCH   9  10
HETATM   10  C2  UNL     1      -5.445   0.514  -0.526  1.00  0.00    -0.003 C 
HETATM   11  C1  UNL     1      -5.194   1.979  -0.527  1.00  0.00     0.005 C 
ENDBRANCH   9  10
ENDBRANCH   7   9
ENDBRANCH   5   7
ENDBRANCH   4   5
BRANCH   4  12
HETATM   12  C7  UNL     1      -1.125  -1.381  -1.412  1.00  0.00     0.194 C 
BRANCH  12  13
HETATM   13  O1  UNL     1      -0.055  -1.458  -2.270  1.00  0.00    -0.398 OA
ATOM     14  H1  UNL     1      -0.222  -1.999  -3.033  1.00  0.00     0.209 HD
ENDBRANCH  12  13
ENDBRANCH   4  12
ENDBRANCH   1   4
BRANCH   2  15
HETATM   15  C9  UNL     1       2.514  -0.241   0.076  1.00  0.00     0.095 C 
HETATM   16  C10 UNL     1       3.030  -0.006   1.549  1.00  0.00     0.037 C 
HETATM   17  C11 UNL     1       4.491   0.379   1.477  1.00  0.00     0.007 C 
HETATM   18  C12 UNL     1       4.798   1.079   0.155  1.00  0.00    -0.009 C 
HETATM   19  C13 UNL     1       4.868  -0.047  -0.869  1.00  0.00     0.007 C 
HETATM   20  C15 UNL     1       3.648   1.925  -0.271  1.00  0.00     0.086 C 
HETATM   21  C14 UNL     1       3.701  -0.916  -0.610  1.00  0.00     0.037 C 
HETATM   22  C16 UNL     1       2.347   1.116  -0.461  1.00  0.00     0.268 C 
HETATM   23  F1  UNL     1       1.442   1.903   0.255  1.00  0.00    -0.204 F 
HETATM   24  F2  UNL     1       1.973   1.145  -1.776  1.00  0.00    -0.204 F 
ENDBRANCH   2  15
TORSDOF 8
