REMARK  9 active torsions:
REMARK  status: ('A' for Active; 'I' for Inactive)
REMARK    1  A    between atoms: N1_1  and  C1_5 
REMARK    2  A    between atoms: C1_5  and  C2_6 
REMARK    3  A    between atoms: C2_6  and  C3_7 
REMARK    4  A    between atoms: C3_7  and  S1_8 
REMARK    5  A    between atoms: S1_8  and  C4_9 
REMARK    6  A    between atoms: C4_9  and  N2_10 
REMARK    7  A    between atoms: C4_9  and  C7_15 
REMARK    8  A    between atoms: N2_10  and  C5_12 
REMARK    9  A    between atoms: C5_12  and  C6_13 
ROOT
HETATM    1  C4  UNL     1      -1.230  -0.157  -0.331  1.00  0.00     0.191 C 
ENDROOT
BRANCH   1   2
HETATM    2  S1  UNL     1       0.498  -0.085  -0.762  1.00  0.00    -0.138 SA
BRANCH   2   3
HETATM    3  C3  UNL     1       1.538   0.671   0.494  1.00  0.00     0.078 C 
BRANCH   3   4
HETATM    4  C2  UNL     1       2.965   0.682  -0.003  1.00  0.00     0.037 C 
BRANCH   4   5
HETATM    5  C1  UNL     1       3.467  -0.720  -0.280  1.00  0.00     0.230 C 
BRANCH   5   6
HETATM    6  N1  UNL     1       4.835  -0.666  -0.757  1.00  0.00    -0.079 N 
ATOM      7  H13 UNL     1       4.935  -0.056  -1.568  1.00  0.00     0.274 HD
ATOM      8  H12 UNL     1       5.445  -0.160  -0.115  1.00  0.00     0.274 HD
ATOM      9  H11 UNL     1       5.173  -1.610  -0.944  1.00  0.00     0.274 HD
ENDBRANCH   5   6
ENDBRANCH   4   5
ENDBRANCH   3   4
ENDBRANCH   2   3
ENDBRANCH   1   2
BRANCH   1  10
HETATM   10  N2  UNL     1      -1.559  -1.004   0.768  1.00  0.00    -0.403 N 
ATOM     11  H2  UNL     1      -2.010  -0.653   1.613  1.00  0.00     0.154 HD
BRANCH  10  12
HETATM   12  C5  UNL     1      -1.208  -2.393   0.599  1.00  0.00     0.130 C 
BRANCH  12  13
HETATM   13  C6  UNL     1      -2.034  -3.072  -0.466  1.00  0.00     0.134 C 
HETATM   14 CL1  UNL     1      -3.764  -2.982   0.005  1.00  0.00    -0.129 Cl
ENDBRANCH  12  13
ENDBRANCH  10  12
ENDBRANCH   1  10
BRANCH   1  15
HETATM   15  C7  UNL     1      -1.734   1.216   0.012  1.00  0.00     0.065 A 
HETATM   16  N3  UNL     1      -2.499   1.613   1.028  1.00  0.00    -0.346 N 
HETATM   17  C8  UNL     1      -2.706   2.941   0.944  1.00  0.00     0.105 A 
ATOM     18  H3  UNL     1      -2.871   1.005   1.757  1.00  0.00     0.167 HD
HETATM   19 CL2  UNL     1      -3.650   3.874   2.065  1.00  0.00    -0.065 Cl
HETATM   20  C9  UNL     1      -2.049   3.428  -0.171  1.00  0.00     0.068 A 
HETATM   21  C10 UNL     1      -1.442   2.329  -0.746  1.00  0.00     0.062 A 
HETATM   22 CL3  UNL     1      -0.474   2.396  -2.202  1.00  0.00    -0.082 Cl
ENDBRANCH   1  15
TORSDOF 9
