REMARK  10 active torsions:
REMARK  status: ('A' for Active; 'I' for Inactive)
REMARK    1  A    between atoms: C2_2  and  C3_3 
REMARK    2  A    between atoms: C5_5  and  C6_6 
REMARK    3  A    between atoms: C9_10  and  C10_11 
REMARK    4  A    between atoms: C10_11  and  N1_12 
REMARK    5  A    between atoms: N1_12  and  C11_14 
REMARK    6  A    between atoms: C11_14  and  C12_15 
REMARK    7  A    between atoms: C12_15  and  N2_16 
REMARK    8  A    between atoms: C14_21  and  O1_22 
REMARK    9  A    between atoms: O1_22  and  C15_23 
REMARK   10  A    between atoms: C15_23  and  O2_24 
ROOT
HETATM    1  C6  UNL     1      -1.092   0.608   0.283  1.00  0.00     0.002 A 
HETATM    2  C7  UNL     1       0.033   1.377   0.686  1.00  0.00     0.044 A 
HETATM    3 CL1  UNL     1      -0.239   3.074   1.132  1.00  0.00    -0.084 Cl
HETATM    4  C8  UNL     1       1.275   0.830   0.734  1.00  0.00     0.033 A 
HETATM    5  C9  UNL     1       1.513  -0.497   0.396  1.00  0.00    -0.037 A 
HETATM    6  C13 UNL     1       0.437  -1.248   0.013  1.00  0.00     0.046 A 
HETATM    7  C14 UNL     1      -0.864  -0.711  -0.046  1.00  0.00     0.083 A 
ENDROOT
BRANCH   5   8
HETATM    8  C10 UNL     1       2.926  -0.997   0.341  1.00  0.00     0.153 C 
BRANCH   8   9
HETATM    9  N1  UNL     1       3.762   0.058   0.857  1.00  0.00    -0.416 N 
ATOM     10  H1  UNL     1       3.826   0.261   1.855  1.00  0.00     0.153 HD
BRANCH   9  11
HETATM   11  C11 UNL     1       4.491   0.798  -0.114  1.00  0.00     0.141 C 
BRANCH  11  12
HETATM   12  C12 UNL     1       5.578   0.135  -0.881  1.00  0.00     0.248 C 
BRANCH  12  13
HETATM   13  N2  UNL     1       6.676  -0.388  -0.129  1.00  0.00    -0.078 N 
ATOM     14  H23 UNL     1       7.072   0.350   0.454  1.00  0.00     0.274 HD
ATOM     15  H22 UNL     1       6.326  -1.026   0.586  1.00  0.00     0.274 HD
ATOM     16  H21 UNL     1       7.422  -0.843  -0.655  1.00  0.00     0.274 HD
ENDBRANCH  12  13
ENDBRANCH  11  12
ENDBRANCH   9  11
ENDBRANCH   8   9
ENDBRANCH   5   8
BRANCH   7  17
HETATM   17  O1  UNL     1      -1.912  -1.502  -0.442  1.00  0.00    -0.293 OA
BRANCH  17  18
HETATM   18  C15 UNL     1      -2.018  -2.827  -0.777  1.00  0.00     0.460 C 
HETATM   19  F1  UNL     1      -1.587  -3.178  -2.030  1.00  0.00    -0.189 F 
BRANCH  18  20
HETATM   20  O2  UNL     1      -1.277  -3.638   0.147  1.00  0.00    -0.346 OA
ATOM     21  H2  UNL     1      -1.350  -4.556  -0.085  1.00  0.00     0.215 HD
ENDBRANCH  18  20
ENDBRANCH  17  18
ENDBRANCH   7  17
BRANCH   1  22
HETATM   22  C5  UNL     1      -2.350   1.297   0.146  1.00  0.00     0.027 A 
HETATM   23  C3  UNL     1      -3.681   0.574   0.114  1.00  0.00    -0.006 A 
HETATM   24  C4  UNL     1      -3.332   1.650   1.150  1.00  0.00     0.015 A 
BRANCH  23  25
HETATM   25  C2  UNL     1      -4.608   0.946  -1.031  1.00  0.00     0.001 C 
HETATM   26  C1  UNL     1      -5.927   1.398  -0.547  1.00  0.00     0.005 C 
ENDBRANCH  23  25
ENDBRANCH   1  22
TORSDOF 10
