REMARK  9 active torsions:
REMARK  status: ('A' for Active; 'I' for Inactive)
REMARK    1  A    between atoms: N1_1  and  C1_4 
REMARK    2  A    between atoms: C2_7  and  C3_8 
REMARK    3  A    between atoms: C3_8  and  C4_9 
REMARK    4  A    between atoms: C4_9  and  C5_10 
REMARK    5  A    between atoms: C5_10  and  O1_11 
REMARK    6  A    between atoms: O1_11  and  C6_12 
REMARK    7  A    between atoms: C6_12  and  C7_13 
REMARK    8  A    between atoms: C7_13  and  C8_14 
REMARK    9  A    between atoms: C8_14  and  C9_15 
ROOT
HETATM    1  C4  UNL     1       2.899  -0.387  -0.225  1.00  0.00     0.034 C 
ENDROOT
BRANCH   1   2
HETATM    2  C3  UNL     1       4.057  -1.179  -0.795  1.00  0.00     0.080 C 
BRANCH   2   3
HETATM    3  C2  UNL     1       5.346  -0.673  -0.246  1.00  0.00     0.112 A 
HETATM    4  N2  UNL     1       5.576   0.322   0.623  1.00  0.00    -0.178 N 
HETATM    5  C1  UNL     1       6.899   0.430   0.836  1.00  0.00     0.691 A 
ATOM      6  H2  UNL     1       4.859   0.906   1.055  1.00  0.00     0.185 HD
HETATM    7  N4  UNL     1       7.512  -0.510   0.091  1.00  0.00    -0.131 N 
HETATM    8  N3  UNL     1       6.552  -1.169  -0.559  1.00  0.00    -0.274 N 
ATOM      9  H4  UNL     1       8.515  -0.684   0.035  1.00  0.00     0.205 HD
ATOM     10  H3  UNL     1       6.713  -1.942  -1.204  1.00  0.00     0.189 HD
BRANCH   5  11
HETATM   11  N1  UNL     1       7.504   1.287   1.622  1.00  0.00    -0.233 N 
ATOM     12  H12 UNL     1       7.040   1.999   2.186  1.00  0.00     0.174 HD
ATOM     13  H11 UNL     1       8.508   1.369   1.784  1.00  0.00     0.174 HD
ENDBRANCH   5  11
ENDBRANCH   2   3
ENDBRANCH   1   2
BRANCH   1  14
HETATM   14  C5  UNL     1       1.639  -0.962  -0.831  1.00  0.00     0.168 C 
BRANCH  14  15
HETATM   15  O1  UNL     1       0.481  -0.354  -0.425  1.00  0.00    -0.391 OA
BRANCH  15  16
HETATM   16  C6  UNL     1       0.221  -0.393   0.925  1.00  0.00     0.167 C 
BRANCH  16  17
HETATM   17  C7  UNL     1      -1.118   0.335   1.134  1.00  0.00     0.027 C 
BRANCH  17  18
HETATM   18  C8  UNL     1      -2.135  -0.412   0.343  1.00  0.00     0.013 C 
BRANCH  18  19
HETATM   19  C9  UNL     1      -3.535   0.145   0.415  1.00  0.00     0.058 C 
HETATM   20  C10 UNL     1      -4.420  -0.737  -0.432  1.00  0.00     0.010 C 
HETATM   21  C11 UNL     1      -5.794  -0.153  -0.624  1.00  0.00     0.001 C 
HETATM   22  C12 UNL     1      -5.925   1.204   0.032  1.00  0.00     0.006 C 
HETATM   23  C13 UNL     1      -4.839   2.075  -0.552  1.00  0.00     0.079 C 
HETATM   24  C14 UNL     1      -3.520   1.567  -0.032  1.00  0.00     0.247 C 
HETATM   25  F1  UNL     1      -3.192   2.351   1.066  1.00  0.00    -0.206 F 
HETATM   26  F2  UNL     1      -2.562   1.819  -0.998  1.00  0.00    -0.206 F 
ENDBRANCH  18  19
ENDBRANCH  17  18
ENDBRANCH  16  17
ENDBRANCH  15  16
ENDBRANCH  14  15
ENDBRANCH   1  14
TORSDOF 9
