REMARK  1 active torsions:
REMARK  status: ('A' for Active; 'I' for Inactive)
REMARK    1  A    between atoms: O1_1  and  C1_3 
ROOT
HETATM    1  C1  UNL     1       2.174  -0.267   0.179  1.00  0.00     0.118 C 
HETATM    2  C2  UNL     1       1.425   0.859   0.825  1.00  0.00     0.034 C 
HETATM    3  C3  UNL     1       0.099   0.977   0.061  1.00  0.00     0.032 C 
HETATM    4  C4  UNL     1      -0.720  -0.213   0.461  1.00  0.00     0.059 C 
HETATM    5  C5  UNL     1      -1.950  -0.266  -0.457  1.00  0.00     0.057 C 
HETATM    6  C6  UNL     1      -2.645   0.990   0.086  1.00  0.00     0.198 C 
HETATM    7  O2  UNL     1      -2.124   1.220   1.332  1.00  0.00    -0.286 OA
HETATM    8  N1  UNL     1      -1.410   0.151   1.709  1.00  0.00    -0.091 NA
HETATM    9  C7  UNL     1       0.007  -1.488   0.540  1.00  0.00     0.032 C 
HETATM   10  C8  UNL     1       1.380  -1.504  -0.029  1.00  0.00     0.034 C 
ENDROOT
BRANCH   1  11
HETATM   11  O1  UNL     1       2.575   0.195  -1.096  1.00  0.00    -0.396 OA
ATOM     12  H1  UNL     1       3.050  -0.519  -1.505  1.00  0.00     0.210 HD
ENDBRANCH   1  11
TORSDOF 1
