REMARK  4 active torsions:
REMARK  status: ('A' for Active; 'I' for Inactive)
REMARK    1  A    between atoms: C1_2  and  C2_3 
REMARK       I    between atoms: C1_2  and  N1_9 
REMARK    2  A    between atoms: C2_3  and  C3_4 
REMARK    3  A    between atoms: C3_4  and  C4_5 
REMARK    4  A    between atoms: N1_9  and  C7_11 
ROOT
HETATM    1  O1  UNL     1       0.455   0.178  -1.367  1.00  0.00    -0.274 OA
HETATM    2  C1  UNL     1       0.545   0.034  -0.140  1.00  0.00     0.218 C 
HETATM    3  N1  UNL     1      -0.635  -0.126   0.620  1.00  0.00    -0.356 N 
ATOM      4  H1  UNL     1      -0.566  -0.245   1.631  1.00  0.00     0.162 HD
ENDROOT
BRANCH   2   5
HETATM    5  C2  UNL     1       1.838   0.026   0.533  1.00  0.00     0.113 C 
BRANCH   5   6
HETATM    6  C3  UNL     1       3.056   0.209  -0.287  1.00  0.00    -0.023 A 
HETATM    7  C5  UNL     1       3.245  -0.538  -1.587  1.00  0.00     0.011 A 
HETATM    8  C6  UNL     1       3.183   0.984  -1.515  1.00  0.00     0.011 A 
BRANCH   6   9
HETATM    9  C4  UNL     1       4.337   0.171   0.581  1.00  0.00     0.095 C 
HETATM   10 BR1  UNL     1       4.308   1.566   1.904  1.00  0.00    -0.096 Br
ENDBRANCH   6   9
ENDBRANCH   5   6
ENDBRANCH   2   5
BRANCH   3  11
HETATM   11  C7  UNL     1      -1.927  -0.124  -0.001  1.00  0.00     0.084 C 
HETATM   12  C8  UNL     1      -2.815   0.976   0.587  1.00  0.00     0.025 C 
HETATM   13  C9  UNL     1      -4.184   0.518   0.129  1.00  0.00     0.002 C 
HETATM   14  C10 UNL     1      -4.122  -0.967   0.270  1.00  0.00     0.002 C 
HETATM   15  C11 UNL     1      -2.680  -1.361   0.440  1.00  0.00     0.025 C 
ENDBRANCH   3  11
TORSDOF 4
