REMARK  17 active torsions:
REMARK  status: ('A' for Active; 'I' for Inactive)
REMARK    1  A    between atoms: C2_2  and  O2_4 
REMARK    2  A    between atoms: O2_4  and  C3_5 
REMARK    3  A    between atoms: C9_11  and  O3_12 
REMARK    4  A    between atoms: O3_12  and  C10_13 
REMARK    5  A    between atoms: C12_16  and  O5_17 
REMARK    6  A    between atoms: O5_17  and  C13_18 
REMARK    7  A    between atoms: C16_22  and  C18_24 
REMARK    8  A    between atoms: C18_24  and  C19_25 
REMARK    9  A    between atoms: C19_25  and  C20_26 
REMARK   10  A    between atoms: C20_26  and  C21_27 
REMARK   11  A    between atoms: C24_30  and  C25_31 
REMARK   12  A    between atoms: C26_32  and  C27_33 
REMARK   13  A    between atoms: C27_33  and  O7_35 
REMARK   14  A    between atoms: C27_33  and  C31_39 
REMARK   15  A    between atoms: O7_35  and  C29_36 
REMARK   16  A    between atoms: C31_39  and  C33_41 
REMARK   17  A    between atoms: C33_41  and  O9_42 
ROOT
HETATM    1  C3  UNL     1      -1.793  -1.804   2.179  1.00  0.00     0.140 C 
HETATM    2  C4  UNL     1      -1.161  -3.109   1.757  1.00  0.00     0.038 C 
HETATM    3  C5  UNL     1       0.244  -2.913   1.254  1.00  0.00    -0.001 C 
HETATM    4  C6  UNL     1       0.827  -4.242   0.845  1.00  0.00     0.011 C 
HETATM    5  C7  UNL     1       0.283  -1.874   0.165  1.00  0.00     0.013 C 
HETATM    6  C8  UNL     1       1.488  -2.245  -0.698  1.00  0.00     0.023 C 
HETATM    7  C9  UNL     1      -0.903  -2.029  -0.720  1.00  0.00     0.174 C 
HETATM    8  C12 UNL     1      -2.101  -1.252  -0.233  1.00  0.00     0.170 C 
HETATM    9  C15 UNL     1      -1.822  -0.766   1.131  1.00  0.00     0.060 C 
HETATM   10  C16 UNL     1      -0.659   0.249   1.206  1.00  0.00    -0.011 C 
HETATM   11  C17 UNL     1      -0.543   0.554   2.720  1.00  0.00     0.021 C 
HETATM   12  C24 UNL     1       0.510  -0.491   0.714  1.00  0.00    -0.060 C 
ENDROOT
BRANCH  12  13
HETATM   13  C25 UNL     1       1.529   0.252  -0.103  1.00  0.00     0.003 C 
HETATM   14  C26 UNL     1       2.792   0.382   0.263  1.00  0.00     0.012 C 
BRANCH  14  15
HETATM   15  C27 UNL     1       3.939   1.027  -0.318  1.00  0.00     0.090 C 
HETATM   16  C28 UNL     1       5.018  -0.032  -0.518  1.00  0.00     0.051 C 
BRANCH  15  17
HETATM   17  O7  UNL     1       3.683   1.738  -1.467  1.00  0.00    -0.306 OA
BRANCH  17  18
HETATM   18  C29 UNL     1       3.282   1.378  -2.700  1.00  0.00     0.255 C 
HETATM   19  C30 UNL     1       3.027   2.321  -3.830  1.00  0.00     0.126 C 
HETATM   20  O8  UNL     1       3.105   0.165  -2.931  1.00  0.00    -0.266 OA
ENDBRANCH  17  18
ENDBRANCH  15  17
BRANCH  15  21
HETATM   21  C31 UNL     1       4.463   2.056   0.702  1.00  0.00     0.044 C 
HETATM   22  C32 UNL     1       3.390   3.107   0.996  1.00  0.00     0.015 C 
BRANCH  21  23
HETATM   23  C33 UNL     1       4.908   1.450   1.985  1.00  0.00     0.171 C 
BRANCH  23  24
HETATM   24  O9  UNL     1       5.943   0.542   1.909  1.00  0.00    -0.400 OA
ATOM     25  H9  UNL     1       6.227   0.155   2.729  1.00  0.00     0.209 HD
ENDBRANCH  23  24
ENDBRANCH  21  23
ENDBRANCH  15  21
ENDBRANCH  14  15
ENDBRANCH  12  13
BRANCH  10  26
HETATM   26  C18 UNL     1      -1.176   1.462   0.497  1.00  0.00     0.014 C 
BRANCH  26  27
HETATM   27  C19 UNL     1      -0.413   2.698   0.437  1.00  0.00     0.001 C 
BRANCH  27  28
HETATM   28  C20 UNL     1      -1.029   3.901  -0.215  1.00  0.00     0.004 C 
BRANCH  28  29
HETATM   29  C21 UNL     1      -1.403   3.880  -1.632  1.00  0.00    -0.023 C 
HETATM   30  C22 UNL     1      -1.949   5.305  -2.028  1.00  0.00     0.009 C 
HETATM   31  C23 UNL     1      -2.544   2.910  -1.921  1.00  0.00     0.009 C 
ENDBRANCH  28  29
ENDBRANCH  27  28
ENDBRANCH  26  27
ENDBRANCH  10  26
BRANCH   7  32
HETATM   32  O3  UNL     1      -0.620  -1.741  -2.083  1.00  0.00    -0.312 OA
BRANCH  32  33
HETATM   33  C10 UNL     1      -0.724  -2.673  -3.105  1.00  0.00     0.255 C 
HETATM   34  C11 UNL     1      -0.431  -2.376  -4.525  1.00  0.00     0.126 C 
HETATM   35  O4  UNL     1      -1.100  -3.838  -2.736  1.00  0.00    -0.266 OA
ENDBRANCH  32  33
ENDBRANCH   7  32
BRANCH   8  36
HETATM   36  O5  UNL     1      -3.255  -2.090  -0.188  1.00  0.00    -0.313 OA
BRANCH  36  37
HETATM   37  C13 UNL     1      -4.386  -1.874  -0.945  1.00  0.00     0.255 C 
HETATM   38  C14 UNL     1      -5.541  -2.815  -0.820  1.00  0.00     0.126 C 
HETATM   39  O6  UNL     1      -4.417  -0.900  -1.714  1.00  0.00    -0.266 OA
ENDBRANCH  36  37
ENDBRANCH   8  36
BRANCH   1  40
HETATM   40  O2  UNL     1      -3.100  -2.139   2.661  1.00  0.00    -0.316 OA
BRANCH  40  41
HETATM   41  C2  UNL     1      -3.445  -2.029   3.997  1.00  0.00     0.255 C 
HETATM   42  C1  UNL     1      -4.816  -2.390   4.444  1.00  0.00     0.126 C 
HETATM   43  O1  UNL     1      -2.595  -1.623   4.836  1.00  0.00    -0.266 OA
ENDBRANCH  40  41
ENDBRANCH   1  40
TORSDOF 17
