REMARK  7 active torsions:
REMARK  status: ('A' for Active; 'I' for Inactive)
REMARK    1  A    between atoms: C3_4  and  N1_5 
REMARK    2  A    between atoms: C10_14  and  C11_15 
REMARK    3  A    between atoms: C11_15  and  C12_16 
REMARK    4  A    between atoms: C12_16  and  N3_17 
REMARK    5  A    between atoms: N3_17  and  C13_19 
REMARK    6  A    between atoms: C13_19  and  C14_20 
REMARK    7  A    between atoms: C14_20  and  C15_21 
ROOT
HETATM    1  C12 UNL     1      -1.581  -0.720  -1.313  1.00  0.00     0.044 C 
HETATM    2  C20 UNL     1      -1.172   0.113  -2.199  1.00  0.00     0.126 C 
HETATM    3 CL2  UNL     1      -2.199   0.369  -3.641  1.00  0.00    -0.069 Cl
HETATM    4 CL3  UNL     1       0.302   1.020  -2.186  1.00  0.00    -0.069 Cl
ENDROOT
BRANCH   1   5
HETATM    5  C11 UNL     1      -0.957  -1.102  -0.077  1.00  0.00     0.117 C 
BRANCH   5   6
HETATM    6  C10 UNL     1       0.256  -0.370   0.402  1.00  0.00     0.029 A 
HETATM    7  C2  UNL     1       0.144   0.857   1.065  1.00  0.00     0.005 A 
HETATM    8  C1  UNL     1      -1.099   1.633   1.381  1.00  0.00     0.058 C 
HETATM    9  S1  UNL     1       1.768   1.211   1.419  1.00  0.00    -0.057 SA
HETATM   10  C3  UNL     1       2.505  -0.163   0.736  1.00  0.00     0.147 A 
HETATM   11  N2  UNL     1       1.470  -0.828   0.269  1.00  0.00    -0.339 N 
ATOM     12  H2  UNL     1       1.620  -1.718  -0.206  1.00  0.00     0.168 HD
BRANCH  10  13
HETATM   13  N1  UNL     1       3.903  -0.473   0.699  1.00  0.00    -0.361 N 
HETATM   14  C4  UNL     1       4.813   0.471   1.300  1.00  0.00     0.125 C 
HETATM   15  C5  UNL     1       6.175   0.448   0.658  1.00  0.00     0.024 C 
HETATM   16  C6  UNL     1       6.127  -0.023  -0.775  1.00  0.00    -0.015 C 
HETATM   17  C7  UNL     1       7.556  -0.115  -1.279  1.00  0.00     0.010 C 
HETATM   18  C8  UNL     1       5.494  -1.370  -0.931  1.00  0.00     0.024 C 
HETATM   19  C9  UNL     1       4.429  -1.661   0.099  1.00  0.00     0.125 C 
ENDBRANCH  10  13
ENDBRANCH   5   6
ENDBRANCH   1   5
BRANCH   1  20
HETATM   20  N3  UNL     1      -2.866  -1.400  -1.567  1.00  0.00    -0.391 N 
ATOM     21  H3  UNL     1      -2.849  -2.367  -1.891  1.00  0.00     0.159 HD
BRANCH  20  22
HETATM   22  C13 UNL     1      -4.122  -0.771  -1.381  1.00  0.00     0.124 C 
BRANCH  22  23
HETATM   23  C14 UNL     1      -4.484  -0.466   0.056  1.00  0.00     0.059 C 
BRANCH  23  24
HETATM   24  C15 UNL     1      -5.833   0.193   0.016  1.00  0.00    -0.041 A 
HETATM   25  C16 UNL     1      -5.948   1.561  -0.100  1.00  0.00     0.012 A 
HETATM   26  C17 UNL     1      -7.223   2.119  -0.138  1.00  0.00     0.043 A 
HETATM   27  C18 UNL     1      -8.362   1.333  -0.062  1.00  0.00     0.103 A 
HETATM   28 CL1  UNL     1      -9.958   2.094  -0.117  1.00  0.00    -0.065 Cl
HETATM   29  N4  UNL     1      -8.204   0.009   0.049  1.00  0.00    -0.356 N 
HETATM   30  C19 UNL     1      -6.983  -0.552   0.088  1.00  0.00     0.096 A 
ATOM     31  H4  UNL     1      -9.029  -0.588   0.105  1.00  0.00     0.166 HD
ENDBRANCH  23  24
ENDBRANCH  22  23
ENDBRANCH  20  22
ENDBRANCH   1  20
TORSDOF 7
