REMARK  6 active torsions:
REMARK  status: ('A' for Active; 'I' for Inactive)
REMARK    1  A    between atoms: C2_2  and  C3_3 
REMARK    2  A    between atoms: C4_5  and  C5_6 
REMARK    3  A    between atoms: N1_7  and  N2_9 
REMARK       I    between atoms: N2_9  and  C6_11 
REMARK    4  A    between atoms: C6_11  and  C7_13 
REMARK    5  A    between atoms: C7_13  and  O2_14 
REMARK    6  A    between atoms: O2_14  and  C8_15 
ROOT
HETATM    1  N2  UNL     1      -0.643   1.225  -1.999  1.00  0.00    -0.269 N 
ATOM      2  H2  UNL     1      -0.986   0.268  -1.917  1.00  0.00     0.190 HD
HETATM    3  C6  UNL     1      -1.132   2.232  -1.131  1.00  0.00     0.260 C 
HETATM    4  O1  UNL     1      -0.732   3.399  -1.209  1.00  0.00    -0.269 OA
ENDROOT
BRANCH   1   5
HETATM    5  N1  UNL     1       0.283   1.537  -2.940  1.00  0.00    -0.308 N 
HETATM    6  C5  UNL     1       1.482   1.244  -2.981  1.00  0.00     0.126 C 
ATOM      7  H1  UNL     1      -0.059   2.092  -3.724  1.00  0.00     0.186 HD
BRANCH   6   8
HETATM    8  C4  UNL     1       2.229   0.473  -2.014  1.00  0.00     0.023 A 
HETATM    9  S1  UNL     1       3.921   0.093  -2.122  1.00  0.00    -0.092 SA
HETATM   10  C3  UNL     1       4.095  -0.805  -0.684  1.00  0.00     0.000 A 
HETATM   11  C15 UNL     1       2.833  -0.786  -0.158  1.00  0.00     0.025 A 
HETATM   12  C14 UNL     1       1.887  -0.129  -0.848  1.00  0.00     0.040 A 
HETATM   13 BR1  UNL     1       2.514  -1.704   1.531  1.00  0.00    -0.050 Br
BRANCH  10  14
HETATM   14  C2  UNL     1       5.334  -1.467  -0.117  1.00  0.00     0.043 C 
HETATM   15  C1  UNL     1       5.801  -0.587   1.009  1.00  0.00     0.010 C 
ENDBRANCH  10  14
ENDBRANCH   6   8
ENDBRANCH   1   5
BRANCH   3  16
HETATM   16  C7  UNL     1      -2.144   1.899  -0.102  1.00  0.00     0.280 C 
BRANCH  16  17
HETATM   17  O2  UNL     1      -2.459   0.544  -0.196  1.00  0.00    -0.340 OA
BRANCH  17  18
HETATM   18  C8  UNL     1      -3.386  -0.011   0.664  1.00  0.00     0.094 A 
HETATM   19  C9  UNL     1      -4.036   0.719   1.637  1.00  0.00     0.062 A 
HETATM   20  C10 UNL     1      -4.950   0.086   2.455  1.00  0.00     0.038 A 
HETATM   21 CL1  UNL     1      -5.756   1.058   3.682  1.00  0.00    -0.084 Cl
HETATM   22  C11 UNL     1      -5.225  -1.257   2.320  1.00  0.00     0.049 A 
HETATM   23  C12 UNL     1      -4.560  -1.952   1.341  1.00  0.00     0.060 A 
HETATM   24 CL2  UNL     1      -4.925  -3.677   1.180  1.00  0.00    -0.082 Cl
HETATM   25  C13 UNL     1      -3.642  -1.376   0.499  1.00  0.00     0.089 A 
HETATM   26 CL3  UNL     1      -2.817  -2.309  -0.737  1.00  0.00    -0.080 Cl
ENDBRANCH  17  18
ENDBRANCH  16  17
ENDBRANCH   3  16
TORSDOF 6
