REMARK  1 active torsions:
REMARK  status: ('A' for Active; 'I' for Inactive)
REMARK    1  A    between atoms: C2_2  and  C3_3 
ROOT
HETATM    1  C3  UNL     1       0.748  -0.621  -0.277  1.00  0.00     0.309 C 
HETATM    2  O1  UNL     1       0.068  -0.460  -1.455  1.00  0.00    -0.247 OA
HETATM    3  N1  UNL     1      -1.223  -0.822  -1.246  1.00  0.00    -0.066 NA
HETATM    4  C4  UNL     1      -1.446  -0.491   0.132  1.00  0.00     0.241 C 
HETATM    5  C5  UNL     1      -2.022   0.887   0.333  1.00  0.00     0.060 C 
HETATM    6  O2  UNL     1      -0.199  -0.512   0.758  1.00  0.00    -0.333 OA
ENDROOT
BRANCH   1   7
HETATM    7  C2  UNL     1       1.681   0.527  -0.105  1.00  0.00     0.024 C 
HETATM    8  C1  UNL     1       2.864   0.368   0.476  1.00  0.00     0.012 C 
ENDBRANCH   1   7
TORSDOF 1
