REMARK  7 active torsions:
REMARK  status: ('A' for Active; 'I' for Inactive)
REMARK       I    between atoms: N1_2  and  C3_4 
REMARK    1  A    between atoms: C3_4  and  C4_6 
REMARK    2  A    between atoms: C4_6  and  N2_7 
REMARK    3  A    between atoms: C4_6  and  C13_30 
REMARK       I    between atoms: N2_7  and  C5_9 
REMARK    4  A    between atoms: C5_9  and  C6_11 
REMARK    5  A    between atoms: N6_24  and  N7_25 
REMARK       I    between atoms: N7_25  and  C12_27 
REMARK    6  A    between atoms: C13_30  and  O6_31 
REMARK    7  A    between atoms: C13_30  and  O7_33 
ROOT
HETATM    1  C6  UNL     1      -1.144  -0.400  -0.129  1.00  0.00     0.198 A 
HETATM    2  N3  UNL     1      -1.287  -1.578  -0.720  1.00  0.00    -0.329 N 
ATOM      3  H3  UNL     1      -0.550  -2.111  -1.182  1.00  0.00     0.168 HD
HETATM    4  C7  UNL     1      -2.580  -1.949  -0.603  1.00  0.00     0.149 A 
HETATM    5  C8  UNL     1      -3.235  -3.100  -1.015  1.00  0.00     0.280 A 
HETATM    6  O3  UNL     1      -2.590  -3.973  -1.648  1.00  0.00    -0.265 OA
HETATM    7  N4  UNL     1      -4.534  -3.256  -0.732  1.00  0.00    -0.273 N 
ATOM      8  H4  UNL     1      -5.042  -4.091  -1.024  1.00  0.00     0.173 HD
HETATM    9  C9  UNL     1      -5.143  -2.274  -0.051  1.00  0.00     0.330 A 
HETATM   10  O4  UNL     1      -6.369  -2.389   0.237  1.00  0.00    -0.246 OA
HETATM   11  N5  UNL     1      -4.533  -1.138   0.366  1.00  0.00    -0.286 N 
HETATM   12  C10 UNL     1      -5.269  -0.212   1.222  1.00  0.00     0.163 C 
HETATM   13  C11 UNL     1      -3.221  -0.921   0.100  1.00  0.00     0.168 A 
HETATM   14  N6  UNL     1      -2.357   0.028   0.388  1.00  0.00    -0.212 N 
ENDROOT
BRANCH   1  15
HETATM   15  C5  UNL     1       0.104   0.365  -0.023  1.00  0.00     0.288 C 
HETATM   16  N2  UNL     1       1.287  -0.149  -0.589  1.00  0.00    -0.337 N 
ATOM     17  H2  UNL     1       1.251  -1.050  -1.065  1.00  0.00     0.164 HD
HETATM   18  O2  UNL     1       0.181   1.474   0.555  1.00  0.00    -0.264 OA
BRANCH  16  19
HETATM   19  C4  UNL     1       2.582   0.568  -0.520  1.00  0.00     0.232 C 
BRANCH  19  20
HETATM   20  C3  UNL     1       3.578  -0.353   0.021  1.00  0.00     0.246 C 
HETATM   21  N1  UNL     1       4.838  -0.096   0.544  1.00  0.00    -0.359 N 
HETATM   22  C1  UNL     1       5.380   1.216   0.693  1.00  0.00     0.152 C 
HETATM   23  C2  UNL     1       5.685  -1.222   0.974  1.00  0.00     0.152 C 
HETATM   24  O1  UNL     1       3.229  -1.595   0.013  1.00  0.00    -0.271 OA
ENDBRANCH  19  20
BRANCH  19  25
HETATM   25  C13 UNL     1       2.884   1.057  -1.928  1.00  0.00     0.285 C 
BRANCH  25  26
HETATM   26  O6  UNL     1       4.058   1.757  -2.051  1.00  0.00    -0.369 OA
ATOM     27  H6  UNL     1       4.247   2.062  -2.931  1.00  0.00     0.212 HD
ENDBRANCH  25  26
BRANCH  25  28
HETATM   28  O7  UNL     1       2.888   0.027  -2.855  1.00  0.00    -0.369 OA
ATOM     29  H7  UNL     1       3.077   0.332  -3.735  1.00  0.00     0.212 HD
ENDBRANCH  25  28
ENDBRANCH  19  25
ENDBRANCH  16  19
ENDBRANCH   1  15
BRANCH  14  30
HETATM   30  N7  UNL     1      -2.437   1.196   1.092  1.00  0.00    -0.244 N 
HETATM   31  C12 UNL     1      -3.207   2.357   0.906  1.00  0.00     0.347 C 
HETATM   32  N8  UNL     1      -3.140   3.457   1.843  1.00  0.00    -0.038 NA
HETATM   33  O5  UNL     1      -3.994   2.555  -0.044  1.00  0.00    -0.249 OA
ATOM     34  H7  UNL     1      -1.823   1.232   1.905  1.00  0.00     0.192 HD
ENDBRANCH  14  30
TORSDOF 7
