REMARK  12 active torsions:
REMARK  status: ('A' for Active; 'I' for Inactive)
REMARK    1  A    between atoms: C3_5  and  N3_6 
REMARK    2  A    between atoms: C4_8  and  N4_9 
REMARK    3  A    between atoms: C4_8  and  C7_17 
REMARK    4  A    between atoms: N4_9  and  C5_11 
REMARK    5  A    between atoms: C5_11  and  C6_12 
REMARK    6  A    between atoms: C6_12  and  N5_13 
REMARK    7  A    between atoms: N10_31  and  C12_32 
REMARK    8  A    between atoms: C12_32  and  C13_33 
REMARK    9  A    between atoms: C13_33  and  C14_34 
REMARK   10  A    between atoms: C14_34  and  C15_35 
REMARK   11  A    between atoms: C16_36  and  C17_37 
REMARK   12  A    between atoms: C18_43  and  N13_44 
ROOT
HETATM    1  C1  UNL     1      -0.520  -0.471   4.243  1.00  0.00     0.162 C 
HETATM    2  N1  UNL     1      -0.274  -0.929   2.869  1.00  0.00    -0.290 N 
HETATM    3  C2  UNL     1      -1.308  -1.171   2.035  1.00  0.00     0.154 A 
HETATM    4  N2  UNL     1      -2.639  -0.971   2.536  1.00  0.00    -0.080 NA
HETATM    5  C3  UNL     1      -1.065  -1.601   0.746  1.00  0.00     0.144 A 
HETATM    6  C11 UNL     1       0.247  -1.782   0.318  1.00  0.00     0.281 A 
HETATM    7  O1  UNL     1       0.509  -2.179  -0.865  1.00  0.00    -0.265 OA
HETATM    8  N10 UNL     1       1.260  -1.536   1.165  1.00  0.00    -0.264 N 
HETATM    9  C19 UNL     1       0.981  -1.115   2.422  1.00  0.00     0.332 A 
HETATM   10  O3  UNL     1       1.949  -0.883   3.220  1.00  0.00    -0.246 OA
ENDROOT
BRANCH   5  11
HETATM   11  N3  UNL     1      -2.100  -1.865  -0.138  1.00  0.00    -0.332 N 
HETATM   12  C4  UNL     1      -2.940  -1.086  -0.685  1.00  0.00     0.147 C 
ATOM     13  H3  UNL     1      -2.204  -2.848  -0.391  1.00  0.00     0.168 HD
BRANCH  12  14
HETATM   14  N4  UNL     1      -3.941  -1.608  -1.584  1.00  0.00    -0.372 N 
ATOM     15  H4  UNL     1      -3.855  -1.470  -2.591  1.00  0.00     0.161 HD
BRANCH  14  16
HETATM   16  C5  UNL     1      -5.082  -2.339  -1.029  1.00  0.00     0.148 C 
BRANCH  16  17
HETATM   17  C6  UNL     1      -5.972  -2.777  -2.153  1.00  0.00     0.249 C 
BRANCH  17  18
HETATM   18  N5  UNL     1      -5.291  -3.645  -3.092  1.00  0.00    -0.078 N 
ATOM     19  H53 UNL     1      -4.440  -3.208  -3.446  1.00  0.00     0.274 HD
ATOM     20  H52 UNL     1      -4.877  -4.447  -2.617  1.00  0.00     0.274 HD
ATOM     21  H51 UNL     1      -5.897  -3.943  -3.857  1.00  0.00     0.274 HD
ENDBRANCH  17  18
ENDBRANCH  16  17
ENDBRANCH  14  16
ENDBRANCH  12  14
BRANCH  12  22
HETATM   22  C7  UNL     1      -2.994   0.366  -0.487  1.00  0.00     0.152 A 
HETATM   23  N6  UNL     1      -4.135   1.119  -0.440  1.00  0.00    -0.323 N 
HETATM   24  C8  UNL     1      -3.823   2.411  -0.256  1.00  0.00     0.150 A 
ATOM     25  H6  UNL     1      -5.083   0.753  -0.531  1.00  0.00     0.169 HD
HETATM   26  N7  UNL     1      -4.283   3.678  -0.111  1.00  0.00    -0.284 N 
HETATM   27  C10 UNL     1      -2.454   2.509  -0.182  1.00  0.00     0.097 A 
HETATM   28  N8  UNL     1      -3.307   4.544   0.046  1.00  0.00    -0.308 N 
ATOM     29  H7  UNL     1      -5.271   3.930  -0.122  1.00  0.00     0.188 HD
HETATM   30  C9  UNL     1      -2.162   3.843   0.005  1.00  0.00     0.140 A 
ATOM     31  H8  UNL     1      -3.401   5.552   0.174  1.00  0.00     0.186 HD
HETATM   32  N9  UNL     1      -1.998   1.252  -0.327  1.00  0.00    -0.335 N 
ATOM     33  H9  UNL     1      -1.009   1.001  -0.317  1.00  0.00     0.168 HD
ENDBRANCH  12  22
ENDBRANCH   5  11
BRANCH   8  34
HETATM   34  C12 UNL     1       2.647  -1.704   0.784  1.00  0.00     0.138 C 
BRANCH  34  35
HETATM   35  C13 UNL     1       3.202  -0.419   0.201  1.00  0.00     0.032 C 
BRANCH  35  36
HETATM   36  C14 UNL     1       4.661  -0.719  -0.161  1.00  0.00     0.096 C 
BRANCH  36  37
HETATM   37  C15 UNL     1       5.239   0.485  -0.725  1.00  0.00    -0.099 C 
HETATM   38  C16 UNL     1       5.739   1.487  -1.211  1.00  0.00    -0.043 C 
BRANCH  38  39
HETATM   39  C17 UNL     1       6.342   2.650  -1.798  1.00  0.00     0.155 A 
HETATM   40  N11 UNL     1       5.730   3.769  -2.226  1.00  0.00    -0.229 N 
HETATM   41  O2  UNL     1       6.631   4.588  -2.694  1.00  0.00    -0.154 OA
ATOM     42  H11 UNL     1       4.726   3.948  -2.190  1.00  0.00     0.197 HD
HETATM   43  N12 UNL     1       7.812   4.092  -2.608  1.00  0.00    -0.223 N 
HETATM   44  C18 UNL     1       7.698   2.875  -2.052  1.00  0.00     0.159 A 
ATOM     45  H12 UNL     1       8.678   4.540  -2.907  1.00  0.00     0.198 HD
BRANCH  44  46
HETATM   46  N13 UNL     1       8.627   2.045  -1.788  1.00  0.00    -0.382 N 
ATOM     47 2H13 UNL     1       8.540   1.121  -1.366  1.00  0.00     0.157 HD
ATOM     48 1H13 UNL     1       9.616   2.209  -1.973  1.00  0.00     0.157 HD
ENDBRANCH  44  46
ENDBRANCH  38  39
ENDBRANCH  36  37
ENDBRANCH  35  36
ENDBRANCH  34  35
ENDBRANCH   8  34
TORSDOF 12
