REMARK  13 active torsions:
REMARK  status: ('A' for Active; 'I' for Inactive)
REMARK    1  A    between atoms: C2_2  and  C3_3 
REMARK    2  A    between atoms: C3_3  and  C4_4 
REMARK    3  A    between atoms: C4_4  and  C5_5 
REMARK    4  A    between atoms: C5_5  and  C6_6 
REMARK    5  A    between atoms: C6_6  and  C7_7 
REMARK    6  A    between atoms: C7_7  and  N1_8 
REMARK    7  A    between atoms: C9_11  and  N3_12 
REMARK       I    between atoms: N3_12  and  C11_14 
REMARK    8  A    between atoms: C11_14  and  C12_16 
REMARK    9  A    between atoms: C12_16  and  C13_17 
REMARK   10  A    between atoms: N4_21  and  C16_22 
REMARK   11  A    between atoms: C16_22  and  C17_23 
REMARK       I    between atoms: C17_23  and  N5_25 
REMARK   12  A    between atoms: C19_28  and  N6_29 
REMARK   13  A    between atoms: N6_29  and  C20_30 
ROOT
HETATM    1  N1  UNL     1       0.158  -0.074   0.063  1.00  0.00    -0.293 N 
HETATM    2  C8  UNL     1      -0.779  -1.018   0.212  1.00  0.00     0.154 A 
HETATM    3  N2  UNL     1      -0.370  -2.386   0.211  1.00  0.00    -0.080 NA
HETATM    4  C9  UNL     1      -2.106  -0.748   0.366  1.00  0.00     0.147 A 
HETATM    5  C15 UNL     1      -2.466   0.564   0.363  1.00  0.00     0.282 A 
HETATM    6  O2  UNL     1      -3.682   0.894   0.500  1.00  0.00    -0.265 OA
HETATM    7  N4  UNL     1      -1.555   1.585   0.214  1.00  0.00    -0.263 N 
HETATM    8  C19 UNL     1      -0.261   1.244   0.065  1.00  0.00     0.263 A 
ENDROOT
BRANCH   1   9
HETATM    9  C7  UNL     1       1.534  -0.471  -0.088  1.00  0.00     0.134 C 
BRANCH   9  10
HETATM   10  C6  UNL     1       1.993  -0.684  -1.467  1.00  0.00     0.020 C 
BRANCH  10  11
HETATM   11  C5  UNL     1       3.494  -1.062  -1.422  1.00  0.00     0.002 C 
BRANCH  11  12
HETATM   12  C4  UNL     1       3.757  -2.295  -0.661  1.00  0.00     0.000 C 
BRANCH  12  13
HETATM   13  C3  UNL     1       5.178  -2.728  -0.677  1.00  0.00    -0.000 C 
BRANCH  13  14
HETATM   14  C2  UNL     1       6.204  -1.843  -0.100  1.00  0.00    -0.005 C 
HETATM   15  C1  UNL     1       6.421  -0.527  -0.755  1.00  0.00     0.005 C 
ENDBRANCH  13  14
ENDBRANCH  12  13
ENDBRANCH  11  12
ENDBRANCH  10  11
ENDBRANCH   9  10
ENDBRANCH   1   9
BRANCH   8  16
HETATM   16  N6  UNL     1       0.620   2.068  -0.126  1.00  0.00    -0.405 NA
BRANCH  16  17
HETATM   17  C20 UNL     1       1.362   3.158  -0.307  1.00  0.00     0.086 C 
HETATM   18  C21 UNL     1       1.124   3.958  -1.605  1.00  0.00     0.053 C 
HETATM   19  C22 UNL     1       2.910   2.899  -0.432  1.00  0.00     0.053 C 
HETATM   20  C23 UNL     1       1.372   4.158   0.873  1.00  0.00     0.053 C 
ENDBRANCH  16  17
ENDBRANCH   8  16
BRANCH   4  21
HETATM   21  N3  UNL     1      -3.107  -1.739   0.521  1.00  0.00    -0.315 N 
HETATM   22  C10 UNL     1      -3.690  -1.970   1.857  1.00  0.00     0.159 C 
HETATM   23  C11 UNL     1      -3.594  -2.531  -0.536  1.00  0.00     0.224 C 
HETATM   24  O1  UNL     1      -3.165  -2.365  -1.688  1.00  0.00    -0.273 OA
BRANCH  23  25
HETATM   25  C12 UNL     1      -4.613  -3.564  -0.287  1.00  0.00     0.103 C 
BRANCH  25  26
HETATM   26  C13 UNL     1      -5.048  -4.263  -1.549  1.00  0.00     0.005 C 
HETATM   27  C14 UNL     1      -6.080  -5.307  -1.175  1.00  0.00     0.005 C 
ENDBRANCH  25  26
ENDBRANCH  23  25
ENDBRANCH   4  21
BRANCH   7  28
HETATM   28  C16 UNL     1      -2.093   2.929   0.234  1.00  0.00     0.239 C 
BRANCH  28  29
HETATM   29  C17 UNL     1      -2.181   3.336   1.684  1.00  0.00     0.235 C 
HETATM   30  O3  UNL     1      -1.812   2.550   2.580  1.00  0.00    -0.272 OA
HETATM   31  N5  UNL     1      -2.682   4.611   2.036  1.00  0.00    -0.364 N 
HETATM   32  C18 UNL     1      -2.759   4.987   3.414  1.00  0.00     0.149 C 
ATOM     33  H5  UNL     1      -2.987   5.260   1.310  1.00  0.00     0.161 HD
ENDBRANCH  28  29
ENDBRANCH   7  28
TORSDOF 13
