REMARK  6 active torsions:
REMARK  status: ('A' for Active; 'I' for Inactive)
REMARK    1  A    between atoms: C4_4  and  C5_5 
REMARK    2  A    between atoms: C5_5  and  C6_6 
REMARK    3  A    between atoms: C6_6  and  C7_7 
REMARK    4  A    between atoms: C6_6  and  C15_15 
REMARK    5  A    between atoms: C7_7  and  C8_8 
REMARK    6  A    between atoms: C8_8  and  C9_9 
ROOT
HETATM    1  C1  UNL     1       5.968  -3.614   0.090  1.00  0.00     0.113 C 
HETATM    2  C2  UNL     1       4.783  -3.316  -0.015  1.00  0.00    -0.098 C 
HETATM    3  C3  UNL     1       3.411  -2.998  -0.136  1.00  0.00    -0.029 C 
HETATM    4  C4  UNL     1       2.232  -2.747  -0.243  1.00  0.00    -0.093 C 
ENDROOT
BRANCH   4   5
HETATM    5  C5  UNL     1       0.808  -2.453  -0.362  1.00  0.00     0.104 C 
BRANCH   5   6
HETATM    6  C6  UNL     1       0.517  -1.138   0.419  1.00  0.00     0.032 C 
BRANCH   6   7
HETATM    7  C7  UNL     1      -0.970  -0.964   0.200  1.00  0.00     0.015 C 
BRANCH   7   8
HETATM    8  C8  UNL     1      -1.605   0.217   0.819  1.00  0.00     0.039 C 
BRANCH   8   9
HETATM    9  C9  UNL     1      -3.074   0.137   0.444  1.00  0.00    -0.058 A 
HETATM   10  C10 UNL     1      -3.571   0.752  -0.677  1.00  0.00     0.007 A 
HETATM   11  C11 UNL     1      -4.901   0.670  -1.039  1.00  0.00     0.001 A 
HETATM   12  C12 UNL     1      -5.781  -0.051  -0.262  1.00  0.00     0.000 A 
HETATM   13  C13 UNL     1      -5.282  -0.676   0.874  1.00  0.00     0.001 A 
HETATM   14  C14 UNL     1      -3.960  -0.590   1.229  1.00  0.00     0.007 A 
ENDBRANCH   8   9
ENDBRANCH   7   8
ENDBRANCH   6   7
BRANCH   6  15
HETATM   15  C15 UNL     1       1.313  -0.079  -0.238  1.00  0.00    -0.025 A 
HETATM   16  C16 UNL     1       1.816  -0.134  -1.544  1.00  0.00     0.096 A 
HETATM   17  N1  UNL     1       2.458   1.012  -1.828  1.00  0.00    -0.365 N 
HETATM   18  C17 UNL     1       2.400   1.826  -0.755  1.00  0.00     0.042 A 
ATOM     19  H1  UNL     1       2.916   1.231  -2.713  1.00  0.00     0.165 HD
HETATM   20  C18 UNL     1       2.916   3.100  -0.529  1.00  0.00     0.030 A 
HETATM   21  C22 UNL     1       1.707   1.170   0.212  1.00  0.00    -0.001 A 
HETATM   22  C19 UNL     1       2.750   3.747   0.681  1.00  0.00     0.002 A 
HETATM   23  C20 UNL     1       2.045   3.060   1.646  1.00  0.00     0.001 A 
HETATM   24  C21 UNL     1       1.534   1.800   1.421  1.00  0.00     0.014 A 
ENDBRANCH   6  15
ENDBRANCH   5   6
ENDBRANCH   4   5
TORSDOF 6
