REMARK  5 active torsions:
REMARK  status: ('A' for Active; 'I' for Inactive)
REMARK       I    between atoms: C1_4  and  N3_6 
REMARK    1  A    between atoms: C4_12  and  C5_13 
REMARK    2  A    between atoms: C4_12  and  C7_19 
REMARK    3  A    between atoms: C5_13  and  N5_14 
REMARK    4  A    between atoms: C7_19  and  N8_20 
REMARK    5  A    between atoms: N8_20  and  C8_22 
ROOT
HETATM    1  N1  UNL     1      -2.237  -2.845  -0.128  1.00  0.00    -0.373 N 
ATOM      2  H11 UNL     1      -1.288  -3.097  -0.405  1.00  0.00     0.158 HD
ATOM      3  H12 UNL     1      -2.875  -3.590   0.153  1.00  0.00     0.158 HD
HETATM    4  C1  UNL     1      -2.652  -1.640  -0.119  1.00  0.00     0.200 C 
HETATM    5  N2  UNL     1      -3.971  -1.290   0.266  1.00  0.00    -0.062 NA
HETATM    6  N3  UNL     1      -1.764  -0.603  -0.510  1.00  0.00    -0.258 N 
HETATM    7  C2  UNL     1      -2.293   0.498  -1.281  1.00  0.00     0.250 C 
HETATM    8  C3  UNL     1      -1.181   1.267  -1.892  1.00  0.00     0.238 C 
HETATM    9  O1  UNL     1      -1.351   1.835  -3.007  1.00  0.00    -0.272 OA
HETATM   10  N4  UNL     1       0.046   1.324  -1.175  1.00  0.00    -0.332 N 
ATOM     11  H4  UNL     1       0.791   1.938  -1.503  1.00  0.00     0.164 HD
HETATM   12  C4  UNL     1       0.253   0.525   0.012  1.00  0.00     0.156 C 
HETATM   13  N9  UNL     1      -0.442  -0.738  -0.111  1.00  0.00    -0.100 NA
ENDROOT
BRANCH  12  14
HETATM   14  C5  UNL     1       1.720   0.200   0.162  1.00  0.00     0.174 C 
BRANCH  14  15
HETATM   15  N5  UNL     1       2.162  -0.541  -1.003  1.00  0.00    -0.363 N 
HETATM   16  C6  UNL     1       3.113  -1.398  -0.858  1.00  0.00     0.197 C 
HETATM   17  N6  UNL     1       3.750  -1.653   0.384  1.00  0.00    -0.067 NA
HETATM   18  N7  UNL     1       3.553  -2.130  -1.996  1.00  0.00    -0.067 NA
ATOM     19  H5  UNL     1       1.731  -0.388  -1.915  1.00  0.00     0.161 HD
ENDBRANCH  14  15
ENDBRANCH  12  14
BRANCH  12  20
HETATM   20  C7  UNL     1      -0.295   1.211   1.248  1.00  0.00     0.174 C 
BRANCH  20  21
HETATM   21  N8  UNL     1       0.328   2.481   1.485  1.00  0.00    -0.364 N 
ATOM     22  H8  UNL     1       1.052   2.823   0.853  1.00  0.00     0.161 HD
BRANCH  21  23
HETATM   23  C8  UNL     1      -0.063   3.247   2.588  1.00  0.00     0.348 C 
HETATM   24  O2  UNL     1      -0.951   2.825   3.362  1.00  0.00    -0.284 OA
ENDBRANCH  21  23
ENDBRANCH  20  21
ENDBRANCH  12  20
TORSDOF 5
