REMARK  6 active torsions:
REMARK  status: ('A' for Active; 'I' for Inactive)
REMARK    1  A    between atoms: C4_4  and  C5_5 
REMARK    2  A    between atoms: C5_5  and  C6_6 
REMARK    3  A    between atoms: C6_6  and  C7_7 
REMARK    4  A    between atoms: C7_7  and  N2_16 
REMARK    5  A    between atoms: N1_8  and  C8_10 
REMARK    6  A    between atoms: N2_16  and  C14_18 
ROOT
HETATM    1  C7  UNL     1      -0.884  -0.241  -0.834  1.00  0.00     0.082 C 
HETATM    2  N1  UNL     1      -1.713   0.699  -1.065  1.00  0.00    -0.346 N 
ATOM      3  H1  UNL     1      -2.580   0.492  -1.561  1.00  0.00     0.167 HD
ENDROOT
BRANCH   1   4
HETATM    4  C6  UNL     1       0.371   0.027  -0.123  1.00  0.00     0.081 C 
BRANCH   4   5
HETATM    5  C5  UNL     1       1.592  -0.328  -0.980  1.00  0.00     0.046 C 
BRANCH   5   6
HETATM    6  C4  UNL     1       2.790  -0.013  -0.151  1.00  0.00    -0.058 A 
HETATM    7  C3  UNL     1       3.291  -0.997   0.649  1.00  0.00     0.007 A 
HETATM    8  C2  UNL     1       4.392  -0.762   1.433  1.00  0.00     0.001 A 
HETATM    9  C1  UNL     1       5.011   0.481   1.422  1.00  0.00     0.000 A 
HETATM   10  C21 UNL     1       4.486   1.454   0.607  1.00  0.00     0.001 A 
HETATM   11  C20 UNL     1       3.379   1.225  -0.184  1.00  0.00     0.007 A 
ENDBRANCH   5   6
ENDBRANCH   4   5
ENDBRANCH   1   4
BRANCH   1  12
HETATM   12  N2  UNL     1      -1.190  -1.544  -1.273  1.00  0.00    -0.346 N 
ATOM     13  H2  UNL     1      -0.757  -1.876  -2.135  1.00  0.00     0.167 HD
BRANCH  12  14
HETATM   14  C14 UNL     1      -2.067  -2.421  -0.583  1.00  0.00     0.033 A 
HETATM   15  C15 UNL     1      -2.694  -2.074   0.572  1.00  0.00     0.029 A 
HETATM   16  C16 UNL     1      -3.540  -2.977   1.198  1.00  0.00     0.002 A 
HETATM   17  C17 UNL     1      -3.760  -4.233   0.666  1.00  0.00     0.000 A 
HETATM   18  C18 UNL     1      -3.139  -4.594  -0.490  1.00  0.00     0.002 A 
HETATM   19  C19 UNL     1      -2.294  -3.671  -1.101  1.00  0.00     0.029 A 
ENDBRANCH  12  14
ENDBRANCH   1  12
BRANCH   2  20
HETATM   20  C8  UNL     1      -1.451   2.032  -0.643  1.00  0.00     0.033 A 
HETATM   21  C9  UNL     1      -0.897   2.991  -1.467  1.00  0.00     0.029 A 
HETATM   22  C10 UNL     1      -0.649   4.273  -1.049  1.00  0.00     0.002 A 
HETATM   23  C11 UNL     1      -0.953   4.660   0.245  1.00  0.00     0.000 A 
HETATM   24  C12 UNL     1      -1.505   3.729   1.088  1.00  0.00     0.002 A 
HETATM   25  C13 UNL     1      -1.749   2.441   0.652  1.00  0.00     0.029 A 
ENDBRANCH   2  20
TORSDOF 6
