REMARK  3 active torsions:
REMARK  status: ('A' for Active; 'I' for Inactive)
REMARK    1  A    between atoms: O1_2  and  C2_3 
REMARK    2  A    between atoms: C2_3  and  C3_5 
REMARK    3  A    between atoms: C19_22  and  O3_23 
ROOT
HETATM    1  C3  UNL     1      -3.044  -0.580   0.924  1.00  0.00     0.049 C 
HETATM    2  C4  UNL     1      -3.186  -0.879   2.412  1.00  0.00     0.026 C 
HETATM    3  C5  UNL     1      -3.447  -1.742   0.053  1.00  0.00     0.020 C 
HETATM    4  C6  UNL     1      -3.163  -1.458  -1.372  1.00  0.00     0.002 C 
HETATM    5  C7  UNL     1      -2.106  -0.571  -1.791  1.00  0.00     0.010 C 
HETATM    6  C8  UNL     1      -1.192   0.048  -0.718  1.00  0.00    -0.033 C 
HETATM    7  C9  UNL     1      -1.414   1.541  -0.837  1.00  0.00     0.016 C 
HETATM    8  C10 UNL     1      -1.615  -0.362   0.653  1.00  0.00     0.012 C 
HETATM    9  C11 UNL     1      -0.898  -1.682   0.887  1.00  0.00     0.010 C 
HETATM   10  C12 UNL     1       0.488  -1.211   1.355  1.00  0.00     0.045 C 
HETATM   11  C13 UNL     1       1.147  -0.756   0.085  1.00  0.00     0.115 C 
HETATM   12  F1  UNL     1       1.834  -1.927  -0.342  1.00  0.00    -0.242 F 
HETATM   13  C14 UNL     1       0.283  -0.315  -1.001  1.00  0.00     0.035 C 
HETATM   14  C15 UNL     1       0.934   0.615  -1.961  1.00  0.00     0.009 C 
HETATM   15  C16 UNL     1       2.028   1.490  -1.440  1.00  0.00     0.006 C 
HETATM   16  C17 UNL     1       3.032   0.532  -0.791  1.00  0.00    -0.001 C 
HETATM   17  C18 UNL     1       4.360   1.167  -0.571  1.00  0.00     0.037 C 
HETATM   18  C19 UNL     1       5.298   0.099  -0.046  1.00  0.00     0.118 C 
HETATM   19  C20 UNL     1       4.526  -1.118   0.414  1.00  0.00     0.032 C 
HETATM   20  C21 UNL     1       3.322  -0.731   1.248  1.00  0.00     0.015 C 
HETATM   21  C22 UNL     1       2.325   0.116   0.481  1.00  0.00    -0.004 C 
HETATM   22  C23 UNL     1       1.953   1.254   1.362  1.00  0.00     0.019 C 
ENDROOT
BRANCH   1  23
HETATM   23  C2  UNL     1      -3.992   0.505   0.689  1.00  0.00     0.267 C 
HETATM   24  O2  UNL     1      -4.502   1.151   1.669  1.00  0.00    -0.264 OA
BRANCH  23  25
HETATM   25  O1  UNL     1      -4.446   0.963  -0.543  1.00  0.00    -0.326 OA
HETATM   26  C1  UNL     1      -5.357   2.010  -0.706  1.00  0.00     0.213 C 
ENDBRANCH  23  25
ENDBRANCH   1  23
BRANCH  18  27
HETATM   27  O3  UNL     1       6.192  -0.218  -1.038  1.00  0.00    -0.396 OA
ATOM     28  H3  UNL     1       6.780  -0.888  -0.709  1.00  0.00     0.210 HD
ENDBRANCH  18  27
TORSDOF 3
