REMARK  3 active torsions:
REMARK  status: ('A' for Active; 'I' for Inactive)
REMARK    1  A    between atoms: C2_2  and  C3_4 
REMARK    2  A    between atoms: C10_11  and  C11_12 
REMARK    3  A    between atoms: C22_25  and  O3_26 
ROOT
HETATM    1  C3  UNL     1      -0.863  -1.236  -0.250  1.00  0.00     0.061 C 
HETATM    2  C4  UNL     1      -1.274  -2.174  -1.358  1.00  0.00     0.021 C 
HETATM    3  C5  UNL     1      -0.048  -3.081  -1.382  1.00  0.00     0.002 C 
HETATM    4  C6  UNL     1       1.107  -2.292  -0.736  1.00  0.00     0.011 C 
HETATM    5  C7  UNL     1       0.539  -0.934  -0.752  1.00  0.00    -0.022 C 
HETATM    6  C8  UNL     1       0.368  -0.723  -2.286  1.00  0.00     0.017 C 
HETATM    7  C9  UNL     1       1.213   0.228  -0.240  1.00  0.00     0.011 C 
HETATM    8  C10 UNL     1       2.316   0.381   0.680  1.00  0.00     0.009 C 
HETATM    9  C13 UNL     1       2.610   1.891   0.486  1.00  0.00     0.007 C 
HETATM   10  C14 UNL     1       1.365   2.488  -0.214  1.00  0.00     0.012 C 
HETATM   11  C15 UNL     1       0.380   1.388   0.264  1.00  0.00    -0.010 C 
HETATM   12  C16 UNL     1       0.298   1.706   1.684  1.00  0.00     0.018 C 
HETATM   13  C17 UNL     1      -0.907   1.327  -0.397  1.00  0.00     0.167 C 
HETATM   14  O2  UNL     1      -1.919   2.154   0.182  1.00  0.00    -0.371 OA
HETATM   15  C18 UNL     1      -3.110   1.732  -0.415  1.00  0.00     0.065 A 
HETATM   16  C19 UNL     1      -4.364   1.987   0.379  1.00  0.00     0.046 C 
HETATM   17  C20 UNL     1      -3.178   1.274  -1.803  1.00  0.00     0.049 A 
HETATM   18  C21 UNL     1      -2.868   0.240  -0.847  1.00  0.00     0.061 A 
HETATM   19  C22 UNL     1      -1.587   0.030  -0.129  1.00  0.00     0.106 C 
ENDROOT
BRANCH   1  20
HETATM   20  C2  UNL     1      -1.039  -2.077   0.924  1.00  0.00     0.135 C 
HETATM   21  C1  UNL     1      -0.632  -1.952   2.321  1.00  0.00     0.091 C 
HETATM   22  O1  UNL     1      -1.661  -3.129   0.764  1.00  0.00    -0.297 OA
ENDBRANCH   1  20
BRANCH  19  23
HETATM   23  O3  UNL     1      -1.971   0.134   1.248  1.00  0.00    -0.385 OA
ATOM     24  H3  UNL     1      -2.441   0.956   1.327  1.00  0.00     0.210 HD
ENDBRANCH  19  23
BRANCH   8  25
HETATM   25  C11 UNL     1       3.592  -0.350   0.383  1.00  0.00     0.082 C 
HETATM   26  C12 UNL     1       4.638  -0.075   1.449  1.00  0.00     0.027 C 
HETATM   27 CL1  UNL     1       4.350   0.220  -1.138  1.00  0.00    -0.125 Cl
ENDBRANCH   8  25
TORSDOF 3
