REMARK  14 active torsions:
REMARK  status: ('A' for Active; 'I' for Inactive)
REMARK    1  A    between atoms: C2_2  and  C4_4 
REMARK    2  A    between atoms: C4_4  and  C5_5 
REMARK    3  A    between atoms: C4_4  and  N7_36 
REMARK       I    between atoms: C5_5  and  N1_7 
REMARK    4  A    between atoms: N1_7  and  C6_9 
REMARK    5  A    between atoms: C6_9  and  C7_10 
REMARK    6  A    between atoms: C6_9  and  C10_16 
REMARK    7  A    between atoms: C10_16  and  N3_17 
REMARK    8  A    between atoms: C10_16  and  C11_21 
REMARK    9  A    between atoms: C11_21  and  N4_22 
REMARK   10  A    between atoms: C11_21  and  C12_26 
REMARK       I    between atoms: C12_26  and  N5_28 
REMARK   11  A    between atoms: N5_28  and  C13_30 
REMARK   12  A    between atoms: C13_30  and  C14_31 
REMARK   13  A    between atoms: C14_31  and  C15_33 
REMARK       I    between atoms: N7_36  and  C17_38 
REMARK   14  A    between atoms: C17_38  and  C18_40 
ROOT
HETATM    1  C6  UNL     1       0.585   0.742  -0.423  1.00  0.00     0.124 C 
ENDROOT
BRANCH   1   2
HETATM    2  N1  UNL     1      -0.880   0.398  -0.355  1.00  0.00    -0.352 N 
HETATM    3  C5  UNL     1      -1.374  -0.843  -0.771  1.00  0.00     0.241 C 
HETATM    4  O1  UNL     1      -0.500  -1.672  -1.213  1.00  0.00    -0.271 OA
ATOM      5  H1  UNL     1      -1.533   1.093   0.006  1.00  0.00     0.163 HD
BRANCH   3   6
HETATM    6  C4  UNL     1      -2.799  -1.173  -0.709  1.00  0.00     0.182 C 
BRANCH   6   7
HETATM    7  C2  UNL     1      -3.146  -2.577  -0.381  1.00  0.00     0.009 C 
HETATM    8  C1  UNL     1      -4.657  -2.701  -0.360  1.00  0.00     0.012 C 
HETATM    9  C3  UNL     1      -2.590  -3.162   0.856  1.00  0.00     0.012 C 
ENDBRANCH   6   7
BRANCH   6  10
HETATM   10  N7  UNL     1      -3.538  -0.153  -0.014  1.00  0.00    -0.335 N 
HETATM   11  C16 UNL     1      -3.439   0.002   1.442  1.00  0.00     0.154 C 
HETATM   12  C17 UNL     1      -4.419   0.743  -0.681  1.00  0.00     0.309 C 
HETATM   13  O5  UNL     1      -4.496   0.589  -1.952  1.00  0.00    -0.263 OA
BRANCH  12  14
HETATM   14  C18 UNL     1      -5.194   1.761  -0.071  1.00  0.00     0.322 C 
HETATM   15  N8  UNL     1      -6.038   2.605  -0.885  1.00  0.00    -0.053 NA
HETATM   16  O6  UNL     1      -5.219   2.009   1.147  1.00  0.00    -0.266 OA
ENDBRANCH  12  14
ENDBRANCH   6  10
ENDBRANCH   3   6
ENDBRANCH   1   2
BRANCH   1  17
HETATM   17  C7  UNL     1       0.620   1.784  -1.455  1.00  0.00     0.062 C 
HETATM   18  C8  UNL     1       1.853   2.436  -1.931  1.00  0.00     0.240 C 
HETATM   19  N2  UNL     1       1.462   2.249  -3.347  1.00  0.00    -0.074 N 
HETATM   20  C9  UNL     1       0.663   1.131  -2.850  1.00  0.00     0.240 C 
ATOM     21  H22 UNL     1       1.055   3.002  -3.902  1.00  0.00     0.277 HD
ATOM     22  H21 UNL     1       2.152   2.135  -4.090  1.00  0.00     0.277 HD
ENDBRANCH   1  17
BRANCH   1  23
HETATM   23  C10 UNL     1       0.914   0.967   0.969  1.00  0.00     0.246 C 
BRANCH  23  24
HETATM   24  N3  UNL     1       0.649  -0.274   1.722  1.00  0.00    -0.071 N 
ATOM     25  H33 UNL     1      -0.305  -0.612   1.596  1.00  0.00     0.274 HD
ATOM     26  H32 UNL     1       1.136  -1.080   1.331  1.00  0.00     0.274 HD
ATOM     27  H31 UNL     1       0.881  -0.115   2.703  1.00  0.00     0.274 HD
ENDBRANCH  23  24
BRANCH  23  28
HETATM   28  C11 UNL     1       2.111   1.593   1.507  1.00  0.00     0.306 C 
BRANCH  28  29
HETATM   29  N4  UNL     1       2.289   2.991   1.106  1.00  0.00    -0.064 N 
ATOM     30  H43 UNL     1       2.267   3.076   0.090  1.00  0.00     0.275 HD
ATOM     31  H42 UNL     1       1.462   3.539   1.344  1.00  0.00     0.275 HD
ATOM     32  H41 UNL     1       3.129   3.430   1.483  1.00  0.00     0.275 HD
ENDBRANCH  28  29
BRANCH  28  33
HETATM   33  C12 UNL     1       3.401   0.861   1.320  1.00  0.00     0.250 C 
HETATM   34  O2  UNL     1       4.361   1.446   0.694  1.00  0.00    -0.271 OA
HETATM   35  N5  UNL     1       3.693  -0.438   1.768  1.00  0.00    -0.352 N 
ATOM     36  H5  UNL     1       2.976  -0.953   2.280  1.00  0.00     0.162 HD
BRANCH  35  37
HETATM   37  C13 UNL     1       4.966  -1.072   1.533  1.00  0.00     0.211 C 
BRANCH  37  38
HETATM   38  C14 UNL     1       5.318  -1.280   0.133  1.00  0.00     0.231 C 
HETATM   39  O3  UNL     1       4.530  -0.953  -0.781  1.00  0.00    -0.286 OA
BRANCH  38  40
HETATM   40  C15 UNL     1       6.593  -1.871  -0.235  1.00  0.00     0.302 C 
HETATM   41  N6  UNL     1       6.977  -2.088  -1.584  1.00  0.00    -0.054 NA
HETATM   42  O4  UNL     1       7.437  -2.226   0.644  1.00  0.00    -0.268 OA
ENDBRANCH  38  40
ENDBRANCH  37  38
ENDBRANCH  35  37
ENDBRANCH  28  33
ENDBRANCH  23  28
ENDBRANCH   1  23
TORSDOF 14
