REMARK  4 active torsions:
REMARK  status: ('A' for Active; 'I' for Inactive)
REMARK    1  A    between atoms: N1_1  and  N2_4 
REMARK    2  A    between atoms: N2_4  and  N3_5 
REMARK    3  A    between atoms: N3_5  and  C1_7 
REMARK    4  A    between atoms: C6_12  and  O1_13 
ROOT
HETATM    1  C1  UNL     1       0.887  -0.202  -0.093  1.00  0.00     0.143 C 
HETATM    2  C2  UNL     1      -0.040  -1.262  -0.672  1.00  0.00     0.030 C 
HETATM    3  C3  UNL     1      -1.126  -1.460   0.395  1.00  0.00     0.002 C 
HETATM    4  C4  UNL     1      -1.522  -0.109   0.904  1.00  0.00     0.003 C 
HETATM    5  C5  UNL     1      -1.243   1.004  -0.079  1.00  0.00     0.034 C 
HETATM    6  C6  UNL     1       0.231   1.152  -0.303  1.00  0.00     0.143 C 
ENDROOT
BRANCH   1   7
HETATM    7  N3  UNL     1       2.205  -0.275  -0.652  1.00  0.00    -0.245 N 
ATOM      8  H3  UNL     1       2.293  -0.355  -1.665  1.00  0.00     0.197 HD
BRANCH   7   9
HETATM    9  N2  UNL     1       3.240  -0.247   0.020  1.00  0.00    -0.248 NA
BRANCH   9  10
HETATM   10  N1  UNL     1       4.102  -0.098   0.908  1.00  0.00    -0.261 N 
ATOM     11  H12 UNL     1       3.425   0.301   1.558  1.00  0.00     0.193 HD
ATOM     12  H11 UNL     1       4.957  -0.075   1.463  1.00  0.00     0.193 HD
ENDBRANCH   9  10
ENDBRANCH   7   9
ENDBRANCH   1   7
BRANCH   6  13
HETATM   13  O1  UNL     1       0.531   1.680  -1.559  1.00  0.00    -0.393 OA
ATOM     14  H1  UNL     1       0.121   2.527  -1.690  1.00  0.00     0.210 HD
ENDBRANCH   6  13
TORSDOF 4
