REMARK  8 active torsions:
REMARK  status: ('A' for Active; 'I' for Inactive)
REMARK    1  A    between atoms: N1_1  and  C1_4 
REMARK    2  A    between atoms: C2_7  and  C3_8 
REMARK    3  A    between atoms: C3_8  and  C4_10 
REMARK    4  A    between atoms: C4_10  and  N3_11 
REMARK    5  A    between atoms: C4_10  and  C5_15 
REMARK    6  A    between atoms: C5_15  and  C6_16 
REMARK    7  A    between atoms: C9_25  and  N7_26 
REMARK    8  A    between atoms: N7_26  and  N8_28 
ROOT
HETATM    1  C1  UNL     1      -2.461  -1.840  -0.561  1.00  0.00     0.692 A 
HETATM    2  N2  UNL     1      -1.400  -1.104  -0.924  1.00  0.00    -0.172 N 
ATOM      3  H2  UNL     1      -0.745  -1.492  -1.603  1.00  0.00     0.186 HD
HETATM    4  C2  UNL     1      -1.164   0.125  -0.430  1.00  0.00     0.184 A 
HETATM    5  N6  UNL     1      -2.067   0.576   0.460  1.00  0.00    -0.170 N 
ATOM      6  H6  UNL     1      -1.935   1.503   0.865  1.00  0.00     0.186 HD
HETATM    7  C9  UNL     1      -3.131  -0.143   0.835  1.00  0.00     0.712 A 
HETATM    8  N9  UNL     1      -3.350  -1.369   0.331  1.00  0.00    -0.021 N 
ATOM      9  H9  UNL     1      -4.160  -1.921   0.614  1.00  0.00     0.203 HD
ENDROOT
BRANCH   4  10
HETATM   10  C3  UNL     1      -0.022   0.937  -0.817  1.00  0.00     0.224 C 
HETATM   11  O1  UNL     1       0.085   2.079  -0.289  1.00  0.00    -0.287 OA
BRANCH  10  12
HETATM   12  C4  UNL     1       1.014   0.531  -1.773  1.00  0.00     0.266 C 
BRANCH  12  13
HETATM   13  N3  UNL     1       1.975   1.598  -2.009  1.00  0.00    -0.068 N 
ATOM     14  H33 UNL     1       1.512   2.457  -2.305  1.00  0.00     0.275 HD
ATOM     15  H32 UNL     1       2.384   1.930  -1.136  1.00  0.00     0.275 HD
ATOM     16  H31 UNL     1       2.695   1.316  -2.674  1.00  0.00     0.275 HD
ENDBRANCH  12  13
BRANCH  12  17
HETATM   17  C5  UNL     1       1.800  -0.694  -1.337  1.00  0.00     0.099 C 
BRANCH  17  18
HETATM   18  C6  UNL     1       2.496  -0.501  -0.066  1.00  0.00     0.028 A 
HETATM   19  C7  UNL     1       3.766  -0.023   0.163  1.00  0.00     0.114 A 
HETATM   20  N4  UNL     1       3.964  -0.027   1.498  1.00  0.00    -0.360 N 
HETATM   21  C8  UNL     1       2.852  -0.493   2.099  1.00  0.00     0.180 A 
ATOM     22  H4  UNL     1       4.815   0.273   1.973  1.00  0.00     0.166 HD
HETATM   23  N5  UNL     1       1.982  -0.773   1.143  1.00  0.00    -0.355 N 
ATOM     24  H5  UNL     1       1.046  -1.146   1.303  1.00  0.00     0.166 HD
ENDBRANCH  17  18
ENDBRANCH  12  17
ENDBRANCH  10  12
ENDBRANCH   4  10
BRANCH   1  25
HETATM   25  N1  UNL     1      -2.693  -3.027  -1.034  1.00  0.00    -0.234 N 
ATOM     26  H12 UNL     1      -2.019  -3.384  -1.711  1.00  0.00     0.174 HD
ATOM     27  H11 UNL     1      -3.500  -3.587  -0.758  1.00  0.00     0.174 HD
ENDBRANCH   1  25
BRANCH   7  28
HETATM   28  N7  UNL     1      -3.995   0.299   1.692  1.00  0.00    -0.138 N 
ATOM     29  H7  UNL     1      -4.797  -0.272   1.959  1.00  0.00     0.205 HD
BRANCH  28  30
HETATM   30  N8  UNL     1      -3.814   1.562   2.243  1.00  0.00    -0.331 N 
ATOM     31  H82 UNL     1      -3.007   2.120   1.966  1.00  0.00     0.177 HD
ATOM     32  H81 UNL     1      -4.495   1.910   2.918  1.00  0.00     0.177 HD
ENDBRANCH  28  30
ENDBRANCH   7  28
TORSDOF 8
