REMARK  9 active torsions:
REMARK  status: ('A' for Active; 'I' for Inactive)
REMARK    1  A    between atoms: C2_2  and  C3_4 
REMARK    2  A    between atoms: C7_11  and  C9_13 
REMARK    3  A    between atoms: C12_16  and  C13_17 
REMARK       I    between atoms: C13_17  and  N1_19 
REMARK    4  A    between atoms: N1_19  and  C14_21 
REMARK    5  A    between atoms: C19_29  and  C20_30 
REMARK    6  A    between atoms: C21_31  and  C22_32 
REMARK    7  A    between atoms: C22_32  and  N4_33 
REMARK       I    between atoms: N4_33  and  C23_35 
REMARK    8  A    between atoms: C23_35  and  C24_37 
REMARK    9  A    between atoms: C24_37  and  N5_39 
ROOT
HETATM    1  C3  UNL     1       0.923  -3.438  -1.031  1.00  0.00     0.146 C 
HETATM    2  C4  UNL     1      -0.224  -4.208  -0.577  1.00  0.00     0.210 C 
HETATM    3  O2  UNL     1      -0.778  -5.072  -1.239  1.00  0.00    -0.290 OA
HETATM    4  C5  UNL     1      -0.646  -3.819   0.798  1.00  0.00     0.309 C 
HETATM    5  F1  UNL     1       0.449  -4.103   1.634  1.00  0.00    -0.197 F 
HETATM    6  F2  UNL     1      -1.600  -4.697   1.173  1.00  0.00    -0.197 F 
HETATM    7  C6  UNL     1      -0.955  -2.401   0.940  1.00  0.00     0.090 C 
HETATM    8  C7  UNL     1      -2.087  -1.755   0.230  1.00  0.00    -0.017 C 
HETATM    9  C8  UNL     1      -2.623  -2.360  -1.010  1.00  0.00     0.017 C 
HETATM   10  C12 UNL     1      -1.125  -0.573   0.062  1.00  0.00     0.101 C 
HETATM   11  C19 UNL     1       0.085  -1.419   0.340  1.00  0.00     0.015 C 
HETATM   12  C26 UNL     1       0.952  -1.981  -0.654  1.00  0.00     0.090 C 
HETATM   13 BR1  UNL     1       1.029  -1.073  -2.403  1.00  0.00    -0.089 Br
ENDROOT
BRANCH  11  14
HETATM   14  C20 UNL     1       0.794  -0.869   1.550  1.00  0.00    -0.017 C 
HETATM   15  C21 UNL     1       1.825   0.142   1.551  1.00  0.00    -0.010 C 
BRANCH  15  16
HETATM   16  C22 UNL     1       3.132   0.007   0.894  1.00  0.00     0.149 C 
BRANCH  16  17
HETATM   17  N4  UNL     1       4.000   1.168   1.184  1.00  0.00    -0.356 N 
HETATM   18  C23 UNL     1       3.692   2.478   0.809  1.00  0.00     0.248 C 
HETATM   19  O4  UNL     1       2.666   2.807   0.191  1.00  0.00    -0.271 OA
ATOM     20  H4  UNL     1       4.873   1.003   1.686  1.00  0.00     0.162 HD
BRANCH  18  21
HETATM   21  C24 UNL     1       4.634   3.592   1.156  1.00  0.00     0.270 C 
HETATM   22  C25 UNL     1       5.197   4.246  -0.098  1.00  0.00     0.050 C 
BRANCH  21  23
HETATM   23  N5  UNL     1       5.784   3.045   1.883  1.00  0.00    -0.067 N 
ATOM     24  H53 UNL     1       5.503   2.507   2.703  1.00  0.00     0.275 HD
ATOM     25  H52 UNL     1       6.245   2.295   1.369  1.00  0.00     0.275 HD
ATOM     26  H51 UNL     1       6.425   3.803   2.119  1.00  0.00     0.275 HD
ENDBRANCH  21  23
ENDBRANCH  18  21
ENDBRANCH  16  17
ENDBRANCH  15  16
ENDBRANCH  11  14
BRANCH  10  27
HETATM   27  C13 UNL     1      -1.269   0.224  -1.125  1.00  0.00     0.228 C 
HETATM   28  O3  UNL     1      -1.959  -0.070  -2.168  1.00  0.00    -0.273 OA
HETATM   29  N1  UNL     1      -0.622   1.486  -1.260  1.00  0.00    -0.325 N 
ATOM     30  H1  UNL     1       0.397   1.503  -1.233  1.00  0.00     0.169 HD
BRANCH  29  31
HETATM   31  C14 UNL     1      -1.237   2.606  -1.414  1.00  0.00     0.053 A 
HETATM   32  C15 UNL     1      -0.509   3.785  -1.539  1.00  0.00     0.049 A 
HETATM   33  C16 UNL     1      -1.100   5.012  -1.700  1.00  0.00     0.109 A 
HETATM   34  N2  UNL     1      -2.447   5.055  -1.737  1.00  0.00    -0.310 N 
HETATM   35  N3  UNL     1      -3.148   3.951  -1.621  1.00  0.00    -0.306 N 
ATOM     36  H2  UNL     1      -2.923   5.949  -1.856  1.00  0.00     0.186 HD
HETATM   37  C17 UNL     1      -4.608   4.113  -1.675  1.00  0.00     0.177 C 
HETATM   38  C18 UNL     1      -2.607   2.735  -1.462  1.00  0.00     0.139 A 
ENDBRANCH  29  31
ENDBRANCH  10  27
BRANCH   8  39
HETATM   39  C9  UNL     1      -3.265  -1.419   1.150  1.00  0.00    -0.013 C 
HETATM   40  C10 UNL     1      -3.852  -2.620   1.844  1.00  0.00     0.010 C 
HETATM   41  C11 UNL     1      -4.379  -0.702   0.489  1.00  0.00     0.010 C 
ENDBRANCH   8  39
BRANCH   1  42
HETATM   42  C2  UNL     1       2.150  -4.174  -0.537  1.00  0.00     0.135 C 
HETATM   43  C1  UNL     1       2.438  -5.553  -0.921  1.00  0.00     0.091 C 
HETATM   44  O1  UNL     1       2.912  -3.582   0.202  1.00  0.00    -0.297 OA
ENDBRANCH   1  42
TORSDOF 9
