REMARK  16 active torsions:
REMARK  status: ('A' for Active; 'I' for Inactive)
REMARK    1  A    between atoms: C2_2  and  O1_4 
REMARK    2  A    between atoms: C2_2  and  C4_6 
REMARK    3  A    between atoms: N3_11  and  C5_12 
REMARK    4  A    between atoms: C5_12  and  C6_13 
REMARK    5  A    between atoms: C6_13  and  C7_14 
REMARK    6  A    between atoms: C7_14  and  C8_15 
REMARK    7  A    between atoms: C8_15  and  C9_16 
REMARK    8  A    between atoms: C9_16  and  N4_17 
REMARK    9  A    between atoms: N4_17  and  O2_18 
REMARK   10  A    between atoms: N4_17  and  C10_20 
REMARK   11  A    between atoms: C10_20  and  O3_21 
REMARK   12  A    between atoms: C10_20  and  N5_23 
REMARK   13  A    between atoms: C12_28  and  O4_29 
REMARK   14  A    between atoms: C14_33  and  N8_34 
REMARK       I    between atoms: N9_37  and  C15_38 
REMARK       I    between atoms: C15_38  and  N10_40 
REMARK   15  A    between atoms: N10_40  and  N11_41 
REMARK   16  A    between atoms: C16_44  and  O6_45 
ROOT
HETATM    1  C10 UNL     1      -2.582  -0.857   0.104  1.00  0.00     0.340 C 
ENDROOT
BRANCH   1   2
HETATM    2  N4  UNL     1      -1.636  -1.734  -0.637  1.00  0.00    -0.152 NA
BRANCH   2   3
HETATM    3  C9  UNL     1      -0.296  -1.511  -0.215  1.00  0.00     0.125 C 
BRANCH   3   4
HETATM    4  C8  UNL     1       0.276  -0.274  -0.762  1.00  0.00     0.017 C 
BRANCH   4   5
HETATM    5  C7  UNL     1       1.668   0.109  -0.279  1.00  0.00     0.003 C 
BRANCH   5   6
HETATM    6  C6  UNL     1       1.696   0.290   1.201  1.00  0.00     0.022 C 
BRANCH   6   7
HETATM    7  C5  UNL     1       2.940   0.801   1.800  1.00  0.00     0.153 C 
BRANCH   7   8
HETATM    8  N3  UNL     1       4.146   0.049   1.622  1.00  0.00    -0.255 N 
HETATM    9  N2  UNL     1       4.665  -0.843   2.429  1.00  0.00    -0.238 N 
HETATM   10  N1  UNL     1       5.814  -1.294   1.952  1.00  0.00    -0.283 N 
ATOM     11  H2  UNL     1       4.241  -1.148   3.305  1.00  0.00     0.208 HD
HETATM   12  C4  UNL     1       6.042  -0.670   0.799  1.00  0.00     0.113 A 
ATOM     13  H1  UNL     1       6.415  -1.993   2.389  1.00  0.00     0.188 HD
HETATM   14  C16 UNL     1       4.994   0.189   0.568  1.00  0.00     0.186 A 
BRANCH  12  15
HETATM   15  C2  UNL     1       7.203  -0.822  -0.148  1.00  0.00     0.098 C 
HETATM   16  C1  UNL     1       6.709  -1.344  -1.465  1.00  0.00     0.052 C 
HETATM   17  C3  UNL     1       8.207  -1.826   0.428  1.00  0.00     0.052 C 
BRANCH  15  18
HETATM   18  O1  UNL     1       7.881   0.366  -0.339  1.00  0.00    -0.384 OA
ATOM     19  H1  UNL     1       8.194   0.697   0.495  1.00  0.00     0.211 HD
ENDBRANCH  15  18
ENDBRANCH  12  15
BRANCH  14  20
HETATM   20  O6  UNL     1       4.864   1.023  -0.539  1.00  0.00    -0.343 OA
ATOM     21  H6  UNL     1       4.140   1.617  -0.699  1.00  0.00     0.219 HD
ENDBRANCH  14  20
ENDBRANCH   7   8
ENDBRANCH   6   7
ENDBRANCH   5   6
ENDBRANCH   4   5
ENDBRANCH   3   4
ENDBRANCH   2   3
BRANCH   2  22
HETATM   22  O2  UNL     1      -2.003  -2.995  -0.372  1.00  0.00    -0.309 OA
ATOM     23  H2  UNL     1      -2.898  -3.144  -0.654  1.00  0.00     0.237 HD
ENDBRANCH   2  22
ENDBRANCH   1   2
BRANCH   1  24
HETATM   24  O3  UNL     1      -1.813   0.253   0.570  1.00  0.00    -0.362 OA
ATOM     25  H3  UNL     1      -2.417   0.813   1.043  1.00  0.00     0.213 HD
ENDBRANCH   1  24
BRANCH   1  26
HETATM   26  N5  UNL     1      -3.679  -0.500  -0.602  1.00  0.00    -0.184 N 
HETATM   27  C11 UNL     1      -4.659   0.164  -0.920  1.00  0.00     0.696 A 
HETATM   28  N6  UNL     1      -5.372  -0.304  -2.029  1.00  0.00    -0.168 N 
HETATM   29  N9  UNL     1      -5.014   1.371  -0.455  1.00  0.00    -0.066 N 
HETATM   30  C12 UNL     1      -6.331   0.375  -2.611  1.00  0.00     0.183 A 
ATOM     31  H6  UNL     1      -5.133  -1.222  -2.405  1.00  0.00     0.186 HD
HETATM   32  C13 UNL     1      -6.678   1.594  -2.145  1.00  0.00     0.142 A 
HETATM   33  N7  UNL     1      -7.708   2.342  -2.779  1.00  0.00    -0.094 NA
HETATM   34  C14 UNL     1      -6.005   2.126  -1.024  1.00  0.00     0.157 A 
HETATM   35  C15 UNL     1      -4.650   1.835   0.878  1.00  0.00     0.438 C 
HETATM   36  O5  UNL     1      -4.461   3.107   0.887  1.00  0.00    -0.227 OA
HETATM   37  N10 UNL     1      -4.558   1.013   1.923  1.00  0.00    -0.271 NA
ATOM     38  H5  UNL     1      -3.710  -1.241  -1.302  1.00  0.00     0.181 HD
BRANCH  30  39
HETATM   39  O4  UNL     1      -7.036  -0.122  -3.732  1.00  0.00    -0.344 OA
ATOM     40  H4  UNL     1      -7.731   0.370  -4.154  1.00  0.00     0.219 HD
ENDBRANCH  30  39
BRANCH  34  41
HETATM   41  N8  UNL     1      -6.405   3.254  -0.646  1.00  0.00    -0.383 N 
ATOM     42  H82 UNL     1      -7.143   3.816  -1.070  1.00  0.00     0.157 HD
ATOM     43  H81 UNL     1      -5.919   3.638   0.164  1.00  0.00     0.157 HD
ENDBRANCH  34  41
BRANCH  37  44
HETATM   44  N11 UNL     1      -4.466   0.192   2.974  1.00  0.00    -0.275 N 
ATOM     45 2H11 UNL     1      -4.546   0.945   2.290  1.00  0.00     0.191 HD
ATOM     46 1H11 UNL     1      -4.396  -0.437   3.774  1.00  0.00     0.191 HD
ENDBRANCH  37  44
ENDBRANCH   1  26
TORSDOF 16
