REMARK  3 active torsions:
REMARK  status: ('A' for Active; 'I' for Inactive)
REMARK    1  A    between atoms: C3_3  and  C4_4 
REMARK    2  A    between atoms: C7_7  and  O1_8 
REMARK    3  A    between atoms: O1_8  and  C8_9 
ROOT
HETATM    1  C8  UNL     1       1.126  -0.208  -0.960  1.00  0.00     0.190 A 
HETATM    2  N1  UNL     1       1.815   0.249   0.056  1.00  0.00    -0.316 N 
ATOM      3  H1  UNL     1       1.328   0.660   0.852  1.00  0.00     0.170 HD
HETATM    4  C9  UNL     1       3.116   0.183   0.059  1.00  0.00     0.125 A 
HETATM    5  N2  UNL     1       3.978   0.615   1.042  1.00  0.00    -0.345 N 
ATOM      6  H2  UNL     1       3.595   1.044   1.885  1.00  0.00     0.167 HD
HETATM    7  C10 UNL     1       5.280   0.490   0.924  1.00  0.00     0.007 A 
HETATM    8  C11 UNL     1       6.182   0.979   2.027  1.00  0.00     0.068 C 
HETATM    9  C12 UNL     1       5.947  -0.075  -0.170  1.00  0.00     0.033 A 
HETATM   10  C13 UNL     1       5.097  -0.512  -1.162  1.00  0.00    -0.039 A 
HETATM   11  C14 UNL     1       5.605  -1.136  -2.394  1.00  0.00     0.050 C 
HETATM   12  C15 UNL     1       3.727  -0.377  -1.030  1.00  0.00     0.059 A 
HETATM   13  S1  UNL     1       2.355  -0.778  -2.003  1.00  0.00    -0.042 SA
ENDROOT
BRANCH   1  14
HETATM   14  O1  UNL     1      -0.258  -0.197  -1.085  1.00  0.00    -0.296 OA
BRANCH  14  15
HETATM   15  C7  UNL     1      -1.048   0.343  -0.055  1.00  0.00     0.331 C 
HETATM   16  C6  UNL     1      -2.032  -0.705   0.429  1.00  0.00     0.078 C 
HETATM   17  C4  UNL     1      -3.371  -0.066   0.138  1.00  0.00     0.016 C 
HETATM   18  C5  UNL     1      -3.714  -0.240  -1.302  1.00  0.00     0.023 C 
HETATM   19  C16 UNL     1      -3.009   1.408   0.360  1.00  0.00     0.271 C 
HETATM   20  N3  UNL     1      -1.823   1.489  -0.491  1.00  0.00    -0.034 N 
HETATM   21 BR1  UNL     1      -4.391   2.593  -0.189  1.00  0.00    -0.059 Br
ATOM     22  H32 UNL     1      -1.329   2.381  -0.455  1.00  0.00     0.281 HD
ATOM     23  H31 UNL     1      -2.014   1.522  -1.492  1.00  0.00     0.281 HD
BRANCH  17  24
HETATM   24  C3  UNL     1      -4.426  -0.512   1.062  1.00  0.00    -0.019 C 
HETATM   25  C2  UNL     1      -5.707  -0.263   0.822  1.00  0.00    -0.034 C 
HETATM   26  C1  UNL     1      -6.795  -0.690   1.718  1.00  0.00     0.036 C 
ENDBRANCH  17  24
ENDBRANCH  14  15
ENDBRANCH   1  14
TORSDOF 3
