REMARK  3 active torsions:
REMARK  status: ('A' for Active; 'I' for Inactive)
REMARK    1  A    between atoms: O1_2  and  C2_3 
REMARK    2  A    between atoms: C5_7  and  C6_8 
REMARK    3  A    between atoms: C18_26  and  O4_27 
ROOT
HETATM    1  C6  UNL     1      -0.133  -1.212   0.544  1.00  0.00     0.066 C 
HETATM    2  C7  UNL     1      -0.120  -2.569  -0.116  1.00  0.00     0.177 C 
HETATM    3  C8  UNL     1       0.295  -2.647  -1.497  1.00  0.00     0.073 C 
HETATM    4  N1  UNL     1       0.651  -2.744  -2.623  1.00  0.00    -0.196 NA
HETATM    5  C9  UNL     1       1.015  -3.292   0.610  1.00  0.00     0.136 C 
HETATM    6  N2  UNL     1       0.886  -4.481   0.941  1.00  0.00    -0.382 N 
ATOM      7  H21 UNL     1       1.643  -4.963   1.425  1.00  0.00     0.158 HD
ATOM      8  H22 UNL     1       0.050  -5.036   0.757  1.00  0.00     0.158 HD
HETATM    9  O2  UNL     1       2.145  -2.541   0.859  1.00  0.00    -0.301 OA
HETATM   10  C10 UNL     1       2.247  -1.196   0.454  1.00  0.00     0.064 C 
HETATM   11  C11 UNL     1       3.387  -0.586   0.568  1.00  0.00     0.016 C 
HETATM   12  C12 UNL     1       3.638   0.841   0.179  1.00  0.00    -0.021 C 
HETATM   13  C13 UNL     1       4.925   0.969  -0.596  1.00  0.00     0.019 C 
HETATM   14  C14 UNL     1       3.780   1.649   1.466  1.00  0.00     0.019 C 
HETATM   15  C15 UNL     1       2.521   1.380  -0.671  1.00  0.00     0.092 C 
HETATM   16  C16 UNL     1       1.226   0.904  -0.008  1.00  0.00     0.139 C 
HETATM   17  O3  UNL     1       0.591   1.787   0.478  1.00  0.00    -0.297 OA
HETATM   18  C17 UNL     1       1.032  -0.510  -0.102  1.00  0.00     0.122 C 
ENDROOT
BRANCH   1  19
HETATM   19  C5  UNL     1      -1.367  -0.467   0.619  1.00  0.00     0.004 A 
HETATM   20  C4  UNL     1      -1.650   0.270   1.805  1.00  0.00     0.046 A 
HETATM   21  C3  UNL     1      -2.713   1.113   1.918  1.00  0.00     0.061 A 
HETATM   22 CL1  UNL     1      -0.606  -0.010   3.213  1.00  0.00    -0.084 Cl
HETATM   23  C2  UNL     1      -3.591   1.308   0.876  1.00  0.00     0.072 A 
HETATM   24  C20 UNL     1      -3.334   0.603  -0.271  1.00  0.00     0.074 A 
HETATM   25  C18 UNL     1      -2.244  -0.271  -0.408  1.00  0.00     0.079 A 
BRANCH  23  26
HETATM   26  O1  UNL     1      -4.667   2.173   0.994  1.00  0.00    -0.356 OA
HETATM   27  C1  UNL     1      -5.599   2.419  -0.017  1.00  0.00     0.210 C 
ENDBRANCH  23  26
BRANCH  25  28
HETATM   28  O4  UNL     1      -2.071  -0.928  -1.599  1.00  0.00    -0.355 OA
HETATM   29  C19 UNL     1      -2.984  -0.684  -2.651  1.00  0.00     0.210 C 
ENDBRANCH  25  28
ENDBRANCH   1  19
TORSDOF 3
