REMARK  5 active torsions:
REMARK  status: ('A' for Active; 'I' for Inactive)
REMARK    1  A    between atoms: C3_3  and  O1_4 
REMARK    2  A    between atoms: C8_11  and  C9_12 
REMARK    3  A    between atoms: C15_19  and  O2_20 
REMARK    4  A    between atoms: O2_20  and  C16_21 
REMARK    5  A    between atoms: C16_21  and  C17_23 
ROOT
HETATM    1  C1  UNL     1       0.726  -1.759  -1.159  1.00  0.00     0.019 C 
HETATM    2  C2  UNL     1       0.468  -1.380   0.090  1.00  0.00    -0.030 C 
HETATM    3  C3  UNL     1      -0.250  -2.363   0.951  1.00  0.00     0.150 C 
HETATM    4  C4  UNL     1      -1.504  -2.887   0.354  1.00  0.00     0.056 C 
HETATM    5  C5  UNL     1      -2.369  -1.907  -0.359  1.00  0.00     0.085 C 
HETATM    6 CL1  UNL     1      -3.292  -2.871  -1.579  1.00  0.00    -0.125 Cl
HETATM    7  C6  UNL     1      -3.396  -1.308   0.577  1.00  0.00     0.025 C 
HETATM    8  C7  UNL     1      -4.107  -0.147   0.039  1.00  0.00     0.040 C 
HETATM    9  C8  UNL     1      -3.575   1.217   0.181  1.00  0.00    -0.062 C 
HETATM   10  C12 UNL     1      -2.465   1.671   0.651  1.00  0.00    -0.018 C 
HETATM   11  C13 UNL     1      -1.267   1.059   1.239  1.00  0.00     0.051 C 
HETATM   12  C14 UNL     1      -0.078   1.055   0.254  1.00  0.00     0.119 C 
HETATM   13 CL2  UNL     1       0.741   2.626   0.250  1.00  0.00    -0.122 Cl
HETATM   14  C15 UNL     1       0.886  -0.042   0.593  1.00  0.00     0.181 C 
ENDROOT
BRANCH  14  15
HETATM   15  O2  UNL     1       2.145   0.303  -0.004  1.00  0.00    -0.310 OA
BRANCH  15  16
HETATM   16  C16 UNL     1       3.271   0.526   0.775  1.00  0.00     0.263 C 
HETATM   17  O3  UNL     1       3.199   0.428   2.002  1.00  0.00    -0.265 OA
BRANCH  16  18
HETATM   18  C17 UNL     1       4.557   0.880   0.136  1.00  0.00     0.085 C 
HETATM   19  C18 UNL     1       5.610   1.066   1.203  1.00  0.00     0.014 C 
HETATM   20  C19 UNL     1       6.895   0.692   0.501  1.00  0.00     0.001 C 
HETATM   21  C20 UNL     1       6.467  -0.559  -0.257  1.00  0.00     0.001 C 
HETATM   22  C21 UNL     1       5.080  -0.224  -0.760  1.00  0.00     0.014 C 
ENDBRANCH  16  18
ENDBRANCH  15  16
ENDBRANCH  14  15
BRANCH   3  23
HETATM   23  O1  UNL     1       0.646  -3.459   1.054  1.00  0.00    -0.391 OA
ATOM     24  H1  UNL     1       0.189  -4.085   1.603  1.00  0.00     0.210 HD
ENDBRANCH   3  23
BRANCH   9  25
HETATM   25  C9  UNL     1      -4.565   2.225  -0.341  1.00  0.00     0.002 C 
HETATM   26  C10 UNL     1      -5.724   1.893  -0.843  1.00  0.00    -0.030 C 
HETATM   27  C11 UNL     1      -6.604   3.012  -1.323  1.00  0.00     0.036 C 
ENDBRANCH   9  25
TORSDOF 5
