REMARK  5 active torsions:
REMARK  status: ('A' for Active; 'I' for Inactive)
REMARK       I    between atoms: C1_2  and  N1_3 
REMARK       I    between atoms: C1_2  and  N2_13 
REMARK    1  A    between atoms: N1_3  and  C2_5 
REMARK    2  A    between atoms: C2_5  and  C3_6 
REMARK    3  A    between atoms: C3_6  and  C4_7 
REMARK    4  A    between atoms: C4_7  and  C5_8 
REMARK    5  A    between atoms: C13_17  and  C14_18 
REMARK       I    between atoms: C14_18  and  N3_20 
ROOT
HETATM    1  O1  UNL     1      -0.349  -0.908   0.602  1.00  0.00    -0.247 OA
HETATM    2  C1  UNL     1      -0.226   0.215   0.003  1.00  0.00     0.318 C 
HETATM    3  N1  UNL     1      -1.414   0.924  -0.294  1.00  0.00    -0.343 N 
ATOM      4  H1  UNL     1      -1.333   1.825  -0.765  1.00  0.00     0.164 HD
HETATM    5  N2  UNL     1       1.053   0.709  -0.340  1.00  0.00    -0.333 N 
HETATM    6  C10 UNL     1       1.243   1.969  -1.017  1.00  0.00     0.127 C 
HETATM    7  C11 UNL     1       2.736   2.183  -1.227  1.00  0.00     0.021 C 
HETATM    8  C12 UNL     1       3.502   2.078   0.050  1.00  0.00     0.017 C 
HETATM    9  C13 UNL     1       3.087   0.882   0.847  1.00  0.00     0.096 C 
HETATM   10  C19 UNL     1       2.247  -0.033  -0.027  1.00  0.00     0.141 C 
ENDROOT
BRANCH   3  11
HETATM   11  C2  UNL     1      -2.734   0.441   0.033  1.00  0.00     0.124 C 
BRANCH  11  12
HETATM   12  C3  UNL     1      -3.089  -0.814  -0.660  1.00  0.00     0.020 C 
BRANCH  12  13
HETATM   13  C4  UNL     1      -4.396  -1.443  -0.393  1.00  0.00     0.006 C 
BRANCH  13  14
HETATM   14  C5  UNL     1      -5.646  -0.707  -0.696  1.00  0.00    -0.014 C 
HETATM   15  C6  UNL     1      -5.903   0.564   0.016  1.00  0.00     0.004 C 
HETATM   16  C7  UNL     1      -7.376   0.572   0.405  1.00  0.00     0.000 C 
HETATM   17  C8  UNL     1      -7.566  -0.888   0.789  1.00  0.00     0.000 C 
HETATM   18  C9  UNL     1      -6.854  -1.570  -0.349  1.00  0.00     0.004 C 
ENDBRANCH  13  14
ENDBRANCH  12  13
ENDBRANCH  11  12
ENDBRANCH   3  11
BRANCH   9  19
HETATM   19  C14 UNL     1       4.163   0.179   1.540  1.00  0.00     0.225 C 
HETATM   20  O2  UNL     1       4.132   0.182   2.822  1.00  0.00    -0.273 OA
HETATM   21  N3  UNL     1       5.232  -0.503   0.950  1.00  0.00    -0.352 N 
HETATM   22  C15 UNL     1       5.495  -0.657  -0.457  1.00  0.00     0.126 C 
HETATM   23  C18 UNL     1       6.295  -1.208   1.684  1.00  0.00     0.126 C 
HETATM   24  C16 UNL     1       7.026  -0.599  -0.499  1.00  0.00     0.021 C 
HETATM   25  C17 UNL     1       7.354  -1.495   0.675  1.00  0.00     0.021 C 
ENDBRANCH   9  19
TORSDOF 5
