REMARK  6 active torsions:
REMARK  status: ('A' for Active; 'I' for Inactive)
REMARK    1  A    between atoms: O1_2  and  C2_3 
REMARK    2  A    between atoms: C4_5  and  C5_6 
REMARK    3  A    between atoms: N1_14  and  C13_15 
REMARK    4  A    between atoms: C13_15  and  C14_16 
REMARK    5  A    between atoms: C14_16  and  N2_17 
REMARK       I    between atoms: N2_17  and  C15_19 
REMARK    6  A    between atoms: C15_19  and  C16_21 
ROOT
HETATM    1  C2  UNL     1      -1.481  -2.562   0.783  1.00  0.00     0.147 C 
HETATM    2  C3  UNL     1      -2.389  -1.856  -0.197  1.00  0.00     0.045 C 
HETATM    3  C4  UNL     1      -1.810  -0.606  -0.752  1.00  0.00    -0.009 C 
HETATM    4  C11 UNL     1      -1.240  -0.936  -2.118  1.00  0.00     0.039 C 
HETATM    5  C12 UNL     1       0.056  -1.600  -1.763  1.00  0.00     0.238 C 
HETATM    6  N1  UNL     1       0.320  -1.347  -0.364  1.00  0.00    -0.062 N 
HETATM    7  C19 UNL     1      -0.034  -2.511   0.382  1.00  0.00     0.269 C 
HETATM    8  C20 UNL     1      -0.578  -0.262   0.028  1.00  0.00     0.247 C 
ENDROOT
BRANCH   6   9
HETATM    9  C13 UNL     1       1.707  -0.964  -0.244  1.00  0.00     0.257 C 
BRANCH   9  10
HETATM   10  C14 UNL     1       2.043  -0.341   1.066  1.00  0.00     0.150 C 
BRANCH  10  11
HETATM   11  N2  UNL     1       3.428   0.012   1.130  1.00  0.00    -0.359 N 
HETATM   12  C15 UNL     1       4.093   0.923   0.272  1.00  0.00     0.221 C 
HETATM   13  O2  UNL     1       3.514   1.533  -0.662  1.00  0.00    -0.273 OA
ATOM     14  H2  UNL     1       3.987  -0.432   1.859  1.00  0.00     0.162 HD
BRANCH  12  15
HETATM   15  C16 UNL     1       5.542   1.195   0.452  1.00  0.00     0.070 C 
HETATM   16  C17 UNL     1       5.836   1.762   1.825  1.00  0.00     0.019 C 
HETATM   17  C18 UNL     1       6.054   2.160  -0.581  1.00  0.00     0.019 C 
ENDBRANCH  12  15
ENDBRANCH  10  11
ENDBRANCH   9  10
ENDBRANCH   6   9
BRANCH   1  18
HETATM   18  O1  UNL     1      -1.903  -3.890   0.849  1.00  0.00    -0.389 OA
HETATM   19  C1  UNL     1      -2.332  -4.228   2.129  1.00  0.00     0.202 C 
ENDBRANCH   1  18
BRANCH   3  20
HETATM   20  C5  UNL     1      -2.778   0.516  -0.923  1.00  0.00    -0.004 C 
HETATM   21  C6  UNL     1      -3.440   0.959   0.373  1.00  0.00     0.005 C 
HETATM   22  C7  UNL     1      -4.589   1.864  -0.039  1.00  0.00     0.000 C 
HETATM   23  C8  UNL     1      -4.068   3.120  -0.650  1.00  0.00     0.000 C 
HETATM   24  C9  UNL     1      -2.583   3.009  -0.818  1.00  0.00     0.000 C 
HETATM   25  C10 UNL     1      -2.209   1.736  -1.559  1.00  0.00     0.005 C 
ENDBRANCH   3  20
TORSDOF 6
