REMARK  2 active torsions:
REMARK  status: ('A' for Active; 'I' for Inactive)
REMARK       I    between atoms: N2_7  and  C6_8 
REMARK       I    between atoms: C6_8  and  N3_10 
REMARK    1  A    between atoms: N3_10  and  C7_12 
REMARK    2  A    between atoms: C12_17  and  N4_18 
ROOT
HETATM    1  N1  UNL     1       5.979  -0.083  -2.171  1.00  0.00    -0.195 NA
HETATM    2  C1  UNL     1       5.307  -0.114  -1.236  1.00  0.00     0.085 C 
HETATM    3  C2  UNL     1       4.451  -0.148  -0.077  1.00  0.00     0.196 C 
HETATM    4  C3  UNL     1       4.826   0.951   0.925  1.00  0.00     0.042 C 
HETATM    5  C4  UNL     1       4.211   2.170   0.269  1.00  0.00     0.023 C 
HETATM    6  C5  UNL     1       3.130   1.640  -0.662  1.00  0.00     0.129 C 
HETATM    7  N2  UNL     1       3.076   0.208  -0.357  1.00  0.00    -0.317 N 
HETATM    8  C6  UNL     1       1.986  -0.660  -0.328  1.00  0.00     0.319 C 
HETATM    9  O1  UNL     1       2.168  -1.867  -0.036  1.00  0.00    -0.247 OA
HETATM   10  N3  UNL     1       0.639  -0.275  -0.610  1.00  0.00    -0.336 N 
ATOM     11  H3  UNL     1       0.462   0.701  -0.849  1.00  0.00     0.164 HD
ENDROOT
BRANCH  10  12
HETATM   12  C7  UNL     1      -0.469  -1.163  -0.579  1.00  0.00     0.119 C 
HETATM   13  C8  UNL     1      -1.047  -1.317  -1.965  1.00  0.00     0.027 C 
HETATM   14  C9  UNL     1      -1.969  -2.547  -1.930  1.00  0.00     0.002 C 
HETATM   15  C10 UNL     1      -3.088  -2.174  -0.981  1.00  0.00     0.002 C 
HETATM   16  C11 UNL     1      -2.457  -2.114   0.418  1.00  0.00     0.038 C 
HETATM   17  C12 UNL     1      -1.499  -0.933   0.468  1.00  0.00     0.245 C 
BRANCH  17  18
HETATM   18  N4  UNL     1      -2.281   0.250   0.374  1.00  0.00     0.095 N 
HETATM   19  C13 UNL     1      -3.293   0.155   1.437  1.00  0.00     0.273 C 
HETATM   20  C14 UNL     1      -3.565   1.533   1.931  1.00  0.00     0.032 C 
HETATM   21  C15 UNL     1      -2.511   2.414   1.361  1.00  0.00     0.032 C 
HETATM   22  C16 UNL     1      -1.605   1.488   0.574  1.00  0.00     0.273 C 
ENDBRANCH  17  18
ENDBRANCH  10  12
TORSDOF 2
