REMARK  8 active torsions:
REMARK  status: ('A' for Active; 'I' for Inactive)
REMARK    1  A    between atoms: O1_2  and  C2_3 
REMARK    2  A    between atoms: C4_6  and  O3_7 
REMARK    3  A    between atoms: O3_7  and  C5_8 
REMARK    4  A    between atoms: C5_8  and  C6_9 
REMARK    5  A    between atoms: C6_9  and  O4_10 
REMARK    6  A    between atoms: C9_15  and  O6_16 
REMARK    7  A    between atoms: C10_19  and  O8_20 
REMARK    8  A    between atoms: C11_22  and  O9_23 
ROOT
HETATM    1  C6  UNL     1      -0.679  -0.170  -1.534  1.00  0.00     0.087 C 
HETATM    2  C7  UNL     1      -0.485   1.281  -1.341  1.00  0.00     0.124 C 
HETATM    3  C8  UNL     1      -1.835   1.903  -0.912  1.00  0.00     0.192 C 
HETATM    4  O5  UNL     1      -2.349   2.781  -1.554  1.00  0.00    -0.292 OA
HETATM    5  C9  UNL     1      -2.326   1.278   0.313  1.00  0.00     0.238 C 
HETATM    6  O7  UNL     1      -3.551   1.683   0.779  1.00  0.00    -0.313 OA
HETATM    7  C10 UNL     1      -3.805   0.750   1.808  1.00  0.00     0.311 C 
HETATM    8  C11 UNL     1      -3.178  -0.573   1.347  1.00  0.00     0.209 C 
HETATM    9  C12 UNL     1      -4.165  -1.613   1.195  1.00  0.00     0.104 C 
HETATM   10  N1  UNL     1      -4.970  -2.447   1.063  1.00  0.00    -0.194 NA
HETATM   11  C13 UNL     1      -2.641  -0.173  -0.003  1.00  0.00     0.072 C 
HETATM   12  C14 UNL     1      -3.715  -0.280  -1.031  1.00  0.00     0.026 C 
HETATM   13  C15 UNL     1      -1.348  -0.853  -0.368  1.00  0.00     0.059 C 
ENDROOT
BRANCH   8  14
HETATM   14  O9  UNL     1      -2.112  -0.933   2.153  1.00  0.00    -0.370 OA
ATOM     15  H9  UNL     1      -1.724  -1.752   1.868  1.00  0.00     0.212 HD
ENDBRANCH   8  14
BRANCH   7  16
HETATM   16  O8  UNL     1      -5.163   0.520   1.951  1.00  0.00    -0.367 OA
ATOM     17  H8  UNL     1      -5.334  -0.108   2.643  1.00  0.00     0.212 HD
ENDBRANCH   7  16
BRANCH   5  18
HETATM   18  O6  UNL     1      -1.399   1.348   1.353  1.00  0.00    -0.359 OA
ATOM     19  H6  UNL     1      -1.718   0.941   2.150  1.00  0.00     0.213 HD
ENDBRANCH   5  18
BRANCH   1  20
HETATM   20  C5  UNL     1       0.494  -0.944  -1.986  1.00  0.00     0.208 C 
BRANCH  20  21
HETATM   21  O3  UNL     1       1.593  -1.098  -1.255  1.00  0.00    -0.362 OA
BRANCH  21  22
HETATM   22  C4  UNL     1       2.422  -0.074  -0.942  1.00  0.00     0.265 C 
HETATM   23  C3  UNL     1       2.621   0.022   0.560  1.00  0.00     0.224 C 
HETATM   24  O2  UNL     1       3.507  -0.923   1.043  1.00  0.00    -0.334 OA
HETATM   25  C2  UNL     1       4.684  -0.964   0.315  1.00  0.00     0.434 C 
HETATM   26  O10 UNL     1       4.331  -1.412  -0.977  1.00  0.00    -0.225 OA
HETATM   27  N2  UNL     1       3.718  -0.394  -1.581  1.00  0.00    -0.061 NA
BRANCH  25  28
HETATM   28  O1  UNL     1       5.303   0.274   0.250  1.00  0.00    -0.343 OA
HETATM   29  C1  UNL     1       6.594   0.214   0.729  1.00  0.00     0.207 C 
ENDBRANCH  25  28
ENDBRANCH  21  22
ENDBRANCH  20  21
ENDBRANCH   1  20
BRANCH   1  30
HETATM   30  O4  UNL     1      -1.667  -0.259  -2.589  1.00  0.00    -0.387 OA
ATOM     31  H4  UNL     1      -2.422   0.239  -2.298  1.00  0.00     0.210 HD
ENDBRANCH   1  30
TORSDOF 8
