REMARK  5 active torsions:
REMARK  status: ('A' for Active; 'I' for Inactive)
REMARK    1  A    between atoms: O1_2  and  C2_3 
REMARK    2  A    between atoms: C6_7  and  O2_8 
REMARK    3  A    between atoms: C22_27  and  C23_28 
REMARK    4  A    between atoms: C23_28  and  S1_29 
REMARK    5  A    between atoms: C24_33  and  O7_34 
ROOT
HETATM    1  C2  UNL     1      -2.901  -1.869   0.278  1.00  0.00     0.151 C 
HETATM    2  C3  UNL     1      -1.455  -1.418   0.293  1.00  0.00     0.048 C 
HETATM    3  C4  UNL     1      -1.138  -0.383  -0.769  1.00  0.00     0.007 C 
HETATM    4  C5  UNL     1      -1.806  -0.788  -2.064  1.00  0.00     0.020 C 
HETATM    5  C6  UNL     1      -1.803   0.866  -0.212  1.00  0.00     0.133 C 
HETATM    6  C7  UNL     1      -0.872   1.286   0.867  1.00  0.00     0.162 C 
HETATM    7  O3  UNL     1      -1.376   2.032   1.728  1.00  0.00    -0.295 OA
HETATM    8  C8  UNL     1       0.529   0.963   1.075  1.00  0.00     0.088 C 
HETATM    9  C9  UNL     1       0.950  -0.372   0.446  1.00  0.00     0.013 C 
HETATM   10  C10 UNL     1       2.455  -0.556   0.510  1.00  0.00    -0.035 C 
HETATM   11  C11 UNL     1       2.691  -2.080   0.405  1.00  0.00     0.016 C 
HETATM   12  C12 UNL     1       2.958  -0.206   1.890  1.00  0.00     0.010 C 
HETATM   13  C13 UNL     1       3.468   1.144   2.125  1.00  0.00     0.001 C 
HETATM   14  C14 UNL     1       4.245   1.751   0.990  1.00  0.00     0.005 C 
HETATM   15  C15 UNL     1       4.471   0.829  -0.146  1.00  0.00    -0.014 C 
HETATM   16  C16 UNL     1       5.613  -0.113   0.028  1.00  0.00     0.010 C 
HETATM   17  C17 UNL     1       3.187   0.103  -0.593  1.00  0.00     0.000 C 
HETATM   18  C18 UNL     1       2.409   1.033  -1.443  1.00  0.00     0.044 C 
HETATM   19  C19 UNL     1       0.948   0.830  -1.612  1.00  0.00     0.179 C 
HETATM   20  F1  UNL     1       0.731   0.756  -3.002  1.00  0.00    -0.249 F 
HETATM   21  C20 UNL     1       0.344  -0.332  -0.915  1.00  0.00     0.002 C 
HETATM   22  C21 UNL     1       0.648  -1.519  -1.809  1.00  0.00     0.019 C 
HETATM   23  C22 UNL     1      -3.151   0.665   0.334  1.00  0.00     0.076 C 
HETATM   24  C24 UNL     1      -3.767  -0.689   0.415  1.00  0.00     0.155 C 
ENDROOT
BRANCH  23  25
HETATM   25  C23 UNL     1      -4.255   1.589  -0.110  1.00  0.00     0.176 C 
BRANCH  25  26
HETATM   26  S1  UNL     1      -4.163   3.272   0.246  1.00  0.00     0.102 S 
HETATM   27  O4  UNL     1      -5.424   3.907  -0.381  1.00  0.00    -0.595 OA
HETATM   28  O5  UNL     1      -4.378   3.567   1.738  1.00  0.00    -0.595 OA
HETATM   29  O6  UNL     1      -2.904   4.150  -0.356  1.00  0.00    -0.595 OA
ENDBRANCH  25  26
ENDBRANCH  23  25
BRANCH   5  30
HETATM   30  O2  UNL     1      -1.929   1.822  -1.223  1.00  0.00    -0.381 OA
ATOM     31  H2  UNL     1      -2.344   2.602  -0.875  1.00  0.00     0.211 HD
ENDBRANCH   5  30
BRANCH  24  32
HETATM   32  O7  UNL     1      -4.537  -0.815   1.592  1.00  0.00    -0.392 OA
ATOM     33  H7  UNL     1      -5.097  -0.052   1.681  1.00  0.00     0.210 HD
ENDBRANCH  24  32
BRANCH   1  34
HETATM   34  O1  UNL     1      -3.209  -2.719  -0.753  1.00  0.00    -0.388 OA
HETATM   35  C1  UNL     1      -3.477  -3.987  -0.262  1.00  0.00     0.202 C 
ENDBRANCH   1  34
TORSDOF 5
