REMARK  12 active torsions:
REMARK  status: ('A' for Active; 'I' for Inactive)
REMARK    1  A    between atoms: C2_2  and  C29_32 
REMARK    2  A    between atoms: C3_3  and  C4_4 
REMARK    3  A    between atoms: C5_5  and  C6_6 
REMARK    4  A    between atoms: C8_8  and  O1_9 
REMARK    5  A    between atoms: O1_9  and  C9_10 
REMARK    6  A    between atoms: C9_10  and  C10_12 
REMARK    7  A    between atoms: C29_32  and  N1_34 
REMARK    8  A    between atoms: N1_34  and  C31_36 
REMARK    9  A    between atoms: C31_36  and  C32_37 
REMARK   10  A    between atoms: C31_36  and  C35_42 
REMARK   11  A    between atoms: C32_37  and  C33_38 
REMARK   12  A    between atoms: C33_38  and  C34_39 
ROOT
HETATM    1  C6  UNL     1      -0.680  -1.006   0.859  1.00  0.00     0.015 C 
HETATM    2  C7  UNL     1      -0.979   0.340   1.382  1.00  0.00     0.042 C 
HETATM    3  C8  UNL     1      -2.311   0.615   1.978  1.00  0.00     0.140 C 
HETATM    4  C11 UNL     1      -3.427   1.091   1.132  1.00  0.00    -0.017 C 
HETATM    5  C12 UNL     1      -3.218   2.558   0.787  1.00  0.00     0.018 C 
HETATM    6  C13 UNL     1      -4.607   1.172   2.142  1.00  0.00     0.018 C 
HETATM    7  C14 UNL     1      -3.922   0.209   0.043  1.00  0.00     0.005 C 
HETATM    8  C15 UNL     1      -4.275  -1.106   0.759  1.00  0.00     0.007 C 
HETATM    9  C16 UNL     1      -3.319  -2.210   0.516  1.00  0.00     0.011 C 
HETATM   10  C17 UNL     1      -2.454  -2.055  -0.689  1.00  0.00    -0.032 C 
HETATM   11  C18 UNL     1      -2.266  -3.499  -1.207  1.00  0.00     0.016 C 
HETATM   12  C19 UNL     1      -1.148  -1.392  -0.505  1.00  0.00     0.002 C 
HETATM   13  C20 UNL     1      -0.867  -0.209  -1.406  1.00  0.00     0.007 C 
HETATM   14  C21 UNL     1      -2.044   0.661  -1.637  1.00  0.00     0.011 C 
HETATM   15  C22 UNL     1      -3.379   0.064  -1.297  1.00  0.00    -0.028 C 
HETATM   16  C23 UNL     1      -4.278   0.734  -2.365  1.00  0.00     0.011 C 
HETATM   17  C24 UNL     1      -5.662   0.228  -2.402  1.00  0.00     0.001 C 
HETATM   18  C25 UNL     1      -5.778  -1.243  -2.447  1.00  0.00     0.001 C 
HETATM   19  C26 UNL     1      -4.633  -2.051  -1.978  1.00  0.00     0.011 C 
HETATM   20  C27 UNL     1      -3.326  -1.396  -1.784  1.00  0.00    -0.028 C 
HETATM   21  C28 UNL     1      -2.565  -1.588  -3.065  1.00  0.00     0.016 C 
ENDROOT
BRANCH   1  22
HETATM   22  C5  UNL     1       0.828  -1.094   0.823  1.00  0.00    -0.022 C 
HETATM   23  C4  UNL     1       1.652  -0.114   1.037  1.00  0.00    -0.003 C 
BRANCH  23  24
HETATM   24  C3  UNL     1       3.094  -0.274   0.987  1.00  0.00     0.004 C 
HETATM   25  C2  UNL     1       3.934   0.708   1.202  1.00  0.00    -0.062 C 
HETATM   26  C1  UNL     1       3.439   2.074   1.519  1.00  0.00     0.045 C 
BRANCH  25  27
HETATM   27  C29 UNL     1       5.389   0.478   1.160  1.00  0.00     0.102 C 
HETATM   28  C30 UNL     1       5.966   0.638   2.556  1.00  0.00     0.037 C 
BRANCH  27  29
HETATM   29  N1  UNL     1       5.824  -0.696   0.490  1.00  0.00    -0.401 N 
ATOM     30  H1  UNL     1       6.288  -1.453   0.991  1.00  0.00     0.154 HD
BRANCH  29  31
HETATM   31  C31 UNL     1       5.584  -0.770  -0.911  1.00  0.00     0.179 C 
BRANCH  31  32
HETATM   32  C32 UNL     1       6.327   0.310  -1.685  1.00  0.00     0.046 C 
BRANCH  32  33
HETATM   33  C33 UNL     1       7.806   0.219  -1.499  1.00  0.00     0.116 C 
BRANCH  33  34
HETATM   34  C34 UNL     1       8.492   1.285  -2.266  1.00  0.00     0.172 C 
HETATM   35  O3  UNL     1       7.870   2.117  -2.956  1.00  0.00    -0.648 OA
HETATM   36  O4  UNL     1       9.873   1.350  -2.207  1.00  0.00    -0.648 OA
ENDBRANCH  33  34
ENDBRANCH  32  33
ENDBRANCH  31  32
BRANCH  31  37
HETATM   37  C35 UNL     1       6.037  -2.073  -1.457  1.00  0.00     0.196 C 
HETATM   38  O5  UNL     1       6.554  -2.943  -0.722  1.00  0.00    -0.646 OA
HETATM   39  O6  UNL     1       5.887  -2.336  -2.803  1.00  0.00    -0.646 OA
ENDBRANCH  31  37
ENDBRANCH  29  31
ENDBRANCH  27  29
ENDBRANCH  25  27
ENDBRANCH  23  24
ENDBRANCH   1  22
BRANCH   3  40
HETATM   40  O1  UNL     1      -2.091   1.733   2.872  1.00  0.00    -0.314 OA
BRANCH  40  41
HETATM   41  C9  UNL     1      -2.075   1.616   4.247  1.00  0.00     0.273 C 
HETATM   42  O2  UNL     1      -2.251   0.490   4.771  1.00  0.00    -0.264 OA
BRANCH  41  43
HETATM   43  C10 UNL     1      -1.852   2.792   5.134  1.00  0.00     0.225 C 
HETATM   44 CL1  UNL     1      -1.903   2.234   6.817  1.00  0.00    -0.120 Cl
ENDBRANCH  41  43
ENDBRANCH  40  41
ENDBRANCH   3  40
TORSDOF 12
