REMARK  3 active torsions:
REMARK  status: ('A' for Active; 'I' for Inactive)
REMARK    1  A    between atoms: C9_12  and  N2_13 
REMARK    2  A    between atoms: C12_20  and  C13_21 
REMARK    3  A    between atoms: C13_21  and  C14_22 
ROOT
HETATM    1  C1  UNL     1       2.829  -2.619  -1.084  1.00  0.00     0.077 C 
HETATM    2  C2  UNL     1       1.456  -2.086  -0.799  1.00  0.00     0.058 A 
HETATM    3  O1  UNL     1       0.331  -2.694  -1.193  1.00  0.00    -0.312 OA
HETATM    4  C3  UNL     1      -0.715  -2.014  -0.805  1.00  0.00     0.105 A 
HETATM    5  C4  UNL     1      -2.091  -1.966  -0.807  1.00  0.00     0.070 A 
HETATM    6  C5  UNL     1      -2.492  -0.816  -0.121  1.00  0.00     0.045 A 
HETATM    7  C6  UNL     1      -3.859  -0.404   0.097  1.00  0.00    -0.004 A 
HETATM    8  C7  UNL     1      -4.893  -1.161  -0.385  1.00  0.00     0.031 A 
HETATM    9  C8  UNL     1      -6.223  -0.764  -0.176  1.00  0.00     0.090 A 
HETATM   10  N1  UNL     1      -6.425   0.372   0.506  1.00  0.00    -0.353 N 
ATOM     11  H1  UNL     1      -7.391   0.662   0.659  1.00  0.00     0.166 HD
HETATM   12  C9  UNL     1      -5.455   1.159   1.004  1.00  0.00     0.099 A 
HETATM   13  C10 UNL     1      -4.143   0.745   0.785  1.00  0.00     0.061 A 
HETATM   14  N3  UNL     1      -1.350  -0.222   0.265  1.00  0.00    -0.353 N 
ATOM     15  H3  UNL     1      -1.314   0.649   0.794  1.00  0.00     0.166 HD
HETATM   16  C11 UNL     1      -0.265  -0.903  -0.123  1.00  0.00     0.075 A 
HETATM   17  C12 UNL     1       1.138  -0.950  -0.120  1.00  0.00     0.001 A 
ENDROOT
BRANCH  12  18
HETATM   18  N2  UNL     1      -5.738   2.243   1.652  1.00  0.00    -0.385 N 
ATOM     19  H22 UNL     1      -6.699   2.546   1.812  1.00  0.00     0.157 HD
ATOM     20  H21 UNL     1      -5.002   2.840   2.030  1.00  0.00     0.157 HD
ENDBRANCH  12  18
BRANCH  17  21
HETATM   21  C13 UNL     1       1.940   0.090   0.486  1.00  0.00     0.048 C 
BRANCH  21  22
HETATM   22  C14 UNL     1       2.441   1.204  -0.340  1.00  0.00    -0.004 C 
HETATM   23  C15 UNL     1       3.239   2.100   0.649  1.00  0.00     0.011 C 
HETATM   24  C16 UNL     1       4.557   1.402   0.680  1.00  0.00     0.079 C 
HETATM   25  C17 UNL     1       4.807   1.035  -0.759  1.00  0.00     0.244 C 
HETATM   26  F1  UNL     1       5.514  -0.142  -0.880  1.00  0.00    -0.206 F 
HETATM   27  F2  UNL     1       5.586   2.070  -1.290  1.00  0.00    -0.206 F 
HETATM   28  C18 UNL     1       3.436   0.977  -1.398  1.00  0.00     0.084 C 
ENDBRANCH  21  22
ENDBRANCH  17  21
TORSDOF 3
