REMARK  4 active torsions:
REMARK  status: ('A' for Active; 'I' for Inactive)
REMARK    1  A    between atoms: N1_1  and  C1_4 
REMARK    2  A    between atoms: C3_9  and  C4_10 
REMARK    3  A    between atoms: C9_15  and  N3_16 
REMARK    4  A    between atoms: N3_16  and  C10_18 
ROOT
HETATM    1  C4  UNL     1       1.305  -0.979   0.511  1.00  0.00     0.044 C 
HETATM    2  C5  UNL     1       2.225  -2.142   0.046  1.00  0.00     0.011 C 
HETATM    3  C6  UNL     1       1.790  -2.866  -1.143  1.00  0.00     0.001 C 
HETATM    4  C7  UNL     1       0.326  -3.228  -1.157  1.00  0.00     0.002 C 
HETATM    5  C8  UNL     1      -0.495  -2.155  -0.480  1.00  0.00     0.026 C 
HETATM    6  C9  UNL     1       0.278  -0.833  -0.614  1.00  0.00     0.089 C 
ENDROOT
BRANCH   1   7
HETATM    7  C3  UNL     1       2.265   0.162   0.482  1.00  0.00    -0.010 A 
HETATM    8  C2  UNL     1       2.521   0.887   1.620  1.00  0.00     0.112 A 
HETATM    9  N2  UNL     1       3.331   1.979   1.618  1.00  0.00    -0.330 N 
HETATM   10 CL1  UNL     1       1.831   0.378   3.183  1.00  0.00    -0.064 Cl
HETATM   11  C1  UNL     1       3.916   2.368   0.452  1.00  0.00     0.139 A 
ATOM     12  H2  UNL     1       3.498   2.500   2.479  1.00  0.00     0.168 HD
HETATM   13  C17 UNL     1       3.662   1.656  -0.682  1.00  0.00     0.160 A 
HETATM   14  C16 UNL     1       2.846   0.556  -0.709  1.00  0.00     0.057 A 
HETATM   15  F1  UNL     1       4.237   2.082  -1.857  1.00  0.00    -0.202 F 
BRANCH  11  16
HETATM   16  N1  UNL     1       4.716   3.371   0.449  1.00  0.00    -0.383 N 
ATOM     17  H12 UNL     1       4.906   3.904   1.298  1.00  0.00     0.157 HD
ATOM     18  H11 UNL     1       5.154   3.662  -0.425  1.00  0.00     0.157 HD
ENDBRANCH  11  16
ENDBRANCH   1   7
BRANCH   6  19
HETATM   19  N3  UNL     1      -0.473   0.260  -0.659  1.00  0.00    -0.391 N 
ATOM     20  H3  UNL     1      -0.020   1.012  -1.178  1.00  0.00     0.159 HD
BRANCH  19  21
HETATM   21  C10 UNL     1      -1.710   0.637  -0.182  1.00  0.00    -0.018 C 
HETATM   22  C11 UNL     1      -2.113   0.669   1.238  1.00  0.00     0.052 C 
HETATM   23  C12 UNL     1      -3.317   1.592   1.374  1.00  0.00     0.006 C 
HETATM   24  C13 UNL     1      -4.399   1.425   0.397  1.00  0.00     0.001 C 
HETATM   25  C14 UNL     1      -4.007   1.011  -0.985  1.00  0.00     0.006 C 
HETATM   26  C15 UNL     1      -2.886  -0.003  -0.930  1.00  0.00     0.052 C 
ENDBRANCH  19  21
ENDBRANCH   6  19
TORSDOF 4
