REMARK  15 active torsions:
REMARK  status: ('A' for Active; 'I' for Inactive)
REMARK    1  A    between atoms: C2_2  and  C3_3 
REMARK    2  A    between atoms: C3_3  and  C4_4 
REMARK    3  A    between atoms: C4_4  and  N1_5 
REMARK    4  A    between atoms: N2_10  and  C8_11 
REMARK    5  A    between atoms: C11_16  and  N3_17 
REMARK       I    between atoms: N3_17  and  C12_18 
REMARK    6  A    between atoms: N3_17  and  C13_21 
REMARK    7  A    between atoms: C14_22  and  O5_23 
REMARK    8  A    between atoms: C15_25  and  O6_26 
REMARK    9  A    between atoms: C15_25  and  N4_28 
REMARK   10  A    between atoms: N4_28  and  C16_31 
REMARK   11  A    between atoms: C16_31  and  C17_32 
REMARK   12  A    between atoms: C20_42  and  C21_43 
REMARK   13  A    between atoms: C24_50  and  C25_51 
REMARK   14  A    between atoms: C25_51  and  O8_52 
REMARK   15  A    between atoms: N10_54  and  N11_56 
ROOT
HETATM    1  N3  UNL     1      -0.347  -1.231  -0.751  1.00  0.00    -0.298 N 
HETATM    2  C12 UNL     1      -0.483  -0.857  -2.090  1.00  0.00     0.287 C 
HETATM    3  O3  UNL     1       0.542  -0.418  -2.764  1.00  0.00    -0.630 OA
HETATM    4  O4  UNL     1      -1.627  -0.899  -2.853  1.00  0.00    -0.630 OA
ENDROOT
BRANCH   1   5
HETATM    5  C11 UNL     1       1.042  -1.213  -0.220  1.00  0.00     0.190 C 
HETATM    6  S1  UNL     1       1.345   0.575   0.048  1.00  0.00    -0.081 SA
HETATM    7  C7  UNL     1       3.074   0.849  -0.204  1.00  0.00     0.110 A 
HETATM    8  C6  UNL     1       3.755  -0.003  -1.027  1.00  0.00     0.132 A 
HETATM    9  N2  UNL     1       3.697   1.879   0.366  1.00  0.00    -0.292 N 
HETATM   10  C5  UNL     1       5.110   0.256  -1.238  1.00  0.00     0.281 A 
HETATM   11  N12 UNL     1       3.098  -1.100  -1.618  1.00  0.00    -0.368 N 
HETATM   12  N1  UNL     1       5.749   1.293  -0.669  1.00  0.00    -0.264 N 
HETATM   13  O1  UNL     1       5.751  -0.534  -2.002  1.00  0.00    -0.265 OA
HETATM   14  C10 UNL     1       5.007   2.093   0.136  1.00  0.00     0.332 A 
HETATM   15  O2  UNL     1       5.572   3.071   0.686  1.00  0.00    -0.246 OA
HETATM   16  C24 UNL     1       2.054  -1.898  -1.006  1.00  0.00     0.192 C 
ATOM     17  H12 UNL     1       3.383  -1.356  -2.563  1.00  0.00     0.161 HD
BRANCH  12  18
HETATM   18  C4  UNL     1       7.150   1.566  -0.904  1.00  0.00     0.137 C 
BRANCH  18  19
HETATM   19  C3  UNL     1       8.090   0.920   0.053  1.00  0.00     0.020 C 
BRANCH  19  20
HETATM   20  C2  UNL     1       9.505   1.337  -0.365  1.00  0.00    -0.003 C 
HETATM   21  C1  UNL     1       9.770   0.857  -1.776  1.00  0.00     0.005 C 
ENDBRANCH  19  20
ENDBRANCH  18  19
ENDBRANCH  12  18
BRANCH  16  22
HETATM   22  C25 UNL     1       2.824  -2.821  -0.080  1.00  0.00     0.156 C 
HETATM   23  N10 UNL     1       2.952  -4.067  -0.272  1.00  0.00    -0.288 N 
ATOM     24  H10 UNL     1       2.528  -4.509  -1.088  1.00  0.00     0.188 HD
BRANCH  22  25
HETATM   25  O8  UNL     1       3.390  -2.191   1.020  1.00  0.00    -0.347 OA
ATOM     26  H8  UNL     1       3.872  -2.769   1.600  1.00  0.00     0.219 HD
ENDBRANCH  22  25
BRANCH  23  27
HETATM   27  N11 UNL     1       3.677  -4.826   0.641  1.00  0.00    -0.343 N 
ATOM     28 2H11 UNL     1       4.095  -4.369   1.451  1.00  0.00     0.176 HD
ATOM     29 1H11 UNL     1       3.780  -5.829   0.486  1.00  0.00     0.176 HD
ENDBRANCH  23  27
ENDBRANCH  16  22
BRANCH   9  30
HETATM   30  C8  UNL     1       2.941   2.772   1.261  1.00  0.00     0.130 C 
HETATM   31  C9  UNL     1       3.082   2.193   2.649  1.00  0.00     0.027 C 
ENDBRANCH   9  30
ENDBRANCH   1   5
BRANCH   1  32
HETATM   32  C13 UNL     1      -1.372  -1.467   0.193  1.00  0.00     0.191 A 
HETATM   33  C14 UNL     1      -1.943  -0.161   0.743  1.00  0.00     0.211 A 
HETATM   34  C15 UNL     1      -2.791  -1.332   0.255  1.00  0.00     0.277 A 
BRANCH  33  35
HETATM   35  O5  UNL     1      -1.822   1.002   0.073  1.00  0.00    -0.388 OA
ATOM     36  H5  UNL     1      -2.177   1.814   0.415  1.00  0.00     0.210 HD
ENDBRANCH  33  35
BRANCH  34  37
HETATM   37  O6  UNL     1      -3.408  -2.086   1.333  1.00  0.00    -0.361 OA
ATOM     38  H6  UNL     1      -4.353  -1.996   1.374  1.00  0.00     0.212 HD
ENDBRANCH  34  37
BRANCH  34  39
HETATM   39  N4  UNL     1      -3.781  -0.992  -0.701  1.00  0.00    -0.020 N 
ATOM     40  H42 UNL     1      -3.465  -0.230  -1.301  1.00  0.00     0.282 HD
ATOM     41  H41 UNL     1      -3.879  -1.725  -1.403  1.00  0.00     0.282 HD
BRANCH  39  42
HETATM   42  C16 UNL     1      -5.084  -0.673  -0.081  1.00  0.00     0.212 C 
HETATM   43  C18 UNL     1      -5.941  -0.229  -1.284  1.00  0.00     0.052 C 
HETATM   44  C19 UNL     1      -7.274   0.309  -0.795  1.00  0.00     0.044 C 
HETATM   45  C20 UNL     1      -7.030   1.428   0.201  1.00  0.00     0.254 C 
HETATM   46  N9  UNL     1      -6.298   0.859   1.333  1.00  0.00    -0.061 N 
HETATM   47  C23 UNL     1      -4.956   0.503   0.838  1.00  0.00     0.280 C 
ATOM     48  H92 UNL     1      -6.276   1.473   2.147  1.00  0.00     0.278 HD
ATOM     49  H91 UNL     1      -6.784   0.078   1.774  1.00  0.00     0.278 HD
BRANCH  42  50
HETATM   50  C17 UNL     1      -5.754  -1.810   0.518  1.00  0.00     0.148 A 
HETATM   51  N5  UNL     1      -6.346  -1.930   1.743  1.00  0.00    -0.273 N 
HETATM   52  N6  UNL     1      -6.854  -3.130   1.906  1.00  0.00    -0.225 N 
ATOM     53  H5  UNL     1      -6.388  -1.186   2.439  1.00  0.00     0.189 HD
HETATM   54  N7  UNL     1      -6.598  -3.808   0.787  1.00  0.00    -0.005 NA
ATOM     55  H6  UNL     1      -7.348  -3.476   2.729  1.00  0.00     0.205 HD
HETATM   56  N8  UNL     1      -5.936  -3.015  -0.047  1.00  0.00    -0.268 N 
ATOM     57  H8  UNL     1      -5.614  -3.281  -0.978  1.00  0.00     0.185 HD
ENDBRANCH  42  50
BRANCH  45  58
HETATM   58  C21 UNL     1      -8.313   1.968   0.661  1.00  0.00     0.153 C 
HETATM   59  C22 UNL     1      -9.311   2.596  -0.260  1.00  0.00     0.093 C 
HETATM   60  O7  UNL     1      -8.579   1.899   1.865  1.00  0.00    -0.296 OA
ENDBRANCH  45  58
ENDBRANCH  39  42
ENDBRANCH  34  39
ENDBRANCH   1  32
TORSDOF 15
