REMARK  4 active torsions:
REMARK  status: ('A' for Active; 'I' for Inactive)
REMARK       I    between atoms: C1_2  and  N1_3 
REMARK    1  A    between atoms: C1_2  and  C8_12 
REMARK    2  A    between atoms: N1_3  and  C2_5 
REMARK    3  A    between atoms: C2_5  and  C3_6 
REMARK    4  A    between atoms: N2_15  and  C11_16 
ROOT
HETATM    1  C8  UNL     1       0.921  -0.406  -1.380  1.00  0.00     0.081 C 
HETATM    2  C9  UNL     1      -0.057   0.749  -1.512  1.00  0.00     0.044 C 
HETATM    3  C10 UNL     1      -1.003   0.765  -0.328  1.00  0.00     0.273 C 
HETATM    4  N2  UNL     1      -1.723  -0.480  -0.148  1.00  0.00     0.093 N 
HETATM    5  C19 UNL     1      -1.307  -1.503  -1.052  1.00  0.00     0.273 C 
HETATM    6  C20 UNL     1       0.223  -1.615  -0.884  1.00  0.00     0.044 C 
ENDROOT
BRANCH   1   7
HETATM    7  C1  UNL     1       2.067   0.024  -0.487  1.00  0.00     0.225 C 
HETATM    8  O1  UNL     1       2.061  -0.516   0.639  1.00  0.00    -0.273 OA
HETATM    9  N1  UNL     1       3.035   0.940  -0.902  1.00  0.00    -0.338 N 
ATOM     10  H1  UNL     1       2.866   1.270  -1.852  1.00  0.00     0.167 HD
BRANCH   9  11
HETATM   11  C2  UNL     1       4.169   1.514  -0.347  1.00  0.00     0.095 C 
BRANCH  11  12
HETATM   12  C3  UNL     1       5.386   0.711  -0.063  1.00  0.00     0.159 C 
HETATM   13  C4  UNL     1       5.142  -0.535   0.704  1.00  0.00     0.037 C 
HETATM   14  C5  UNL     1       6.398  -1.365   0.979  1.00  0.00     0.005 C 
HETATM   15  C6  UNL     1       7.593  -0.505   0.731  1.00  0.00     0.026 C 
HETATM   16  C7  UNL     1       7.284   0.871   1.293  1.00  0.00     0.168 C 
HETATM   17  O2  UNL     1       6.384   1.542   0.495  1.00  0.00    -0.381 OA
ENDBRANCH  11  12
ENDBRANCH   9  11
ENDBRANCH   1   7
BRANCH   4  18
HETATM   18  C11 UNL     1      -3.117  -0.233  -0.084  1.00  0.00     0.223 C 
HETATM   19  C12 UNL     1      -4.014  -1.210  -0.761  1.00  0.00     0.036 C 
HETATM   20  C13 UNL     1      -5.216  -0.486  -1.343  1.00  0.00     0.002 C 
HETATM   21  C14 UNL     1      -6.350  -0.329  -0.380  1.00  0.00     0.000 C 
HETATM   22  C15 UNL     1      -6.328   1.010   0.348  1.00  0.00     0.000 C 
HETATM   23  C16 UNL     1      -5.735   0.792   1.727  1.00  0.00     0.000 C 
HETATM   24  C17 UNL     1      -4.258   1.174   1.614  1.00  0.00     0.002 C 
HETATM   25  C18 UNL     1      -3.505  -0.133   1.388  1.00  0.00     0.036 C 
ENDBRANCH   4  18
TORSDOF 4
