REMARK  2 active torsions:
REMARK  status: ('A' for Active; 'I' for Inactive)
REMARK    1  A    between atoms: N1_3  and  C3_4 
REMARK    2  A    between atoms: N2_9  and  C7_11 
ROOT
HETATM    1  C1  UNL     1       2.616   1.307  -1.182  1.00  0.00     0.137 C 
HETATM    2  C2  UNL     1       2.973  -0.176  -1.283  1.00  0.00     0.123 C 
HETATM    3  N1  UNL     1       3.680  -0.660  -0.124  1.00  0.00    -0.246 NA
HETATM    4  S1  UNL     1       2.580  -0.548   1.254  1.00  0.00    -0.005 SA
HETATM    5  C6  UNL     1       1.135   0.323   0.599  1.00  0.00     0.151 C 
HETATM    6  N2  UNL     1      -0.012   0.002   0.958  1.00  0.00    -0.365 N 
ATOM      7  H2  UNL     1      -0.032  -0.767   1.628  1.00  0.00     0.162 HD
HETATM    8  N3  UNL     1       1.418   1.358  -0.324  1.00  0.00    -0.369 N 
ATOM      9  H3  UNL     1       0.783   2.153  -0.397  1.00  0.00     0.161 HD
ENDROOT
BRANCH   6  10
HETATM   10  C7  UNL     1      -1.292   0.495   0.619  1.00  0.00     0.091 C 
HETATM   11  C8  UNL     1      -2.399  -0.228   1.392  1.00  0.00     0.009 C 
HETATM   12  C9  UNL     1      -3.631   0.631   1.301  1.00  0.00     0.011 C 
HETATM   13  C13 UNL     1      -2.641  -1.606   0.872  1.00  0.00     0.011 C 
HETATM   14  C10 UNL     1      -4.023   0.772  -0.144  1.00  0.00    -0.013 C 
HETATM   15  C11 UNL     1      -4.356  -0.607  -0.668  1.00  0.00     0.009 C 
HETATM   16  C16 UNL     1      -2.916   1.325  -1.000  1.00  0.00     0.011 C 
HETATM   17  C12 UNL     1      -3.141  -1.483  -0.551  1.00  0.00    -0.013 C 
HETATM   18  C14 UNL     1      -1.984  -0.922  -1.354  1.00  0.00     0.011 C 
HETATM   19  C15 UNL     1      -1.667   0.452  -0.822  1.00  0.00     0.009 C 
ENDBRANCH   6  10
BRANCH   3  20
HETATM   20  C3  UNL     1       4.956  -0.076   0.090  1.00  0.00     0.070 A 
HETATM   21  C4  UNL     1       5.647   0.027   1.370  1.00  0.00     0.022 A 
HETATM   22  C5  UNL     1       6.026  -1.130   0.504  1.00  0.00     0.022 A 
ENDBRANCH   3  20
TORSDOF 2
