REMARK  6 active torsions:
REMARK  status: ('A' for Active; 'I' for Inactive)
REMARK    1  A    between atoms: N1_2  and  C3_4 
REMARK    2  A    between atoms: C5_6  and  N2_7 
REMARK    3  A    between atoms: N2_7  and  C6_8 
REMARK    4  A    between atoms: N2_7  and  C17_21 
REMARK    5  A    between atoms: C6_8  and  C7_9 
REMARK    6  A    between atoms: C7_9  and  O1_10 
ROOT
HETATM    1  C6  UNL     1       0.152   0.092  -0.137  1.00  0.00     0.312 C 
ENDROOT
BRANCH   1   2
HETATM    2  N2  UNL     1       0.880  -0.975  -0.633  1.00  0.00     0.104 N 
BRANCH   2   3
HETATM    3  C5  UNL     1       2.310  -0.809  -0.264  1.00  0.00     0.228 C 
HETATM    4  C4  UNL     1       2.974   0.412  -0.883  1.00  0.00     0.071 C 
HETATM    5  C3  UNL     1       3.785   0.498   0.390  1.00  0.00     0.226 C 
HETATM    6  C21 UNL     1       2.625  -0.266   1.069  1.00  0.00     0.071 C 
BRANCH   5   7
HETATM    7  N1  UNL     1       4.012   1.795   0.940  1.00  0.00     0.084 N 
HETATM    8  C1  UNL     1       4.774   2.571  -0.026  1.00  0.00     0.309 C 
HETATM    9  C2  UNL     1       4.873   1.609   2.112  1.00  0.00     0.309 C 
ENDBRANCH   5   7
ENDBRANCH   2   3
BRANCH   2  10
HETATM   10  C17 UNL     1       0.575  -2.322  -0.335  1.00  0.00     0.149 C 
HETATM   11  C18 UNL     1       0.573  -2.665   1.163  1.00  0.00     0.048 C 
HETATM   12  C19 UNL     1       1.734  -3.258  -0.839  1.00  0.00     0.048 C 
HETATM   13  C20 UNL     1      -0.616  -2.955  -0.956  1.00  0.00     0.048 C 
ENDBRANCH   2  10
ENDBRANCH   1   2
BRANCH   1  14
HETATM   14  C7  UNL     1      -1.219   0.534  -0.471  1.00  0.00     0.088 C 
HETATM   15  C8  UNL     1      -1.304   0.856  -1.919  1.00  0.00     0.040 C 
HETATM   16  C9  UNL     1      -2.500   1.560  -2.415  1.00  0.00     0.004 C 
HETATM   17  C10 UNL     1      -3.565   1.849  -1.408  1.00  0.00     0.005 C 
HETATM   18  C11 UNL     1      -4.031   0.734  -0.583  1.00  0.00    -0.006 C 
HETATM   19  C12 UNL     1      -3.415  -0.606  -0.884  1.00  0.00     0.014 C 
HETATM   20  C14 UNL     1      -3.458   0.561   0.774  1.00  0.00    -0.038 C 
HETATM   21  C13 UNL     1      -2.327  -0.217   0.140  1.00  0.00     0.030 C 
HETATM   22  C15 UNL     1      -3.240   1.701   1.645  1.00  0.00     0.015 C 
HETATM   23  C16 UNL     1      -4.326  -0.483   1.531  1.00  0.00     0.015 C 
BRANCH  14  24
HETATM   24  O1  UNL     1      -1.272   1.859   0.181  1.00  0.00    -0.388 OA
ATOM     25  H1  UNL     1      -2.153   2.143  -0.034  1.00  0.00     0.210 HD
ENDBRANCH  14  24
ENDBRANCH   1  14
TORSDOF 6
