REMARK  6 active torsions:
REMARK  status: ('A' for Active; 'I' for Inactive)
REMARK    1  A    between atoms: C2_2  and  C4_4 
REMARK    2  A    between atoms: C5_5  and  O1_6 
REMARK    3  A    between atoms: O1_6  and  C6_7 
REMARK    4  A    between atoms: C16_18  and  O3_19 
REMARK    5  A    between atoms: C18_22  and  O4_23 
REMARK    6  A    between atoms: O4_23  and  C19_24 
ROOT
HETATM    1  C4  UNL     1      -2.554   0.335  -0.513  1.00  0.00     0.104 C 
HETATM    2  C5  UNL     1      -2.280  -0.930  -0.664  1.00  0.00     0.091 C 
HETATM    3  C8  UNL     1      -0.859  -1.356  -1.003  1.00  0.00     0.076 C 
HETATM    4  C9  UNL     1       0.020  -0.418  -0.195  1.00  0.00     0.036 C 
HETATM    5  C10 UNL     1       1.449  -0.855  -0.201  1.00  0.00     0.027 C 
HETATM    6  C11 UNL     1       1.557  -2.069   0.695  1.00  0.00     0.008 C 
HETATM    7  C12 UNL     1       2.963  -2.617   0.418  1.00  0.00     0.005 C 
HETATM    8  C13 UNL     1       3.918  -1.685   1.072  1.00  0.00    -0.016 C 
HETATM    9  C14 UNL     1       5.249  -1.817   0.318  1.00  0.00     0.010 C 
HETATM   10  C15 UNL     1       3.491  -0.276   1.173  1.00  0.00     0.042 C 
HETATM   11  C16 UNL     1       2.408   0.182   0.271  1.00  0.00     0.065 C 
HETATM   12  C17 UNL     1       1.580   1.266   0.941  1.00  0.00     0.074 C 
HETATM   13  C18 UNL     1       0.759   1.937  -0.148  1.00  0.00     0.169 C 
HETATM   14  C21 UNL     1      -0.189   0.950  -0.809  1.00  0.00     0.095 C 
HETATM   15  C22 UNL     1       0.062   0.882  -2.324  1.00  0.00     0.050 C 
HETATM   16  O6  UNL     1      -1.530   1.286  -0.660  1.00  0.00    -0.334 OA
ENDROOT
BRANCH   2  17
HETATM   17  O1  UNL     1      -3.213  -1.973  -0.538  1.00  0.00    -0.281 OA
BRANCH  17  18
HETATM   18  C6  UNL     1      -3.252  -2.666   0.694  1.00  0.00     0.259 C 
HETATM   19  C7  UNL     1      -4.226  -3.779   0.874  1.00  0.00     0.126 C 
HETATM   20  O2  UNL     1      -2.449  -2.297   1.586  1.00  0.00    -0.265 OA
ENDBRANCH  17  18
ENDBRANCH   2  17
BRANCH   1  21
HETATM   21  C2  UNL     1      -3.900   0.830  -0.193  1.00  0.00    -0.035 C 
HETATM   22  C1  UNL     1      -4.084   2.145  -0.038  1.00  0.00     0.021 C 
HETATM   23  C3  UNL     1      -5.090  -0.010  -0.066  1.00  0.00     0.050 C 
ENDBRANCH   1  21
BRANCH  13  24
HETATM   24  O4  UNL     1       0.129   3.098   0.277  1.00  0.00    -0.313 OA
BRANCH  24  25
HETATM   25  C19 UNL     1       0.444   4.331  -0.247  1.00  0.00     0.255 C 
HETATM   26  C20 UNL     1      -0.189   5.606   0.163  1.00  0.00     0.126 C 
HETATM   27  O5  UNL     1       1.336   4.344  -1.133  1.00  0.00    -0.266 OA
ENDBRANCH  24  25
ENDBRANCH  13  24
BRANCH  11  28
HETATM   28  O3  UNL     1       2.989   0.790  -0.843  1.00  0.00    -0.389 OA
ATOM     29  H3  UNL     1       3.601   1.452  -0.542  1.00  0.00     0.210 HD
ENDBRANCH  11  28
TORSDOF 6
