REMARK  9 active torsions:
REMARK  status: ('A' for Active; 'I' for Inactive)
REMARK    1  A    between atoms: N1_2  and  N2_3 
REMARK    2  A    between atoms: N1_2  and  S2_19 
REMARK    3  A    between atoms: N2_3  and  S1_5 
REMARK    4  A    between atoms: S1_5  and  C2_8 
REMARK    5  A    between atoms: C5_11  and  C6_12 
REMARK    6  A    between atoms: S2_19  and  C9_22 
REMARK    7  A    between atoms: C12_25  and  N5_26 
REMARK       I    between atoms: N5_26  and  C13_28 
REMARK    8  A    between atoms: C13_28  and  C14_30 
REMARK    9  A    between atoms: C14_30  and  C15_31 
ROOT
HETATM    1  S2  UNL     1      -0.990  -1.321   1.770  1.00  0.00     0.278 S 
HETATM    2  O3  UNL     1      -1.183  -1.026   3.234  1.00  0.00    -0.199 OA
HETATM    3  O4  UNL     1      -0.975  -2.835   1.636  1.00  0.00    -0.199 OA
ENDROOT
BRANCH   1   4
HETATM    4  N1  UNL     1      -2.274  -0.698   0.857  1.00  0.00    -0.209 N 
HETATM    5  C1  UNL     1      -2.229  -1.006  -0.531  1.00  0.00     0.192 C 
BRANCH   4   6
HETATM    6  N2  UNL     1      -2.653   0.590   1.155  1.00  0.00    -0.211 N 
ATOM      7  H2  UNL     1      -2.165   1.439   0.871  1.00  0.00     0.201 HD
BRANCH   6   8
HETATM    8  S1  UNL     1      -4.099   0.517   2.094  1.00  0.00     0.276 S 
HETATM    9  O1  UNL     1      -4.190   1.667   3.054  1.00  0.00    -0.199 OA
HETATM   10  O2  UNL     1      -4.093  -0.780   2.852  1.00  0.00    -0.199 OA
BRANCH   8  11
HETATM   11  C2  UNL     1      -5.532   0.548   1.095  1.00  0.00     0.081 A 
HETATM   12  C3  UNL     1      -6.079  -0.621   0.630  1.00  0.00     0.026 A 
HETATM   13  C4  UNL     1      -7.229  -0.649  -0.176  1.00  0.00     0.016 A 
HETATM   14  C5  UNL     1      -7.872   0.508  -0.544  1.00  0.00     0.007 A 
HETATM   15  C7  UNL     1      -7.294   1.687  -0.057  1.00  0.00     0.016 A 
HETATM   16  C8  UNL     1      -6.167   1.709   0.733  1.00  0.00     0.026 A 
BRANCH  14  17
HETATM   17  C6  UNL     1      -9.057   0.586  -1.368  1.00  0.00     0.151 C 
HETATM   18  N3  UNL     1      -9.578   1.921  -1.635  1.00  0.00    -0.080 NA
HETATM   19  N4  UNL     1      -9.722  -0.338  -1.900  1.00  0.00    -0.210 N 
HETATM   20  F1  UNL     1      -9.531  -1.638  -1.861  1.00  0.00    -0.100 F 
ATOM     21  H4  UNL     1     -10.530  -0.034  -2.443  1.00  0.00     0.201 HD
ENDBRANCH  14  17
ENDBRANCH   8  11
ENDBRANCH   6   8
ENDBRANCH   4   6
ENDBRANCH   1   4
BRANCH   1  22
HETATM   22  C9  UNL     1       0.569  -0.745   1.313  1.00  0.00     0.081 A 
HETATM   23  C10 UNL     1       1.397  -1.321   0.380  1.00  0.00     0.027 A 
HETATM   24  C11 UNL     1       2.658  -0.779   0.070  1.00  0.00     0.031 A 
HETATM   25  C12 UNL     1       3.125   0.343   0.678  1.00  0.00     0.034 A 
HETATM   26  C21 UNL     1       2.269   0.936   1.641  1.00  0.00     0.031 A 
HETATM   27  C22 UNL     1       1.063   0.394   1.918  1.00  0.00     0.027 A 
BRANCH  25  28
HETATM   28  N5  UNL     1       4.382   0.947   0.450  1.00  0.00    -0.327 N 
HETATM   29  C13 UNL     1       5.468   0.297  -0.134  1.00  0.00     0.226 C 
HETATM   30  O5  UNL     1       5.436  -0.880  -0.504  1.00  0.00    -0.273 OA
ATOM     31  H5  UNL     1       4.502   1.920   0.731  1.00  0.00     0.169 HD
BRANCH  29  32
HETATM   32  C14 UNL     1       6.739   1.120  -0.307  1.00  0.00     0.141 C 
BRANCH  32  33
HETATM   33  C15 UNL     1       7.730   0.217  -0.939  1.00  0.00    -0.050 A 
HETATM   34  C16 UNL     1       7.875   0.094  -2.307  1.00  0.00     0.007 A 
HETATM   35  C17 UNL     1       8.800  -0.749  -2.839  1.00  0.00     0.001 A 
HETATM   36  C18 UNL     1       9.645  -1.529  -2.054  1.00  0.00     0.000 A 
HETATM   37  C19 UNL     1       9.508  -1.414  -0.697  1.00  0.00     0.001 A 
HETATM   38  C20 UNL     1       8.580  -0.567  -0.151  1.00  0.00     0.007 A 
ENDBRANCH  32  33
ENDBRANCH  29  32
ENDBRANCH  25  28
ENDBRANCH   1  22
TORSDOF 9
