REMARK  12 active torsions:
REMARK  status: ('A' for Active; 'I' for Inactive)
REMARK    1  A    between atoms: C2_2  and  O1_3 
REMARK    2  A    between atoms: C2_2  and  N1_5 
REMARK    3  A    between atoms: N1_5  and  C3_7 
REMARK    4  A    between atoms: C6_10  and  C7_11 
REMARK    5  A    between atoms: C7_11  and  C8_12 
REMARK       I    between atoms: C8_12  and  N2_14 
REMARK    6  A    between atoms: N2_14  and  C9_15 
REMARK    7  A    between atoms: C11_17  and  O3_18 
REMARK    8  A    between atoms: C11_17  and  N3_20 
REMARK    9  A    between atoms: C16_26  and  C17_27 
REMARK       I    between atoms: C17_27  and  N4_29 
REMARK   10  A    between atoms: N4_29  and  C18_31 
REMARK   11  A    between atoms: C18_31  and  C20_33 
REMARK   12  A    between atoms: C20_33  and  C21_35 
ROOT
HETATM    1  C9  UNL     1      -0.078  -0.983   0.435  1.00  0.00     0.135 C 
HETATM    2  C10 UNL     1      -0.569  -1.735  -0.898  1.00  0.00     0.090 C 
HETATM    3  C11 UNL     1      -1.191  -0.195   0.839  1.00  0.00     0.176 C 
ENDROOT
BRANCH   3   4
HETATM    4  O3  UNL     1      -2.034  -0.615   1.737  1.00  0.00    -0.344 OA
ATOM      5  H3  UNL     1      -2.777  -0.089   2.007  1.00  0.00     0.219 HD
ENDBRANCH   3   4
BRANCH   3   6
HETATM    6  N3  UNL     1      -1.571   1.122   0.366  1.00  0.00    -0.336 N 
HETATM    7  C12 UNL     1      -0.486   1.970  -0.133  1.00  0.00     0.201 C 
HETATM    8  S1  UNL     1      -1.315   3.221  -1.124  1.00  0.00    -0.137 SA
HETATM    9  C13 UNL     1      -2.953   2.357  -1.177  1.00  0.00     0.032 C 
HETATM   10  C14 UNL     1      -4.008   3.381  -1.276  1.00  0.00     0.029 C 
HETATM   11  C15 UNL     1      -2.898   1.387  -2.260  1.00  0.00     0.029 C 
HETATM   12  C16 UNL     1      -2.828   1.724   0.246  1.00  0.00     0.197 C 
BRANCH  12  13
HETATM   13  C17 UNL     1      -4.034   0.878   0.431  1.00  0.00     0.242 C 
HETATM   14  O4  UNL     1      -4.971   1.331   1.184  1.00  0.00    -0.271 OA
HETATM   15  N4  UNL     1      -4.225  -0.372  -0.186  1.00  0.00    -0.348 N 
ATOM     16  H4  UNL     1      -3.437  -0.694  -0.749  1.00  0.00     0.163 HD
BRANCH  15  17
HETATM   17  C18 UNL     1      -5.328  -1.256  -0.155  1.00  0.00     0.155 C 
HETATM   18  C19 UNL     1      -5.156  -2.351   0.840  1.00  0.00     0.040 C 
BRANCH  17  19
HETATM   19  C20 UNL     1      -6.675  -0.600  -0.185  1.00  0.00     0.203 C 
HETATM   20  O5  UNL     1      -6.716   0.471  -0.782  1.00  0.00    -0.291 OA
BRANCH  19  21
HETATM   21  C21 UNL     1      -7.892  -1.150   0.422  1.00  0.00     0.237 C 
HETATM   22  C22 UNL     1      -7.771  -1.361   1.913  1.00  0.00     0.079 C 
HETATM   23  F1  UNL     1      -8.970  -0.328   0.207  1.00  0.00    -0.217 F 
HETATM   24 CL1  UNL     1      -8.339  -2.715  -0.355  1.00  0.00    -0.074 Cl
ENDBRANCH  19  21
ENDBRANCH  17  19
ENDBRANCH  15  17
ENDBRANCH  12  13
ENDBRANCH   3   6
BRANCH   1  25
HETATM   25  N2  UNL     1       1.236  -0.748   0.382  1.00  0.00    -0.371 NA
HETATM   26  C8  UNL     1       2.614  -0.503   0.325  1.00  0.00     0.296 C 
HETATM   27  O2  UNL     1       3.257  -1.100  -0.608  1.00  0.00    -0.257 OA
BRANCH  26  28
HETATM   28  C7  UNL     1       3.450   0.333   1.184  1.00  0.00     0.157 C 
BRANCH  28  29
HETATM   29  C6  UNL     1       4.878   0.343   0.707  1.00  0.00    -0.048 A 
HETATM   30  C5  UNL     1       5.630   1.524   0.709  1.00  0.00     0.010 A 
HETATM   31  C4  UNL     1       6.910   1.529   0.276  1.00  0.00     0.030 A 
HETATM   32  C3  UNL     1       7.546   0.398  -0.200  1.00  0.00     0.033 A 
HETATM   33  C24 UNL     1       6.829  -0.757  -0.224  1.00  0.00     0.030 A 
HETATM   34  C23 UNL     1       5.511  -0.761   0.236  1.00  0.00     0.010 A 
BRANCH  32  35
HETATM   35  N1  UNL     1       8.900   0.335  -0.640  1.00  0.00    -0.341 N 
ATOM     36  H1  UNL     1       9.267   1.009  -1.312  1.00  0.00     0.167 HD
BRANCH  35  37
HETATM   37  C2  UNL     1       9.717  -0.691  -0.115  1.00  0.00     0.111 C 
HETATM   38  C1  UNL     1      11.095  -0.983  -0.389  1.00  0.00     0.097 C 
BRANCH  37  39
HETATM   39  O1  UNL     1       9.111  -1.488   0.764  1.00  0.00    -0.350 OA
ATOM     40  H1  UNL     1       8.199  -1.295   0.945  1.00  0.00     0.219 HD
ENDBRANCH  37  39
ENDBRANCH  35  37
ENDBRANCH  32  35
ENDBRANCH  28  29
ENDBRANCH  26  28
ENDBRANCH   1  25
TORSDOF 12
