REMARK  9 active torsions:
REMARK  status: ('A' for Active; 'I' for Inactive)
REMARK    1  A    between atoms: C12_15  and  C13_16 
REMARK    2  A    between atoms: C13_16  and  C14_18 
REMARK    3  A    between atoms: C14_18  and  N1_19 
REMARK    4  A    between atoms: N1_19  and  N2_20 
REMARK    5  A    between atoms: C15_26  and  C16_27 
REMARK    6  A    between atoms: C16_27  and  C17_28 
REMARK    7  A    between atoms: C17_28  and  C18_29 
REMARK    8  A    between atoms: C18_29  and  C19_30 
REMARK    9  A    between atoms: C19_30  and  N4_31 
ROOT
HETATM    1  C1  UNL     1       0.857  -3.460  -1.720  1.00  0.00     0.032 C 
HETATM    2  C2  UNL     1       0.266  -2.301  -0.900  1.00  0.00     0.080 C 
HETATM    3  C3  UNL     1       0.754  -2.531   0.522  1.00  0.00     0.024 C 
HETATM    4  C4  UNL     1       2.280  -2.607   0.463  1.00  0.00     0.002 C 
HETATM    5  C5  UNL     1       2.888  -1.222   0.592  1.00  0.00     0.001 C 
HETATM    6  C6  UNL     1       3.273  -0.912   2.010  1.00  0.00     0.008 C 
HETATM    7  C7  UNL     1       4.529  -0.071   1.992  1.00  0.00     0.091 C 
HETATM    8  C8  UNL     1       4.296   1.065   1.057  1.00  0.00     0.185 C 
HETATM    9  O1  UNL     1       5.073   1.251   0.157  1.00  0.00    -0.286 OA
HETATM   10  S1  UNL     1       2.877   2.119   1.293  1.00  0.00    -0.092 SA
HETATM   11  C9  UNL     1       3.291   3.809   0.774  1.00  0.00     0.092 C 
HETATM   12  C10 UNL     1       2.539   4.239  -0.448  1.00  0.00     0.084 C 
HETATM   13  S2  UNL     1       1.676   2.834  -1.235  1.00  0.00    -0.166 SA
HETATM   14  C11 UNL     1       0.034   2.733  -0.487  1.00  0.00     0.115 C 
HETATM   15  C12 UNL     1      -0.963   2.057  -1.434  1.00  0.00     0.271 C 
HETATM   16  N3  UNL     1      -0.844   0.633  -1.397  1.00  0.00    -0.050 N 
ATOM     17  H31 UNL     1      -0.066   0.338  -0.808  1.00  0.00     0.279 HD
ATOM     18  H32 UNL     1      -0.516   0.262  -2.289  1.00  0.00     0.279 HD
HETATM   19  C15 UNL     1      -2.124  -0.009  -0.975  1.00  0.00     0.278 C 
HETATM   20  C20 UNL     1      -2.065  -1.388  -1.473  1.00  0.00     0.248 C 
HETATM   21  O3  UNL     1      -2.927  -1.697  -2.377  1.00  0.00    -0.271 OA
HETATM   22  N5  UNL     1      -1.145  -2.387  -1.039  1.00  0.00    -0.355 N 
ATOM     23  H5  UNL     1      -1.557  -3.288  -0.795  1.00  0.00     0.162 HD
ENDROOT
BRANCH  19  24
HETATM   24  C16 UNL     1      -2.273   0.221   0.461  1.00  0.00     0.043 C 
BRANCH  24  25
HETATM   25  C17 UNL     1      -3.416  -0.243   1.236  1.00  0.00     0.004 C 
BRANCH  25  26
HETATM   26  C18 UNL     1      -3.683  -1.725   1.289  1.00  0.00     0.027 C 
BRANCH  26  27
HETATM   27  C19 UNL     1      -4.916  -1.998   2.177  1.00  0.00     0.229 C 
BRANCH  27  28
HETATM   28  N4  UNL     1      -5.190  -3.408   2.242  1.00  0.00    -0.079 N 
ATOM     29  H43 UNL     1      -5.294  -3.817   1.313  1.00  0.00     0.274 HD
ATOM     30  H42 UNL     1      -4.375  -3.938   2.552  1.00  0.00     0.274 HD
ATOM     31  H41 UNL     1      -6.005  -3.588   2.829  1.00  0.00     0.274 HD
ENDBRANCH  27  28
ENDBRANCH  26  27
ENDBRANCH  25  26
ENDBRANCH  24  25
ENDBRANCH  19  24
BRANCH  15  32
HETATM   32  C13 UNL     1      -0.790   2.590  -2.820  1.00  0.00     0.211 C 
HETATM   33  O2  UNL     1      -0.569   1.833  -3.779  1.00  0.00    -0.288 OA
BRANCH  32  34
HETATM   34  C14 UNL     1      -0.885   4.029  -3.029  1.00  0.00     0.260 C 
BRANCH  34  35
HETATM   35  N1  UNL     1      -0.164   4.680  -3.810  1.00  0.00    -0.342 NA
BRANCH  35  36
HETATM   36  N2  UNL     1       0.409   5.233  -4.763  1.00  0.00    -0.281 N 
ATOM     37  H22 UNL     1      -0.242   4.791  -5.412  1.00  0.00     0.191 HD
ATOM     38  H21 UNL     1       0.999   5.766  -5.402  1.00  0.00     0.191 HD
ENDBRANCH  35  36
ENDBRANCH  34  35
ENDBRANCH  32  34
ENDBRANCH  15  32
TORSDOF 9
