REMARK  7 active torsions:
REMARK  status: ('A' for Active; 'I' for Inactive)
REMARK    1  A    between atoms: C2_2  and  C3_3 
REMARK    2  A    between atoms: C3_3  and  C4_4 
REMARK    3  A    between atoms: C15_20  and  C16_21 
REMARK    4  A    between atoms: C16_21  and  C18_24 
REMARK    5  A    between atoms: N4_26  and  N5_28 
REMARK    6  A    between atoms: N5_28  and  C19_30 
REMARK    7  A    between atoms: C21_34  and  S1_35 
ROOT
HETATM    1  C16 UNL     1       1.399  -0.115  -1.139  1.00  0.00     0.195 C 
HETATM    2  C17 UNL     1       2.654  -0.733  -1.477  1.00  0.00     0.074 C 
HETATM    3  N3  UNL     1       3.658  -1.234  -1.772  1.00  0.00    -0.196 NA
ENDROOT
BRANCH   1   4
HETATM    4  C15 UNL     1       0.220  -1.033  -1.267  1.00  0.00     0.114 C 
HETATM    5  C13 UNL     1       0.014  -1.568  -2.614  1.00  0.00    -0.050 C 
HETATM    6  C12 UNL     1      -0.538  -2.774  -2.525  1.00  0.00    -0.012 C 
HETATM    7  C14 UNL     1       0.351  -0.921  -3.913  1.00  0.00     0.046 C 
HETATM    8  C11 UNL     1      -0.752  -3.139  -1.072  1.00  0.00     0.048 C 
HETATM    9  C7  UNL     1      -2.042  -2.532  -0.701  1.00  0.00    -0.011 A 
HETATM   10  C23 UNL     1       0.409  -2.326  -0.461  1.00  0.00     0.058 C 
HETATM   11  C6  UNL     1      -2.110  -1.164  -0.558  1.00  0.00     0.106 A 
HETATM   12  C8  UNL     1      -3.145  -3.302  -0.503  1.00  0.00     0.055 A 
HETATM   13  C5  UNL     1      -3.316  -0.576  -0.209  1.00  0.00     0.098 A 
HETATM   14  O1  UNL     1      -0.951  -0.417  -0.772  1.00  0.00    -0.331 OA
HETATM   15  N1  UNL     1      -3.697   0.692   0.001  1.00  0.00    -0.342 N 
HETATM   16  C10 UNL     1      -4.462  -1.353  -0.002  1.00  0.00     0.102 A 
HETATM   17  C4  UNL     1      -5.004   0.743   0.324  1.00  0.00     0.082 A 
ATOM     18  H1  UNL     1      -3.084   1.504  -0.073  1.00  0.00     0.167 HD
HETATM   19  N2  UNL     1      -5.467  -0.519   0.321  1.00  0.00    -0.342 N 
ATOM     20  H2  UNL     1      -6.425  -0.799   0.530  1.00  0.00     0.167 HD
HETATM   21  C9  UNL     1      -4.379  -2.726  -0.149  1.00  0.00     0.146 A 
HETATM   22  F1  UNL     1      -5.477  -3.489   0.049  1.00  0.00    -0.204 F 
BRANCH  17  23
HETATM   23  C3  UNL     1      -5.800   1.978   0.632  1.00  0.00     0.076 C 
BRANCH  23  24
HETATM   24  C2  UNL     1      -5.749   2.292   2.112  1.00  0.00     0.003 C 
HETATM   25  C1  UNL     1      -4.285   2.513   2.494  1.00  0.00     0.005 C 
ENDBRANCH  23  24
ENDBRANCH  17  23
ENDBRANCH   1   4
BRANCH   1  26
HETATM   26  C18 UNL     1       1.410   0.617   0.152  1.00  0.00     0.116 C 
HETATM   27 CL1  UNL     1       0.053   1.716   0.510  1.00  0.00    -0.066 Cl
HETATM   28  N4  UNL     1       2.285   0.555   1.061  1.00  0.00    -0.290 N 
ATOM     29  H4  UNL     1       2.096   1.144   1.872  1.00  0.00     0.188 HD
BRANCH  28  30
HETATM   30  N5  UNL     1       3.440  -0.166   1.142  1.00  0.00    -0.279 N 
ATOM     31  H5  UNL     1       3.426  -1.146   0.858  1.00  0.00     0.189 HD
BRANCH  30  32
HETATM   32  C19 UNL     1       4.573   0.351   1.572  1.00  0.00     0.164 A 
HETATM   33  N6  UNL     1       5.744  -0.270   1.686  1.00  0.00    -0.344 N 
HETATM   34  C20 UNL     1       6.764   0.406   2.133  1.00  0.00     0.116 A 
ATOM     35  H6  UNL     1       5.841  -1.252   1.429  1.00  0.00     0.167 HD
HETATM   36  C21 UNL     1       6.569   1.722   2.459  1.00  0.00     0.059 A 
HETATM   37  S2  UNL     1       4.914   1.934   2.108  1.00  0.00    -0.044 SA
BRANCH  36  38
HETATM   38  S1  UNL     1       7.790   2.890   3.097  1.00  0.00    -0.126 SA
HETATM   39  C22 UNL     1       8.603   3.744   1.709  1.00  0.00     0.096 C 
ENDBRANCH  36  38
ENDBRANCH  30  32
ENDBRANCH  28  30
ENDBRANCH   1  26
TORSDOF 7
