REMARK  8 active torsions:
REMARK  status: ('A' for Active; 'I' for Inactive)
REMARK    1  A    between atoms: C2_2  and  C3_3 
REMARK    2  A    between atoms: C2_2  and  C6_11 
REMARK    3  A    between atoms: C3_3  and  O1_4 
REMARK    4  A    between atoms: O1_4  and  C4_5 
REMARK    5  A    between atoms: C4_5  and  C5_7 
REMARK    6  A    between atoms: C15_23  and  O3_24 
REMARK    7  A    between atoms: C19_29  and  C21_31 
REMARK    8  A    between atoms: C21_31  and  O4_32 
ROOT
HETATM    1  C6  UNL     1       2.963   0.680   0.152  1.00  0.00     0.053 C 
HETATM    2  C7  UNL     1       2.842   1.626   1.276  1.00  0.00     0.008 C 
HETATM    3  N1  UNL     1       3.743   2.158   2.035  1.00  0.00    -0.402 N 
ATOM      4  H11 UNL     1       3.659   2.813   2.813  1.00  0.00     0.156 HD
ATOM      5  H12 UNL     1       4.747   1.996   1.955  1.00  0.00     0.156 HD
HETATM    6  C8  UNL     1       1.383   1.862   1.392  1.00  0.00     0.031 C 
HETATM    7  C9  UNL     1       0.692   0.893   0.823  1.00  0.00    -0.035 C 
HETATM    8  C10 UNL     1       1.680  -0.102   0.261  1.00  0.00    -0.008 C 
HETATM    9  C11 UNL     1       1.832  -1.299   1.117  1.00  0.00     0.021 C 
HETATM   10  C12 UNL     1       1.245  -0.505  -1.127  1.00  0.00     0.015 C 
HETATM   11  C13 UNL     1      -0.136   0.010  -1.500  1.00  0.00     0.010 C 
HETATM   12  C14 UNL     1      -1.060  -0.283  -0.374  1.00  0.00     0.033 C 
HETATM   13  C15 UNL     1      -0.769   0.728   0.710  1.00  0.00     0.086 C 
HETATM   14  C16 UNL     1      -1.417   0.160   1.931  1.00  0.00     0.043 C 
HETATM   15  C17 UNL     1      -2.925   0.307   1.653  1.00  0.00     0.009 C 
HETATM   16  C18 UNL     1      -3.356  -0.547   0.479  1.00  0.00     0.004 C 
HETATM   17  C19 UNL     1      -4.816  -0.377   0.286  1.00  0.00    -0.018 C 
HETATM   18  C20 UNL     1      -5.542  -1.722   0.416  1.00  0.00     0.018 C 
HETATM   19  C22 UNL     1      -5.266   0.233  -0.998  1.00  0.00     0.012 C 
HETATM   20  C23 UNL     1      -4.347   0.127  -2.150  1.00  0.00     0.002 C 
HETATM   21  C24 UNL     1      -2.984   0.652  -1.695  1.00  0.00     0.010 C 
HETATM   22  C25 UNL     1      -2.501  -0.406  -0.731  1.00  0.00    -0.033 C 
HETATM   23  C26 UNL     1      -2.599  -1.720  -1.532  1.00  0.00     0.016 C 
ENDROOT
BRANCH   1  24
HETATM   24  C2  UNL     1       4.228  -0.068   0.200  1.00  0.00     0.017 C 
HETATM   25  C1  UNL     1       4.321  -1.097  -0.944  1.00  0.00     0.013 C 
BRANCH  24  26
HETATM   26  C3  UNL     1       5.376   0.898  -0.195  1.00  0.00     0.184 C 
BRANCH  26  27
HETATM   27  O1  UNL     1       6.600   0.124  -0.224  1.00  0.00    -0.314 OA
BRANCH  27  28
HETATM   28  C4  UNL     1       7.775   0.775  -0.555  1.00  0.00     0.367 C 
HETATM   29  O2  UNL     1       7.725   2.001  -0.813  1.00  0.00    -0.255 OA
BRANCH  28  30
HETATM   30  C5  UNL     1       9.095   0.103  -0.622  1.00  0.00     0.479 C 
HETATM   31  F1  UNL     1       8.968  -0.900  -1.588  1.00  0.00    -0.162 F 
HETATM   32  F2  UNL     1       9.379  -0.437   0.620  1.00  0.00    -0.162 F 
HETATM   33  F3  UNL     1      10.063   0.952  -1.064  1.00  0.00    -0.162 F 
ENDBRANCH  28  30
ENDBRANCH  27  28
ENDBRANCH  26  27
ENDBRANCH  24  26
ENDBRANCH   1  24
BRANCH  13  34
HETATM   34  O3  UNL     1      -1.422   1.947   0.461  1.00  0.00    -0.385 OA
ATOM     35  H3  UNL     1      -2.363   1.841   0.388  1.00  0.00     0.211 HD
ENDBRANCH  13  34
BRANCH  17  36
HETATM   36  C21 UNL     1      -5.463   0.496   1.379  1.00  0.00     0.173 C 
BRANCH  36  37
HETATM   37  O4  UNL     1      -6.834   0.579   1.083  1.00  0.00    -0.400 OA
ATOM     38  H4  UNL     1      -7.233   1.117   1.757  1.00  0.00     0.209 HD
ENDBRANCH  36  37
ENDBRANCH  17  36
TORSDOF 8
