REMARK  13 active torsions:
REMARK  status: ('A' for Active; 'I' for Inactive)
REMARK    1  A    between atoms: S1_2  and  C2_3 
REMARK    2  A    between atoms: C2_3  and  C3_4 
REMARK    3  A    between atoms: C3_4  and  C4_5 
REMARK    4  A    between atoms: C4_5  and  C30_43 
REMARK    5  A    between atoms: N1_6  and  C5_8 
REMARK    6  A    between atoms: C5_8  and  C7_10 
REMARK    7  A    between atoms: C8_13  and  O1_14 
REMARK    8  A    between atoms: C9_16  and  C10_17 
REMARK    9  A    between atoms: C10_17  and  C11_18 
REMARK   10  A    between atoms: N3_21  and  C14_22 
REMARK   11  A    between atoms: C14_22  and  C15_23 
REMARK   12  A    between atoms: C29_40  and  O3_41 
REMARK   13  A    between atoms: C30_43  and  C31_45 
ROOT
HETATM    1  C7  UNL     1       1.781  -1.446   0.326  1.00  0.00     0.084 C 
HETATM    2  N2  UNL     1       1.070  -0.318  -0.155  1.00  0.00    -0.337 N 
ATOM      3  H2  UNL     1       1.780   0.335  -0.487  1.00  0.00     0.167 HD
HETATM    4  C8  UNL     1      -0.120   0.291  -0.376  1.00  0.00     0.154 C 
HETATM    5  C9  UNL     1      -1.283   0.221  -1.358  1.00  0.00     0.320 C 
HETATM    6  N3  UNL     1      -2.498   0.237  -0.571  1.00  0.00     0.105 N 
HETATM    7  C21 UNL     1      -3.024  -0.993  -0.077  1.00  0.00     0.278 C 
HETATM    8  C22 UNL     1      -2.538  -1.519   1.223  1.00  0.00     0.017 C 
HETATM    9  C23 UNL     1      -3.498  -1.597   2.375  1.00  0.00     0.035 C 
HETATM   10  C24 UNL     1      -2.898  -1.641   3.719  1.00  0.00    -0.002 C 
HETATM   11  C25 UNL     1      -1.487  -1.515   3.996  1.00  0.00     0.133 C 
HETATM   12  O2  UNL     1      -0.632  -2.651   3.854  1.00  0.00    -0.338 OA
HETATM   13  C26 UNL     1      -0.465  -2.825   2.545  1.00  0.00     0.227 C 
HETATM   14  C27 UNL     1      -1.616  -3.679   2.091  1.00  0.00     0.054 C 
HETATM   15  C28 UNL     1      -2.159  -2.936   0.933  1.00  0.00     0.011 C 
HETATM   16  N4  UNL     1       0.747  -3.255   1.916  1.00  0.00    -0.343 N 
ATOM     17  H4  UNL     1       1.258  -4.011   2.372  1.00  0.00     0.164 HD
HETATM   18  C29 UNL     1       1.311  -2.732   0.716  1.00  0.00     0.163 C 
ENDROOT
BRANCH   1  19
HETATM   19  C5  UNL     1       3.143  -1.070   1.012  1.00  0.00     0.132 C 
HETATM   20  C6  UNL     1       3.533  -2.152   1.969  1.00  0.00     0.039 C 
BRANCH  19  21
HETATM   21  N1  UNL     1       4.058  -0.555   0.155  1.00  0.00    -0.377 N 
HETATM   22  C4  UNL     1       5.243   0.101   0.257  1.00  0.00     0.078 C 
ATOM     23  H1  UNL     1       3.787  -0.697  -0.818  1.00  0.00     0.160 HD
BRANCH  22  24
HETATM   24  C3  UNL     1       5.516   1.419   0.791  1.00  0.00     0.016 C 
BRANCH  24  25
HETATM   25  C2  UNL     1       5.071   2.721   0.303  1.00  0.00     0.103 C 
BRANCH  25  26
HETATM   26  S1  UNL     1       5.711   3.932   1.583  1.00  0.00    -0.170 SA
HETATM   27  C1  UNL     1       7.487   3.818   1.705  1.00  0.00     0.090 C 
ENDBRANCH  25  26
ENDBRANCH  24  25
ENDBRANCH  22  24
BRANCH  22  28
HETATM   28  C30 UNL     1       6.275  -0.331  -0.703  1.00  0.00     0.246 C 
HETATM   29  O4  UNL     1       7.132  -1.177  -0.237  1.00  0.00    -0.284 OA
BRANCH  28  30
HETATM   30  C31 UNL     1       6.527  -0.048  -2.102  1.00  0.00     0.305 C 
HETATM   31  C32 UNL     1       5.847  -1.177  -2.953  1.00  0.00     0.099 C 
HETATM   32  F1  UNL     1       6.012   1.170  -2.589  1.00  0.00    -0.198 F 
HETATM   33  F2  UNL     1       7.835  -0.059  -2.440  1.00  0.00    -0.198 F 
ENDBRANCH  28  30
ENDBRANCH  22  28
ENDBRANCH  19  21
ENDBRANCH   1  19
BRANCH  18  34
HETATM   34  O3  UNL     1       1.384  -3.703  -0.195  1.00  0.00    -0.345 OA
ATOM     35  H3  UNL     1       1.070  -4.561   0.065  1.00  0.00     0.219 HD
ENDBRANCH  18  34
BRANCH   4  36
HETATM   36  O1  UNL     1      -0.433   1.250   0.482  1.00  0.00    -0.347 OA
ATOM     37  H1  UNL     1      -1.267   1.677   0.327  1.00  0.00     0.219 HD
ENDBRANCH   4  36
BRANCH   5  38
HETATM   38  C10 UNL     1      -1.073  -0.764  -2.416  1.00  0.00     0.019 C 
BRANCH  38  39
HETATM   39  C11 UNL     1      -1.840  -0.876  -3.644  1.00  0.00    -0.089 C 
HETATM   40  C12 UNL     1      -3.275  -1.075  -3.799  1.00  0.00     0.042 C 
HETATM   41  C13 UNL     1      -1.357   0.216  -4.671  1.00  0.00     0.042 C 
ENDBRANCH  38  39
ENDBRANCH   5  38
BRANCH   6  42
HETATM   42  C14 UNL     1      -3.582   0.987  -1.109  1.00  0.00     0.278 C 
BRANCH  42  43
HETATM   43  C15 UNL     1      -4.525   1.601  -0.075  1.00  0.00     0.014 C 
HETATM   44  C16 UNL     1      -3.819   2.577   0.809  1.00  0.00     0.006 C 
HETATM   45  C17 UNL     1      -4.615   3.835   1.074  1.00  0.00     0.000 C 
HETATM   46  C18 UNL     1      -4.874   4.581  -0.189  1.00  0.00     0.000 C 
HETATM   47  C19 UNL     1      -5.116   3.644  -1.356  1.00  0.00     0.000 C 
HETATM   48  C20 UNL     1      -5.605   2.331  -0.840  1.00  0.00     0.006 C 
ENDBRANCH  42  43
ENDBRANCH   6  42
TORSDOF 13
