REMARK  6 active torsions:
REMARK  status: ('A' for Active; 'I' for Inactive)
REMARK    1  A    between atoms: C2_2  and  N1_3 
REMARK    2  A    between atoms: N1_3  and  C3_4 
REMARK    3  A    between atoms: C8_9  and  C9_10 
REMARK    4  A    between atoms: C9_10  and  C10_11 
REMARK       I    between atoms: C10_11  and  N2_13 
REMARK    5  A    between atoms: N2_13  and  C11_15 
REMARK    6  A    between atoms: C13_19  and  C14_20 
ROOT
HETATM    1  C11 UNL     1       2.504  -1.193   1.256  1.00  0.00     0.214 C 
HETATM    2  C12 UNL     1       3.428  -0.590   2.256  1.00  0.00     0.247 C 
HETATM    3  O2  UNL     1       3.550  -0.608   3.491  1.00  0.00    -0.271 OA
HETATM    4  N3  UNL     1       4.101   0.009   1.179  1.00  0.00    -0.313 N 
HETATM    5  C13 UNL     1       4.844   0.958   0.444  1.00  0.00     0.212 C 
HETATM    6  C15 UNL     1       5.210   0.424  -0.885  1.00  0.00     0.089 C 
HETATM    7  C16 UNL     1       6.386  -0.511  -0.736  1.00  0.00     0.034 C 
HETATM    8  C17 UNL     1       5.417   1.440  -1.953  1.00  0.00     0.034 C 
HETATM    9  S1  UNL     1       3.733  -0.567  -1.205  1.00  0.00     0.178 S 
HETATM   10  O5  UNL     1       2.577   0.276  -1.562  1.00  0.00    -0.225 OA
HETATM   11  O6  UNL     1       4.022  -1.612  -2.234  1.00  0.00    -0.225 OA
HETATM   12  C18 UNL     1       3.706  -1.184   0.435  1.00  0.00     0.243 C 
ENDROOT
BRANCH   1  13
HETATM   13  N2  UNL     1       1.423  -0.324   0.996  1.00  0.00    -0.345 N 
HETATM   14  C10 UNL     1       0.098  -0.820   1.064  1.00  0.00     0.218 C 
HETATM   15  O1  UNL     1      -0.121  -2.039   1.358  1.00  0.00    -0.274 OA
ATOM     16  H2  UNL     1       1.594   0.654   0.761  1.00  0.00     0.163 HD
BRANCH  14  17
HETATM   17  C9  UNL     1      -1.095   0.023   0.806  1.00  0.00     0.109 C 
BRANCH  17  18
HETATM   18  C8  UNL     1      -2.383  -0.770   0.939  1.00  0.00     0.020 C 
HETATM   19  C7  UNL     1      -2.365  -1.872  -0.037  1.00  0.00     0.008 C 
HETATM   20  C6  UNL     1      -3.539  -1.989  -0.950  1.00  0.00     0.028 C 
HETATM   21  C5  UNL     1      -4.771  -1.280  -0.457  1.00  0.00     0.237 C 
HETATM   22  N1  UNL     1      -4.393   0.101  -0.225  1.00  0.00    -0.067 N 
HETATM   23  C19 UNL     1      -3.512   0.184   0.886  1.00  0.00     0.242 C 
BRANCH  22  24
HETATM   24  C2  UNL     1      -5.604   0.865   0.116  1.00  0.00     0.233 C 
HETATM   25  C1  UNL     1      -6.576   0.056   0.913  1.00  0.00     0.035 C 
ENDBRANCH  22  24
BRANCH  22  26
HETATM   26  C3  UNL     1      -3.893   0.653  -1.449  1.00  0.00     0.233 C 
HETATM   27  C4  UNL     1      -4.015   2.175  -1.487  1.00  0.00     0.035 C 
ENDBRANCH  22  26
ENDBRANCH  17  18
ENDBRANCH  14  17
ENDBRANCH   1  13
BRANCH   5  28
HETATM   28  C14 UNL     1       6.034   1.421   1.229  1.00  0.00     0.198 C 
HETATM   29  O3  UNL     1       6.253   0.967   2.375  1.00  0.00    -0.646 OA
HETATM   30  O4  UNL     1       6.915   2.354   0.716  1.00  0.00    -0.646 OA
ENDBRANCH   5  28
TORSDOF 6
