REMARK  8 active torsions:
REMARK  status: ('A' for Active; 'I' for Inactive)
REMARK       I    between atoms: C2_2  and  N1_4 
REMARK    1  A    between atoms: N1_4  and  C3_5 
REMARK    2  A    between atoms: C3_5  and  C4_6 
REMARK    3  A    between atoms: C3_5  and  C19_31 
REMARK       I    between atoms: C4_6  and  N2_8 
REMARK    4  A    between atoms: C10_16  and  C11_17 
REMARK    5  A    between atoms: C11_17  and  O4_18 
REMARK    6  A    between atoms: C11_17  and  N4_20 
REMARK    7  A    between atoms: C13_22  and  C14_23 
REMARK    8  A    between atoms: C14_23  and  C15_24 
ROOT
HETATM    1  C4  UNL     1      -1.493   0.028   0.466  1.00  0.00     0.257 C 
HETATM    2  O2  UNL     1      -0.790   0.810   1.176  1.00  0.00    -0.270 OA
HETATM    3  N2  UNL     1      -1.244  -1.369   0.626  1.00  0.00    -0.327 N 
HETATM    4  C5  UNL     1      -2.041  -2.316  -0.111  1.00  0.00     0.152 C 
HETATM    5  C6  UNL     1      -1.383  -3.540  -0.629  1.00  0.00     0.100 C 
HETATM    6  C7  UNL     1      -2.496  -4.563  -0.897  1.00  0.00     0.034 C 
HETATM    7  N3  UNL     1      -0.499  -4.094   0.383  1.00  0.00    -0.348 N 
HETATM    8  C8  UNL     1      -0.406  -5.528   0.604  1.00  0.00     0.153 C 
HETATM    9  C9  UNL     1       0.271  -3.191   1.147  1.00  0.00     0.251 C 
HETATM   10  O3  UNL     1       1.417  -3.528   1.547  1.00  0.00    -0.271 OA
HETATM   11  C10 UNL     1      -0.206  -1.829   1.518  1.00  0.00     0.254 C 
ENDROOT
BRANCH  11  12
HETATM   12  C11 UNL     1       0.932  -0.926   1.712  1.00  0.00     0.154 C 
BRANCH  12  13
HETATM   13  O4  UNL     1       1.132  -0.568   2.946  1.00  0.00    -0.347 OA
ATOM     14  H4  UNL     1       1.870   0.017   3.072  1.00  0.00     0.219 HD
ENDBRANCH  12  13
BRANCH  12  15
HETATM   15  N4  UNL     1       1.823  -0.407   0.755  1.00  0.00    -0.280 N 
HETATM   16  C12 UNL     1       2.929   0.522   1.118  1.00  0.00     0.161 C 
HETATM   17  C13 UNL     1       2.865   1.439  -0.060  1.00  0.00     0.105 C 
HETATM   18  N5  UNL     1       2.806   0.475  -1.163  1.00  0.00    -0.336 N 
HETATM   19  C18 UNL     1       1.998  -0.582  -0.635  1.00  0.00     0.324 C 
ATOM     20  H5  UNL     1       3.237   0.542  -2.085  1.00  0.00     0.164 HD
HETATM   21  O5  UNL     1       1.494  -1.550  -1.263  1.00  0.00    -0.247 OA
BRANCH  17  22
HETATM   22  C14 UNL     1       3.863   2.484  -0.210  1.00  0.00     0.031 C 
BRANCH  22  23
HETATM   23  C15 UNL     1       5.297   2.165  -0.310  1.00  0.00    -0.021 C 
HETATM   24  C16 UNL     1       5.856   1.503   0.903  1.00  0.00     0.009 C 
HETATM   25  C17 UNL     1       6.072   3.477  -0.531  1.00  0.00     0.009 C 
ENDBRANCH  22  23
ENDBRANCH  17  22
ENDBRANCH  12  15
ENDBRANCH  11  12
BRANCH   1  26
HETATM   26  C3  UNL     1      -2.497   0.616  -0.456  1.00  0.00     0.262 C 
BRANCH  26  27
HETATM   27  N1  UNL     1      -2.457   1.974  -0.771  1.00  0.00    -0.400 NA
HETATM   28  C2  UNL     1      -2.418   3.291  -1.077  1.00  0.00     0.283 C 
HETATM   29  C1  UNL     1      -3.552   3.985  -1.793  1.00  0.00     0.134 C 
HETATM   30  O1  UNL     1      -1.445   4.098  -0.818  1.00  0.00    -0.258 OA
ENDBRANCH  26  27
BRANCH  26  31
HETATM   31  C19 UNL     1      -3.897   0.324   0.056  1.00  0.00     0.023 C 
HETATM   32  C20 UNL     1      -4.960   0.634  -0.948  1.00  0.00     0.013 C 
HETATM   33  C21 UNL     1      -4.151   1.208   1.305  1.00  0.00     0.013 C 
ENDBRANCH  26  31
ENDBRANCH   1  26
TORSDOF 8
