REMARK  4 active torsions:
REMARK  status: ('A' for Active; 'I' for Inactive)
REMARK    1  A    between atoms: C6_8  and  N2_9 
REMARK    2  A    between atoms: N2_9  and  C7_11 
REMARK    3  A    between atoms: N3_13  and  O1_15 
REMARK    4  A    between atoms: C8_17  and  N4_18 
ROOT
HETATM    1  C1  UNL     1      -3.592  -2.076   0.044  1.00  0.00     0.068 C 
HETATM    2  C2  UNL     1      -2.496  -1.067   0.085  1.00  0.00     0.012 A 
HETATM    3  N1  UNL     1      -1.194  -1.401   0.120  1.00  0.00    -0.357 N 
ATOM      4  H1  UNL     1      -0.941  -2.389   0.119  1.00  0.00     0.166 HD
HETATM    5  C3  UNL     1      -0.217  -0.486   0.156  1.00  0.00     0.075 A 
HETATM    6  C4  UNL     1       1.132  -0.864   0.193  1.00  0.00    -0.001 A 
HETATM    7  C5  UNL     1       1.474  -2.288   0.190  1.00  0.00     0.053 C 
HETATM    8  C6  UNL     1       2.084   0.120   0.229  1.00  0.00     0.094 A 
HETATM    9  C8  UNL     1       1.675   1.428   0.228  1.00  0.00     0.169 A 
HETATM   10  O2  UNL     1       0.381   1.746   0.193  1.00  0.00    -0.289 OA
HETATM   11  C9  UNL     1      -0.563   0.841   0.158  1.00  0.00     0.111 A 
HETATM   12  C10 UNL     1      -1.896   1.243   0.122  1.00  0.00    -0.018 A 
HETATM   13  C11 UNL     1      -2.284   2.675   0.123  1.00  0.00     0.052 C 
HETATM   14  C12 UNL     1      -2.867   0.274   0.085  1.00  0.00    -0.031 A 
HETATM   15  C13 UNL     1      -4.298   0.651   0.047  1.00  0.00     0.051 C 
ENDROOT
BRANCH   8  16
HETATM   16  N2  UNL     1       3.446  -0.225   0.266  1.00  0.00    -0.331 N 
ATOM     17  H2  UNL     1       3.884  -0.350   1.179  1.00  0.00     0.168 HD
BRANCH  16  18
HETATM   18  C7  UNL     1       4.246  -0.409  -0.885  1.00  0.00     0.175 C 
HETATM   19  S1  UNL     1       3.649  -1.306  -2.298  1.00  0.00    -0.011 SA
HETATM   20  N3  UNL     1       5.422   0.076  -0.917  1.00  0.00    -0.246 N 
ATOM     21  H3  UNL     1       6.008  -0.051  -1.742  1.00  0.00     0.196 HD
BRANCH  20  22
HETATM   22  O1  UNL     1       5.895   0.769   0.165  1.00  0.00    -0.288 OA
ATOM     23  H1  UNL     1       6.773   1.131   0.141  1.00  0.00     0.244 HD
ENDBRANCH  20  22
ENDBRANCH  16  18
ENDBRANCH   8  16
BRANCH   9  24
HETATM   24  N4  UNL     1       2.515   2.383   0.261  1.00  0.00    -0.378 N 
ATOM     25  H42 UNL     1       3.505   2.140   0.288  1.00  0.00     0.158 HD
ATOM     26  H41 UNL     1       2.211   3.357   0.260  1.00  0.00     0.158 HD
ENDBRANCH   9  24
TORSDOF 4
