REMARK  2 active torsions:
REMARK  status: ('A' for Active; 'I' for Inactive)
REMARK    1  A    between atoms: N2_10  and  N3_12 
REMARK    2  A    between atoms: C9_18  and  C10_19 
ROOT
HETATM    1  N3  UNL     1       0.161  -1.177   0.551  1.00  0.00    -0.270 N 
ATOM      2  H3  UNL     1       0.118  -2.147   0.240  1.00  0.00     0.190 HD
HETATM    3  C8  UNL     1      -0.947  -0.533   0.682  1.00  0.00     0.207 C 
HETATM    4  N4  UNL     1      -1.097   0.818   1.100  1.00  0.00    -0.272 N 
ATOM      5  H4  UNL     1      -0.434   1.378   1.637  1.00  0.00     0.185 HD
HETATM    6  N5  UNL     1      -2.350   1.215   0.616  1.00  0.00    -0.108 NA
HETATM    7  C9  UNL     1      -3.147   0.021   0.912  1.00  0.00     0.233 C 
HETATM    8  N6  UNL     1      -2.289  -1.011   0.441  1.00  0.00    -0.336 N 
ATOM      9  H6  UNL     1      -2.563  -1.900   0.022  1.00  0.00     0.164 HD
ENDROOT
BRANCH   1  10
HETATM   10  N2  UNL     1       1.358  -0.650   0.798  1.00  0.00    -0.296 N 
HETATM   11  C7  UNL     1       2.423  -0.512   0.164  1.00  0.00     0.074 A 
HETATM   12  C2  UNL     1       2.645  -0.959  -1.191  1.00  0.00     0.051 A 
HETATM   13  C6  UNL     1       3.548   0.172   0.882  1.00  0.00     0.041 A 
HETATM   14  C1  UNL     1       1.735  -1.564  -1.903  1.00  0.00     0.045 C 
HETATM   15  N1  UNL     1       3.957  -0.709  -1.763  1.00  0.00    -0.364 N 
HETATM   16  C3  UNL     1       4.871  -0.118  -1.091  1.00  0.00     0.095 A 
ATOM     17  H1  UNL     1       4.153  -1.010  -2.718  1.00  0.00     0.165 HD
HETATM   18  C4  UNL     1       4.685   0.344   0.268  1.00  0.00    -0.044 A 
HETATM   19  C5  UNL     1       5.831   1.035   0.984  1.00  0.00     0.049 C 
ATOM     20  H2  UNL     1       1.420  -0.263   1.740  1.00  0.00     0.187 HD
ENDBRANCH   1  10
BRANCH   7  21
HETATM   21  C10 UNL     1      -4.414   0.054   0.052  1.00  0.00    -0.011 A 
HETATM   22  C11 UNL     1      -5.166   1.169  -0.134  1.00  0.00     0.018 A 
HETATM   23  C12 UNL     1      -6.272   1.052  -0.925  1.00  0.00     0.050 A 
HETATM   24  S1  UNL     1      -6.255  -0.580  -1.393  1.00  0.00    -0.113 SA
HETATM   25  C13 UNL     1      -4.849  -1.084  -0.580  1.00  0.00     0.060 A 
ENDBRANCH   7  21
TORSDOF 2
