REMARK  2 active torsions:
REMARK  status: ('A' for Active; 'I' for Inactive)
REMARK    1  A    between atoms: C3_6  and  C4_7 
REMARK    2  A    between atoms: C8_15  and  N5_16 
ROOT
HETATM    1  C4  UNL     1      -1.174   1.709  -0.045  1.00  0.00     0.068 C 
HETATM    2  C5  UNL     1       0.031   1.189   0.007  1.00  0.00     0.078 A 
HETATM    3  N3  UNL     1       1.288   1.802   0.203  1.00  0.00    -0.346 N 
ATOM      4  H3  UNL     1       1.375   2.807   0.356  1.00  0.00     0.167 HD
HETATM    5  C6  UNL     1       2.396   0.975   0.178  1.00  0.00     0.107 A 
HETATM    6  C7  UNL     1       2.181  -0.360  -0.029  1.00  0.00     0.122 A 
HETATM    7  N4  UNL     1       3.138  -1.285  -0.095  1.00  0.00    -0.183 N 
ATOM      8  H4  UNL     1       2.899  -2.264  -0.252  1.00  0.00     0.185 HD
HETATM    9  C8  UNL     1       4.411  -0.917   0.047  1.00  0.00     0.677 A 
HETATM   10  N6  UNL     1       4.692   0.372   0.253  1.00  0.00    -0.179 N 
ATOM     11  H6  UNL     1       5.668   0.647   0.361  1.00  0.00     0.185 HD
HETATM   12  C9  UNL     1       3.759   1.310   0.323  1.00  0.00     0.146 A 
HETATM   13  S1  UNL     1       4.220   2.856   0.573  1.00  0.00    -0.057 SA
HETATM   14  S2  UNL     1       0.413  -0.553  -0.172  1.00  0.00    -0.052 SA
ENDROOT
BRANCH   1  15
HETATM   15  C3  UNL     1      -2.387   0.937  -0.259  1.00  0.00     0.051 A 
HETATM   16  N2  UNL     1      -3.387   1.280  -1.121  1.00  0.00    -0.351 N 
HETATM   17  C2  UNL     1      -4.377   0.375  -1.078  1.00  0.00     0.182 A 
ATOM     18  H2  UNL     1      -3.383   2.109  -1.715  1.00  0.00     0.166 HD
HETATM   19  N1  UNL     1      -4.043  -0.590  -0.176  1.00  0.00    -0.355 N 
HETATM   20  C1  UNL     1      -4.842  -1.752   0.181  1.00  0.00     0.156 C 
HETATM   21  C10 UNL     1      -2.831  -0.239   0.316  1.00  0.00     0.120 A 
ENDBRANCH   1  15
BRANCH   9  22
HETATM   22  N5  UNL     1       5.392  -1.775  -0.010  1.00  0.00    -0.234 N 
ATOM     23  H52 UNL     1       5.177  -2.760  -0.167  1.00  0.00     0.174 HD
ATOM     24  H51 UNL     1       6.366  -1.493   0.099  1.00  0.00     0.174 HD
ENDBRANCH   9  22
TORSDOF 2
