REMARK  3 active torsions:
REMARK  status: ('A' for Active; 'I' for Inactive)
REMARK    1  A    between atoms: C1_1  and  C2_2 
REMARK    2  A    between atoms: C3_3  and  C4_4 
REMARK    3  A    between atoms: C7_11  and  C8_12 
ROOT
HETATM    1  C2  UNL     1       1.372   0.030   0.062  1.00  0.00     0.002 C 
HETATM    2  C3  UNL     1       2.274  -0.922  -0.043  1.00  0.00     0.031 C 
ENDROOT
BRANCH   1   3
HETATM    3  C1  UNL     1      -0.040  -0.288  -0.045  1.00  0.00     0.001 C 
HETATM    4  C7  UNL     1      -0.934   0.654   0.059  1.00  0.00     0.011 C 
BRANCH   4   5
HETATM    5  C8  UNL     1      -2.372   0.439  -0.034  1.00  0.00    -0.036 A 
HETATM    6  C9  UNL     1      -3.260   1.513   0.090  1.00  0.00     0.011 A 
HETATM    7  C10 UNL     1      -4.628   1.368   0.011  1.00  0.00     0.001 A 
HETATM    8  C11 UNL     1      -5.188   0.126  -0.199  1.00  0.00     0.000 A 
HETATM    9  C12 UNL     1      -4.327  -0.942  -0.323  1.00  0.00     0.001 A 
HETATM   10  C13 UNL     1      -2.935  -0.798  -0.243  1.00  0.00     0.011 A 
ENDBRANCH   4   5
ENDBRANCH   1   3
BRANCH   2  11
HETATM   11  C4  UNL     1       3.703  -0.634   0.060  1.00  0.00     0.049 A 
HETATM   12  C5  UNL     1       4.232   0.618   0.270  1.00  0.00     0.049 A 
HETATM   13  C6  UNL     1       5.614   0.453   0.303  1.00  0.00     0.109 A 
HETATM   14  N1  UNL     1       5.832  -0.860   0.116  1.00  0.00    -0.311 N 
HETATM   15  N2  UNL     1       4.696  -1.519  -0.030  1.00  0.00    -0.301 N 
ATOM     16  H1  UNL     1       6.756  -1.292   0.090  1.00  0.00     0.186 HD
ATOM     17  H2  UNL     1       4.597  -2.522  -0.184  1.00  0.00     0.187 HD
ENDBRANCH   2  11
TORSDOF 3
