REMARK  4 active torsions:
REMARK  status: ('A' for Active; 'I' for Inactive)
REMARK    1  A    between atoms: C3_3  and  O1_4 
REMARK    2  A    between atoms: C3_3  and  C4_6 
REMARK    3  A    between atoms: C3_3  and  C13_15 
REMARK    4  A    between atoms: C5_7  and  C6_8 
ROOT
HETATM    1  C1  UNL     1      -3.686   2.279  -1.258  1.00  0.00     0.015 C 
HETATM    2  C2  UNL     1      -3.172   1.451  -0.546  1.00  0.00    -0.075 C 
HETATM    3  C3  UNL     1      -2.563   0.453   0.339  1.00  0.00     0.138 C 
ENDROOT
BRANCH   3   4
HETATM    4  O1  UNL     1      -3.058   0.712   1.639  1.00  0.00    -0.374 OA
ATOM      5  H1  UNL     1      -2.663   0.065   2.212  1.00  0.00     0.212 HD
ENDBRANCH   3   4
BRANCH   3   6
HETATM    6  C4  UNL     1      -1.097   0.672   0.437  1.00  0.00     0.025 C 
HETATM    7  C5  UNL     1      -0.287  -0.299   0.066  1.00  0.00     0.011 C 
BRANCH   7   8
HETATM    8  C6  UNL     1       1.174  -0.175   0.127  1.00  0.00    -0.036 A 
HETATM    9  C7  UNL     1       1.782   0.958   0.574  1.00  0.00     0.012 A 
HETATM   10  C8  UNL     1       3.166   1.006   0.604  1.00  0.00     0.007 A 
HETATM   11  C9  UNL     1       3.944  -0.045   0.202  1.00  0.00    -0.062 A 
HETATM   12  C10 UNL     1       5.408   0.048   0.251  1.00  0.00     0.048 C 
HETATM   13  C11 UNL     1       3.313  -1.178  -0.246  1.00  0.00     0.007 A 
HETATM   14  C12 UNL     1       1.948  -1.248  -0.285  1.00  0.00     0.012 A 
ENDBRANCH   7   8
ENDBRANCH   3   6
BRANCH   3  15
HETATM   15  C13 UNL     1      -2.854  -0.942  -0.065  1.00  0.00     0.051 C 
HETATM   16  C14 UNL     1      -4.344  -1.253  -0.070  1.00  0.00     0.009 C 
ENDBRANCH   3  15
TORSDOF 4
