REMARK  5 active torsions:
REMARK  status: ('A' for Active; 'I' for Inactive)
REMARK    1  A    between atoms: C4_4  and  C5_5 
REMARK    2  A    between atoms: C6_6  and  O1_7 
REMARK    3  A    between atoms: N2_13  and  C8_14 
REMARK    4  A    between atoms: C8_14  and  C9_15 
REMARK    5  A    between atoms: C9_15  and  C10_16 
ROOT
HETATM    1  C5  UNL     1      -0.578   0.042  -0.453  1.00  0.00     0.084 A 
HETATM    2  C6  UNL     1      -0.870   1.272  -0.978  1.00  0.00     0.160 A 
HETATM    3  N1  UNL     1       0.009   2.308  -0.800  1.00  0.00    -0.288 N 
ATOM      4  H1  UNL     1      -0.205   3.227  -1.189  1.00  0.00     0.172 HD
HETATM    5  C7  UNL     1       1.158   2.120  -0.112  1.00  0.00     0.331 A 
HETATM    6  O2  UNL     1       1.938   3.096   0.030  1.00  0.00    -0.246 OA
HETATM    7  N2  UNL     1       1.477   0.922   0.417  1.00  0.00    -0.265 N 
HETATM    8  C12 UNL     1       0.607  -0.094   0.238  1.00  0.00     0.266 A 
HETATM    9  O3  UNL     1       0.878  -1.224   0.721  1.00  0.00    -0.267 OA
ENDROOT
BRANCH   1  10
HETATM   10  C4  UNL     1      -1.489  -1.063  -0.581  1.00  0.00     0.029 C 
HETATM   11  C3  UNL     1      -2.715  -1.175  -0.183  1.00  0.00    -0.049 C 
HETATM   12  C2  UNL     1      -3.613  -0.278   0.523  1.00  0.00    -0.028 C 
HETATM   13  C13 UNL     1      -3.604  -2.382  -0.430  1.00  0.00     0.042 C 
HETATM   14  C1  UNL     1      -3.258   0.592   1.451  1.00  0.00     0.022 C 
HETATM   15  C15 UNL     1      -4.994  -0.524   0.058  1.00  0.00     0.203 C 
HETATM   16  C14 UNL     1      -4.843  -1.652  -0.924  1.00  0.00     0.047 C 
HETATM   17  F1  UNL     1      -5.795  -1.013   1.098  1.00  0.00    -0.244 F 
ENDBRANCH   1  10
BRANCH   2  18
HETATM   18  O1  UNL     1      -2.024   1.535  -1.698  1.00  0.00    -0.345 OA
ATOM     19  H1  UNL     1      -2.227   2.389  -2.062  1.00  0.00     0.219 HD
ENDBRANCH   2  18
BRANCH   7  20
HETATM   20  C8  UNL     1       2.680   0.683   1.150  1.00  0.00     0.137 C 
BRANCH  20  21
HETATM   21  C9  UNL     1       3.838   0.237   0.292  1.00  0.00     0.020 C 
BRANCH  21  22
HETATM   22  C10 UNL     1       5.020   0.033   1.244  1.00  0.00    -0.003 C 
HETATM   23  C11 UNL     1       6.230  -0.420   0.450  1.00  0.00     0.005 C 
ENDBRANCH  21  22
ENDBRANCH  20  21
ENDBRANCH   7  20
TORSDOF 5
