REMARK  7 active torsions:
REMARK  status: ('A' for Active; 'I' for Inactive)
REMARK    1  A    between atoms: C3_5  and  S1_6 
REMARK    2  A    between atoms: S1_6  and  C4_7 
REMARK    3  A    between atoms: C5_8  and  C6_9 
REMARK    4  A    between atoms: C6_9  and  O1_10 
REMARK    5  A    between atoms: C9_14  and  O2_15 
REMARK    6  A    between atoms: C11_21  and  S2_22 
REMARK    7  A    between atoms: S2_22  and  C12_23 
ROOT
HETATM    1  C4  UNL     1      -0.428  -0.365   0.230  1.00  0.00     0.077 C 
HETATM    2  C5  UNL     1      -0.013  -1.734  -0.171  1.00  0.00     0.031 C 
HETATM    3  C7  UNL     1      -1.205  -2.547  -0.578  1.00  0.00     0.029 C 
HETATM    4  C8  UNL     1      -1.886  -3.259   0.571  1.00  0.00     0.068 C 
HETATM    5  C9  UNL     1      -3.325  -3.285   0.140  1.00  0.00     0.319 C 
HETATM    6  N2  UNL     1      -3.514  -2.052  -0.556  1.00  0.00    -0.043 N 
ATOM      7  H21 UNL     1      -4.092  -1.399  -0.028  1.00  0.00     0.280 HD
ATOM      8  H22 UNL     1      -4.119  -2.160  -1.370  1.00  0.00     0.280 HD
HETATM    9  C10 UNL     1      -2.247  -1.490  -0.900  1.00  0.00     0.208 C 
HETATM   10  C11 UNL     1      -1.912  -0.334   0.012  1.00  0.00     0.093 C 
ENDROOT
BRANCH   1  11
HETATM   11  S1  UNL     1       0.297   0.921  -0.822  1.00  0.00    -0.087 SA
BRANCH  11  12
HETATM   12  C3  UNL     1       2.068   1.013  -0.638  1.00  0.00     0.145 A 
HETATM   13  N1  UNL     1       2.690   1.789   0.267  1.00  0.00    -0.339 N 
HETATM   14  C2  UNL     1       4.037   1.836   0.387  1.00  0.00     0.031 A 
ATOM     15  H1  UNL     1       2.123   2.366   0.889  1.00  0.00     0.168 HD
HETATM   16  C1  UNL     1       4.705   2.703   1.397  1.00  0.00     0.070 C 
HETATM   17  C18 UNL     1       4.811   1.069  -0.440  1.00  0.00     0.078 A 
HETATM   18  C16 UNL     1       4.192   0.267  -1.374  1.00  0.00     0.031 A 
HETATM   19 CL1  UNL     1       6.542   1.083  -0.338  1.00  0.00    -0.080 Cl
HETATM   20  N3  UNL     1       2.844   0.266  -1.441  1.00  0.00    -0.339 N 
HETATM   21  C17 UNL     1       5.000  -0.583  -2.291  1.00  0.00     0.070 C 
ATOM     22  H3  UNL     1       2.393  -0.330  -2.135  1.00  0.00     0.168 HD
ENDBRANCH  11  12
ENDBRANCH   1  11
BRANCH   2  23
HETATM   23  C6  UNL     1       0.779  -2.485   0.877  1.00  0.00     0.170 C 
BRANCH  23  24
HETATM   24  O1  UNL     1       1.070  -3.743   0.309  1.00  0.00    -0.400 OA
ATOM     25  H1  UNL     1       1.567  -4.215   0.967  1.00  0.00     0.209 HD
ENDBRANCH  23  24
ENDBRANCH   2  23
BRANCH  10  26
HETATM   26  S2  UNL     1      -2.351   1.194  -0.846  1.00  0.00    -0.156 SA
BRANCH  26  27
HETATM   27  C12 UNL     1      -2.044   2.588   0.243  1.00  0.00     0.047 C 
HETATM   28  C13 UNL     1      -2.392   3.903  -0.429  1.00  0.00     0.015 C 
HETATM   29  C14 UNL     1      -3.087   4.289   0.880  1.00  0.00     0.002 C 
HETATM   30  C15 UNL     1      -3.277   2.808   1.127  1.00  0.00     0.015 C 
ENDBRANCH  26  27
ENDBRANCH  10  26
BRANCH   5  31
HETATM   31  O2  UNL     1      -4.175  -3.251   1.265  1.00  0.00    -0.370 OA
ATOM     32  H2  UNL     1      -5.085  -3.267   0.992  1.00  0.00     0.212 HD
ENDBRANCH   5  31
TORSDOF 7
