REMARK  8 active torsions:
REMARK  status: ('A' for Active; 'I' for Inactive)
REMARK    1  A    between atoms: C3_5  and  N2_6 
REMARK    2  A    between atoms: C8_15  and  N4_16 
REMARK    3  A    between atoms: N4_16  and  C9_18 
REMARK    4  A    between atoms: C9_18  and  C10_19 
REMARK    5  A    between atoms: C10_19  and  C11_20 
REMARK    6  A    between atoms: C11_20  and  N5_21 
REMARK    7  A    between atoms: C16_26  and  C17_27 
REMARK    8  A    between atoms: C19_30  and  N6_31 
ROOT
HETATM    1  C1  UNL     1      -2.875   3.149  -2.020  1.00  0.00     0.070 C 
HETATM    2  C2  UNL     1      -2.417   2.024  -1.158  1.00  0.00     0.039 A 
HETATM    3  N1  UNL     1      -3.067   0.818  -1.255  1.00  0.00    -0.195 N 
ATOM      4  H1  UNL     1      -3.869   0.749  -1.882  1.00  0.00     0.184 HD
HETATM    5  C3  UNL     1      -2.704  -0.263  -0.573  1.00  0.00     0.682 A 
HETATM    6  N3  UNL     1      -1.646  -0.153   0.249  1.00  0.00    -0.176 N 
ATOM      7  H3  UNL     1      -1.351  -0.972   0.781  1.00  0.00     0.186 HD
HETATM    8  C8  UNL     1      -0.959   1.001   0.397  1.00  0.00     0.131 A 
HETATM    9  C16 UNL     1      -1.358   2.141  -0.335  1.00  0.00     0.058 A 
ENDROOT
BRANCH   8  10
HETATM   10  N4  UNL     1       0.020   1.116   1.203  1.00  0.00    -0.375 N 
ATOM     11  H4  UNL     1       0.494   2.017   1.263  1.00  0.00     0.161 HD
BRANCH  10  12
HETATM   12  C9  UNL     1       0.488   0.052   2.025  1.00  0.00     0.123 C 
BRANCH  12  13
HETATM   13  C10 UNL     1       1.441  -0.897   1.316  1.00  0.00     0.050 C 
BRANCH  13  14
HETATM   14  C11 UNL     1       2.676  -0.161   0.829  1.00  0.00     0.274 C 
BRANCH  14  15
HETATM   15  N5  UNL     1       3.578  -1.067   0.158  1.00  0.00     0.088 N 
HETATM   16  C12 UNL     1       4.721  -0.319  -0.278  1.00  0.00     0.272 C 
HETATM   17  C13 UNL     1       5.935  -0.887   0.382  1.00  0.00     0.032 C 
HETATM   18  C14 UNL     1       5.473  -2.296   0.738  1.00  0.00     0.032 C 
HETATM   19  C15 UNL     1       4.025  -2.047   1.104  1.00  0.00     0.272 C 
ENDBRANCH  14  15
ENDBRANCH  13  14
ENDBRANCH  12  13
ENDBRANCH  10  12
ENDBRANCH   8  10
BRANCH   9  20
HETATM   20  C17 UNL     1      -0.682   3.457  -0.096  1.00  0.00     0.056 A 
HETATM   21  C18 UNL     1      -1.407   4.628  -0.018  1.00  0.00     0.083 A 
HETATM   22  S1  UNL     1      -0.222   5.780   0.402  1.00  0.00    -0.064 SA
HETATM   23  C19 UNL     1       1.121   4.743   0.460  1.00  0.00     0.142 A 
HETATM   24  N7  UNL     1       0.599   3.552   0.152  1.00  0.00    -0.336 N 
ATOM     25  H7  UNL     1       1.194   2.725   0.111  1.00  0.00     0.168 HD
BRANCH  23  26
HETATM   26  N6  UNL     1       2.385   5.011   0.737  1.00  0.00    -0.380 N 
ATOM     27  H62 UNL     1       2.783   5.920   0.972  1.00  0.00     0.158 HD
ATOM     28  H61 UNL     1       3.192   4.388   0.772  1.00  0.00     0.158 HD
ENDBRANCH  23  26
ENDBRANCH   9  20
BRANCH   5  29
HETATM   29  N2  UNL     1      -3.382  -1.519  -0.675  1.00  0.00    -0.211 N 
HETATM   30  C4  UNL     1      -4.509  -1.637  -1.549  1.00  0.00     0.167 C 
HETATM   31  C5  UNL     1      -4.582  -2.989  -2.190  1.00  0.00     0.191 C 
HETATM   32  O1  UNL     1      -4.101  -4.018  -1.416  1.00  0.00    -0.353 OA
HETATM   33  C6  UNL     1      -3.995  -3.738  -0.076  1.00  0.00     0.325 C 
HETATM   34  F1  UNL     1      -3.638  -4.863   0.605  1.00  0.00    -0.218 F 
HETATM   35  C7  UNL     1      -2.941  -2.665   0.093  1.00  0.00     0.207 C 
ENDBRANCH   5  29
TORSDOF 8
