REMARK  9 active torsions:
REMARK  status: ('A' for Active; 'I' for Inactive)
REMARK    1  A    between atoms: O1_2  and  C2_3 
REMARK    2  A    between atoms: C5_7  and  N1_8 
REMARK    3  A    between atoms: N1_8  and  C6_10 
REMARK    4  A    between atoms: C6_10  and  C7_15 
REMARK    5  A    between atoms: N2_11  and  O2_13 
REMARK    6  A    between atoms: C7_15  and  N5_20 
REMARK    7  A    between atoms: N5_20  and  C9_22 
REMARK    8  A    between atoms: C9_22  and  C10_23 
REMARK    9  A    between atoms: C17_31  and  O3_32 
ROOT
HETATM    1  C7  UNL     1      -0.284  -0.137  -1.676  1.00  0.00     0.157 C 
HETATM    2  N3  UNL     1      -0.430   1.066  -2.079  1.00  0.00    -0.276 N 
ATOM      3  H3  UNL     1       0.381   1.575  -2.430  1.00  0.00     0.179 HD
HETATM    4  C8  UNL     1      -1.651   1.691  -2.052  1.00  0.00     0.183 C 
HETATM    5  N4  UNL     1      -2.671   2.233  -2.044  1.00  0.00    -0.172 NA
ENDROOT
BRANCH   1   6
HETATM    6  C6  UNL     1       1.072  -0.712  -1.748  1.00  0.00     0.171 C 
HETATM    7  N2  UNL     1       1.306  -1.917  -1.368  1.00  0.00    -0.250 N 
ATOM      8  H2  UNL     1       2.263  -2.262  -1.445  1.00  0.00     0.196 HD
BRANCH   6   9
HETATM    9  N1  UNL     1       2.166   0.046  -2.245  1.00  0.00    -0.337 N 
ATOM     10  H1  UNL     1       2.156   0.309  -3.230  1.00  0.00     0.168 HD
BRANCH   9  11
HETATM   11  C5  UNL     1       3.267   0.459  -1.461  1.00  0.00     0.058 A 
HETATM   12  C4  UNL     1       4.273   1.195  -2.037  1.00  0.00     0.063 A 
HETATM   13  C3  UNL     1       5.370   1.624  -1.320  1.00  0.00     0.065 A 
HETATM   14 CL1  UNL     1       4.158   1.604  -3.733  1.00  0.00    -0.082 Cl
HETATM   15  C2  UNL     1       5.457   1.297   0.032  1.00  0.00     0.103 A 
HETATM   16  C17 UNL     1       4.450   0.551   0.642  1.00  0.00     0.103 A 
HETATM   17  C16 UNL     1       3.370   0.143  -0.114  1.00  0.00     0.071 A 
BRANCH  15  18
HETATM   18  O1  UNL     1       6.525   1.692   0.809  1.00  0.00    -0.353 OA
HETATM   19  C1  UNL     1       7.593   2.454   0.269  1.00  0.00     0.210 C 
ENDBRANCH  15  18
BRANCH  16  20
HETATM   20  O3  UNL     1       4.570   0.245   1.987  1.00  0.00    -0.353 OA
HETATM   21  C18 UNL     1       3.562  -0.512   2.630  1.00  0.00     0.210 C 
ENDBRANCH  16  20
ENDBRANCH   9  11
ENDBRANCH   6   9
BRANCH   7  22
HETATM   22  O2  UNL     1       0.360  -2.768  -0.868  1.00  0.00    -0.288 OA
ATOM     23  H2  UNL     1       0.533  -3.659  -0.587  1.00  0.00     0.244 HD
ENDBRANCH   7  22
ENDBRANCH   1   6
BRANCH   1  24
HETATM   24  N5  UNL     1      -1.380  -0.879  -1.180  1.00  0.00    -0.372 N 
ATOM     25  H5  UNL     1      -1.821  -1.566  -1.792  1.00  0.00     0.161 HD
BRANCH  24  26
HETATM   26  C9  UNL     1      -1.907  -0.705   0.169  1.00  0.00     0.126 C 
BRANCH  26  27
HETATM   27  C10 UNL     1      -3.039  -1.653   0.446  1.00  0.00     0.007 C 
HETATM   28  C11 UNL     1      -3.542  -1.432   1.833  1.00  0.00     0.036 C 
HETATM   29  C12 UNL     1      -4.529  -0.338   2.006  1.00  0.00     0.272 C 
HETATM   30  N6  UNL     1      -4.791   0.424   0.813  1.00  0.00     0.084 N 
HETATM   31  C13 UNL     1      -5.991   1.207   1.053  1.00  0.00     0.309 C 
HETATM   32  C14 UNL     1      -5.027  -0.380  -0.350  1.00  0.00     0.272 C 
HETATM   33  C15 UNL     1      -4.177  -1.583  -0.507  1.00  0.00     0.036 C 
ENDBRANCH  26  27
ENDBRANCH  24  26
ENDBRANCH   1  24
TORSDOF 9
