REMARK  3 active torsions:
REMARK  status: ('A' for Active; 'I' for Inactive)
REMARK    1  A    between atoms: N1_2  and  C2_4 
REMARK    2  A    between atoms: C2_4  and  C4_12 
REMARK    3  A    between atoms: N2_5  and  N3_7 
ROOT
HETATM    1  C2  UNL     1       0.395   0.639  -0.237  1.00  0.00     0.136 C 
HETATM    2  N2  UNL     1       0.971  -0.185  -1.029  1.00  0.00    -0.282 N 
ATOM      3  H2  UNL     1       0.407  -0.925  -1.447  1.00  0.00     0.188 HD
ENDROOT
BRANCH   1   4
HETATM    4  N1  UNL     1       1.034   1.705   0.412  1.00  0.00    -0.378 N 
HETATM    5  C1  UNL     1       0.518   3.055   0.409  1.00  0.00     0.147 C 
ATOM      6  H1  UNL     1       1.905   1.519   0.910  1.00  0.00     0.160 HD
ENDBRANCH   1   4
BRANCH   1   7
HETATM    7  C4  UNL     1      -1.055   0.426  -0.009  1.00  0.00     0.091 A 
HETATM    8  S1  UNL     1      -2.280   1.552   0.352  1.00  0.00    -0.053 SA
HETATM    9  C5  UNL     1      -3.592   0.480   0.444  1.00  0.00     0.146 A 
HETATM   10  S2  UNL     1      -5.174   0.831   0.768  1.00  0.00    -0.052 SA
HETATM   11  N6  UNL     1      -3.038  -0.710   0.192  1.00  0.00    -0.326 N 
HETATM   12  C6  UNL     1      -3.898  -1.932   0.185  1.00  0.00     0.159 C 
HETATM   13  C7  UNL     1      -1.752  -0.755  -0.040  1.00  0.00     0.128 A 
HETATM   14 CL1  UNL     1      -0.884  -2.291  -0.391  1.00  0.00    -0.063 Cl
ENDBRANCH   1   7
BRANCH   2  15
HETATM   15  N3  UNL     1       2.326  -0.128  -1.352  1.00  0.00    -0.274 N 
HETATM   16  C3  UNL     1       3.164  -0.743  -0.620  1.00  0.00     0.215 C 
HETATM   17  N4  UNL     1       2.737  -1.474   0.503  1.00  0.00    -0.065 NA
HETATM   18  N5  UNL     1       4.538  -0.694  -0.935  1.00  0.00    -0.065 NA
ATOM     19  H3  UNL     1       2.641   0.401  -2.165  1.00  0.00     0.189 HD
ENDBRANCH   2  15
TORSDOF 3
