REMARK  13 active torsions:
REMARK  status: ('A' for Active; 'I' for Inactive)
REMARK    1  A    between atoms: O1_2  and  C2_3 
REMARK    2  A    between atoms: C2_3  and  C3_4 
REMARK    3  A    between atoms: C7_8  and  C8_9 
REMARK    4  A    between atoms: C8_9  and  N1_10 
REMARK    5  A    between atoms: N1_10  and  C9_12 
REMARK    6  A    between atoms: C10_15  and  N3_16 
REMARK    7  A    between atoms: N3_16  and  C12_18 
REMARK    8  A    between atoms: C12_18  and  C13_19 
REMARK    9  A    between atoms: C13_19  and  C14_20 
REMARK   10  A    between atoms: C20_26  and  C21_27 
REMARK   11  A    between atoms: C21_27  and  C22_28 
REMARK   12  A    between atoms: C23_29  and  C24_30 
REMARK       I    between atoms: C24_30  and  N4_32 
REMARK   13  A    between atoms: N6_37  and  C27_38 
ROOT
HETATM    1  C9  UNL     1       2.107  -0.497   1.491  1.00  0.00     0.682 A 
HETATM    2  N2  UNL     1       1.978   0.631   0.826  1.00  0.00    -0.176 N 
ATOM      3  H2  UNL     1       2.826   1.172   0.658  1.00  0.00     0.186 HD
HETATM    4  C10 UNL     1       0.803   1.141   0.340  1.00  0.00     0.131 A 
HETATM    5  C20 UNL     1      -0.337   0.370   0.591  1.00  0.00     0.059 A 
HETATM    6  C35 UNL     1      -0.231  -0.813   1.283  1.00  0.00     0.270 A 
HETATM    7  O3  UNL     1      -1.219  -1.567   1.550  1.00  0.00    -0.267 OA
HETATM    8  N7  UNL     1       0.985  -1.209   1.710  1.00  0.00    -0.156 N 
ATOM      9  H7  UNL     1       1.059  -2.088   2.222  1.00  0.00     0.187 HD
ENDROOT
BRANCH   5  10
HETATM   10  C21 UNL     1      -1.622   0.868   0.127  1.00  0.00     0.091 C 
BRANCH  10  11
HETATM   11  C22 UNL     1      -2.795  -0.029   0.211  1.00  0.00     0.004 A 
HETATM   12  C23 UNL     1      -3.155  -1.051  -0.652  1.00  0.00     0.125 A 
HETATM   13  N5  UNL     1      -4.288  -1.567  -0.160  1.00  0.00    -0.288 N 
HETATM   14  N6  UNL     1      -4.681  -0.966   0.937  1.00  0.00    -0.260 N 
ATOM     15  H5  UNL     1      -4.791  -2.343  -0.591  1.00  0.00     0.188 HD
HETATM   16  C33 UNL     1      -3.786  -0.006   1.204  1.00  0.00     0.040 A 
HETATM   17  C34 UNL     1      -3.811   0.954   2.362  1.00  0.00     0.071 C 
BRANCH  12  18
HETATM   18  C24 UNL     1      -2.441  -1.482  -1.868  1.00  0.00     0.271 C 
HETATM   19  O2  UNL     1      -1.377  -0.920  -2.239  1.00  0.00    -0.266 OA
HETATM   20  N4  UNL     1      -2.955  -2.546  -2.631  1.00  0.00    -0.355 N 
HETATM   21  C25 UNL     1      -2.256  -2.987  -3.842  1.00  0.00     0.152 C 
HETATM   22  C26 UNL     1      -4.158  -3.262  -2.305  1.00  0.00     0.152 C 
ENDBRANCH  12  18
BRANCH  14  23
HETATM   23  C27 UNL     1      -5.861  -1.309   1.699  1.00  0.00     0.056 A 
HETATM   24  C28 UNL     1      -5.799  -1.642   3.008  1.00  0.00     0.031 A 
HETATM   25  C29 UNL     1      -6.941  -1.963   3.719  1.00  0.00     0.002 A 
HETATM   26  C30 UNL     1      -8.168  -1.946   3.090  1.00  0.00     0.000 A 
HETATM   27  C31 UNL     1      -8.258  -1.606   1.738  1.00  0.00     0.002 A 
HETATM   28  C32 UNL     1      -7.093  -1.292   1.065  1.00  0.00     0.031 A 
ENDBRANCH  14  23
ENDBRANCH  10  11
ENDBRANCH   5  10
BRANCH   4  29
HETATM   29  N3  UNL     1       0.828   2.376  -0.353  1.00  0.00    -0.370 N 
HETATM   30  C11 UNL     1       0.979   2.406  -1.773  1.00  0.00     0.151 C 
BRANCH  29  31
HETATM   31  C12 UNL     1       0.778   3.587   0.391  1.00  0.00     0.128 C 
BRANCH  31  32
HETATM   32  C13 UNL     1      -0.365   4.497   0.282  1.00  0.00     0.058 C 
BRANCH  32  33
HETATM   33  C14 UNL     1      -0.705   5.054  -1.031  1.00  0.00    -0.057 A 
HETATM   34  C15 UNL     1      -1.652   4.449  -1.807  1.00  0.00     0.007 A 
HETATM   35  C16 UNL     1      -2.008   4.928  -3.031  1.00  0.00     0.001 A 
HETATM   36  C17 UNL     1      -1.381   6.084  -3.513  1.00  0.00     0.000 A 
HETATM   37  C18 UNL     1      -0.434   6.682  -2.728  1.00  0.00     0.001 A 
HETATM   38  C19 UNL     1      -0.082   6.191  -1.494  1.00  0.00     0.007 A 
ENDBRANCH  32  33
ENDBRANCH  31  32
ENDBRANCH  29  31
ENDBRANCH   4  29
BRANCH   1  39
HETATM   39  N1  UNL     1       3.180  -0.982   1.955  1.00  0.00    -0.222 N 
ATOM     40  H1  UNL     1       3.128  -1.871   2.452  1.00  0.00     0.178 HD
BRANCH  39  41
HETATM   41  C8  UNL     1       4.450  -0.366   1.827  1.00  0.00     0.176 C 
BRANCH  41  42
HETATM   42  C7  UNL     1       5.266  -1.088   0.792  1.00  0.00    -0.039 A 
HETATM   43  C6  UNL     1       5.169  -0.751  -0.542  1.00  0.00     0.009 A 
HETATM   44  C5  UNL     1       5.915  -1.418  -1.461  1.00  0.00     0.001 A 
HETATM   45  C4  UNL     1       6.770  -2.426  -1.083  1.00  0.00     0.009 A 
HETATM   46  C3  UNL     1       6.862  -2.758   0.255  1.00  0.00    -0.034 A 
HETATM   47  C36 UNL     1       6.117  -2.095   1.179  1.00  0.00     0.018 A 
BRANCH  46  48
HETATM   48  C2  UNL     1       7.785  -3.837   0.651  1.00  0.00     0.205 C 
BRANCH  48  49
HETATM   49  O1  UNL     1       8.879  -3.247   1.281  1.00  0.00    -0.391 OA
HETATM   50  C1  UNL     1       9.763  -4.263   1.673  1.00  0.00     0.201 C 
ENDBRANCH  48  49
ENDBRANCH  46  48
ENDBRANCH  41  42
ENDBRANCH  39  41
ENDBRANCH   1  39
TORSDOF 13
