REMARK  15 active torsions:
REMARK  status: ('A' for Active; 'I' for Inactive)
REMARK    1  A    between atoms: C3_3  and  C4_4 
REMARK    2  A    between atoms: C6_6  and  N1_7 
REMARK    3  A    between atoms: N1_7  and  C7_9 
REMARK    4  A    between atoms: C10_14  and  N3_15 
REMARK    5  A    between atoms: N3_15  and  C11_17 
REMARK    6  A    between atoms: C15_21  and  O1_22 
REMARK    7  A    between atoms: O1_22  and  C16_23 
REMARK    8  A    between atoms: C16_23  and  C17_24 
REMARK    9  A    between atoms: C17_24  and  C18_25 
REMARK   10  A    between atoms: C18_25  and  N4_26 
REMARK   11  A    between atoms: C30_40  and  O2_41 
REMARK   12  A    between atoms: O2_41  and  C31_42 
REMARK   13  A    between atoms: C31_42  and  C32_43 
REMARK   14  A    between atoms: C32_43  and  C33_44 
REMARK   15  A    between atoms: C33_44  and  N6_45 
ROOT
HETATM    1  C1  UNL     1       4.477  -0.291  -5.968  1.00  0.00     0.112 C 
HETATM    2  C2  UNL     1       4.027  -0.279  -4.573  1.00  0.00    -0.105 C 
HETATM    3  C3  UNL     1       3.646  -0.249  -3.416  1.00  0.00    -0.065 C 
ENDROOT
BRANCH   3   4
HETATM    4  C4  UNL     1       3.203  -0.187  -2.046  1.00  0.00     0.047 A 
HETATM    5  C5  UNL     1       1.910   0.062  -1.693  1.00  0.00     0.053 A 
HETATM    6  C6  UNL     1       1.483   0.126  -0.360  1.00  0.00     0.051 A 
HETATM    7  C26 UNL     1       2.391  -0.068   0.648  1.00  0.00     0.043 A 
HETATM    8  C27 UNL     1       3.706  -0.323   0.309  1.00  0.00    -0.006 A 
HETATM    9  C28 UNL     1       4.657  -0.528   1.283  1.00  0.00     0.018 A 
HETATM   10  C39 UNL     1       4.117  -0.384  -1.015  1.00  0.00     0.063 A 
HETATM   11  C29 UNL     1       5.979  -0.787   0.917  1.00  0.00     0.057 A 
HETATM   12  C30 UNL     1       6.334  -0.838  -0.393  1.00  0.00     0.142 A 
HETATM   13  N8  UNL     1       5.378  -0.632  -1.336  1.00  0.00    -0.335 N 
ATOM     14  H8  UNL     1       5.639  -0.669  -2.321  1.00  0.00     0.168 HD
BRANCH   6  15
HETATM   15  N1  UNL     1       0.123   0.381  -0.065  1.00  0.00    -0.192 N 
ATOM     16  H1  UNL     1      -0.473  -0.389   0.239  1.00  0.00     0.184 HD
BRANCH  15  17
HETATM   17  C7  UNL     1      -0.380   1.560  -0.171  1.00  0.00     0.684 A 
HETATM   18  N2  UNL     1       0.350   2.641  -0.569  1.00  0.00    -0.202 N 
HETATM   19  C8  UNL     1      -0.219   3.846  -0.688  1.00  0.00     0.110 A 
ATOM     20  H2  UNL     1       1.342   2.529  -0.779  1.00  0.00     0.183 HD
HETATM   21  C9  UNL     1      -1.551   3.948  -0.398  1.00  0.00     0.066 A 
HETATM   22  C10 UNL     1      -2.332   2.851   0.014  1.00  0.00     0.122 A 
HETATM   23  N5  UNL     1      -1.712   1.674   0.117  1.00  0.00    -0.176 N 
ATOM     24  H5  UNL     1      -2.237   0.851   0.413  1.00  0.00     0.186 HD
BRANCH  22  25
HETATM   25  N3  UNL     1      -3.561   3.029   0.252  1.00  0.00    -0.342 N 
ATOM     26  H3  UNL     1      -3.930   3.972   0.133  1.00  0.00     0.167 HD
BRANCH  25  27
HETATM   27  C11 UNL     1      -4.452   2.038   0.665  1.00  0.00     0.034 A 
HETATM   28  C12 UNL     1      -5.102   2.132   1.902  1.00  0.00     0.039 A 
HETATM   29  C13 UNL     1      -6.007   1.164   2.316  1.00  0.00    -0.026 A 
HETATM   30  C14 UNL     1      -6.719   1.226   3.615  1.00  0.00     0.051 C 
HETATM   31  C15 UNL     1      -6.256   0.101   1.482  1.00  0.00     0.080 A 
HETATM   32  C23 UNL     1      -5.647  -0.049   0.255  1.00  0.00    -0.026 A 
HETATM   33  C24 UNL     1      -5.973  -1.229  -0.573  1.00  0.00     0.051 C 
HETATM   34  C25 UNL     1      -4.758   0.940  -0.108  1.00  0.00     0.039 A 
BRANCH  31  35
HETATM   35  O1  UNL     1      -7.174  -0.883   1.895  1.00  0.00    -0.350 OA
BRANCH  35  36
HETATM   36  C16 UNL     1      -8.531  -0.593   1.456  1.00  0.00     0.177 C 
BRANCH  36  37
HETATM   37  C17 UNL     1      -9.465  -1.647   1.905  1.00  0.00     0.057 C 
BRANCH  37  38
HETATM   38  C18 UNL     1     -10.909  -1.491   1.565  1.00  0.00     0.274 C 
BRANCH  38  39
HETATM   39  N4  UNL     1     -11.285  -1.427   0.209  1.00  0.00     0.088 N 
HETATM   40  C19 UNL     1     -10.934  -0.244  -0.500  1.00  0.00     0.272 C 
HETATM   41  C20 UNL     1     -12.202   0.227  -1.206  1.00  0.00     0.032 C 
HETATM   42  C21 UNL     1     -13.313  -0.391  -0.383  1.00  0.00     0.032 C 
HETATM   43  C22 UNL     1     -12.684  -1.708   0.012  1.00  0.00     0.272 C 
ENDBRANCH  38  39
ENDBRANCH  37  38
ENDBRANCH  36  37
ENDBRANCH  35  36
ENDBRANCH  31  35
ENDBRANCH  25  27
ENDBRANCH  22  25
ENDBRANCH  15  17
ENDBRANCH   6  15
BRANCH  12  44
HETATM   44  O2  UNL     1       7.618  -1.089  -0.857  1.00  0.00    -0.336 OA
BRANCH  44  45
HETATM   45  C31 UNL     1       7.935  -1.133  -2.220  1.00  0.00     0.179 C 
BRANCH  45  46
HETATM   46  C32 UNL     1       9.395  -1.421  -2.484  1.00  0.00     0.057 C 
BRANCH  46  47
HETATM   47  C33 UNL     1      10.218  -0.335  -1.853  1.00  0.00     0.274 C 
BRANCH  47  48
HETATM   48  N6  UNL     1       9.994  -0.287  -0.440  1.00  0.00     0.091 N 
HETATM   49  C34 UNL     1      10.550  -1.447   0.198  1.00  0.00     0.302 C 
HETATM   50  C35 UNL     1      10.197  -1.370   1.687  1.00  0.00     0.302 C 
HETATM   51  N7  UNL     1      10.910  -0.232   2.225  1.00  0.00     0.087 N 
HETATM   52  C36 UNL     1      10.608  -0.154   3.641  1.00  0.00     0.310 C 
HETATM   53  C37 UNL     1      10.495   1.005   1.585  1.00  0.00     0.302 C 
HETATM   54  C38 UNL     1      10.546   0.920   0.095  1.00  0.00     0.302 C 
ENDBRANCH  47  48
ENDBRANCH  46  47
ENDBRANCH  45  46
ENDBRANCH  44  45
ENDBRANCH  12  44
ENDBRANCH   3   4
TORSDOF 15
