REMARK  7 active torsions:
REMARK  status: ('A' for Active; 'I' for Inactive)
REMARK    1  A    between atoms: O1_2  and  C2_3 
REMARK    2  A    between atoms: C2_3  and  C3_5 
REMARK    3  A    between atoms: C4_6  and  C5_7 
REMARK    4  A    between atoms: C5_7  and  C6_9 
REMARK    5  A    between atoms: C6_9  and  O4_10 
REMARK    6  A    between atoms: C8_15  and  C10_18 
REMARK       I    between atoms: C10_18  and  N3_20 
REMARK    7  A    between atoms: N3_20  and  C11_22 
ROOT
HETATM    1  C3  UNL     1      -2.918   0.171   0.914  1.00  0.00     0.190 A 
HETATM    2  C4  UNL     1      -2.297   1.339   0.302  1.00  0.00     0.077 A 
HETATM    3  N1  UNL     1      -1.140   0.833   0.428  1.00  0.00    -0.356 N 
ATOM      4  H1  UNL     1      -0.219   1.188   0.169  1.00  0.00     0.166 HD
HETATM    5  C7  UNL     1      -1.524  -0.352   1.029  1.00  0.00     0.056 A 
HETATM    6  C8  UNL     1      -0.992  -1.442   1.520  1.00  0.00     0.136 C 
HETATM    7  C9  UNL     1      -1.882  -2.429   2.113  1.00  0.00     0.107 C 
HETATM    8  N2  UNL     1      -2.579  -3.236   2.609  1.00  0.00    -0.191 NA
ENDROOT
BRANCH   6   9
HETATM    9  C10 UNL     1       0.416  -1.741   1.517  1.00  0.00     0.268 C 
HETATM   10  O5  UNL     1       0.712  -2.866   2.052  1.00  0.00    -0.266 OA
HETATM   11  N3  UNL     1       1.393  -0.909   0.991  1.00  0.00    -0.321 N 
ATOM     12  H3  UNL     1       1.078  -0.032   0.575  1.00  0.00     0.169 HD
BRANCH  11  13
HETATM   13  C11 UNL     1       2.828  -1.169   0.976  1.00  0.00     0.056 A 
HETATM   14  C12 UNL     1       3.322  -2.153   1.784  1.00  0.00     0.081 A 
HETATM   15  S1  UNL     1       5.009  -2.084   1.526  1.00  0.00    -0.097 SA
HETATM   16  C13 UNL     1       5.048  -0.811   0.400  1.00  0.00     0.045 A 
HETATM   17  C14 UNL     1       6.108  -0.187  -0.281  1.00  0.00     0.093 A 
HETATM   18  C18 UNL     1       3.744  -0.460   0.244  1.00  0.00     0.052 A 
HETATM   19 CL1  UNL     1       7.708  -0.787   0.063  1.00  0.00    -0.079 Cl
HETATM   20  C15 UNL     1       5.870   0.835  -1.165  1.00  0.00     0.181 A 
HETATM   21  F1  UNL     1       6.885   1.439  -1.824  1.00  0.00    -0.201 F 
HETATM   22  C16 UNL     1       4.548   1.182  -1.318  1.00  0.00     0.196 A 
HETATM   23  F2  UNL     1       4.293   2.200  -2.196  1.00  0.00    -0.199 F 
HETATM   24  C17 UNL     1       3.499   0.591  -0.665  1.00  0.00     0.172 A 
HETATM   25  F3  UNL     1       2.266   1.062  -0.957  1.00  0.00    -0.202 F 
ENDBRANCH  11  13
ENDBRANCH   6   9
BRANCH   1  26
HETATM   26  C2  UNL     1      -3.753  -0.577  -0.053  1.00  0.00     0.274 C 
HETATM   27  O2  UNL     1      -3.739  -0.195  -1.268  1.00  0.00    -0.264 OA
BRANCH  26  28
HETATM   28  O1  UNL     1      -4.553  -1.656   0.224  1.00  0.00    -0.326 OA
HETATM   29  C1  UNL     1      -5.327  -2.323  -0.762  1.00  0.00     0.213 C 
ENDBRANCH  26  28
ENDBRANCH   1  26
BRANCH   2  30
HETATM   30  C5  UNL     1      -2.817   2.615  -0.251  1.00  0.00     0.196 C 
HETATM   31  O3  UNL     1      -4.045   2.783  -0.211  1.00  0.00    -0.289 OA
BRANCH  30  32
HETATM   32  C6  UNL     1      -1.844   3.586  -0.804  1.00  0.00     0.249 C 
BRANCH  32  33
HETATM   33  O4  UNL     1      -2.485   4.712  -1.273  1.00  0.00    -0.393 OA
ATOM     34  H4  UNL     1      -1.861   5.335  -1.628  1.00  0.00     0.209 HD
ENDBRANCH  32  33
ENDBRANCH  30  32
ENDBRANCH   2  30
TORSDOF 7
