REMARK  11 active torsions:
REMARK  status: ('A' for Active; 'I' for Inactive)
REMARK    1  A    between atoms: C2_2  and  C3_3 
REMARK    2  A    between atoms: C3_3  and  C4_4 
REMARK    3  A    between atoms: C4_4  and  O1_5 
REMARK    4  A    between atoms: C6_8  and  C7_9 
REMARK    5  A    between atoms: C7_9  and  C8_10 
REMARK    6  A    between atoms: C13_17  and  C14_18 
REMARK    7  A    between atoms: C14_18  and  O4_19 
REMARK    8  A    between atoms: C17_23  and  O5_24 
REMARK    9  A    between atoms: C17_23  and  C18_26 
REMARK   10  A    between atoms: C18_26  and  C19_27 
REMARK   11  A    between atoms: C19_27  and  O7_29 
ROOT
HETATM    1  C4  UNL     1       0.434  -0.016  -1.140  1.00  0.00     0.072 C 
HETATM    2  C5  UNL     1       1.682   0.163  -0.327  1.00  0.00     0.030 C 
HETATM    3  C6  UNL     1       2.186  -1.101   0.293  1.00  0.00     0.003 C 
HETATM    4  C9  UNL     1       2.276  -0.867   1.759  1.00  0.00     0.006 C 
HETATM    5  C10 UNL     1       2.065   0.596   2.035  1.00  0.00     0.006 C 
HETATM    6  C11 UNL     1       1.373   1.129   0.794  1.00  0.00     0.002 C 
HETATM    7  C12 UNL     1      -0.070   1.023   0.980  1.00  0.00     0.031 C 
HETATM    8  C13 UNL     1      -0.823   2.218   1.363  1.00  0.00    -0.055 C 
HETATM    9  C15 UNL     1      -2.161   2.075   1.216  1.00  0.00    -0.018 C 
HETATM   10  C16 UNL     1      -2.779   0.833   0.719  1.00  0.00     0.066 C 
HETATM   11  C17 UNL     1      -1.889  -0.031  -0.138  1.00  0.00     0.077 C 
HETATM   12  C21 UNL     1      -0.629   0.690  -0.409  1.00  0.00     0.064 C 
ENDROOT
BRANCH  11  13
HETATM   13  O5  UNL     1      -1.637  -1.207   0.611  1.00  0.00    -0.389 OA
ATOM     14  H5  UNL     1      -1.076  -1.751   0.071  1.00  0.00     0.210 HD
ENDBRANCH  11  13
BRANCH  11  15
HETATM   15  C18 UNL     1      -2.665  -0.418  -1.371  1.00  0.00     0.149 C 
BRANCH  15  16
HETATM   16  C19 UNL     1      -3.897  -1.176  -1.033  1.00  0.00     0.261 C 
HETATM   17  O6  UNL     1      -4.637  -1.556  -1.978  1.00  0.00    -0.265 OA
BRANCH  16  18
HETATM   18  O7  UNL     1      -4.290  -1.493   0.245  1.00  0.00    -0.326 OA
HETATM   19  C20 UNL     1      -5.493  -2.227   0.482  1.00  0.00     0.213 C 
ENDBRANCH  16  18
ENDBRANCH  15  16
ENDBRANCH  11  15
BRANCH   1  20
HETATM   20  C3  UNL     1       0.567   0.630  -2.522  1.00  0.00     0.065 C 
BRANCH  20  21
HETATM   21  C2  UNL     1       1.692   0.121  -3.311  1.00  0.00    -0.034 C 
HETATM   22  C1  UNL     1       2.660   0.919  -3.719  1.00  0.00     0.007 C 
ENDBRANCH  20  21
ENDBRANCH   1  20
BRANCH   1  23
HETATM   23  O1  UNL     1       0.250  -1.367  -1.346  1.00  0.00    -0.389 OA
ATOM     24  H1  UNL     1       0.167  -1.768  -0.489  1.00  0.00     0.210 HD
ENDBRANCH   1  23
BRANCH   8  25
HETATM   25  C14 UNL     1      -0.328   3.500   1.851  1.00  0.00     0.198 C 
BRANCH  25  26
HETATM   26  O4  UNL     1       0.371   3.344   3.039  1.00  0.00    -0.397 OA
ATOM     27  H4  UNL     1       0.693   4.179   3.357  1.00  0.00     0.209 HD
ENDBRANCH  25  26
ENDBRANCH   8  25
BRANCH   3  28
HETATM   28  C7  UNL     1       3.493  -1.538  -0.324  1.00  0.00     0.118 C 
BRANCH  28  29
HETATM   29  C8  UNL     1       4.017  -2.776   0.261  1.00  0.00     0.172 C 
HETATM   30  O2  UNL     1       5.096  -3.299  -0.108  1.00  0.00    -0.648 OA
HETATM   31  O3  UNL     1       3.307  -3.413   1.267  1.00  0.00    -0.648 OA
ENDBRANCH  28  29
ENDBRANCH   3  28
TORSDOF 11
