REMARK  12 active torsions:
REMARK  status: ('A' for Active; 'I' for Inactive)
REMARK    1  A    between atoms: C3_3  and  C4_4 
REMARK    2  A    between atoms: C7_7  and  N1_8 
REMARK       I    between atoms: N1_8  and  C8_10 
REMARK    3  A    between atoms: C8_10  and  C9_12 
REMARK    4  A    between atoms: C9_12  and  C10_13 
REMARK    5  A    between atoms: N2_16  and  C13_17 
REMARK    6  A    between atoms: C16_22  and  O2_23 
REMARK    7  A    between atoms: C17_25  and  C18_26 
REMARK    8  A    between atoms: C18_26  and  C19_27 
REMARK    9  A    between atoms: C20_28  and  C21_29 
REMARK   10  A    between atoms: C21_29  and  C22_30 
REMARK   11  A    between atoms: C25_33  and  C26_34 
REMARK   12  A    between atoms: C26_34  and  C27_35 
ROOT
HETATM    1  C1  UNL     1       7.562  -5.225  -3.890  1.00  0.00     0.097 C 
HETATM    2  C2  UNL     1       6.638  -4.969  -3.130  1.00  0.00    -0.183 C 
HETATM    3  C3  UNL     1       5.531  -4.669  -2.223  1.00  0.00     0.124 C 
ENDROOT
BRANCH   3   4
HETATM    4  C4  UNL     1       5.990  -3.752  -1.153  1.00  0.00     0.033 A 
HETATM    5  C5  UNL     1       5.600  -2.558  -0.787  1.00  0.00     0.005 A 
HETATM    6  C6  UNL     1       4.605  -1.760  -1.307  1.00  0.00     0.044 A 
HETATM    7  C35 UNL     1       6.343  -2.113   0.284  1.00  0.00     0.046 A 
HETATM    8  C7  UNL     1       4.306  -0.500  -0.794  1.00  0.00     0.035 A 
HETATM    9  C33 UNL     1       5.056  -0.077   0.269  1.00  0.00     0.032 A 
HETATM   10  C34 UNL     1       6.071  -0.873   0.812  1.00  0.00     0.033 A 
HETATM   11  N5  UNL     1       7.221  -3.003   0.629  1.00  0.00    -0.322 N 
HETATM   12  C36 UNL     1       7.087  -4.109  -0.231  1.00  0.00     0.254 A 
ATOM     13  H5  UNL     1       7.893  -2.916   1.392  1.00  0.00     0.169 HD
HETATM   14  O3  UNL     1       7.755  -5.176  -0.224  1.00  0.00    -0.268 OA
BRANCH   8  15
HETATM   15  N1  UNL     1       3.309   0.306  -1.354  1.00  0.00    -0.327 N 
HETATM   16  C8  UNL     1       2.637   1.400  -0.814  1.00  0.00     0.226 C 
HETATM   17  O1  UNL     1       2.834   1.861   0.349  1.00  0.00    -0.273 OA
ATOM     18  H1  UNL     1       3.032   0.054  -2.303  1.00  0.00     0.169 HD
BRANCH  16  19
HETATM   19  C9  UNL     1       1.584   2.141  -1.617  1.00  0.00     0.142 C 
BRANCH  19  20
HETATM   20  C10 UNL     1       0.999   3.234  -0.825  1.00  0.00    -0.034 A 
HETATM   21  C11 UNL     1       1.565   4.518  -0.981  1.00  0.00     0.026 A 
HETATM   22  C12 UNL     1       1.113   5.558  -0.212  1.00  0.00     0.093 A 
HETATM   23  N2  UNL     1       0.137   5.389   0.694  1.00  0.00    -0.343 N 
HETATM   24  C15 UNL     1      -0.432   4.177   0.873  1.00  0.00     0.120 A 
HETATM   25  N3  UNL     1      -1.411   3.754   1.692  1.00  0.00    -0.322 N 
HETATM   26  C32 UNL     1       0.000   3.087   0.106  1.00  0.00     0.026 A 
HETATM   27  C16 UNL     1      -1.656   2.466   1.519  1.00  0.00     0.149 A 
ATOM     28  H3  UNL     1      -1.901   4.349   2.360  1.00  0.00     0.169 HD
HETATM   29  C17 UNL     1      -0.789   2.014   0.526  1.00  0.00     0.012 A 
BRANCH  23  30
HETATM   30  C13 UNL     1      -0.321   6.510   1.496  1.00  0.00     0.125 C 
HETATM   31  C14 UNL     1      -1.459   7.252   0.827  1.00  0.00     0.027 C 
ENDBRANCH  23  30
BRANCH  27  32
HETATM   32  O2  UNL     1      -2.591   1.665   2.178  1.00  0.00    -0.346 OA
ATOM     33  H2  UNL     1      -2.767   0.740   2.054  1.00  0.00     0.219 HD
ENDBRANCH  27  32
BRANCH  29  34
HETATM   34  C18 UNL     1      -0.725   0.658  -0.046  1.00  0.00     0.085 C 
BRANCH  34  35
HETATM   35  C19 UNL     1      -1.828  -0.247   0.399  1.00  0.00    -0.025 A 
HETATM   36  C20 UNL     1      -3.060  -0.165  -0.190  1.00  0.00    -0.048 A 
HETATM   37  C24 UNL     1      -4.050  -1.027   0.309  1.00  0.00     0.033 A 
HETATM   38  C25 UNL     1      -3.751  -1.898   1.342  1.00  0.00     0.011 A 
HETATM   39  N4  UNL     1      -2.535  -1.956   1.897  1.00  0.00    -0.358 N 
HETATM   40  C29 UNL     1      -2.251  -2.878   2.976  1.00  0.00     0.156 C 
HETATM   41  C30 UNL     1      -1.565  -1.143   1.443  1.00  0.00     0.014 A 
HETATM   42  C31 UNL     1      -0.191  -1.170   2.042  1.00  0.00     0.069 C 
BRANCH  36  43
HETATM   43  C21 UNL     1      -3.421   0.709  -1.324  1.00  0.00     0.039 C 
BRANCH  43  44
HETATM   44  C22 UNL     1      -3.069   0.120  -2.663  1.00  0.00     0.000 C 
HETATM   45  C23 UNL     1      -3.473   1.136  -3.727  1.00  0.00     0.005 C 
ENDBRANCH  43  44
ENDBRANCH  36  43
BRANCH  38  46
HETATM   46  C26 UNL     1      -4.815  -2.797   1.870  1.00  0.00     0.057 C 
BRANCH  46  47
HETATM   47  C27 UNL     1      -4.842  -4.111   1.109  1.00  0.00     0.002 C 
HETATM   48  C28 UNL     1      -5.912  -5.026   1.653  1.00  0.00     0.005 C 
ENDBRANCH  46  47
ENDBRANCH  38  46
ENDBRANCH  34  35
ENDBRANCH  29  34
ENDBRANCH  19  20
ENDBRANCH  16  19
ENDBRANCH   8  15
ENDBRANCH   3   4
TORSDOF 12
