REMARK  15 active torsions:
REMARK  status: ('A' for Active; 'I' for Inactive)
REMARK    1  A    between atoms: C11_11  and  N1_12 
REMARK       I    between atoms: N1_12  and  C12_14 
REMARK    2  A    between atoms: C12_14  and  C13_16 
REMARK    3  A    between atoms: C13_16  and  C14_17 
REMARK    4  A    between atoms: C13_16  and  N2_21 
REMARK    5  A    between atoms: C14_17  and  C15_18 
REMARK       I    between atoms: N2_21  and  C18_23 
REMARK    6  A    between atoms: C18_23  and  C19_25 
REMARK    7  A    between atoms: N3_29  and  C23_30 
REMARK    8  A    between atoms: C23_30  and  C24_31 
REMARK    9  A    between atoms: C27_34  and  C28_35 
REMARK   10  A    between atoms: C33_40  and  C34_41 
REMARK   11  A    between atoms: C34_41  and  N4_42 
REMARK   12  A    between atoms: N4_42  and  C35_44 
REMARK   13  A    between atoms: C35_44  and  C36_52 
REMARK   14  A    between atoms: N5_45  and  N6_47 
REMARK   15  A    between atoms: C36_52  and  C37_54 
ROOT
HETATM    1  C19 UNL     1      -1.243  -3.443  -2.162  1.00  0.00     0.047 A 
HETATM    2  C20 UNL     1      -1.006  -4.218  -3.277  1.00  0.00     0.020 A 
HETATM    3  C21 UNL     1       0.194  -4.846  -3.405  1.00  0.00     0.018 A 
HETATM    4  C22 UNL     1       1.166  -4.715  -2.437  1.00  0.00     0.090 A 
HETATM    5  N3  UNL     1       0.954  -3.966  -1.347  1.00  0.00    -0.361 N 
HETATM    6  C40 UNL     1      -0.236  -3.348  -1.228  1.00  0.00     0.107 A 
ENDROOT
BRANCH   5   7
HETATM    7  C23 UNL     1       1.906  -3.793  -0.300  1.00  0.00     0.166 C 
BRANCH   7   8
HETATM    8  C24 UNL     1       2.797  -2.633  -0.611  1.00  0.00    -0.040 A 
HETATM    9  C25 UNL     1       4.088  -2.841  -1.078  1.00  0.00     0.010 A 
HETATM   10  C26 UNL     1       4.900  -1.760  -1.378  1.00  0.00     0.013 A 
HETATM   11  C27 UNL     1       4.483  -0.436  -1.235  1.00  0.00    -0.025 A 
HETATM   12  C38 UNL     1       3.201  -0.255  -0.772  1.00  0.00     0.013 A 
HETATM   13  C39 UNL     1       2.374  -1.335  -0.465  1.00  0.00     0.010 A 
BRANCH  11  14
HETATM   14  C28 UNL     1       5.393   0.626  -1.621  1.00  0.00    -0.018 A 
HETATM   15  C29 UNL     1       5.794   0.766  -2.950  1.00  0.00     0.013 A 
HETATM   16  C30 UNL     1       6.612   1.772  -3.398  1.00  0.00     0.001 A 
HETATM   17  C31 UNL     1       7.057   2.689  -2.471  1.00  0.00     0.001 A 
HETATM   18  C32 UNL     1       6.666   2.562  -1.142  1.00  0.00     0.010 A 
HETATM   19  C33 UNL     1       5.846   1.558  -0.675  1.00  0.00    -0.029 A 
BRANCH  19  20
HETATM   20  C34 UNL     1       5.435   1.352   0.717  1.00  0.00     0.160 C 
BRANCH  20  21
HETATM   21  N4  UNL     1       5.966   2.357   1.604  1.00  0.00    -0.367 N 
ATOM     22  H4  UNL     1       6.527   3.117   1.219  1.00  0.00     0.161 HD
BRANCH  21  23
HETATM   23  C35 UNL     1       5.721   2.309   3.018  1.00  0.00     0.173 C 
HETATM   24  N5  UNL     1       4.597   2.716   3.456  1.00  0.00    -0.268 N 
ATOM     25  H5  UNL     1       4.411   2.687   4.458  1.00  0.00     0.190 HD
BRANCH  24  26
HETATM   26  N6  UNL     1       3.621   3.198   2.597  1.00  0.00    -0.248 N 
HETATM   27  N7  UNL     1       2.405   2.987   2.940  1.00  0.00    -0.331 N 
ATOM     28  H72 UNL     1       2.183   2.489   3.802  1.00  0.00     0.178 HD
ATOM     29  H71 UNL     1       1.687   3.342   2.308  1.00  0.00     0.178 HD
ATOM     30  H6  UNL     1       3.859   3.694   1.738  1.00  0.00     0.207 HD
ENDBRANCH  24  26
BRANCH  23  31
HETATM   31  C36 UNL     1       6.726   1.822   3.939  1.00  0.00     0.281 C 
HETATM   32  O3  UNL     1       6.467   1.794   5.170  1.00  0.00    -0.279 OA
BRANCH  31  33
HETATM   33  C37 UNL     1       8.039   1.357   3.496  1.00  0.00     0.308 C 
HETATM   34  N8  UNL     1       9.029   0.885   4.393  1.00  0.00    -0.054 NA
HETATM   35  O4  UNL     1       8.279   1.385   2.278  1.00  0.00    -0.267 OA
ENDBRANCH  31  33
ENDBRANCH  23  31
ENDBRANCH  21  23
ENDBRANCH  20  21
ENDBRANCH  19  20
ENDBRANCH  11  14
ENDBRANCH   7   8
ENDBRANCH   5   7
BRANCH   1  36
HETATM   36  C18 UNL     1      -2.519  -2.765  -2.024  1.00  0.00     0.253 C 
HETATM   37  N2  UNL     1      -2.984  -2.365  -0.750  1.00  0.00    -0.344 N 
ATOM     38  H2  UNL     1      -2.412  -2.562   0.071  1.00  0.00     0.163 HD
HETATM   39  O2  UNL     1      -3.258  -2.508  -3.018  1.00  0.00    -0.268 OA
BRANCH  37  40
HETATM   40  C13 UNL     1      -4.288  -1.663  -0.575  1.00  0.00     0.177 C 
BRANCH  40  41
HETATM   41  C12 UNL     1      -3.931  -0.387   0.052  1.00  0.00     0.245 C 
HETATM   42  N1  UNL     1      -4.579   0.821  -0.315  1.00  0.00    -0.324 N 
ATOM     43  H1  UNL     1      -5.314   0.774  -1.021  1.00  0.00     0.169 HD
HETATM   44  O1  UNL     1      -3.028  -0.364   0.926  1.00  0.00    -0.271 OA
BRANCH  42  45
HETATM   45  C11 UNL     1      -4.267   2.092   0.240  1.00  0.00     0.051 A 
HETATM   46  C2  UNL     1      -3.189   2.832  -0.279  1.00  0.00    -0.034 A 
HETATM   47  C1  UNL     1      -2.432   2.196  -1.390  1.00  0.00     0.050 C 
HETATM   48  C3  UNL     1      -2.848   4.067   0.206  1.00  0.00     0.010 A 
HETATM   49  C4  UNL     1      -3.568   4.619   1.232  1.00  0.00     0.013 A 
HETATM   50  C5  UNL     1      -4.636   3.930   1.775  1.00  0.00    -0.024 A 
HETATM   51  C6  UNL     1      -5.360   4.496   2.801  1.00  0.00     0.012 A 
HETATM   52  C10 UNL     1      -4.966   2.668   1.263  1.00  0.00     0.001 A 
HETATM   53  C7  UNL     1      -6.430   3.816   3.338  1.00  0.00     0.001 A 
HETATM   54  C8  UNL     1      -6.752   2.576   2.830  1.00  0.00     0.001 A 
HETATM   55  C9  UNL     1      -6.042   1.979   1.798  1.00  0.00     0.014 A 
ENDBRANCH  42  45
ENDBRANCH  40  41
BRANCH  40  56
HETATM   56  C14 UNL     1      -5.099  -2.566   0.285  1.00  0.00     0.038 C 
BRANCH  56  57
HETATM   57  C15 UNL     1      -6.407  -2.059   0.763  1.00  0.00    -0.020 C 
HETATM   58  C16 UNL     1      -7.364  -1.686  -0.318  1.00  0.00     0.009 C 
HETATM   59  C17 UNL     1      -7.084  -3.232   1.517  1.00  0.00     0.009 C 
ENDBRANCH  56  57
ENDBRANCH  40  56
ENDBRANCH  37  40
ENDBRANCH   1  36
TORSDOF 15
