REMARK  11 active torsions:
REMARK  status: ('A' for Active; 'I' for Inactive)
REMARK    1  A    between atoms: C2_2  and  C3_3 
REMARK    2  A    between atoms: C2_2  and  O4_15 
REMARK    3  A    between atoms: C3_3  and  C4_4 
REMARK    4  A    between atoms: C6_6  and  O1_7 
REMARK    5  A    between atoms: C7_9  and  O2_10 
REMARK    6  A    between atoms: O4_15  and  C10_16 
REMARK    7  A    between atoms: C10_16  and  O5_17 
REMARK    8  A    between atoms: C10_16  and  C11_19 
REMARK    9  A    between atoms: C11_19  and  N1_21 
REMARK   10  A    between atoms: N1_21  and  C13_23 
REMARK   11  A    between atoms: C13_23  and  C14_24 
ROOT
HETATM    1  C1  UNL     1      -0.182   1.988  -0.072  1.00  0.00     0.040 C 
HETATM    2  C2  UNL     1       0.128   0.602   0.379  1.00  0.00     0.123 C 
ENDROOT
BRANCH   2   3
HETATM    3  C3  UNL     1      -0.818   0.087   1.430  1.00  0.00     0.063 C 
BRANCH   3   4
HETATM    4  C4  UNL     1      -2.220   0.092   0.882  1.00  0.00     0.127 C 
HETATM    5  C5  UNL     1      -3.148  -0.439   1.945  1.00  0.00     0.066 C 
HETATM    6  C6  UNL     1      -4.092  -1.481   1.385  1.00  0.00     0.151 C 
HETATM    7  C7  UNL     1      -4.650  -0.944   0.083  1.00  0.00     0.175 C 
HETATM    8  C8  UNL     1      -3.564  -0.592  -0.867  1.00  0.00     0.149 C 
HETATM    9  C9  UNL     1      -3.909   0.716  -1.556  1.00  0.00     0.042 C 
HETATM   10  O3  UNL     1      -2.297  -0.582  -0.309  1.00  0.00    -0.378 OA
BRANCH   6  11
HETATM   11  O1  UNL     1      -5.079  -1.706   2.311  1.00  0.00    -0.393 OA
ATOM     12  H1  UNL     1      -5.672  -2.360   1.959  1.00  0.00     0.210 HD
ENDBRANCH   6  11
BRANCH   7  13
HETATM   13  O2  UNL     1      -5.545   0.118   0.319  1.00  0.00    -0.390 OA
ATOM     14  H2  UNL     1      -5.895   0.455  -0.497  1.00  0.00     0.210 HD
ENDBRANCH   7  13
ENDBRANCH   3   4
ENDBRANCH   2   3
BRANCH   2  15
HETATM   15  O4  UNL     1       1.462   0.564   0.755  1.00  0.00    -0.354 OA
BRANCH  15  16
HETATM   16  C10 UNL     1       2.213  -0.292  -0.053  1.00  0.00     0.279 C 
BRANCH  16  17
HETATM   17  O5  UNL     1       2.977  -1.170   0.689  1.00  0.00    -0.369 OA
ATOM     18  H5  UNL     1       3.488  -1.752   0.139  1.00  0.00     0.212 HD
ENDBRANCH  16  17
BRANCH  16  19
HETATM   19  C11 UNL     1       3.136   0.659  -0.864  1.00  0.00     0.132 C 
HETATM   20  C12 UNL     1       3.750   1.598   0.132  1.00  0.00     0.037 C 
BRANCH  19  21
HETATM   21  N1  UNL     1       3.958   0.009  -1.776  1.00  0.00    -0.384 N 
ATOM     22  H1  UNL     1       3.805   0.217  -2.763  1.00  0.00     0.159 HD
BRANCH  21  23
HETATM   23  C13 UNL     1       4.963  -0.892  -1.479  1.00  0.00     0.168 C 
BRANCH  23  24
HETATM   24  C14 UNL     1       6.218  -0.424  -0.887  1.00  0.00     0.214 C 
HETATM   25  O6  UNL     1       6.580   0.743  -0.660  1.00  0.00    -0.644 OA
HETATM   26  O7  UNL     1       7.168  -1.406  -0.510  1.00  0.00    -0.644 OA
ENDBRANCH  23  24
ENDBRANCH  21  23
ENDBRANCH  19  21
ENDBRANCH  16  19
ENDBRANCH  15  16
ENDBRANCH   2  15
TORSDOF 11
