REMARK  12 active torsions:
REMARK  status: ('A' for Active; 'I' for Inactive)
REMARK    1  A    between atoms: O1_1  and  C1_3 
REMARK    2  A    between atoms: C3_5  and  O2_6 
REMARK    3  A    between atoms: C4_8  and  C5_9 
REMARK    4  A    between atoms: C5_9  and  O3_10 
REMARK    5  A    between atoms: C5_9  and  C6_12 
REMARK    6  A    between atoms: C6_12  and  O4_13 
REMARK    7  A    between atoms: C6_12  and  O5_15 
REMARK    8  A    between atoms: O5_15  and  C7_16 
REMARK    9  A    between atoms: C7_16  and  C8_17 
REMARK   10  A    between atoms: C8_17  and  O6_18 
REMARK   11  A    between atoms: O6_18  and  C9_19 
REMARK   12  A    between atoms: C15_25  and  O7_26 
ROOT
HETATM    1  C5  UNL     1      -2.094  -0.888  -0.420  1.00  0.00     0.182 C 
ENDROOT
BRANCH   1   2
HETATM    2  C4  UNL     1      -3.204   0.115  -0.254  1.00  0.00     0.079 C 
HETATM    3  C3  UNL     1      -3.368   0.577   1.162  1.00  0.00     0.130 C 
HETATM    4  C2  UNL     1      -4.841   0.377   1.513  1.00  0.00     0.066 C 
HETATM    5  C1  UNL     1      -5.531   0.185   0.164  1.00  0.00     0.149 C 
HETATM    6  C15 UNL     1      -4.498  -0.575  -0.603  1.00  0.00     0.156 C 
BRANCH   3   7
HETATM    7  O2  UNL     1      -3.136   1.949   1.199  1.00  0.00    -0.395 OA
ATOM      8  H2  UNL     1      -2.220   2.073   0.981  1.00  0.00     0.210 HD
ENDBRANCH   3   7
BRANCH   5   9
HETATM    9  O1  UNL     1      -5.848   1.405  -0.388  1.00  0.00    -0.393 OA
ATOM     10  H1  UNL     1      -6.277   1.286  -1.227  1.00  0.00     0.210 HD
ENDBRANCH   5   9
BRANCH   6  11
HETATM   11  O7  UNL     1      -4.731  -0.595  -1.976  1.00  0.00    -0.392 OA
ATOM     12  H7  UNL     1      -4.074  -1.078  -2.464  1.00  0.00     0.210 HD
ENDBRANCH   6  11
ENDBRANCH   1   2
BRANCH   1  13
HETATM   13  O3  UNL     1      -2.042  -1.236  -1.769  1.00  0.00    -0.390 OA
ATOM     14  H3  UNL     1      -1.341  -1.869  -1.874  1.00  0.00     0.210 HD
ENDBRANCH   1  13
BRANCH   1  15
HETATM   15  C6  UNL     1      -0.748  -0.285   0.015  1.00  0.00     0.285 C 
BRANCH  15  16
HETATM   16  O4  UNL     1      -0.558   0.820  -0.771  1.00  0.00    -0.369 OA
ATOM     17  H4  UNL     1       0.274   1.193  -0.502  1.00  0.00     0.212 HD
ENDBRANCH  15  16
BRANCH  15  18
HETATM   18  O5  UNL     1       0.229  -1.300  -0.133  1.00  0.00    -0.357 OA
BRANCH  18  19
HETATM   19  C7  UNL     1       0.778  -1.626   1.065  1.00  0.00     0.197 C 
BRANCH  19  20
HETATM   20  C8  UNL     1       1.704  -0.596   1.618  1.00  0.00     0.194 C 
BRANCH  20  21
HETATM   21  O6  UNL     1       2.825  -0.287   0.976  1.00  0.00    -0.384 OA
BRANCH  21  22
HETATM   22  C9  UNL     1       3.024   0.160  -0.248  1.00  0.00     0.121 C 
HETATM   23  C10 UNL     1       3.913  -0.840  -0.980  1.00  0.00     0.032 C 
HETATM   24  C11 UNL     1       5.327  -0.806  -0.501  1.00  0.00     0.002 C 
HETATM   25  C12 UNL     1       5.931   0.559  -0.499  1.00  0.00     0.000 C 
HETATM   26  C13 UNL     1       5.082   1.413   0.447  1.00  0.00     0.002 C 
HETATM   27  C14 UNL     1       3.726   1.516  -0.158  1.00  0.00     0.032 C 
ENDBRANCH  21  22
ENDBRANCH  20  21
ENDBRANCH  19  20
ENDBRANCH  18  19
ENDBRANCH  15  18
ENDBRANCH   1  15
TORSDOF 12
