REMARK  1 active torsions:
REMARK  status: ('A' for Active; 'I' for Inactive)
REMARK    1  A    between atoms: N1_2  and  C2_4 
ROOT
HETATM    1  C2  UNL     1      -2.622  -0.827  -0.679  1.00  0.00     0.240 C 
HETATM    2  C3  UNL     1      -2.564   0.443  -1.440  1.00  0.00     0.221 C 
HETATM    3  O1  UNL     1      -1.363   0.942  -1.808  1.00  0.00    -0.379 OA
HETATM    4  C4  UNL     1      -0.254   0.557  -1.137  1.00  0.00     0.150 C 
HETATM    5  C5  UNL     1       0.798   1.603  -0.902  1.00  0.00     0.034 C 
HETATM    6  C6  UNL     1       2.214   1.269  -1.212  1.00  0.00     0.002 C 
HETATM    7  C7  UNL     1       3.179   0.987  -0.110  1.00  0.00     0.000 C 
HETATM    8  C8  UNL     1       3.327  -0.400   0.405  1.00  0.00     0.000 C 
HETATM    9  C9  UNL     1       2.746  -0.773   1.718  1.00  0.00     0.000 C 
HETATM   10  C10 UNL     1       1.286  -1.301   1.713  1.00  0.00     0.002 C 
HETATM   11  C11 UNL     1       0.706  -0.521   0.652  1.00  0.00     0.034 C 
HETATM   12  C12 UNL     1      -0.605  -0.306   0.110  1.00  0.00     0.153 C 
HETATM   13  O2  UNL     1      -1.342  -1.347  -0.366  1.00  0.00    -0.357 OA
ENDROOT
BRANCH   1  14
HETATM   14  N1  UNL     1      -3.318  -0.741   0.575  1.00  0.00    -0.399 N 
HETATM   15  C1  UNL     1      -4.695  -0.402   0.508  1.00  0.00     0.142 C 
ATOM     16  H1  UNL     1      -2.849  -0.914   1.464  1.00  0.00     0.155 HD
ENDBRANCH   1  14
TORSDOF 1
