REMARK  13 active torsions:
REMARK  status: ('A' for Active; 'I' for Inactive)
REMARK    1  A    between atoms: C2_2  and  C3_3 
REMARK    2  A    between atoms: C3_3  and  N1_4 
REMARK    3  A    between atoms: C3_3  and  C25_42 
REMARK       I    between atoms: N1_4  and  C4_6 
REMARK    4  A    between atoms: C4_6  and  C5_8 
REMARK    5  A    between atoms: C5_8  and  C6_9 
REMARK    6  A    between atoms: C5_8  and  N5_18 
REMARK    7  A    between atoms: C6_9  and  N2_10 
REMARK       I    between atoms: C7_12  and  N4_14 
REMARK    8  A    between atoms: N4_14  and  C8_16 
REMARK       I    between atoms: N5_18  and  C9_20 
REMARK    9  A    between atoms: C9_20  and  C10_22 
REMARK       I    between atoms: N6_26  and  C14_27 
REMARK   10  A    between atoms: C14_27  and  C15_29 
REMARK   11  A    between atoms: C15_29  and  C16_30 
REMARK   12  A    between atoms: C15_29  and  N7_37 
REMARK   13  A    between atoms: C16_30  and  C17_31 
REMARK       I    between atoms: N7_37  and  C23_39 
ROOT
HETATM    1  N5  UNL     1      -1.995  -0.741   0.264  1.00  0.00    -0.344 N 
ATOM      2  H5  UNL     1      -2.008  -1.667   0.691  1.00  0.00     0.163 HD
HETATM    3  C9  UNL     1      -0.747  -0.124   0.002  1.00  0.00     0.241 C 
HETATM    4  O3  UNL     1      -0.742   1.013  -0.518  1.00  0.00    -0.271 OA
ENDROOT
BRANCH   1   5
HETATM    5  C5  UNL     1      -3.254  -0.098  -0.056  1.00  0.00     0.194 C 
BRANCH   5   6
HETATM    6  C4  UNL     1      -3.985   0.322   1.158  1.00  0.00     0.242 C 
HETATM    7  N1  UNL     1      -5.224   0.973   1.030  1.00  0.00    -0.351 N 
ATOM      8  H1  UNL     1      -5.588   1.132   0.091  1.00  0.00     0.163 HD
HETATM    9  O1  UNL     1      -3.504   0.102   2.282  1.00  0.00    -0.271 OA
BRANCH   7  10
HETATM   10  C3  UNL     1      -6.015   1.432   2.156  1.00  0.00     0.110 C 
BRANCH  10  11
HETATM   11  C2  UNL     1      -6.272   2.899   2.030  1.00  0.00    -0.012 C 
HETATM   12  C1  UNL     1      -5.396   3.799   2.448  1.00  0.00     0.009 C 
ENDBRANCH  10  11
BRANCH  10  13
HETATM   13  C25 UNL     1      -7.341   0.681   2.103  1.00  0.00     0.004 C 
HETATM   14  C26 UNL     1      -8.265   1.118   3.229  1.00  0.00     0.012 C 
HETATM   15  C27 UNL     1      -7.057  -0.818   2.248  1.00  0.00     0.012 C 
ENDBRANCH  10  13
ENDBRANCH   7  10
ENDBRANCH   5   6
BRANCH   5  16
HETATM   16  C6  UNL     1      -4.137  -0.994  -0.862  1.00  0.00     0.157 C 
BRANCH  16  17
HETATM   17  N2  UNL     1      -3.521  -1.475  -2.081  1.00  0.00    -0.362 N 
HETATM   18  C7  UNL     1      -3.531  -2.724  -2.330  1.00  0.00     0.190 C 
HETATM   19  N3  UNL     1      -4.131  -3.629  -1.430  1.00  0.00    -0.063 NA
HETATM   20  N4  UNL     1      -2.928  -3.200  -3.524  1.00  0.00    -0.309 N 
ATOM     21  H4  UNL     1      -2.499  -2.529  -4.161  1.00  0.00     0.170 HD
ATOM     22  H2  UNL     1      -3.085  -0.822  -2.732  1.00  0.00     0.162 HD
BRANCH  20  23
HETATM   23  C8  UNL     1      -2.902  -4.582  -3.862  1.00  0.00     0.355 C 
HETATM   24  O2  UNL     1      -3.419  -5.424  -3.100  1.00  0.00    -0.283 OA
ENDBRANCH  20  23
ENDBRANCH  16  17
ENDBRANCH   5  16
ENDBRANCH   1   5
BRANCH   3  25
HETATM   25  C10 UNL     1       0.530  -0.782   0.327  1.00  0.00     0.179 C 
HETATM   26  C11 UNL     1       0.633  -1.241   1.763  1.00  0.00     0.037 C 
HETATM   27  C12 UNL     1       1.399  -0.157   2.474  1.00  0.00     0.022 C 
HETATM   28  C13 UNL     1       1.509   0.977   1.438  1.00  0.00     0.127 C 
HETATM   29  N6  UNL     1       1.598   0.200   0.232  1.00  0.00    -0.337 N 
HETATM   30  C14 UNL     1       2.467   0.356  -0.838  1.00  0.00     0.243 C 
HETATM   31  O4  UNL     1       2.298  -0.367  -1.881  1.00  0.00    -0.271 OA
BRANCH  30  32
HETATM   32  C15 UNL     1       3.581   1.296  -0.889  1.00  0.00     0.177 C 
BRANCH  32  33
HETATM   33  C16 UNL     1       4.732   0.939   0.009  1.00  0.00     0.039 C 
BRANCH  33  34
HETATM   34  C17 UNL     1       5.438  -0.321  -0.160  1.00  0.00    -0.012 C 
HETATM   35  C18 UNL     1       6.532  -0.373   0.932  1.00  0.00     0.005 C 
HETATM   36  C19 UNL     1       7.799   0.310   0.460  1.00  0.00     0.000 C 
HETATM   37  C20 UNL     1       8.481  -0.679  -0.462  1.00  0.00     0.000 C 
HETATM   38  C21 UNL     1       7.414  -1.426  -1.185  1.00  0.00     0.000 C 
HETATM   39  C22 UNL     1       6.162  -0.589  -1.442  1.00  0.00     0.005 C 
ENDBRANCH  33  34
ENDBRANCH  32  33
BRANCH  32  40
HETATM   40  N7  UNL     1       4.049   1.501  -2.265  1.00  0.00    -0.348 N 
HETATM   41  C23 UNL     1       4.098   2.780  -2.832  1.00  0.00     0.214 C 
HETATM   42  C24 UNL     1       4.546   3.095  -4.191  1.00  0.00     0.117 C 
HETATM   43  O5  UNL     1       3.723   3.766  -2.114  1.00  0.00    -0.274 OA
ATOM     44  H7  UNL     1       4.344   0.697  -2.818  1.00  0.00     0.163 HD
ENDBRANCH  32  40
ENDBRANCH  30  32
ENDBRANCH   3  25
TORSDOF 13
