REMARK  9 active torsions:
REMARK  status: ('A' for Active; 'I' for Inactive)
REMARK    1  A    between atoms: O1_2  and  N1_3 
REMARK    2  A    between atoms: C2_5  and  C3_6 
REMARK    3  A    between atoms: C2_5  and  C7_19 
REMARK    4  A    between atoms: C5_12  and  C6_13 
REMARK    5  A    between atoms: C6_13  and  O3_15 
REMARK    6  A    between atoms: O3_15  and  N4_16 
REMARK    7  A    between atoms: C8_22  and  N6_23 
REMARK    8  A    between atoms: C10_30  and  O5_31 
REMARK    9  A    between atoms: O5_31  and  N8_32 
ROOT
HETATM    1  N1  UNL     1       0.322   0.944  -1.710  1.00  0.00    -0.263 N 
ATOM      2  H1  UNL     1       1.276   1.283  -1.834  1.00  0.00     0.194 HD
HETATM    3  C2  UNL     1       0.036   0.177  -0.647  1.00  0.00     0.113 C 
ENDROOT
BRANCH   3   4
HETATM    4  C3  UNL     1      -1.347  -0.287  -0.507  1.00  0.00     0.088 A 
HETATM    5  N2  UNL     1      -1.979  -0.564  -1.669  1.00  0.00    -0.336 N 
HETATM    6  C4  UNL     1      -3.115  -1.183  -1.690  1.00  0.00     0.160 A 
ATOM      7  H2  UNL     1      -1.551  -0.279  -2.550  1.00  0.00     0.168 HD
HETATM    8  N3  UNL     1      -3.941  -1.571  -2.801  1.00  0.00    -0.074 NA
HETATM    9  S1  UNL     1      -3.426  -1.444  -0.048  1.00  0.00    -0.049 SA
HETATM   10  C5  UNL     1      -1.999  -0.696   0.611  1.00  0.00     0.114 A 
BRANCH  10  11
HETATM   11  C6  UNL     1      -1.786  -0.400   2.044  1.00  0.00     0.324 C 
HETATM   12  O2  UNL     1      -0.984   0.399   2.531  1.00  0.00    -0.257 OA
BRANCH  11  13
HETATM   13  O3  UNL     1      -2.577  -1.101   2.937  1.00  0.00    -0.202 OA
BRANCH  13  14
HETATM   14  N4  UNL     1      -2.443  -0.889   4.308  1.00  0.00    -0.302 N 
ATOM     15  H42 UNL     1      -1.755  -0.212   4.637  1.00  0.00     0.184 HD
ATOM     16  H41 UNL     1      -3.026  -1.406   4.966  1.00  0.00     0.184 HD
ENDBRANCH  13  14
ENDBRANCH  11  13
ENDBRANCH  10  11
ENDBRANCH   3   4
BRANCH   3  17
HETATM   17  C7  UNL     1       1.177  -0.161   0.143  1.00  0.00     0.121 A 
HETATM   18  N5  UNL     1       1.277  -1.239   0.965  1.00  0.00    -0.186 N 
HETATM   19  C8  UNL     1       2.440  -1.570   1.541  1.00  0.00     0.679 A 
ATOM     20  H5  UNL     1       0.450  -1.807   1.147  1.00  0.00     0.184 HD
HETATM   21  N7  UNL     1       3.567  -0.880   1.352  1.00  0.00    -0.154 N 
HETATM   22  C9  UNL     1       3.518   0.178   0.556  1.00  0.00     0.298 A 
ATOM     23  H7  UNL     1       4.437  -1.158   1.805  1.00  0.00     0.187 HD
HETATM   24  O4  UNL     1       4.561   0.867   0.342  1.00  0.00    -0.264 OA
HETATM   25  C10 UNL     1       2.368   0.568  -0.058  1.00  0.00     0.196 A 
BRANCH  19  26
HETATM   26  N6  UNL     1       2.445  -2.617   2.316  1.00  0.00    -0.234 N 
ATOM     27  H62 UNL     1       1.584  -3.144   2.460  1.00  0.00     0.174 HD
ATOM     28  H61 UNL     1       3.331  -2.869   2.755  1.00  0.00     0.174 HD
ENDBRANCH  19  26
BRANCH  25  29
HETATM   29  O5  UNL     1       2.338   1.682  -0.889  1.00  0.00    -0.237 OA
BRANCH  29  30
HETATM   30  N8  UNL     1       3.419   2.457  -1.155  1.00  0.00    -0.305 N 
ATOM     31  H82 UNL     1       4.298   2.193  -0.711  1.00  0.00     0.184 HD
ATOM     32  H81 UNL     1       3.397   3.274  -1.765  1.00  0.00     0.184 HD
ENDBRANCH  29  30
ENDBRANCH  25  29
ENDBRANCH   3  17
BRANCH   1  33
HETATM   33  O1  UNL     1      -0.615   1.280  -2.619  1.00  0.00    -0.285 OA
HETATM   34  C1  UNL     1      -1.306   2.511  -2.672  1.00  0.00     0.237 C 
ENDBRANCH   1  33
TORSDOF 9
