REMARK  9 active torsions:
REMARK  status: ('A' for Active; 'I' for Inactive)
REMARK    1  A    between atoms: N1_1  and  C1_4 
REMARK    2  A    between atoms: C3_11  and  N4_12 
REMARK    3  A    between atoms: N4_12  and  N5_14 
REMARK    4  A    between atoms: C4_16  and  C5_17 
REMARK    5  A    between atoms: C6_19  and  N6_20 
REMARK    6  A    between atoms: C7_23  and  N7_24 
REMARK    7  A    between atoms: C8_27  and  N8_28 
REMARK    8  A    between atoms: N8_28  and  O7_29 
REMARK    9  A    between atoms: N8_28  and  O8_31 
ROOT
HETATM    1  N5  UNL     1       0.636  -0.652  -0.133  1.00  0.00    -0.295 N 
ATOM      2  H5  UNL     1       0.790   0.350  -0.016  1.00  0.00     0.186 HD
HETATM    3  C4  UNL     1      -0.584  -1.083  -0.116  1.00  0.00     0.147 C 
ENDROOT
BRANCH   1   4
HETATM    4  N4  UNL     1       1.742  -1.460  -0.299  1.00  0.00    -0.132 N 
ATOM      5  H4  UNL     1       1.572  -2.454  -0.452  1.00  0.00     0.205 HD
BRANCH   4   6
HETATM    6  C3  UNL     1       2.954  -1.076  -0.278  1.00  0.00     0.715 A 
HETATM    7  N3  UNL     1       3.924  -1.995  -0.458  1.00  0.00    -0.139 N 
HETATM    8  C2  UNL     1       5.229  -1.659  -0.447  1.00  0.00     0.352 A 
ATOM      9  H3  UNL     1       3.663  -2.970  -0.606  1.00  0.00     0.189 HD
HETATM   10  N2  UNL     1       5.619  -0.385  -0.256  1.00  0.00    -0.141 N 
HETATM   11  O1  UNL     1       6.148  -2.519  -0.616  1.00  0.00    -0.246 OA
HETATM   12  C1  UNL     1       4.660   0.542  -0.075  1.00  0.00     0.694 A 
ATOM     13  H2  UNL     1       6.607  -0.131  -0.249  1.00  0.00     0.189 HD
HETATM   14  N9  UNL     1       3.352   0.195  -0.087  1.00  0.00    -0.021 N 
ATOM     15  H9  UNL     1       2.647   0.919   0.053  1.00  0.00     0.203 HD
BRANCH  12  16
HETATM   16  N1  UNL     1       5.045   1.771   0.109  1.00  0.00    -0.234 N 
ATOM     17  H12 UNL     1       6.031   2.033   0.118  1.00  0.00     0.174 HD
ATOM     18  H11 UNL     1       4.318   2.473   0.246  1.00  0.00     0.174 HD
ENDBRANCH  12  16
ENDBRANCH   4   6
ENDBRANCH   1   4
BRANCH   3  19
HETATM   19  C5  UNL     1      -1.616  -0.053   0.075  1.00  0.00     0.123 A 
HETATM   20  O2  UNL     1      -1.442   1.214   0.216  1.00  0.00    -0.283 OA
HETATM   21  C6  UNL     1      -2.584   1.883   0.367  1.00  0.00     0.251 A 
HETATM   22  C7  UNL     1      -3.589   0.946   0.317  1.00  0.00     0.189 A 
HETATM   23  C8  UNL     1      -2.963  -0.296   0.130  1.00  0.00     0.138 A 
BRANCH  21  24
HETATM   24  N6  UNL     1      -2.581   3.281   0.534  1.00  0.00    -0.088 N 
HETATM   25  O3  UNL     1      -1.453   3.868   0.534  1.00  0.00    -0.530 OA
HETATM   26  O4  UNL     1      -3.636   4.104   0.697  1.00  0.00    -0.530 OA
ENDBRANCH  21  24
BRANCH  22  27
HETATM   27  N7  UNL     1      -4.967   1.197   0.410  1.00  0.00    -0.109 N 
HETATM   28  O5  UNL     1      -5.517   2.286   0.628  1.00  0.00    -0.532 OA
HETATM   29  O6  UNL     1      -5.887   0.154   0.256  1.00  0.00    -0.532 OA
ENDBRANCH  22  27
BRANCH  23  30
HETATM   30  N8  UNL     1      -3.684  -1.500   0.044  1.00  0.00    -0.031 NA
BRANCH  30  31
HETATM   31  O7  UNL     1      -2.935  -2.609   0.240  1.00  0.00    -0.284 OA
ATOM     32  H7  UNL     1      -3.422  -3.423   0.182  1.00  0.00     0.240 HD
ENDBRANCH  30  31
BRANCH  30  33
HETATM   33  O8  UNL     1      -4.220  -1.652  -1.202  1.00  0.00    -0.284 OA
ATOM     34  H8  UNL     1      -4.707  -2.466  -1.260  1.00  0.00     0.240 HD
ENDBRANCH  30  33
ENDBRANCH  23  30
ENDBRANCH   3  19
TORSDOF 9
