REMARK  4 active torsions:
REMARK  status: ('A' for Active; 'I' for Inactive)
REMARK    1  A    between atoms: C4_5  and  C5_6 
REMARK    2  A    between atoms: C5_6  and  C6_7 
REMARK    3  A    between atoms: C8_11  and  N3_12 
REMARK    4  A    between atoms: C9_17  and  N5_18 
ROOT
HETATM    1  C6  UNL     1      -0.563   0.502  -1.151  1.00  0.00     0.083 A 
HETATM    2  N2  UNL     1      -1.234  -0.662  -1.018  1.00  0.00    -0.349 N 
ATOM      3  H2  UNL     1      -0.867  -1.509  -1.452  1.00  0.00     0.166 HD
HETATM    4  C7  UNL     1      -2.390  -0.715  -0.314  1.00  0.00     0.122 A 
HETATM    5  C8  UNL     1      -3.082  -1.909  -0.169  1.00  0.00     0.145 A 
HETATM    6  N4  UNL     1      -4.236  -1.929   0.546  1.00  0.00    -0.175 N 
ATOM      7  H4  UNL     1      -4.739  -2.810   0.648  1.00  0.00     0.186 HD
HETATM    8  C9  UNL     1      -4.732  -0.832   1.119  1.00  0.00     0.679 A 
HETATM    9  N6  UNL     1      -4.056   0.318   0.974  1.00  0.00    -0.174 N 
ATOM     10  H6  UNL     1      -4.429   1.162   1.409  1.00  0.00     0.186 HD
HETATM   11  C10 UNL     1      -2.901   0.406   0.275  1.00  0.00     0.154 A 
HETATM   12  N7  UNL     1      -2.252   1.575   0.155  1.00  0.00    -0.305 N 
ATOM     13  H7  UNL     1      -2.623   2.420   0.589  1.00  0.00     0.170 HD
HETATM   14  C11 UNL     1      -1.085   1.615  -0.558  1.00  0.00     0.270 A 
HETATM   15  O1  UNL     1      -0.502   2.734  -0.650  1.00  0.00    -0.266 OA
ENDROOT
BRANCH   1  16
HETATM   16  C5  UNL     1       0.692   0.507  -1.897  1.00  0.00     0.101 C 
BRANCH  16  17
HETATM   17  C4  UNL     1       1.900   0.481  -1.070  1.00  0.00    -0.050 A 
HETATM   18  C3  UNL     1       2.355  -0.769  -0.633  1.00  0.00     0.024 A 
HETATM   19  C2  UNL     1       3.488  -0.899   0.151  1.00  0.00     0.090 A 
HETATM   20  N1  UNL     1       4.193   0.180   0.520  1.00  0.00    -0.371 N 
HETATM   21  C1  UNL     1       5.387   0.023   1.345  1.00  0.00     0.154 C 
HETATM   22  C13 UNL     1       3.763   1.386   0.103  1.00  0.00     0.090 A 
HETATM   23  C12 UNL     1       2.638   1.570  -0.681  1.00  0.00     0.024 A 
ENDBRANCH  16  17
ENDBRANCH   1  16
BRANCH   5  24
HETATM   24  N3  UNL     1      -2.648  -2.981  -0.694  1.00  0.00    -0.383 N 
ATOM     25  H32 UNL     1      -1.781  -2.966  -1.231  1.00  0.00     0.157 HD
ATOM     26  H31 UNL     1      -3.157  -3.859  -0.587  1.00  0.00     0.157 HD
ENDBRANCH   5  24
BRANCH   8  27
HETATM   27  N5  UNL     1      -5.841  -0.867   1.803  1.00  0.00    -0.234 N 
ATOM     28  H52 UNL     1      -6.355  -1.741   1.913  1.00  0.00     0.174 HD
ATOM     29  H51 UNL     1      -6.220  -0.028   2.241  1.00  0.00     0.174 HD
ENDBRANCH   8  27
TORSDOF 4
