REMARK  3 active torsions:
REMARK  status: ('A' for Active; 'I' for Inactive)
REMARK    1  A    between atoms: N1_1  and  C1_4 
REMARK    2  A    between atoms: C4_12  and  C5_13 
REMARK    3  A    between atoms: C5_13  and  N4_14 
ROOT
HETATM    1  C1  UNL     1       4.709   0.094   0.453  1.00  0.00     0.679 A 
HETATM    2  N2  UNL     1       4.673   0.263  -0.877  1.00  0.00    -0.154 N 
ATOM      3  H2  UNL     1       5.528   0.441  -1.403  1.00  0.00     0.187 HD
HETATM    4  C2  UNL     1       3.489   0.193  -1.498  1.00  0.00     0.288 A 
HETATM    5  O1  UNL     1       3.475   0.355  -2.746  1.00  0.00    -0.265 OA
HETATM    6  C3  UNL     1       2.308  -0.045  -0.840  1.00  0.00     0.129 A 
HETATM    7  N3  UNL     1       1.118  -0.118  -1.441  1.00  0.00    -0.352 N 
ATOM      8  H3  UNL     1       1.078   0.011  -2.452  1.00  0.00     0.166 HD
HETATM    9  C4  UNL     1      -0.033  -0.353  -0.780  1.00  0.00     0.028 A 
HETATM   10  C10 UNL     1      -0.031  -0.532   0.584  1.00  0.00     0.029 A 
HETATM   11  C11 UNL     1       1.192  -0.459   1.222  1.00  0.00     0.034 A 
HETATM   12  C12 UNL     1       2.362  -0.217   0.526  1.00  0.00     0.081 A 
HETATM   13  N7  UNL     1       3.556  -0.144   1.133  1.00  0.00    -0.190 N 
ATOM     14  H7  UNL     1       3.601  -0.272   2.144  1.00  0.00     0.184 HD
ENDROOT
BRANCH   9  15
HETATM   15  C5  UNL     1      -1.273  -0.411  -1.587  1.00  0.00     0.184 C 
BRANCH  15  16
HETATM   16  N4  UNL     1      -2.485  -0.363  -0.821  1.00  0.00    -0.356 N 
HETATM   17  C6  UNL     1      -3.346  -1.343  -0.827  1.00  0.00     0.108 A 
HETATM   18  C7  UNL     1      -4.566  -1.249  -0.032  1.00  0.00     0.106 A 
HETATM   19  N5  UNL     1      -4.814  -0.200   0.688  1.00  0.00    -0.352 N 
HETATM   20  C8  UNL     1      -3.878   0.895   0.710  1.00  0.00     0.131 A 
ATOM     21  H5  UNL     1      -5.671  -0.150   1.239  1.00  0.00     0.166 HD
HETATM   22  N6  UNL     1      -4.160   2.039   1.502  1.00  0.00    -0.081 NA
HETATM   23  C9  UNL     1      -2.795   0.770  -0.019  1.00  0.00     0.136 A 
ENDBRANCH  15  16
ENDBRANCH   9  15
BRANCH   1  24
HETATM   24  N1  UNL     1       5.844   0.159   1.063  1.00  0.00    -0.234 N 
ATOM     25  H12 UNL     1       6.709   0.338   0.553  1.00  0.00     0.174 HD
ATOM     26  H11 UNL     1       5.871   0.030   2.074  1.00  0.00     0.174 HD
ENDBRANCH   1  24
TORSDOF 3
