REMARK  4 active torsions:
REMARK  status: ('A' for Active; 'I' for Inactive)
REMARK       I    between atoms: C2_2  and  N1_4 
REMARK       I    between atoms: N1_4  and  C3_6 
REMARK    1  A    between atoms: C3_6  and  C4_8 
REMARK    2  A    between atoms: C10_17  and  C11_18 
REMARK    3  A    between atoms: C11_18  and  O6_20 
REMARK    4  A    between atoms: O6_20  and  C12_21 
ROOT
HETATM    1  C4  UNL     1      -1.237  -0.452  -1.342  1.00  0.00     0.025 C 
HETATM    2  C5  UNL     1      -2.109  -1.625  -1.732  1.00  0.00     0.060 C 
HETATM    3  C6  UNL     1      -2.488  -2.471  -0.540  1.00  0.00     0.146 C 
HETATM    4  S1  UNL     1      -1.030  -3.053   0.240  1.00  0.00     0.157 S 
HETATM    5  O3  UNL     1      -0.364  -4.042  -0.670  1.00  0.00    -0.227 OA
HETATM    6  O4  UNL     1      -1.310  -3.716   1.557  1.00  0.00    -0.227 OA
HETATM    7  C7  UNL     1       0.070  -1.691   0.470  1.00  0.00     0.090 C 
HETATM    8  C8  UNL     1       1.486  -2.323   0.505  1.00  0.00     0.037 C 
HETATM    9  C9  UNL     1      -0.186  -1.082   1.808  1.00  0.00     0.037 C 
HETATM   10  C10 UNL     1       0.040  -0.801  -0.703  1.00  0.00     0.051 C 
ENDROOT
BRANCH  10  11
HETATM   11  C11 UNL     1       0.909   0.400  -0.563  1.00  0.00     0.292 C 
HETATM   12  O5  UNL     1       0.507   1.477  -1.053  1.00  0.00    -0.260 OA
BRANCH  11  13
HETATM   13  O6  UNL     1       2.138   0.403   0.074  1.00  0.00    -0.312 OA
BRANCH  13  14
HETATM   14  C12 UNL     1       2.938   1.554   0.190  1.00  0.00     0.137 C 
HETATM   15  C13 UNL     1       4.373   1.294  -0.138  1.00  0.00     0.070 C 
HETATM   16  C14 UNL     1       4.824   1.930   1.172  1.00  0.00     0.175 C 
HETATM   17  F1  UNL     1       5.660   1.152   1.931  1.00  0.00    -0.249 F 
HETATM   18  C15 UNL     1       3.360   1.903   1.599  1.00  0.00     0.070 C 
ENDBRANCH  13  14
ENDBRANCH  11  13
ENDBRANCH  10  11
BRANCH   1  19
HETATM   19  C3  UNL     1      -2.050   0.612  -0.762  1.00  0.00     0.255 C 
HETATM   20  N1  UNL     1      -3.057   1.213  -1.556  1.00  0.00    -0.294 N 
HETATM   21  C2  UNL     1      -3.913   2.236  -1.147  1.00  0.00     0.220 C 
ATOM     22  H1  UNL     1      -3.166   0.868  -2.510  1.00  0.00     0.172 HD
HETATM   23  C1  UNL     1      -3.816   2.789   0.216  1.00  0.00     0.117 C 
HETATM   24  O1  UNL     1      -4.769   2.694  -1.935  1.00  0.00    -0.274 OA
HETATM   25  O2  UNL     1      -1.897   1.014   0.398  1.00  0.00    -0.268 OA
ENDBRANCH   1  19
TORSDOF 4
