REMARK  5 active torsions:
REMARK  status: ('A' for Active; 'I' for Inactive)
REMARK       I    between atoms: N1_5  and  C4_6 
REMARK    1  A    between atoms: C4_6  and  C5_8 
REMARK    2  A    between atoms: C5_8  and  O3_9 
REMARK    3  A    between atoms: C7_12  and  S1_13 
REMARK    4  A    between atoms: S1_13  and  C8_14 
REMARK    5  A    between atoms: C8_14  and  C9_16 
ROOT
HETATM    1  C1  UNL     1      -3.143  -2.661  -0.190  1.00  0.00     0.021 C 
HETATM    2  C2  UNL     1      -2.148  -1.543   0.144  1.00  0.00     0.095 C 
HETATM    3  C3  UNL     1      -2.881  -0.286   0.463  1.00  0.00     0.232 C 
HETATM    4  O1  UNL     1      -3.863  -0.284   1.267  1.00  0.00    -0.272 OA
HETATM    5  N1  UNL     1      -2.308   0.801  -0.250  1.00  0.00    -0.278 N 
HETATM    6  C4  UNL     1      -2.728   2.147  -0.120  1.00  0.00     0.250 C 
HETATM    7  O2  UNL     1      -2.149   3.039  -0.802  1.00  0.00    -0.271 OA
HETATM    8  C6  UNL     1      -1.274   0.284  -1.083  1.00  0.00     0.144 C 
HETATM    9  C7  UNL     1       0.119   0.325  -0.616  1.00  0.00     0.202 C 
HETATM   10  S2  UNL     1       0.344  -1.407  -0.947  1.00  0.00     0.167 S 
HETATM   11  O5  UNL     1       0.768  -2.192   0.256  1.00  0.00    -0.226 OA
HETATM   12  O6  UNL     1       1.066  -1.717  -2.207  1.00  0.00    -0.226 OA
HETATM   13  C13 UNL     1      -1.414  -1.214  -1.112  1.00  0.00     0.148 C 
ENDROOT
BRANCH   9  14
HETATM   14  S1  UNL     1       0.434   0.710   1.100  1.00  0.00    -0.069 SA
BRANCH  14  15
HETATM   15  C8  UNL     1       2.199   0.693   1.398  1.00  0.00     0.194 C 
HETATM   16  O4  UNL     1       2.678   0.929   2.507  1.00  0.00    -0.285 OA
BRANCH  15  17
HETATM   17  C9  UNL     1       3.148   0.392   0.309  1.00  0.00     0.109 A 
HETATM   18  C10 UNL     1       4.445   1.148   0.199  1.00  0.00     0.060 A 
HETATM   19  C11 UNL     1       4.427  -0.305   0.570  1.00  0.00     0.112 A 
HETATM   20  C12 UNL     1       4.890  -1.347  -0.394  1.00  0.00     0.053 C 
HETATM   21  F1  UNL     1       4.773  -0.548   1.890  1.00  0.00    -0.242 F 
ENDBRANCH  15  17
ENDBRANCH  14  15
ENDBRANCH   9  14
BRANCH   6  22
HETATM   22  C5  UNL     1      -3.829   2.554   0.794  1.00  0.00     0.267 C 
BRANCH  22  23
HETATM   23  O3  UNL     1      -4.068   3.908   0.761  1.00  0.00    -0.392 OA
ATOM     24  H3  UNL     1      -4.771   4.168   1.345  1.00  0.00     0.210 HD
ENDBRANCH  22  23
ENDBRANCH   6  22
TORSDOF 5
