REMARK  17 active torsions:
REMARK  status: ('A' for Active; 'I' for Inactive)
REMARK    1  A    between atoms: N1_1  and  C1_4 
REMARK    2  A    between atoms: C3_6  and  C4_7 
REMARK    3  A    between atoms: C4_7  and  C5_8 
REMARK    4  A    between atoms: C5_8  and  C6_9 
REMARK    5  A    between atoms: C6_9  and  O1_10 
REMARK    6  A    between atoms: O1_10  and  C7_11 
REMARK    7  A    between atoms: C7_11  and  C8_12 
REMARK    8  A    between atoms: C8_12  and  N2_13 
REMARK    9  A    between atoms: N2_13  and  C9_15 
REMARK   10  A    between atoms: C9_15  and  C10_16 
REMARK   11  A    between atoms: C10_16  and  O2_17 
REMARK   12  A    between atoms: N4_23  and  C12_24 
REMARK   13  A    between atoms: C12_24  and  C13_25 
REMARK   14  A    between atoms: C13_25  and  C14_26 
REMARK   15  A    between atoms: C14_26  and  C15_27 
REMARK   16  A    between atoms: C15_27  and  C16_28 
REMARK   17  A    between atoms: C16_28  and  N5_29 
ROOT
HETATM    1  C1  UNL     1      -1.175   0.039  -0.125  1.00  0.00     0.106 A 
HETATM    2  C2  UNL     1       0.187   0.018  -0.380  1.00  0.00     0.073 A 
HETATM    3  C3  UNL     1       0.896  -1.146  -0.274  1.00  0.00     0.017 A 
HETATM    4  N3  UNL     1       0.220  -2.267   0.086  1.00  0.00    -0.312 N 
ATOM      5  H3  UNL     1       0.720  -3.152   0.173  1.00  0.00     0.170 HD
HETATM    6  C11 UNL     1      -1.127  -2.222   0.333  1.00  0.00     0.328 A 
HETATM    7  O3  UNL     1      -1.738  -3.261   0.664  1.00  0.00    -0.246 OA
HETATM    8  N4  UNL     1      -1.799  -1.081   0.226  1.00  0.00    -0.286 N 
ENDROOT
BRANCH   3   9
HETATM    9  C4  UNL     1       2.387  -1.231  -0.522  1.00  0.00     0.059 C 
BRANCH   9  10
HETATM   10  C5  UNL     1       2.866   0.127  -0.812  1.00  0.00     0.032 C 
BRANCH  10  11
HETATM   11  C6  UNL     1       4.312   0.333  -1.107  1.00  0.00     0.168 C 
BRANCH  11  12
HETATM   12  O1  UNL     1       5.180   0.095  -0.156  1.00  0.00    -0.386 OA
BRANCH  12  13
HETATM   13  C7  UNL     1       5.434  -1.001   0.525  1.00  0.00     0.211 C 
BRANCH  13  14
HETATM   14  C8  UNL     1       6.631  -0.844   1.470  1.00  0.00     0.081 C 
BRANCH  14  15
HETATM   15  N2  UNL     1       7.859  -0.526   0.877  1.00  0.00    -0.398 N 
ATOM     16  H2  UNL     1       8.626  -1.198   0.852  1.00  0.00     0.158 HD
BRANCH  15  17
HETATM   17  C9  UNL     1       7.992   0.767   0.313  1.00  0.00     0.144 C 
BRANCH  17  18
HETATM   18  C10 UNL     1       9.422   0.967  -0.211  1.00  0.00     0.183 C 
BRANCH  18  19
HETATM   19  O2  UNL     1       9.499   2.249  -0.752  1.00  0.00    -0.399 OA
ATOM     20  H2  UNL     1      10.383   2.373  -1.076  1.00  0.00     0.209 HD
ENDBRANCH  18  19
ENDBRANCH  17  18
ENDBRANCH  15  17
ENDBRANCH  14  15
ENDBRANCH  13  14
ENDBRANCH  12  13
ENDBRANCH  11  12
ENDBRANCH  10  11
ENDBRANCH   9  10
ENDBRANCH   3   9
BRANCH   1  21
HETATM   21  N1  UNL     1      -1.829   1.173  -0.234  1.00  0.00    -0.385 N 
ATOM     22  H12 UNL     1      -1.350   2.032  -0.503  1.00  0.00     0.157 HD
ATOM     23  H11 UNL     1      -2.831   1.188  -0.046  1.00  0.00     0.157 HD
ENDBRANCH   1  21
BRANCH   8  24
HETATM   24  C12 UNL     1      -3.256  -1.028   0.495  1.00  0.00     0.135 C 
BRANCH  24  25
HETATM   25  C13 UNL     1      -3.926  -1.306  -0.787  1.00  0.00     0.020 C 
BRANCH  25  26
HETATM   26  C14 UNL     1      -5.386  -1.420  -0.897  1.00  0.00     0.003 C 
BRANCH  26  27
HETATM   27  C15 UNL     1      -6.242  -0.272  -0.554  1.00  0.00     0.022 C 
BRANCH  27  28
HETATM   28  C16 UNL     1      -6.294   0.223   0.836  1.00  0.00     0.148 C 
BRANCH  28  29
HETATM   29  N5  UNL     1      -7.238   1.360   0.950  1.00  0.00    -0.304 N 
HETATM   30  C17 UNL     1      -8.543   1.222   1.232  1.00  0.00     0.111 A 
HETATM   31  C18 UNL     1      -9.133   2.463   1.262  1.00  0.00     0.037 A 
HETATM   32  C19 UNL     1      -8.120   3.347   0.985  1.00  0.00     0.108 A 
HETATM   33  N6  UNL     1      -6.997   2.631   0.805  1.00  0.00    -0.310 N 
ATOM     34  H6  UNL     1      -6.083   3.028   0.585  1.00  0.00     0.186 HD
ENDBRANCH  28  29
ENDBRANCH  27  28
ENDBRANCH  26  27
ENDBRANCH  25  26
ENDBRANCH  24  25
ENDBRANCH   8  24
TORSDOF 17
