REMARK  7 active torsions:
REMARK  status: ('A' for Active; 'I' for Inactive)
REMARK    1  A    between atoms: N1_2  and  C2_4 
REMARK    2  A    between atoms: C5_13  and  C6_14 
REMARK    3  A    between atoms: C10_18  and  C11_19 
REMARK       I    between atoms: C11_19  and  N5_21 
REMARK    4  A    between atoms: N5_21  and  C12_23 
REMARK    5  A    between atoms: C12_23  and  C13_24 
REMARK    6  A    between atoms: C12_23  and  C20_31 
REMARK    7  A    between atoms: C13_24  and  C14_25 
REMARK       I    between atoms: C20_31  and  N6_33 
ROOT
HETATM    1  C11 UNL     1      -1.077  -0.976   1.325  1.00  0.00     0.252 C 
HETATM    2  O1  UNL     1      -1.982  -1.782   1.690  1.00  0.00    -0.268 OA
HETATM    3  N5  UNL     1      -1.475   0.153   0.601  1.00  0.00    -0.343 N 
ATOM      4  H5  UNL     1      -0.761   0.816   0.300  1.00  0.00     0.163 HD
ENDROOT
BRANCH   1   5
HETATM    5  C10 UNL     1       0.321  -1.232   1.659  1.00  0.00     0.032 A 
HETATM    6  C9  UNL     1       0.613  -2.126   2.669  1.00  0.00     0.017 A 
HETATM    7  C8  UNL     1       1.931  -2.369   2.980  1.00  0.00     0.002 A 
HETATM    8  C7  UNL     1       2.957  -1.731   2.293  1.00  0.00     0.014 A 
HETATM    9  C6  UNL     1       2.691  -0.835   1.280  1.00  0.00    -0.008 A 
HETATM   10  C26 UNL     1       1.347  -0.608   0.988  1.00  0.00     0.030 A 
BRANCH   9  11
HETATM   11  C5  UNL     1       3.739  -0.150   0.543  1.00  0.00     0.045 A 
HETATM   12  N4  UNL     1       3.559   0.722  -0.466  1.00  0.00    -0.341 N 
HETATM   13  C4  UNL     1       4.729   1.165  -0.920  1.00  0.00     0.120 A 
ATOM     14  H4  UNL     1       2.650   1.005  -0.833  1.00  0.00     0.167 HD
HETATM   15  N3  UNL     1       5.045   2.023  -1.892  1.00  0.00    -0.338 N 
HETATM   16  C28 UNL     1       5.736   0.561  -0.179  1.00  0.00     0.054 A 
HETATM   17  C3  UNL     1       6.347   2.323  -2.176  1.00  0.00     0.183 A 
ATOM     18  H3  UNL     1       4.301   2.463  -2.433  1.00  0.00     0.168 HD
HETATM   19  N2  UNL     1       7.305   1.740  -1.463  1.00  0.00    -0.338 N 
HETATM   20  C2  UNL     1       7.050   0.864  -0.468  1.00  0.00     0.115 A 
ATOM     21  H2  UNL     1       8.277   1.964  -1.677  1.00  0.00     0.168 HD
HETATM   22  C27 UNL     1       5.081  -0.253   0.725  1.00  0.00     0.049 A 
BRANCH  20  23
HETATM   23  N1  UNL     1       8.093   0.261   0.281  1.00  0.00    -0.380 N 
HETATM   24  C1  UNL     1       9.462   0.600  -0.048  1.00  0.00     0.147 C 
ATOM     25  H1  UNL     1       7.884  -0.395   1.033  1.00  0.00     0.160 HD
ENDBRANCH  20  23
ENDBRANCH   9  11
ENDBRANCH   1   5
BRANCH   3  26
HETATM   26  C12 UNL     1      -2.872   0.425   0.257  1.00  0.00     0.181 C 
BRANCH  26  27
HETATM   27  C13 UNL     1      -2.993   0.476  -1.249  1.00  0.00     0.073 C 
BRANCH  27  28
HETATM   28  C14 UNL     1      -2.567  -0.853  -1.813  1.00  0.00    -0.056 A 
HETATM   29  C15 UNL     1      -3.514  -1.831  -1.980  1.00  0.00     0.007 A 
HETATM   30  C16 UNL     1      -3.156  -3.059  -2.487  1.00  0.00     0.001 A 
HETATM   31  C17 UNL     1      -1.846  -3.340  -2.841  1.00  0.00     0.000 A 
HETATM   32  C18 UNL     1      -0.919  -2.356  -2.669  1.00  0.00     0.001 A 
HETATM   33  C19 UNL     1      -1.255  -1.111  -2.159  1.00  0.00     0.007 A 
ENDBRANCH  27  28
ENDBRANCH  26  27
BRANCH  26  34
HETATM   34  C20 UNL     1      -3.291   1.671   0.927  1.00  0.00     0.246 C 
HETATM   35  O2  UNL     1      -2.421   2.234   1.698  1.00  0.00    -0.271 OA
HETATM   36  N6  UNL     1      -4.507   2.256   0.790  1.00  0.00    -0.311 N 
HETATM   37  C21 UNL     1      -5.719   2.011   0.819  1.00  0.00     0.107 A 
ATOM     38  H6  UNL     1      -4.376   3.248   0.594  1.00  0.00     0.170 HD
HETATM   39  C22 UNL     1      -6.262   0.782   1.058  1.00  0.00     0.048 A 
HETATM   40  N7  UNL     1      -6.548   3.087   0.573  1.00  0.00    -0.352 N 
HETATM   41  C23 UNL     1      -7.656   0.618   1.053  1.00  0.00     0.005 A 
HETATM   42  C24 UNL     1      -8.443   1.717   0.803  1.00  0.00     0.017 A 
HETATM   43  C25 UNL     1      -7.860   2.950   0.565  1.00  0.00     0.089 A 
ATOM     44  H7  UNL     1      -6.139   4.004   0.394  1.00  0.00     0.166 HD
ENDBRANCH  26  34
ENDBRANCH   3  26
TORSDOF 7
