REMARK  3 active torsions:
REMARK  status: ('A' for Active; 'I' for Inactive)
REMARK    1  A    between atoms: C6_7  and  C7_8 
REMARK    2  A    between atoms: N2_9  and  N3_11 
REMARK    3  A    between atoms: N3_11  and  C8_13 
ROOT
HETATM    1  N1  UNL     1      -4.570   2.464   1.530  1.00  0.00    -0.197 NA
HETATM    2  C1  UNL     1      -4.299   1.656   0.746  1.00  0.00     0.064 C 
HETATM    3  C2  UNL     1      -3.935   0.611  -0.240  1.00  0.00     0.097 C 
HETATM    4  C3  UNL     1      -4.184  -0.719   0.395  1.00  0.00     0.046 C 
HETATM    5  C4  UNL     1      -3.013  -1.154   1.231  1.00  0.00    -0.029 C 
HETATM    6  C5  UNL     1      -1.824  -1.050   0.644  1.00  0.00    -0.021 C 
HETATM    7  C6  UNL     1      -1.833  -0.521  -0.748  1.00  0.00     0.049 C 
HETATM    8  C14 UNL     1      -2.519   0.805  -0.728  1.00  0.00     0.033 C 
ENDROOT
BRANCH   7   9
HETATM    9  C7  UNL     1      -0.475  -0.469  -1.335  1.00  0.00     0.088 C 
HETATM   10  N2  UNL     1       0.561  -0.291  -0.618  1.00  0.00    -0.315 N 
ATOM     11  H2  UNL     1       0.468  -0.179   0.392  1.00  0.00     0.185 HD
BRANCH  10  12
HETATM   12  N3  UNL     1       1.823  -0.248  -1.209  1.00  0.00    -0.301 N 
ATOM     13  H3  UNL     1       1.902  -0.379  -2.217  1.00  0.00     0.187 HD
BRANCH  12  14
HETATM   14  C8  UNL     1       3.004  -0.027  -0.448  1.00  0.00     0.048 A 
HETATM   15  C9  UNL     1       4.254   0.016  -1.026  1.00  0.00     0.034 A 
HETATM   16  C10 UNL     1       5.386   0.232  -0.268  1.00  0.00     0.044 A 
HETATM   17  C11 UNL     1       5.311   0.412   1.090  1.00  0.00     0.116 A 
HETATM   18  F1  UNL     1       6.408   0.629   1.875  1.00  0.00    -0.206 F 
HETATM   19  C12 UNL     1       4.054   0.370   1.677  1.00  0.00     0.044 A 
HETATM   20  C13 UNL     1       2.930   0.154   0.917  1.00  0.00     0.034 A 
ENDBRANCH  12  14
ENDBRANCH  10  12
ENDBRANCH   7   9
TORSDOF 3
