REMARK  11 active torsions:
REMARK  status: ('A' for Active; 'I' for Inactive)
REMARK    1  A    between atoms: C2_2  and  C3_3 
REMARK    2  A    between atoms: C3_3  and  O1_4 
REMARK    3  A    between atoms: C3_3  and  N1_6 
REMARK    4  A    between atoms: N1_6  and  N2_8 
REMARK    5  A    between atoms: C5_10  and  C6_11 
REMARK    6  A    between atoms: C8_15  and  S1_16 
REMARK    7  A    between atoms: S1_16  and  C9_17 
REMARK    8  A    between atoms: C9_17  and  C10_19 
REMARK    9  A    between atoms: C13_22  and  N4_23 
REMARK   10  A    between atoms: N4_23  and  C14_25 
REMARK   11  A    between atoms: C14_25  and  C16_27 
REMARK       I    between atoms: C16_27  and  N5_29 
ROOT
HETATM    1  C6  UNL     1      -1.117   0.566  -1.609  1.00  0.00     0.023 A 
HETATM    2  C7  UNL     1      -1.812   0.172  -2.768  1.00  0.00     0.104 A 
HETATM    3  N3  UNL     1      -1.535  -1.012  -3.334  1.00  0.00    -0.359 N 
ATOM      4  H3  UNL     1      -2.042  -1.292  -4.174  1.00  0.00     0.166 HD
HETATM    5  C8  UNL     1      -0.610  -1.835  -2.824  1.00  0.00     0.079 A 
HETATM    6  C12 UNL     1       0.066  -1.460  -1.702  1.00  0.00     0.067 A 
HETATM    7  C13 UNL     1      -0.157  -0.224  -1.029  1.00  0.00     0.044 A 
ENDROOT
BRANCH   7   8
HETATM    8  N4  UNL     1       0.482   0.019  -0.023  1.00  0.00    -0.376 N 
ATOM      9  H4  UNL     1       1.086  -0.796   0.085  1.00  0.00     0.160 HD
BRANCH   8  10
HETATM   10  C14 UNL     1       0.812   0.809   1.033  1.00  0.00     0.170 C 
HETATM   11  C15 UNL     1       1.864   1.887   0.576  1.00  0.00     0.042 C 
BRANCH  10  12
HETATM   12  C16 UNL     1       1.492   0.193   2.196  1.00  0.00     0.242 C 
HETATM   13  O3  UNL     1       1.317   0.856   3.300  1.00  0.00    -0.271 OA
HETATM   14  N5  UNL     1       2.272  -0.955   2.284  1.00  0.00    -0.349 N 
HETATM   15  C17 UNL     1       2.585  -1.744   1.145  1.00  0.00     0.140 C 
HETATM   16  C20 UNL     1       2.769  -1.332   3.621  1.00  0.00     0.140 C 
HETATM   17  C18 UNL     1       3.753  -2.674   1.331  1.00  0.00     0.160 C 
HETATM   18  S2  UNL     1       4.999  -2.033   2.399  1.00  0.00     0.147 S 
HETATM   19  O4  UNL     1       6.102  -1.327   1.677  1.00  0.00    -0.228 OA
HETATM   20  O5  UNL     1       5.608  -3.183   3.149  1.00  0.00    -0.228 OA
HETATM   21  C19 UNL     1       4.239  -0.966   3.620  1.00  0.00     0.160 C 
ENDBRANCH  10  12
ENDBRANCH   8  10
ENDBRANCH   7   8
BRANCH   1  22
HETATM   22  C5  UNL     1      -1.482   1.864  -1.088  1.00  0.00     0.122 C 
HETATM   23  N2  UNL     1      -2.416   2.546  -1.708  1.00  0.00    -0.307 N 
ATOM     24  H2  UNL     1      -2.889   2.189  -2.538  1.00  0.00     0.186 HD
BRANCH  23  25
HETATM   25  N1  UNL     1      -2.729   3.827  -1.141  1.00  0.00    -0.276 N 
HETATM   26  C4  UNL     1      -1.588   4.631  -0.855  1.00  0.00     0.180 C 
BRANCH  25  27
HETATM   27  C3  UNL     1      -4.075   4.126  -0.945  1.00  0.00     0.155 C 
BRANCH  27  28
HETATM   28  C2  UNL     1      -4.636   5.321  -0.413  1.00  0.00     0.047 C 
HETATM   29  C1  UNL     1      -4.064   6.397   0.008  1.00  0.00     0.015 C 
ENDBRANCH  27  28
BRANCH  27  30
HETATM   30  O1  UNL     1      -4.939   3.171  -1.302  1.00  0.00    -0.345 OA
ATOM     31  H1  UNL     1      -4.565   2.373  -1.657  1.00  0.00     0.219 HD
ENDBRANCH  27  30
ENDBRANCH  25  27
ENDBRANCH  23  25
ENDBRANCH   1  22
BRANCH   5  32
HETATM   32  S1  UNL     1      -0.300  -3.395  -3.628  1.00  0.00    -0.035 SA
BRANCH  32  33
HETATM   33  C9  UNL     1      -1.369  -4.647  -2.921  1.00  0.00     0.191 C 
HETATM   34  O2  UNL     1      -1.303  -5.792  -3.329  1.00  0.00    -0.285 OA
BRANCH  33  35
HETATM   35  C10 UNL     1      -2.330  -4.288  -1.842  1.00  0.00     0.086 C 
HETATM   36  C11 UNL     1      -1.673  -4.501  -0.470  1.00  0.00     0.013 C 
ENDBRANCH  33  35
ENDBRANCH  32  33
ENDBRANCH   5  32
TORSDOF 11
