REMARK  18 active torsions:
REMARK  status: ('A' for Active; 'I' for Inactive)
REMARK    1  A    between atoms: C6_6  and  S1_7 
REMARK    2  A    between atoms: S1_7  and  N1_10 
REMARK    3  A    between atoms: N1_10  and  C7_12 
REMARK    4  A    between atoms: C7_12  and  N2_13 
REMARK    5  A    between atoms: C7_12  and  C8_17 
REMARK    6  A    between atoms: C11_20  and  N3_21 
REMARK       I    between atoms: N3_21  and  C12_23 
REMARK    7  A    between atoms: C12_23  and  C13_25 
REMARK    8  A    between atoms: C13_25  and  C14_26 
REMARK    9  A    between atoms: C13_25  and  N9_40 
REMARK   10  A    between atoms: C14_26  and  C15_27 
REMARK   11  A    between atoms: C15_27  and  C16_28 
REMARK   12  A    between atoms: C16_28  and  N4_29 
REMARK       I    between atoms: N4_29  and  C17_31 
REMARK       I    between atoms: C17_31  and  N6_33 
REMARK   13  A    between atoms: N6_33  and  N7_35 
REMARK   14  A    between atoms: N7_35  and  N8_37 
REMARK   15  A    between atoms: N9_40  and  N10_42 
REMARK   16  A    between atoms: C19_46  and  O4_47 
REMARK   17  A    between atoms: C20_51  and  N12_52 
REMARK   18  A    between atoms: N12_52  and  C21_54 
ROOT
HETATM    1  C8  UNL     1      -1.490   1.206   1.830  1.00  0.00     0.085 A 
HETATM    2  C9  UNL     1      -0.873   2.457   1.914  1.00  0.00     0.032 A 
HETATM    3  C10 UNL     1       0.393   2.617   1.419  1.00  0.00     0.034 A 
HETATM    4  C11 UNL     1       1.019   1.542   0.854  1.00  0.00     0.067 A 
HETATM    5  C18 UNL     1       0.363   0.303   0.790  1.00  0.00     0.135 A 
HETATM    6  C19 UNL     1       0.752  -0.921   0.287  1.00  0.00     0.185 A 
HETATM    7  N11 UNL     1      -0.256  -1.776   0.481  1.00  0.00    -0.168 N 
ATOM      8  H11 UNL     1      -0.250  -2.759   0.208  1.00  0.00     0.186 HD
HETATM    9  C20 UNL     1      -1.280  -1.152   1.089  1.00  0.00     0.693 A 
HETATM   10  N16 UNL     1      -0.908   0.135   1.284  1.00  0.00    -0.141 N 
ENDROOT
BRANCH   4  11
HETATM   11  N3  UNL     1       2.307   1.672   0.320  1.00  0.00    -0.320 N 
HETATM   12  C12 UNL     1       3.191   2.747   0.361  1.00  0.00     0.270 C 
HETATM   13  O3  UNL     1       2.946   3.821   0.920  1.00  0.00    -0.266 OA
ATOM     14  H3  UNL     1       2.652   0.851  -0.177  1.00  0.00     0.169 HD
BRANCH  12  15
HETATM   15  C13 UNL     1       4.536   2.673  -0.288  1.00  0.00     0.093 C 
BRANCH  15  16
HETATM   16  C14 UNL     1       4.851   1.418  -0.974  1.00  0.00     0.066 C 
BRANCH  16  17
HETATM   17  C15 UNL     1       6.167   1.313  -1.644  1.00  0.00     0.026 C 
BRANCH  17  18
HETATM   18  C16 UNL     1       6.323  -0.083  -2.306  1.00  0.00     0.122 C 
BRANCH  18  19
HETATM   19  N4  UNL     1       6.198  -1.019  -1.211  1.00  0.00    -0.363 N 
HETATM   20  C17 UNL     1       7.143  -1.770  -0.828  1.00  0.00     0.204 C 
HETATM   21  N5  UNL     1       6.968  -2.671   0.251  1.00  0.00    -0.062 NA
HETATM   22  N6  UNL     1       8.396  -1.714  -1.487  1.00  0.00    -0.260 N 
ATOM     23  H6  UNL     1       8.430  -1.939  -2.481  1.00  0.00     0.191 HD
ATOM     24  H4  UNL     1       5.304  -1.077  -0.723  1.00  0.00     0.162 HD
BRANCH  22  25
HETATM   25  N7  UNL     1       9.582  -1.368  -0.847  1.00  0.00    -0.247 N 
ATOM     26  H7  UNL     1      10.160  -0.611  -1.211  1.00  0.00     0.207 HD
BRANCH  25  27
HETATM   27  N8  UNL     1       9.935  -1.995   0.182  1.00  0.00    -0.331 N 
ATOM     28  H82 UNL     1       9.345  -2.750   0.533  1.00  0.00     0.178 HD
ATOM     29  H81 UNL     1      10.804  -1.741   0.651  1.00  0.00     0.178 HD
ENDBRANCH  25  27
ENDBRANCH  22  25
ENDBRANCH  18  19
ENDBRANCH  17  18
ENDBRANCH  16  17
ENDBRANCH  15  16
BRANCH  15  30
HETATM   30  N9  UNL     1       5.318   3.668  -0.227  1.00  0.00    -0.306 N 
ATOM     31  H9  UNL     1       4.941   4.468   0.282  1.00  0.00     0.186 HD
BRANCH  30  32
HETATM   32  N10 UNL     1       6.578   3.858  -0.723  1.00  0.00    -0.345 N 
ATOM     33 2H10 UNL     1       6.936   3.047  -1.228  1.00  0.00     0.176 HD
ATOM     34 1H10 UNL     1       7.208   4.659  -0.674  1.00  0.00     0.176 HD
ENDBRANCH  30  32
ENDBRANCH  15  30
ENDBRANCH  12  15
ENDBRANCH   4  11
BRANCH   6  35
HETATM   35  O4  UNL     1       1.955  -1.270  -0.321  1.00  0.00    -0.344 OA
ATOM     36  H4  UNL     1       2.223  -2.113  -0.667  1.00  0.00     0.219 HD
ENDBRANCH   6  35
BRANCH   1  37
HETATM   37  C7  UNL     1      -2.864   1.132   2.393  1.00  0.00     0.343 C 
BRANCH  37  38
HETATM   38  N1  UNL     1      -3.686   2.211   1.911  1.00  0.00    -0.281 N 
ATOM     39  H1  UNL     1      -3.313   3.160   1.884  1.00  0.00     0.175 HD
BRANCH  38  40
HETATM   40  S1  UNL     1      -5.239   1.918   1.399  1.00  0.00     0.261 S 
HETATM   41  O1  UNL     1      -6.192   1.477   2.485  1.00  0.00    -0.200 OA
HETATM   42  O2  UNL     1      -5.813   3.286   0.985  1.00  0.00    -0.200 OA
BRANCH  40  43
HETATM   43  C6  UNL     1      -5.445   0.833   0.049  1.00  0.00     0.091 A 
HETATM   44  C4  UNL     1      -5.806  -0.493   0.164  1.00  0.00    -0.038 A 
HETATM   45  C3  UNL     1      -5.918  -1.319  -0.953  1.00  0.00     0.015 A 
HETATM   46  C5  UNL     1      -6.126  -1.050   1.485  1.00  0.00     0.050 C 
HETATM   47  C2  UNL     1      -5.677  -0.862  -2.222  1.00  0.00    -0.061 A 
HETATM   48  C1  UNL     1      -5.800  -1.742  -3.427  1.00  0.00     0.048 C 
HETATM   49  C25 UNL     1      -5.316   0.461  -2.358  1.00  0.00     0.015 A 
HETATM   50  C23 UNL     1      -5.203   1.287  -1.255  1.00  0.00    -0.038 A 
HETATM   51  C24 UNL     1      -4.815   2.722  -1.393  1.00  0.00     0.050 C 
ENDBRANCH  40  43
ENDBRANCH  38  40
ENDBRANCH  37  38
BRANCH  37  52
HETATM   52  N2  UNL     1      -2.681   1.531   3.838  1.00  0.00    -0.052 N 
ATOM     53  H23 UNL     1      -2.307   2.468   3.990  1.00  0.00     0.277 HD
ATOM     54  H22 UNL     1      -3.542   1.693   4.360  1.00  0.00     0.277 HD
ATOM     55  H21 UNL     1      -2.099   0.766   4.180  1.00  0.00     0.277 HD
ENDBRANCH  37  52
ENDBRANCH   1  37
BRANCH   9  56
HETATM   56  N12 UNL     1      -2.407  -1.694   1.413  1.00  0.00    -0.170 N 
ATOM     57  H12 UNL     1      -3.110  -1.116   1.872  1.00  0.00     0.186 HD
BRANCH  56  58
HETATM   58  C21 UNL     1      -2.708  -3.039   1.163  1.00  0.00     0.188 A 
HETATM   59  N13 UNL     1      -2.770  -3.642  -0.039  1.00  0.00    -0.221 N 
HETATM   60  O5  UNL     1      -3.073  -4.869   0.167  1.00  0.00    -0.153 OA
ATOM     61  H13 UNL     1      -2.606  -3.203  -0.945  1.00  0.00     0.198 HD
HETATM   62  N14 UNL     1      -3.219  -5.132   1.421  1.00  0.00    -0.222 N 
HETATM   63  C22 UNL     1      -2.999  -4.000   2.129  1.00  0.00     0.168 A 
ATOM     64  H14 UNL     1      -3.460  -6.042   1.814  1.00  0.00     0.198 HD
HETATM   65  N15 UNL     1      -3.042  -3.818   3.398  1.00  0.00    -0.381 N 
ATOM     66 2H15 UNL     1      -2.876  -2.965   3.932  1.00  0.00     0.157 HD
ATOM     67 1H15 UNL     1      -3.255  -4.522   4.105  1.00  0.00     0.157 HD
ENDBRANCH  56  58
ENDBRANCH   9  56
TORSDOF 18
