REMARK  13 active torsions:
REMARK  status: ('A' for Active; 'I' for Inactive)
REMARK    1  A    between atoms: C2_2  and  O1_4 
REMARK    2  A    between atoms: O1_4  and  C4_5 
REMARK    3  A    between atoms: C4_5  and  N1_6 
REMARK    4  A    between atoms: C5_7  and  N2_8 
REMARK    5  A    between atoms: N2_8  and  C6_10 
REMARK    6  A    between atoms: C6_10  and  C7_11 
REMARK    7  A    between atoms: C6_10  and  C8_16 
REMARK    8  A    between atoms: C7_11  and  O2_12 
REMARK    9  A    between atoms: O2_12  and  N3_13 
REMARK   10  A    between atoms: C10_18  and  O5_19 
REMARK   11  A    between atoms: C11_21  and  O6_22 
REMARK   12  A    between atoms: C12_24  and  O7_25 
REMARK   13  A    between atoms: C16_33  and  N5_34 
ROOT
HETATM    1  N1  UNL     1       1.992   0.619   0.928  1.00  0.00    -0.239 N 
HETATM    2  C5  UNL     1       1.103   1.296   0.048  1.00  0.00     0.132 A 
HETATM    3  C14 UNL     1       1.559   2.502  -0.456  1.00  0.00     0.110 A 
HETATM    4  C15 UNL     1       0.830   3.234  -1.365  1.00  0.00     0.264 A 
HETATM    5  O8  UNL     1      -0.287   2.784  -1.709  1.00  0.00    -0.267 OA
HETATM    6  N4  UNL     1       1.182   4.399  -1.957  1.00  0.00    -0.303 N 
ATOM      7  H4  UNL     1       0.500   4.791  -2.606  1.00  0.00     0.171 HD
HETATM    8  C16 UNL     1       2.292   5.093  -1.803  1.00  0.00     0.147 A 
HETATM    9  S1  UNL     1       3.396   4.398  -0.716  1.00  0.00    -0.035 SA
HETATM   10  C17 UNL     1       2.821   2.940  -0.053  1.00  0.00     0.101 A 
HETATM   11  N6  UNL     1       3.580   2.227   0.787  1.00  0.00    -0.301 N 
ATOM     12  H6  UNL     1       4.496   2.587   1.054  1.00  0.00     0.171 HD
HETATM   13  C18 UNL     1       3.171   1.058   1.285  1.00  0.00     0.334 A 
HETATM   14  O9  UNL     1       3.911   0.400   2.084  1.00  0.00    -0.246 OA
ENDROOT
BRANCH   2  15
HETATM   15  N2  UNL     1      -0.081   0.604  -0.168  1.00  0.00    -0.364 N 
ATOM     16  H2  UNL     1       0.124  -0.392  -0.249  1.00  0.00     0.162 HD
BRANCH  15  17
HETATM   17  C6  UNL     1      -1.459   0.801  -0.313  1.00  0.00     0.143 C 
BRANCH  17  18
HETATM   18  C7  UNL     1      -2.129   1.573   0.834  1.00  0.00     0.238 C 
BRANCH  18  19
HETATM   19  O2  UNL     1      -3.488   1.723   0.481  1.00  0.00    -0.219 OA
BRANCH  19  20
HETATM   20  N3  UNL     1      -4.297   2.413   1.358  1.00  0.00     0.005 N 
HETATM   21  O3  UNL     1      -5.423   2.049   1.686  1.00  0.00    -0.511 OA
HETATM   22  O4  UNL     1      -3.796   3.575   1.887  1.00  0.00    -0.511 OA
ENDBRANCH  19  20
ENDBRANCH  18  19
ENDBRANCH  17  18
BRANCH  17  23
HETATM   23  C8  UNL     1      -2.150  -0.592  -0.266  1.00  0.00    -0.028 A 
HETATM   24  C9  UNL     1      -1.863  -1.460  -1.300  1.00  0.00     0.049 A 
HETATM   25  C10 UNL     1      -2.415  -2.737  -1.322  1.00  0.00     0.102 A 
HETATM   26  C11 UNL     1      -3.250  -3.120  -0.301  1.00  0.00     0.132 A 
HETATM   27  C12 UNL     1      -3.551  -2.274   0.739  1.00  0.00     0.102 A 
HETATM   28  C13 UNL     1      -2.972  -0.995   0.724  1.00  0.00     0.049 A 
BRANCH  25  29
HETATM   29  O5  UNL     1      -2.135  -3.604  -2.345  1.00  0.00    -0.358 OA
ATOM     30  H5  UNL     1      -2.512  -4.476  -2.360  1.00  0.00     0.217 HD
ENDBRANCH  25  29
BRANCH  26  31
HETATM   31  O6  UNL     1      -3.829  -4.397  -0.285  1.00  0.00    -0.356 OA
ATOM     32  H6  UNL     1      -4.407  -4.662   0.421  1.00  0.00     0.218 HD
ENDBRANCH  26  31
BRANCH  27  33
HETATM   33  O7  UNL     1      -4.391  -2.647   1.775  1.00  0.00    -0.358 OA
ATOM     34  H7  UNL     1      -4.599  -2.062   2.494  1.00  0.00     0.217 HD
ENDBRANCH  27  33
ENDBRANCH  17  23
ENDBRANCH  15  17
ENDBRANCH   2  15
BRANCH   1  35
HETATM   35  C4  UNL     1       1.497  -0.633   1.488  1.00  0.00     0.240 C 
BRANCH  35  36
HETATM   36  O1  UNL     1       1.655  -1.747   0.794  1.00  0.00    -0.341 OA
BRANCH  36  37
HETATM   37  C2  UNL     1       2.777  -2.310   0.374  1.00  0.00     0.121 C 
HETATM   38  C1  UNL     1       2.821  -3.763   0.865  1.00  0.00     0.040 C 
HETATM   39  C3  UNL     1       2.650  -2.458  -1.169  1.00  0.00     0.040 C 
ENDBRANCH  36  37
ENDBRANCH  35  36
ENDBRANCH   1  35
BRANCH   8  40
HETATM   40  N5  UNL     1       2.500   6.191  -2.427  1.00  0.00    -0.380 N 
ATOM     41  H52 UNL     1       1.837   6.608  -3.080  1.00  0.00     0.158 HD
ATOM     42  H51 UNL     1       3.359   6.728  -2.308  1.00  0.00     0.158 HD
ENDBRANCH   8  40
TORSDOF 13
