REMARK  13 active torsions:
REMARK  status: ('A' for Active; 'I' for Inactive)
REMARK    1  A    between atoms: C1_2  and  C2_4 
REMARK    2  A    between atoms: C2_4  and  O3_5 
REMARK    3  A    between atoms: C2_4  and  C3_7 
REMARK    4  A    between atoms: C3_7  and  C4_8 
REMARK    5  A    between atoms: C4_8  and  N1_9 
REMARK    6  A    between atoms: C6_11  and  S1_12 
REMARK    7  A    between atoms: S1_12  and  C7_14 
REMARK    8  A    between atoms: C7_14  and  C8_15 
REMARK    9  A    between atoms: C8_15  and  O5_16 
REMARK   10  A    between atoms: N2_18  and  O6_19 
REMARK   11  A    between atoms: C11_24  and  O7_25 
REMARK   12  A    between atoms: C11_24  and  C12_27 
REMARK   13  A    between atoms: C12_27  and  O8_28 
ROOT
HETATM    1  S1  UNL     1      -0.496  -0.549  -0.850  1.00  0.00     0.141 S 
HETATM    2  O4  UNL     1       0.174  -1.942  -1.104  1.00  0.00    -0.238 OA
ENDROOT
BRANCH   1   3
HETATM    3  C6  UNL     1       1.157  -0.067  -1.011  1.00  0.00     0.142 A 
HETATM    4  C5  UNL     1       2.050   0.044  -0.038  1.00  0.00     0.149 A 
HETATM    5  N1  UNL     1       3.180   0.589  -0.584  1.00  0.00    -0.284 N 
HETATM    6  N5  UNL     1       2.921   0.783  -1.874  1.00  0.00    -0.020 NA
HETATM    7  N4  UNL     1       1.655   0.369  -2.131  1.00  0.00    -0.274 N 
ATOM      8  H4  UNL     1       1.182   0.395  -3.034  1.00  0.00     0.185 HD
BRANCH   5   9
HETATM    9  C4  UNL     1       4.418   0.898   0.100  1.00  0.00     0.149 C 
BRANCH   9  10
HETATM   10  C3  UNL     1       5.287  -0.306   0.019  1.00  0.00     0.064 C 
BRANCH  10  11
HETATM   11  C2  UNL     1       6.629  -0.206   0.660  1.00  0.00     0.220 C 
BRANCH  11  12
HETATM   12  C1  UNL     1       6.652   0.067   2.087  1.00  0.00     0.203 C 
HETATM   13  O1  UNL     1       7.146  -0.769   2.883  1.00  0.00    -0.646 OA
HETATM   14  O2  UNL     1       6.141   1.236   2.620  1.00  0.00    -0.646 OA
ENDBRANCH  11  12
BRANCH  11  15
HETATM   15  O3  UNL     1       7.265  -1.450   0.410  1.00  0.00    -0.385 OA
ATOM     16  H3  UNL     1       7.250  -1.628  -0.523  1.00  0.00     0.210 HD
ENDBRANCH  11  15
ENDBRANCH  10  11
ENDBRANCH   9  10
ENDBRANCH   5   9
ENDBRANCH   1   3
BRANCH   1  17
HETATM   17  C7  UNL     1      -1.597  -0.067  -0.648  1.00  0.00    -0.012 C 
BRANCH  17  18
HETATM   18  C8  UNL     1      -2.900   0.472  -0.421  1.00  0.00     0.253 C 
HETATM   19  N2  UNL     1      -3.353   1.254  -1.564  1.00  0.00    -0.059 NA
HETATM   20  N3  UNL     1      -4.485   1.945  -1.235  1.00  0.00    -0.136 NA
HETATM   21  C9  UNL     1      -5.580   1.098  -0.805  1.00  0.00     0.134 C 
HETATM   22  C10 UNL     1      -5.210  -0.353  -0.786  1.00  0.00     0.063 C 
HETATM   23  C11 UNL     1      -3.869  -0.671  -0.240  1.00  0.00     0.140 C 
BRANCH  18  24
HETATM   24  O5  UNL     1      -2.903   1.302   0.715  1.00  0.00    -0.360 OA
ATOM     25  H5  UNL     1      -3.770   1.661   0.866  1.00  0.00     0.213 HD
ENDBRANCH  18  24
BRANCH  19  26
HETATM   26  O6  UNL     1      -3.446   0.474  -2.658  1.00  0.00    -0.293 OA
ATOM     27  H6  UNL     1      -3.741   0.984  -3.403  1.00  0.00     0.238 HD
ENDBRANCH  19  26
BRANCH  23  28
HETATM   28  O7  UNL     1      -3.326  -1.796  -0.897  1.00  0.00    -0.382 OA
ATOM     29  H7  UNL     1      -3.936  -2.515  -0.783  1.00  0.00     0.210 HD
ENDBRANCH  23  28
BRANCH  23  30
HETATM   30  C12 UNL     1      -3.886  -1.011   1.235  1.00  0.00     0.207 C 
BRANCH  30  31
HETATM   31  O8  UNL     1      -4.653  -2.130   1.515  1.00  0.00    -0.398 OA
ATOM     32  H8  UNL     1      -4.664  -2.343   2.441  1.00  0.00     0.209 HD
ENDBRANCH  30  31
ENDBRANCH  23  30
ENDBRANCH  17  18
ENDBRANCH   1  17
TORSDOF 13
