REMARK  12 active torsions:
REMARK  status: ('A' for Active; 'I' for Inactive)
REMARK    1  A    between atoms: N1_1  and  C1_5 
REMARK    2  A    between atoms: C1_5  and  C2_6 
REMARK    3  A    between atoms: C4_8  and  N2_9 
REMARK    4  A    between atoms: C5_13  and  O1_14 
REMARK    5  A    between atoms: O1_14  and  C6_15 
REMARK    6  A    between atoms: C8_17  and  O2_18 
REMARK    7  A    between atoms: O2_18  and  C9_19 
REMARK    8  A    between atoms: C10_22  and  C11_23 
REMARK    9  A    between atoms: C11_23  and  N4_24 
REMARK   10  A    between atoms: C12_29  and  N5_30 
REMARK   11  A    between atoms: C14_35  and  N6_36 
REMARK   12  A    between atoms: C15_40  and  O5_41 
ROOT
HETATM    1  C6  UNL     1      -0.356  -0.335   0.351  1.00  0.00     0.155 C 
HETATM    2  C7  UNL     1       0.764  -0.310  -0.671  1.00  0.00     0.068 C 
HETATM    3  C8  UNL     1       1.934   0.456  -0.154  1.00  0.00     0.160 C 
HETATM    4  C12 UNL     1       1.619   1.377   1.001  1.00  0.00     0.214 C 
HETATM    5  C13 UNL     1       0.909   0.719   2.134  1.00  0.00     0.070 C 
HETATM    6  C14 UNL     1       0.304  -0.587   1.684  1.00  0.00     0.214 C 
ENDROOT
BRANCH   1   7
HETATM    7  O1  UNL     1      -1.341  -1.239   0.027  1.00  0.00    -0.371 OA
BRANCH   7   8
HETATM    8  C5  UNL     1      -2.509  -0.584  -0.226  1.00  0.00     0.207 C 
HETATM    9  C4  UNL     1      -3.005  -0.762  -1.646  1.00  0.00     0.219 C 
HETATM   10  C3  UNL     1      -4.348  -0.168  -1.803  1.00  0.00     0.069 C 
HETATM   11  C2  UNL     1      -4.957   0.467  -0.621  1.00  0.00     0.152 C 
HETATM   12  O6  UNL     1      -4.583   0.032   0.605  1.00  0.00    -0.352 OA
HETATM   13  C15 UNL     1      -3.678  -0.996   0.652  1.00  0.00     0.288 C 
BRANCH   9  14
HETATM   14  N2  UNL     1      -2.995  -2.183  -2.008  1.00  0.00    -0.072 N 
ATOM     15  H23 UNL     1      -3.696  -2.705  -1.483  1.00  0.00     0.274 HD
ATOM     16  H22 UNL     1      -3.359  -2.330  -2.950  1.00  0.00     0.274 HD
ATOM     17  H21 UNL     1      -2.067  -2.593  -1.900  1.00  0.00     0.274 HD
ENDBRANCH   9  14
BRANCH  11  18
HETATM   18  C1  UNL     1      -6.492   0.433  -0.672  1.00  0.00     0.261 C 
BRANCH  18  19
HETATM   19  N1  UNL     1      -6.936   1.323   0.390  1.00  0.00    -0.077 N 
ATOM     20  H13 UNL     1      -6.551   1.093   1.306  1.00  0.00     0.274 HD
ATOM     21  H12 UNL     1      -6.544   2.263   0.328  1.00  0.00     0.274 HD
ATOM     22  H11 UNL     1      -7.955   1.300   0.356  1.00  0.00     0.274 HD
ENDBRANCH  18  19
ENDBRANCH  11  18
BRANCH  13  23
HETATM   23  O5  UNL     1      -4.266  -2.166   0.155  1.00  0.00    -0.369 OA
ATOM     24  H5  UNL     1      -4.997  -2.424   0.704  1.00  0.00     0.212 HD
ENDBRANCH  13  23
ENDBRANCH   7   8
ENDBRANCH   1   7
BRANCH   6  25
HETATM   25  N6  UNL     1      -0.542  -1.184   2.665  1.00  0.00    -0.072 N 
ATOM     26  H63 UNL     1      -1.388  -0.628   2.789  1.00  0.00     0.274 HD
ATOM     27  H62 UNL     1      -0.949  -2.046   2.303  1.00  0.00     0.274 HD
ATOM     28  H61 UNL     1      -0.096  -1.354   3.566  1.00  0.00     0.274 HD
ENDBRANCH   6  25
BRANCH   3  29
HETATM   29  O2  UNL     1       3.003  -0.323   0.210  1.00  0.00    -0.330 OA
BRANCH  29  30
HETATM   30  C9  UNL     1       4.117  -0.021  -0.565  1.00  0.00     0.436 C 
HETATM   31  O3  UNL     1       4.567  -1.107  -1.300  1.00  0.00    -0.225 OA
HETATM   32  N3  UNL     1       5.898  -1.178  -1.132  1.00  0.00    -0.062 NA
HETATM   33  C10 UNL     1       6.241  -0.403   0.017  1.00  0.00     0.272 C 
HETATM   34  O4  UNL     1       5.143   0.380   0.268  1.00  0.00    -0.312 OA
BRANCH  33  35
HETATM   35  C11 UNL     1       7.505   0.411  -0.184  1.00  0.00     0.281 C 
BRANCH  35  36
HETATM   36  N4  UNL     1       7.804   1.200   0.995  1.00  0.00    -0.076 N 
ATOM     37  H43 UNL     1       7.016   1.788   1.265  1.00  0.00     0.274 HD
ATOM     38  H42 UNL     1       7.858   0.621   1.833  1.00  0.00     0.274 HD
ATOM     39  H41 UNL     1       8.654   1.747   0.860  1.00  0.00     0.274 HD
ENDBRANCH  35  36
ENDBRANCH  33  35
ENDBRANCH  29  30
ENDBRANCH   3  29
BRANCH   4  40
HETATM   40  N5  UNL     1       0.981   2.614   0.559  1.00  0.00    -0.072 N 
ATOM     41  H53 UNL     1       1.543   3.087  -0.148  1.00  0.00     0.274 HD
ATOM     42  H52 UNL     1       0.148   2.422   0.002  1.00  0.00     0.274 HD
ATOM     43  H51 UNL     1       0.768   3.236   1.339  1.00  0.00     0.274 HD
ENDBRANCH   4  40
TORSDOF 12
