REMARK  13 active torsions:
REMARK  status: ('A' for Active; 'I' for Inactive)
REMARK    1  A    between atoms: C5_5  and  C6_6 
REMARK    2  A    between atoms: C6_6  and  C7_7 
REMARK    3  A    between atoms: C9_11  and  C10_12 
REMARK    4  A    between atoms: C10_12  and  C11_13 
REMARK    5  A    between atoms: C15_20  and  C16_21 
REMARK    6  A    between atoms: C16_21  and  C17_22 
REMARK    7  A    between atoms: C21_29  and  C22_30 
REMARK    8  A    between atoms: C22_30  and  C23_31 
REMARK    9  A    between atoms: C23_31  and  C24_32 
REMARK   10  A    between atoms: C24_32  and  C25_33 
REMARK   11  A    between atoms: C25_33  and  C26_34 
REMARK   12  A    between atoms: C26_34  and  C27_35 
REMARK   13  A    between atoms: C34_50  and  N7_51 
ROOT
HETATM    1  C1  UNL     1      -6.516   7.021  -0.874  1.00  0.00     0.019 C 
HETATM    2  C2  UNL     1      -6.081   6.082  -0.257  1.00  0.00    -0.060 C 
HETATM    3  C3  UNL     1      -5.548   4.975   0.456  1.00  0.00     0.086 A 
HETATM    4  C4  UNL     1      -5.744   3.643   0.123  1.00  0.00     0.047 A 
HETATM    5  C5  UNL     1      -5.082   2.870   1.032  1.00  0.00    -0.039 A 
HETATM    6  C35 UNL     1      -4.492   3.792   1.907  1.00  0.00     0.096 A 
HETATM    7  N9  UNL     1      -4.786   5.048   1.540  1.00  0.00    -0.358 N 
ATOM      8  H9  UNL     1      -4.480   5.901   2.008  1.00  0.00     0.166 HD
ENDROOT
BRANCH   5   9
HETATM    9  C6  UNL     1      -4.968   1.414   1.154  1.00  0.00     0.062 C 
BRANCH   9  10
HETATM   10  C7  UNL     1      -3.802   0.773   0.440  1.00  0.00     0.158 C 
HETATM   11  C8  UNL     1      -3.910  -0.703   0.766  1.00  0.00     0.271 C 
HETATM   12  O1  UNL     1      -4.533  -0.947   1.819  1.00  0.00    -0.264 OA
HETATM   13  O2  UNL     1      -3.374  -1.614  -0.027  1.00  0.00    -0.306 OA
HETATM   14  C9  UNL     1      -2.193  -2.299  -0.183  1.00  0.00     0.224 C 
HETATM   15  C14 UNL     1      -1.071  -1.830   0.697  1.00  0.00     0.248 C 
HETATM   16  O3  UNL     1      -1.430  -1.236   1.754  1.00  0.00    -0.271 OA
HETATM   17  N1  UNL     1       0.300  -2.010   0.414  1.00  0.00    -0.346 N 
HETATM   18  C15 UNL     1       0.874  -2.661  -0.706  1.00  0.00     0.177 C 
ATOM     19  H1  UNL     1       0.954  -1.626   1.096  1.00  0.00     0.163 HD
HETATM   20  C20 UNL     1       1.463  -1.716  -1.715  1.00  0.00     0.241 C 
HETATM   21  O4  UNL     1       1.244  -2.052  -2.934  1.00  0.00    -0.271 OA
HETATM   22  N2  UNL     1       2.190  -0.565  -1.464  1.00  0.00    -0.346 N 
HETATM   23  C21 UNL     1       1.846   0.585  -0.654  1.00  0.00     0.176 C 
ATOM     24  H2  UNL     1       3.103  -0.520  -1.917  1.00  0.00     0.163 HD
HETATM   25  C28 UNL     1       1.626   1.792  -1.495  1.00  0.00     0.243 C 
HETATM   26  O5  UNL     1       2.532   2.026  -2.379  1.00  0.00    -0.271 OA
HETATM   27  N5  UNL     1       0.523   2.668  -1.389  1.00  0.00    -0.341 N 
HETATM   28  C29 UNL     1       0.412   4.049  -1.809  1.00  0.00     0.127 C 
HETATM   29  C32 UNL     1      -0.748   2.274  -0.816  1.00  0.00     0.125 C 
HETATM   30  C30 UNL     1      -0.460   4.658  -0.764  1.00  0.00     0.022 C 
HETATM   31  C31 UNL     1      -1.457   3.547  -0.508  1.00  0.00     0.032 C 
HETATM   32  C33 UNL     1      -1.456   1.343  -1.741  1.00  0.00     0.087 C 
HETATM   33  N6  UNL     1      -2.811   1.171  -1.690  1.00  0.00    -0.356 N 
HETATM   34  C34 UNL     1      -3.809   0.961  -1.021  1.00  0.00     0.109 C 
ATOM     35  H6  UNL     1      -3.137   1.258  -2.653  1.00  0.00     0.166 HD
BRANCH  14  36
HETATM   36  C10 UNL     1      -2.418  -3.744   0.210  1.00  0.00     0.046 C 
BRANCH  36  37
HETATM   37  C11 UNL     1      -3.442  -4.464  -0.594  1.00  0.00    -0.020 C 
HETATM   38  C12 UNL     1      -3.543  -5.913  -0.080  1.00  0.00     0.009 C 
HETATM   39  C13 UNL     1      -4.838  -3.890  -0.337  1.00  0.00     0.009 C 
ENDBRANCH  36  37
ENDBRANCH  14  36
BRANCH  18  40
HETATM   40  C16 UNL     1       2.003  -3.566  -0.313  1.00  0.00     0.038 C 
BRANCH  40  41
HETATM   41  C17 UNL     1       1.713  -4.690   0.593  1.00  0.00    -0.020 C 
HETATM   42  C18 UNL     1       1.191  -4.390   1.949  1.00  0.00     0.009 C 
HETATM   43  C19 UNL     1       2.933  -5.633   0.668  1.00  0.00     0.009 C 
ENDBRANCH  40  41
ENDBRANCH  18  40
BRANCH  23  44
HETATM   44  C22 UNL     1       2.890   0.813   0.426  1.00  0.00     0.035 C 
BRANCH  44  45
HETATM   45  C23 UNL     1       4.267   1.058  -0.104  1.00  0.00     0.002 C 
BRANCH  45  46
HETATM   46  C24 UNL     1       5.239   1.263   1.066  1.00  0.00     0.000 C 
BRANCH  46  47
HETATM   47  C25 UNL     1       6.617   1.500   0.489  1.00  0.00     0.007 C 
BRANCH  47  48
HETATM   48  C26 UNL     1       7.652   1.711   1.543  1.00  0.00     0.072 C 
BRANCH  48  49
HETATM   49  C27 UNL     1       8.966   1.929   0.879  1.00  0.00     0.086 C 
HETATM   50  N3  UNL     1       9.650   3.013   1.028  1.00  0.00    -0.391 N 
ATOM     51  H32 UNL     1       9.249   3.731   1.632  1.00  0.00     0.157 HD
ATOM     52  H31 UNL     1      10.551   3.162   0.573  1.00  0.00     0.157 HD
HETATM   53  N4  UNL     1       9.526   0.926   0.035  1.00  0.00    -0.088 NA
ENDBRANCH  48  49
ENDBRANCH  47  48
ENDBRANCH  46  47
ENDBRANCH  45  46
ENDBRANCH  44  45
ENDBRANCH  23  44
BRANCH  34  54
HETATM   54  N7  UNL     1      -5.079   0.846  -1.680  1.00  0.00    -0.295 N 
HETATM   55  N8  UNL     1      -5.844  -0.145  -1.583  1.00  0.00    -0.344 N 
ATOM     56  H82 UNL     1      -5.526  -0.912  -0.991  1.00  0.00     0.176 HD
ATOM     57  H81 UNL     1      -6.746  -0.227  -2.051  1.00  0.00     0.176 HD
ATOM     58  H7  UNL     1      -5.381   1.623  -2.268  1.00  0.00     0.187 HD
ENDBRANCH  34  54
ENDBRANCH   9  10
ENDBRANCH   5   9
TORSDOF 13
