REMARK  15 active torsions:
REMARK  status: ('A' for Active; 'I' for Inactive)
REMARK    1  A    between atoms: C2_2  and  C3_3 
REMARK    2  A    between atoms: C3_3  and  C4_4 
REMARK    3  A    between atoms: C4_4  and  C5_5 
REMARK    4  A    between atoms: C5_5  and  O2_7 
REMARK    5  A    between atoms: O2_7  and  C6_8 
REMARK    6  A    between atoms: C8_10  and  C9_11 
REMARK    7  A    between atoms: C9_11  and  C10_13 
REMARK       I    between atoms: N1_17  and  C14_18 
REMARK    8  A    between atoms: C14_18  and  C15_20 
REMARK    9  A    between atoms: C15_20  and  C16_21 
REMARK   10  A    between atoms: C15_20  and  N2_23 
REMARK       I    between atoms: N2_23  and  C17_25 
REMARK   11  A    between atoms: C17_25  and  O7_27 
REMARK   12  A    between atoms: O7_27  and  C18_28 
REMARK   13  A    between atoms: C22_32  and  C24_34 
REMARK   14  A    between atoms: C24_34  and  N3_35 
REMARK       I    between atoms: N3_35  and  C25_37 
REMARK       I    between atoms: C25_37  and  N4_39 
REMARK   15  A    between atoms: N4_39  and  C26_41 
ROOT
HETATM    1  C4  UNL     1      -3.091  -1.533  -0.450  1.00  0.00     0.069 A 
HETATM    2  C8  UNL     1      -1.902  -1.288   0.468  1.00  0.00     0.087 A 
HETATM    3  C22 UNL     1      -2.856  -0.177   0.156  1.00  0.00     0.001 A 
HETATM    4  C23 UNL     1      -2.254   0.887  -0.705  1.00  0.00     0.019 C 
ENDROOT
BRANCH   2   5
HETATM    5  C9  UNL     1      -0.533  -1.486   0.047  1.00  0.00     0.155 C 
HETATM    6  O3  UNL     1      -0.134  -1.320  -1.090  1.00  0.00    -0.295 OA
BRANCH   5   7
HETATM    7  C10 UNL     1       0.486  -1.920   1.022  1.00  0.00     0.157 C 
HETATM    8  C11 UNL     1       0.348  -1.333   2.408  1.00  0.00     0.035 C 
HETATM    9  C12 UNL     1       1.502  -2.075   3.104  1.00  0.00     0.022 C 
HETATM   10  C13 UNL     1       2.455  -2.426   1.962  1.00  0.00     0.127 C 
HETATM   11  N1  UNL     1       1.862  -1.685   0.783  1.00  0.00    -0.338 N 
HETATM   12  C14 UNL     1       2.706  -1.011  -0.085  1.00  0.00     0.250 C 
HETATM   13  O4  UNL     1       2.299  -0.296  -1.015  1.00  0.00    -0.271 OA
BRANCH  12  14
HETATM   14  C15 UNL     1       4.186  -1.103   0.046  1.00  0.00     0.240 C 
BRANCH  14  15
HETATM   15  C16 UNL     1       4.693  -2.492  -0.188  1.00  0.00     0.266 C 
HETATM   16  O5  UNL     1       5.524  -2.734  -1.071  1.00  0.00    -0.304 OA
ENDBRANCH  14  15
BRANCH  14  17
HETATM   17  N2  UNL     1       4.860  -0.266  -0.920  1.00  0.00    -0.317 N 
HETATM   18  C17 UNL     1       5.809   0.721  -0.559  1.00  0.00     0.362 C 
HETATM   19  O6  UNL     1       6.065   0.853   0.685  1.00  0.00    -0.238 OA
ATOM     20  H2  UNL     1       4.642  -0.392  -1.908  1.00  0.00     0.166 HD
BRANCH  18  21
HETATM   21  O7  UNL     1       6.460   1.529  -1.449  1.00  0.00    -0.294 OA
BRANCH  21  22
HETATM   22  C18 UNL     1       7.408   2.500  -1.018  1.00  0.00     0.061 C 
HETATM   23  C19 UNL     1       7.960   3.258  -2.202  1.00  0.00     0.046 C 
HETATM   24  C20 UNL     1       6.860   3.477  -0.030  1.00  0.00     0.046 C 
HETATM   25  C21 UNL     1       8.588   1.728  -0.431  1.00  0.00     0.046 C 
ENDBRANCH  21  22
ENDBRANCH  18  21
ENDBRANCH  14  17
ENDBRANCH  12  14
ENDBRANCH   5   7
ENDBRANCH   2   5
BRANCH   1  26
HETATM   26  C3  UNL     1      -2.917  -1.549  -1.933  1.00  0.00     0.021 C 
BRANCH  26  27
HETATM   27  C2  UNL     1      -4.019  -1.238  -2.832  1.00  0.00    -0.003 C 
HETATM   28  C1  UNL     1      -5.271  -1.988  -2.920  1.00  0.00     0.005 C 
ENDBRANCH  26  27
ENDBRANCH   1  26
BRANCH   1  29
HETATM   29  C5  UNL     1      -4.016  -2.509   0.168  1.00  0.00     0.269 C 
HETATM   30  O1  UNL     1      -4.373  -2.457   1.370  1.00  0.00    -0.264 OA
BRANCH  29  31
HETATM   31  O2  UNL     1      -4.537  -3.549  -0.537  1.00  0.00    -0.321 OA
BRANCH  31  32
HETATM   32  C6  UNL     1      -5.414  -4.526  -0.006  1.00  0.00     0.174 C 
HETATM   33  C7  UNL     1      -5.734  -5.482  -1.147  1.00  0.00     0.034 C 
ENDBRANCH  31  32
ENDBRANCH  29  31
ENDBRANCH   1  29
BRANCH   3  34
HETATM   34  C24 UNL     1      -3.751   0.295   1.275  1.00  0.00     0.135 C 
BRANCH  34  35
HETATM   35  N3  UNL     1      -3.596   1.594   1.818  1.00  0.00    -0.342 N 
HETATM   36  C25 UNL     1      -3.901   2.852   1.243  1.00  0.00     0.316 C 
HETATM   37  O8  UNL     1      -4.435   2.914   0.114  1.00  0.00    -0.247 OA
HETATM   38  N4  UNL     1      -3.611   4.085   1.925  1.00  0.00    -0.344 N 
ATOM     39  H4  UNL     1      -3.175   4.078   2.847  1.00  0.00     0.164 HD
ATOM     40  H3  UNL     1      -3.208   1.629   2.761  1.00  0.00     0.164 HD
BRANCH  38  41
HETATM   41  C26 UNL     1      -3.946   5.326   1.284  1.00  0.00     0.120 C 
HETATM   42  C27 UNL     1      -3.581   6.510   2.122  1.00  0.00     0.026 C 
ENDBRANCH  38  41
ENDBRANCH  34  35
ENDBRANCH   3  34
TORSDOF 15
