REMARK  14 active torsions:
REMARK  status: ('A' for Active; 'I' for Inactive)
REMARK    1  A    between atoms: C2_2  and  C3_3 
REMARK    2  A    between atoms: C4_4  and  C5_5 
REMARK    3  A    between atoms: C5_5  and  C6_6 
REMARK    4  A    between atoms: C6_6  and  C8_8 
REMARK    5  A    between atoms: C9_11  and  O1_12 
REMARK    6  A    between atoms: C10_14  and  C11_15 
REMARK    7  A    between atoms: C15_22  and  C16_23 
REMARK    8  A    between atoms: C16_23  and  C17_24 
REMARK    9  A    between atoms: C17_24  and  C18_25 
REMARK   10  A    between atoms: C18_25  and  N3_26 
REMARK   11  A    between atoms: C25_41  and  C26_42 
REMARK   12  A    between atoms: C26_42  and  C27_43 
REMARK   13  A    between atoms: C31_50  and  C32_51 
REMARK   14  A    between atoms: C32_51  and  C33_52 
ROOT
HETATM    1  C8  UNL     1      -2.445  -1.663  -0.335  1.00  0.00     0.027 C 
HETATM    2  N1  UNL     1      -1.032  -1.888  -0.428  1.00  0.00    -0.338 N 
ATOM      3  H1  UNL     1      -0.555  -1.217   0.174  1.00  0.00     0.168 HD
HETATM    4  C9  UNL     1      -0.096  -2.673  -1.029  1.00  0.00     0.164 C 
HETATM    5  C10 UNL     1       0.656  -2.866  -2.255  1.00  0.00     0.066 C 
HETATM    6  N2  UNL     1       2.054  -3.296  -1.973  1.00  0.00    -0.325 N 
ATOM      7  H2  UNL     1       2.247  -4.298  -1.979  1.00  0.00     0.169 HD
HETATM    8  C14 UNL     1       3.122  -2.439  -1.701  1.00  0.00     0.244 C 
HETATM    9  O2  UNL     1       4.253  -2.768  -2.164  1.00  0.00    -0.271 OA
HETATM   10  C15 UNL     1       3.088  -1.178  -0.928  1.00  0.00     0.177 C 
HETATM   11  N6  UNL     1       3.372  -0.071  -1.774  1.00  0.00    -0.346 N 
ATOM     12  H6  UNL     1       3.392  -0.301  -2.768  1.00  0.00     0.163 HD
HETATM   13  C20 UNL     1       3.629   1.276  -1.494  1.00  0.00     0.240 C 
HETATM   14  O3  UNL     1       4.614   1.804  -2.078  1.00  0.00    -0.271 OA
HETATM   15  C21 UNL     1       2.869   2.170  -0.581  1.00  0.00     0.174 C 
HETATM   16  C22 UNL     1       3.905   3.116   0.024  1.00  0.00     0.042 C 
HETATM   17  N7  UNL     1       1.884   2.982  -1.311  1.00  0.00    -0.342 N 
HETATM   18  C23 UNL     1       2.467   4.033  -2.134  1.00  0.00     0.153 C 
HETATM   19  C24 UNL     1       0.493   2.823  -1.278  1.00  0.00     0.243 C 
HETATM   20  O4  UNL     1      -0.130   3.336  -2.277  1.00  0.00    -0.271 OA
HETATM   21  C25 UNL     1      -0.369   2.159  -0.281  1.00  0.00     0.177 C 
HETATM   22  N8  UNL     1      -1.684   1.979  -0.861  1.00  0.00    -0.344 N 
ATOM     23  H8  UNL     1      -2.122   2.821  -1.235  1.00  0.00     0.163 HD
HETATM   24  C30 UNL     1      -2.443   0.788  -0.977  1.00  0.00     0.250 C 
HETATM   25  O5  UNL     1      -2.983   0.561  -2.124  1.00  0.00    -0.268 OA
HETATM   26  C31 UNL     1      -2.683  -0.212   0.055  1.00  0.00     0.033 C 
ENDROOT
BRANCH  10  27
HETATM   27  C16 UNL     1       3.781  -1.218   0.373  1.00  0.00     0.036 C 
BRANCH  27  28
HETATM   28  C17 UNL     1       5.237  -1.518   0.409  1.00  0.00     0.022 C 
BRANCH  28  29
HETATM   29  C18 UNL     1       5.718  -1.508   1.870  1.00  0.00     0.122 C 
BRANCH  29  30
HETATM   30  N3  UNL     1       5.438  -0.179   2.397  1.00  0.00    -0.367 N 
HETATM   31  C19 UNL     1       6.260   0.477   3.140  1.00  0.00     0.196 C 
HETATM   32  N4  UNL     1       5.851   1.764   3.582  1.00  0.00    -0.067 NA
HETATM   33  N5  UNL     1       7.490  -0.103   3.468  1.00  0.00    -0.067 NA
ATOM     34  H3  UNL     1       4.544   0.254   2.165  1.00  0.00     0.161 HD
ENDBRANCH  29  30
ENDBRANCH  28  29
ENDBRANCH  27  28
ENDBRANCH  10  27
BRANCH   5  35
HETATM   35  C11 UNL     1       0.609  -1.954  -3.404  1.00  0.00     0.032 C 
HETATM   36  C12 UNL     1       1.566  -2.421  -4.517  1.00  0.00     0.016 C 
HETATM   37  C13 UNL     1      -0.731  -1.956  -4.153  1.00  0.00     0.016 C 
ENDBRANCH   5  35
BRANCH   4  38
HETATM   38  O1  UNL     1       0.343  -3.665  -0.227  1.00  0.00    -0.345 OA
ATOM     39  H1  UNL     1       0.996  -4.213  -0.646  1.00  0.00     0.219 HD
ENDBRANCH   4  38
BRANCH   1  40
HETATM   40  C6  UNL     1      -3.311  -2.317  -1.270  1.00  0.00     0.043 C 
HETATM   41  C7  UNL     1      -4.785  -2.111  -1.233  1.00  0.00     0.017 C 
BRANCH  40  42
HETATM   42  C5  UNL     1      -3.187  -3.851  -1.178  1.00  0.00     0.104 C 
BRANCH  42  43
HETATM   43  C4  UNL     1      -3.793  -4.256   0.092  1.00  0.00    -0.106 C 
HETATM   44  C3  UNL     1      -4.296  -4.572   1.147  1.00  0.00    -0.107 C 
BRANCH  44  45
HETATM   45  C2  UNL     1      -4.924  -4.933   2.443  1.00  0.00     0.089 C 
HETATM   46  C1  UNL     1      -5.887  -3.804   2.749  1.00  0.00     0.018 C 
ENDBRANCH  44  45
ENDBRANCH  42  43
ENDBRANCH  40  42
ENDBRANCH   1  40
BRANCH  21  47
HETATM   47  C26 UNL     1      -0.416   2.793   1.076  1.00  0.00     0.038 C 
BRANCH  47  48
HETATM   48  C27 UNL     1      -0.895   4.175   1.219  1.00  0.00    -0.020 C 
HETATM   49  C28 UNL     1      -0.828   4.442   2.757  1.00  0.00     0.009 C 
HETATM   50  C29 UNL     1       0.082   5.235   0.694  1.00  0.00     0.009 C 
ENDBRANCH  47  48
ENDBRANCH  21  47
BRANCH  26  51
HETATM   51  C32 UNL     1      -3.751  -0.003   1.046  1.00  0.00     0.050 C 
BRANCH  51  52
HETATM   52  C33 UNL     1      -4.108   1.340   1.514  1.00  0.00    -0.018 C 
HETATM   53  C34 UNL     1      -4.599   2.368   0.600  1.00  0.00     0.010 C 
HETATM   54  C35 UNL     1      -5.159   1.145   2.629  1.00  0.00     0.010 C 
ENDBRANCH  51  52
ENDBRANCH  26  51
TORSDOF 14
