REMARK  14 active torsions:
REMARK  status: ('A' for Active; 'I' for Inactive)
REMARK    1  A    between atoms: C2_2  and  C4_4 
REMARK    2  A    between atoms: C4_4  and  C5_5 
REMARK    3  A    between atoms: C6_8  and  O1_9 
REMARK    4  A    between atoms: C7_11  and  C8_12 
REMARK    5  A    between atoms: C8_12  and  C9_13 
REMARK    6  A    between atoms: C13_20  and  C14_21 
REMARK    7  A    between atoms: C14_21  and  C15_22 
REMARK    8  A    between atoms: C25_35  and  C26_36 
REMARK    9  A    between atoms: C26_36  and  C27_37 
REMARK   10  A    between atoms: C27_37  and  C28_38 
REMARK   11  A    between atoms: C28_38  and  C29_39 
REMARK   12  A    between atoms: C29_39  and  N4_40 
REMARK   13  A    between atoms: C31_48  and  C32_49 
REMARK   14  A    between atoms: C32_49  and  C33_50 
ROOT
HETATM    1  C5  UNL     1      -2.199  -1.080  -1.308  1.00  0.00     0.176 C 
HETATM    2  N1  UNL     1      -2.076  -1.503   0.045  1.00  0.00    -0.356 N 
ATOM      3  H1  UNL     1      -2.154  -2.505   0.218  1.00  0.00     0.162 HD
HETATM    4  C6  UNL     1      -1.860  -0.691   1.162  1.00  0.00     0.159 C 
HETATM    5  C7  UNL     1      -2.145   0.688   1.499  1.00  0.00     0.063 C 
HETATM    6  N2  UNL     1      -2.656   1.546   0.457  1.00  0.00    -0.326 N 
ATOM      7  H2  UNL     1      -3.527   1.264   0.007  1.00  0.00     0.168 HD
HETATM    8  C12 UNL     1      -2.052   2.749   0.003  1.00  0.00     0.233 C 
HETATM    9  O2  UNL     1      -2.776   3.818  -0.017  1.00  0.00    -0.272 OA
HETATM   10  C13 UNL     1      -0.660   2.920  -0.458  1.00  0.00     0.150 C 
HETATM   11  C18 UNL     1       0.201   3.523   0.595  1.00  0.00     0.163 C 
HETATM   12  O3  UNL     1      -0.241   4.142   1.525  1.00  0.00    -0.295 OA
HETATM   13  C19 UNL     1       1.693   3.336   0.465  1.00  0.00     0.162 C 
HETATM   14  C20 UNL     1       2.310   4.630   0.870  1.00  0.00     0.037 C 
HETATM   15  C21 UNL     1       3.281   4.595   1.999  1.00  0.00     0.031 C 
HETATM   16  C22 UNL     1       2.764   3.741   3.089  1.00  0.00    -0.009 C 
HETATM   17  C23 UNL     1       2.211   2.605   2.726  1.00  0.00     0.091 C 
HETATM   18  N3  UNL     1       2.127   2.245   1.321  1.00  0.00    -0.315 N 
HETATM   19  C24 UNL     1       2.433   0.954   0.879  1.00  0.00     0.247 C 
HETATM   20  O4  UNL     1       2.052   0.021   1.676  1.00  0.00    -0.271 OA
HETATM   21  C25 UNL     1       3.124   0.538  -0.354  1.00  0.00     0.177 C 
HETATM   22  N5  UNL     1       2.313   0.025  -1.407  1.00  0.00    -0.346 N 
ATOM     23  H5  UNL     1       1.942   0.749  -2.023  1.00  0.00     0.163 HD
HETATM   24  C30 UNL     1       1.923  -1.263  -1.768  1.00  0.00     0.241 C 
HETATM   25  O5  UNL     1       2.332  -1.780  -2.848  1.00  0.00    -0.271 OA
HETATM   26  C31 UNL     1       1.012  -2.207  -1.005  1.00  0.00     0.177 C 
HETATM   27  N6  UNL     1      -0.108  -2.527  -1.917  1.00  0.00    -0.346 N 
ATOM     28  H6  UNL     1      -0.051  -3.432  -2.384  1.00  0.00     0.163 HD
HETATM   29  C36 UNL     1      -1.210  -1.774  -2.219  1.00  0.00     0.241 C 
HETATM   30  O6  UNL     1      -1.510  -1.588  -3.462  1.00  0.00    -0.271 OA
ENDROOT
BRANCH  21  31
HETATM   31  C26 UNL     1       4.280  -0.344   0.074  1.00  0.00     0.035 C 
BRANCH  31  32
HETATM   32  C27 UNL     1       5.209   0.482   0.974  1.00  0.00     0.004 C 
BRANCH  32  33
HETATM   33  C28 UNL     1       6.376  -0.384   1.413  1.00  0.00     0.027 C 
BRANCH  33  34
HETATM   34  C29 UNL     1       7.180  -0.890   0.246  1.00  0.00     0.229 C 
BRANCH  34  35
HETATM   35  N4  UNL     1       8.263  -1.701   0.814  1.00  0.00    -0.079 N 
ATOM     36  H43 UNL     1       8.823  -1.203   1.506  1.00  0.00     0.274 HD
ATOM     37  H42 UNL     1       7.933  -2.443   1.431  1.00  0.00     0.274 HD
ATOM     38  H41 UNL     1       8.808  -2.044   0.023  1.00  0.00     0.274 HD
ENDBRANCH  34  35
ENDBRANCH  33  34
ENDBRANCH  32  33
ENDBRANCH  31  32
ENDBRANCH  21  31
BRANCH  26  39
HETATM   39  C32 UNL     1       1.839  -3.412  -0.703  1.00  0.00     0.038 C 
BRANCH  39  40
HETATM   40  C33 UNL     1       1.281  -4.511   0.076  1.00  0.00    -0.020 C 
HETATM   41  C34 UNL     1       0.072  -5.200  -0.482  1.00  0.00     0.009 C 
HETATM   42  C35 UNL     1       0.981  -4.202   1.521  1.00  0.00     0.009 C 
ENDBRANCH  39  40
ENDBRANCH  26  39
BRANCH  10  43
HETATM   43  C14 UNL     1      -0.540   3.766  -1.666  1.00  0.00     0.025 C 
BRANCH  43  44
HETATM   44  C15 UNL     1      -1.176   3.363  -2.920  1.00  0.00    -0.021 C 
HETATM   45  C16 UNL     1      -2.637   3.167  -2.990  1.00  0.00     0.009 C 
HETATM   46  C17 UNL     1      -0.469   2.161  -3.557  1.00  0.00     0.009 C 
ENDBRANCH  43  44
ENDBRANCH  10  43
BRANCH   1  47
HETATM   47  C4  UNL     1      -3.568  -1.223  -1.898  1.00  0.00     0.038 C 
BRANCH  47  48
HETATM   48  C2  UNL     1      -4.180  -2.561  -1.989  1.00  0.00    -0.020 C 
HETATM   49  C1  UNL     1      -5.569  -2.441  -2.693  1.00  0.00     0.009 C 
HETATM   50  C3  UNL     1      -4.560  -3.090  -0.600  1.00  0.00     0.009 C 
ENDBRANCH  47  48
ENDBRANCH   1  47
BRANCH   5  51
HETATM   51  C8  UNL     1      -2.838   0.922   2.809  1.00  0.00     0.065 C 
BRANCH  51  52
HETATM   52  C9  UNL     1      -4.143   0.371   3.086  1.00  0.00    -0.017 C 
HETATM   53  C10 UNL     1      -5.277   0.749   2.183  1.00  0.00     0.010 C 
HETATM   54  C11 UNL     1      -4.172  -1.118   3.299  1.00  0.00     0.010 C 
ENDBRANCH  51  52
ENDBRANCH   5  51
BRANCH   4  55
HETATM   55  O1  UNL     1      -1.253  -1.331   2.128  1.00  0.00    -0.345 OA
ATOM     56  H1  UNL     1      -1.106  -0.779   2.887  1.00  0.00     0.219 HD
ENDBRANCH   4  55
TORSDOF 14
