REMARK  7 active torsions:
REMARK  status: ('A' for Active; 'I' for Inactive)
REMARK    1  A    between atoms: C2_2  and  C3_3 
REMARK    2  A    between atoms: C8_10  and  N1_11 
REMARK    3  A    between atoms: N2_14  and  C11_15 
REMARK    4  A    between atoms: C14_22  and  O1_23 
REMARK    5  A    between atoms: O1_23  and  C15_24 
REMARK    6  A    between atoms: C15_24  and  C17_26 
REMARK    7  A    between atoms: C17_26  and  O2_27 
ROOT
HETATM    1  N1  UNL     1      -1.842  -0.051  -0.716  1.00  0.00    -0.360 N 
HETATM    2  C9  UNL     1      -1.659  -0.388  -2.105  1.00  0.00     0.145 C 
HETATM    3  C10 UNL     1      -0.347  -1.098  -2.129  1.00  0.00     0.146 C 
HETATM    4  N2  UNL     1       0.391  -0.434  -1.062  1.00  0.00    -0.347 N 
HETATM    5  C20 UNL     1      -0.552   0.169  -0.142  1.00  0.00     0.251 C 
ENDROOT
BRANCH   1   6
HETATM    6  C8  UNL     1      -3.139   0.024  -0.127  1.00  0.00     0.081 A 
HETATM    7  C3  UNL     1      -3.761  -1.049   0.466  1.00  0.00     0.010 A 
HETATM    8  C4  UNL     1      -5.039  -0.880   1.014  1.00  0.00     0.132 A 
HETATM    9  F1  UNL     1      -5.610  -1.975   1.588  1.00  0.00    -0.205 F 
HETATM   10  C5  UNL     1      -5.645   0.343   0.951  1.00  0.00    -0.002 A 
HETATM   11  C6  UNL     1      -5.040   1.423   0.365  1.00  0.00     0.063 A 
HETATM   12  C24 UNL     1      -7.008   0.499   1.541  1.00  0.00     0.046 C 
HETATM   13  C7  UNL     1      -3.767   1.250  -0.179  1.00  0.00     0.158 A 
HETATM   14  C21 UNL     1      -5.719   2.708   0.320  1.00  0.00     0.197 C 
HETATM   15  F2  UNL     1      -3.178   2.307  -0.752  1.00  0.00    -0.203 F 
HETATM   16  O3  UNL     1      -5.086   3.715  -0.095  1.00  0.00    -0.289 OA
HETATM   17  C22 UNL     1      -7.130   2.818   0.758  1.00  0.00     0.245 C 
HETATM   18  F4  UNL     1      -8.008   2.393  -0.206  1.00  0.00    -0.241 F 
HETATM   19  C23 UNL     1      -7.269   1.915   1.984  1.00  0.00     0.050 C 
BRANCH   7  20
HETATM   20  C2  UNL     1      -3.068  -2.341   0.508  1.00  0.00     0.040 C 
HETATM   21  C1  UNL     1      -3.582  -3.333  -0.494  1.00  0.00     0.010 C 
ENDBRANCH   7  20
ENDBRANCH   1   6
BRANCH   4  22
HETATM   22  C11 UNL     1       1.810  -0.420  -1.000  1.00  0.00     0.149 A 
HETATM   23  N3  UNL     1       2.564  -1.025  -1.931  1.00  0.00    -0.330 N 
HETATM   24  C12 UNL     1       3.909  -1.048  -1.932  1.00  0.00     0.080 A 
ATOM     25  H3  UNL     1       2.082  -1.502  -2.693  1.00  0.00     0.168 HD
HETATM   26  C13 UNL     1       4.665  -1.753  -3.020  1.00  0.00     0.089 C 
HETATM   27  N4  UNL     1       4.528  -0.422  -0.931  1.00  0.00    -0.324 N 
HETATM   28  C14 UNL     1       3.885   0.222   0.064  1.00  0.00     0.187 A 
ATOM     29  H4  UNL     1       5.548  -0.431  -0.917  1.00  0.00     0.169 HD
HETATM   30  C19 UNL     1       2.507   0.220   0.025  1.00  0.00     0.210 A 
HETATM   31  F3  UNL     1       1.803   0.846   0.993  1.00  0.00    -0.197 F 
BRANCH  28  32
HETATM   32  O1  UNL     1       4.542   0.865   1.092  1.00  0.00    -0.326 OA
BRANCH  32  33
HETATM   33  C15 UNL     1       5.950   0.927   1.223  1.00  0.00     0.150 C 
HETATM   34  C16 UNL     1       6.495   2.322   1.087  1.00  0.00     0.042 C 
BRANCH  33  35
HETATM   35  C17 UNL     1       6.453   0.258   2.452  1.00  0.00     0.199 C 
BRANCH  35  36
HETATM   36  O2  UNL     1       7.826   0.367   2.533  1.00  0.00    -0.393 OA
HETATM   37  C18 UNL     1       8.469  -0.214   1.469  1.00  0.00     0.201 C 
ENDBRANCH  35  36
ENDBRANCH  33  35
ENDBRANCH  32  33
ENDBRANCH  28  32
ENDBRANCH   4  22
TORSDOF 7
