REMARK  13 active torsions:
REMARK  status: ('A' for Active; 'I' for Inactive)
REMARK    1  A    between atoms: S1_2  and  C2_3 
REMARK    2  A    between atoms: C3_6  and  N2_7 
REMARK    3  A    between atoms: C4_11  and  C5_12 
REMARK    4  A    between atoms: C5_12  and  C6_17 
REMARK    5  A    between atoms: N3_13  and  O1_15 
REMARK       I    between atoms: C6_17  and  N4_19 
REMARK    6  A    between atoms: N6_24  and  C8_25 
REMARK    7  A    between atoms: C8_25  and  C9_26 
REMARK    8  A    between atoms: C9_26  and  O3_27 
REMARK    9  A    between atoms: O3_27  and  S3_28 
REMARK       I    between atoms: N7_34  and  C12_35 
REMARK   10  A    between atoms: C12_35  and  C13_37 
REMARK   11  A    between atoms: C13_37  and  N8_38 
REMARK       I    between atoms: N8_38  and  C14_40 
REMARK   12  A    between atoms: C14_40  and  C15_42 
REMARK   13  A    between atoms: C15_42  and  N9_43 
ROOT
HETATM    1  C6  UNL     1       1.062   0.426   1.192  1.00  0.00     0.289 C 
HETATM    2  O2  UNL     1       0.934   1.124   2.196  1.00  0.00    -0.265 OA
HETATM    3  N4  UNL     1       0.088  -0.526   0.874  1.00  0.00    -0.153 N 
ATOM      4  H4  UNL     1       0.357  -1.510   0.866  1.00  0.00     0.187 HD
HETATM    5  C7  UNL     1      -1.138  -0.222   0.589  1.00  0.00     0.700 C 
HETATM    6  N5  UNL     1      -1.619   1.116   0.571  1.00  0.00    -0.151 N 
ATOM      7  H5  UNL     1      -0.935   1.871   0.614  1.00  0.00     0.199 HD
HETATM    8  N6  UNL     1      -2.953   1.456   0.499  1.00  0.00    -0.213 NA
HETATM    9  C10 UNL     1      -3.837   0.319   0.636  1.00  0.00     0.135 C 
HETATM   10  C11 UNL     1      -3.355  -0.809  -0.252  1.00  0.00     0.167 C 
HETATM   11  N7  UNL     1      -2.078  -1.242   0.274  1.00  0.00    -0.147 N 
HETATM   12  C12 UNL     1      -1.785  -2.629   0.464  1.00  0.00     0.255 C 
HETATM   13  O7  UNL     1      -0.702  -3.035   0.911  1.00  0.00    -0.271 OA
ENDROOT
BRANCH   1  14
HETATM   14  C5  UNL     1       2.280   0.629   0.335  1.00  0.00     0.142 C 
HETATM   15  N3  UNL     1       2.395  -0.058  -0.641  1.00  0.00    -0.262 N 
ATOM     16  H3  UNL     1       1.568  -0.655  -0.642  1.00  0.00     0.194 HD
BRANCH  14  17
HETATM   17  C4  UNL     1       3.212   1.668   0.804  1.00  0.00     0.076 A 
HETATM   18  C2  UNL     1       4.400   2.147   0.375  1.00  0.00     0.091 A 
HETATM   19  N1  UNL     1       4.958   3.134   1.037  1.00  0.00    -0.330 N 
HETATM   20  C3  UNL     1       4.346   3.629   2.101  1.00  0.00     0.143 A 
ATOM     21  H1  UNL     1       5.854   3.516   0.734  1.00  0.00     0.168 HD
HETATM   22  S2  UNL     1       2.939   2.698   2.199  1.00  0.00    -0.049 SA
BRANCH  18  23
HETATM   23  S1  UNL     1       5.243   1.438  -1.096  1.00  0.00    -0.115 SA
HETATM   24  C1  UNL     1       6.402   0.144  -0.522  1.00  0.00     0.097 C 
ENDBRANCH  18  23
BRANCH  20  25
HETATM   25  N2  UNL     1       4.729   4.603   2.893  1.00  0.00    -0.380 N 
ATOM     26  H22 UNL     1       5.578   5.165   2.834  1.00  0.00     0.158 HD
ATOM     27  H21 UNL     1       4.257   4.984   3.713  1.00  0.00     0.158 HD
ENDBRANCH  20  25
ENDBRANCH  14  17
BRANCH  15  28
HETATM   28  O1  UNL     1       3.047  -0.401  -1.671  1.00  0.00    -0.289 OA
ATOM     29  H1  UNL     1       3.138  -0.945  -2.444  1.00  0.00     0.244 HD
ENDBRANCH  15  28
ENDBRANCH   1  14
BRANCH   8  30
HETATM   30  C8  UNL     1      -3.322   2.186  -0.677  1.00  0.00     0.142 C 
BRANCH  30  31
HETATM   31  C9  UNL     1      -2.453   3.404  -0.904  1.00  0.00     0.209 C 
BRANCH  31  32
HETATM   32  O3  UNL     1      -2.538   4.292   0.168  1.00  0.00    -0.256 OA
BRANCH  32  33
HETATM   33  S3  UNL     1      -1.580   5.624  -0.095  1.00  0.00     0.251 S 
HETATM   34  O4  UNL     1      -2.490   6.814  -0.252  1.00  0.00    -0.572 OA
HETATM   35  O5  UNL     1      -0.737   5.884   1.123  1.00  0.00    -0.572 OA
HETATM   36  O6  UNL     1      -0.611   5.498  -1.442  1.00  0.00    -0.572 OA
ENDBRANCH  32  33
ENDBRANCH  31  32
ENDBRANCH  30  31
ENDBRANCH   8  30
BRANCH  12  37
HETATM   37  C13 UNL     1      -2.836  -3.604   0.104  1.00  0.00     0.226 C 
BRANCH  37  38
HETATM   38  N8  UNL     1      -2.451  -4.977   0.313  1.00  0.00    -0.351 N 
HETATM   39  C14 UNL     1      -1.355  -5.533  -0.387  1.00  0.00     0.243 C 
HETATM   40  O8  UNL     1      -0.654  -4.903  -1.222  1.00  0.00    -0.272 OA
ATOM     41  H8  UNL     1      -2.974  -5.553   0.972  1.00  0.00     0.163 HD
BRANCH  39  42
HETATM   42  C15 UNL     1      -1.006  -6.971  -0.114  1.00  0.00     0.332 C 
BRANCH  42  43
HETATM   43  N9  UNL     1       0.125  -7.387  -0.900  1.00  0.00    -0.071 N 
ATOM     44  H93 UNL     1      -0.027  -7.219  -1.895  1.00  0.00     0.274 HD
ATOM     45  H92 UNL     1       0.927  -6.772  -0.759  1.00  0.00     0.274 HD
ATOM     46  H91 UNL     1       0.362  -8.362  -0.715  1.00  0.00     0.274 HD
ENDBRANCH  42  43
ENDBRANCH  39  42
ENDBRANCH  37  38
ENDBRANCH  12  37
TORSDOF 13
