REMARK  7 active torsions:
REMARK  status: ('A' for Active; 'I' for Inactive)
REMARK    1  A    between atoms: C3_5  and  C4_6 
REMARK       I    between atoms: C4_6  and  N2_8 
REMARK    2  A    between atoms: C7_11  and  N3_12 
REMARK       I    between atoms: N3_12  and  C8_14 
REMARK    3  A    between atoms: C8_14  and  C9_16 
REMARK    4  A    between atoms: C10_17  and  C11_18 
REMARK    5  A    between atoms: C15_23  and  N4_24 
REMARK       I    between atoms: N4_24  and  C16_26 
REMARK       I    between atoms: C16_26  and  N5_28 
REMARK    6  A    between atoms: N5_28  and  C17_30 
REMARK    7  A    between atoms: C17_30  and  C18_31 
ROOT
HETATM    1  C9  UNL     1      -1.411   0.899   3.108  1.00  0.00     0.093 A 
HETATM    2  C10 UNL     1      -0.174   1.481   3.196  1.00  0.00     0.085 A 
HETATM    3  N6  UNL     1      -0.017   1.738   4.543  1.00  0.00    -0.259 N 
ATOM      4  H6  UNL     1       0.798   2.174   4.974  1.00  0.00     0.195 HD
HETATM    5  O4  UNL     1      -1.071   1.336   5.165  1.00  0.00    -0.241 OA
HETATM    6  C22 UNL     1      -1.969   0.815   4.379  1.00  0.00     0.090 A 
HETATM    7  C23 UNL     1      -3.298   0.245   4.736  1.00  0.00     0.080 C 
ENDROOT
BRANCH   2   8
HETATM    8  C11 UNL     1       0.806   1.848   2.190  1.00  0.00     0.023 A 
HETATM    9  C12 UNL     1       0.688   3.080   1.512  1.00  0.00     0.047 A 
HETATM   10 CL1  UNL     1      -0.687   4.059   1.957  1.00  0.00    -0.083 Cl
HETATM   11  C13 UNL     1       1.629   3.448   0.610  1.00  0.00     0.027 A 
HETATM   12  C14 UNL     1       2.747   2.657   0.305  1.00  0.00     0.032 A 
HETATM   13  C15 UNL     1       2.887   1.472   0.945  1.00  0.00     0.043 A 
HETATM   14  C20 UNL     1       1.907   1.082   1.882  1.00  0.00    -0.021 A 
HETATM   15  C21 UNL     1       2.076  -0.215   2.568  1.00  0.00     0.052 C 
BRANCH  13  16
HETATM   16  N4  UNL     1       4.010   0.643   0.724  1.00  0.00    -0.308 N 
HETATM   17  C16 UNL     1       4.951   0.789  -0.284  1.00  0.00     0.324 C 
HETATM   18  O3  UNL     1       4.982   1.672  -1.183  1.00  0.00    -0.247 OA
HETATM   19  N5  UNL     1       6.062  -0.145  -0.406  1.00  0.00    -0.317 N 
ATOM     20  H5  UNL     1       6.093  -0.876   0.305  1.00  0.00     0.169 HD
ATOM     21  H4  UNL     1       4.141  -0.137   1.368  1.00  0.00     0.170 HD
BRANCH  19  22
HETATM   22  C17 UNL     1       7.089  -0.191  -1.348  1.00  0.00     0.143 C 
BRANCH  22  23
HETATM   23  C18 UNL     1       6.714  -0.354  -2.788  1.00  0.00     0.272 C 
HETATM   24  C19 UNL     1       5.844  -1.590  -3.024  1.00  0.00     0.096 C 
HETATM   25  F1  UNL     1       7.975  -0.674  -3.424  1.00  0.00    -0.201 F 
HETATM   26  F2  UNL     1       6.250   0.693  -3.472  1.00  0.00    -0.201 F 
ENDBRANCH  22  23
ENDBRANCH  19  22
ENDBRANCH  13  16
ENDBRANCH   2   8
BRANCH   1  27
HETATM   27  C8  UNL     1      -1.972   0.398   1.847  1.00  0.00     0.261 C 
HETATM   28  N3  UNL     1      -3.235   0.844   1.365  1.00  0.00    -0.315 N 
ATOM     29  H3  UNL     1      -3.757   1.529   1.911  1.00  0.00     0.170 HD
HETATM   30  O2  UNL     1      -1.293  -0.422   1.217  1.00  0.00    -0.267 OA
BRANCH  28  31
HETATM   31  C7  UNL     1      -3.806   0.355   0.120  1.00  0.00     0.111 A 
HETATM   32  C3  UNL     1      -4.102  -0.299  -0.859  1.00  0.00     0.136 A 
HETATM   33  N1  UNL     1      -4.756   0.022  -1.960  1.00  0.00    -0.347 N 
HETATM   34  C2  UNL     1      -5.180   1.254  -2.028  1.00  0.00     0.049 A 
ATOM     35  H1  UNL     1      -4.919  -0.650  -2.710  1.00  0.00     0.166 HD
HETATM   36  C1  UNL     1      -5.990   1.862  -3.184  1.00  0.00     0.076 C 
HETATM   37  S1  UNL     1      -4.676   1.937  -0.615  1.00  0.00    -0.057 SA
BRANCH  32  38
HETATM   38  C4  UNL     1      -3.854  -1.837  -0.754  1.00  0.00     0.272 C 
HETATM   39  O1  UNL     1      -3.534  -2.335   0.349  1.00  0.00    -0.266 OA
HETATM   40  N2  UNL     1      -3.966  -2.687  -1.828  1.00  0.00    -0.355 N 
HETATM   41  C5  UNL     1      -4.271  -2.288  -3.167  1.00  0.00     0.152 C 
HETATM   42  C6  UNL     1      -3.809  -4.137  -1.588  1.00  0.00     0.152 C 
ENDBRANCH  32  38
ENDBRANCH  28  31
ENDBRANCH   1  27
TORSDOF 7
