REMARK  7 active torsions:
REMARK  status: ('A' for Active; 'I' for Inactive)
REMARK    1  A    between atoms: C2_2  and  C3_3 
REMARK    2  A    between atoms: C2_2  and  C11_18 
REMARK       I    between atoms: C3_3  and  N1_5 
REMARK    3  A    between atoms: N1_5  and  C4_7 
REMARK    4  A    between atoms: C5_8  and  O2_9 
REMARK    5  A    between atoms: C6_12  and  O4_13 
REMARK    6  A    between atoms: N2_24  and  O5_26 
REMARK    7  A    between atoms: C27_39  and  O7_40 
ROOT
HETATM    1  C11 UNL     1       1.950   0.321  -1.041  1.00  0.00    -0.056 C 
HETATM    2  C12 UNL     1       1.369   0.737  -2.345  1.00  0.00     0.037 C 
HETATM    3  C13 UNL     1       0.386  -0.331  -2.651  1.00  0.00     0.021 C 
HETATM    4  C14 UNL     1       0.059  -0.989  -1.334  1.00  0.00     0.011 C 
HETATM    5  C15 UNL     1       0.556  -2.447  -1.516  1.00  0.00     0.023 C 
HETATM    6  C16 UNL     1      -1.378  -1.108  -1.238  1.00  0.00     0.053 C 
HETATM    7  N2  UNL     1      -2.003  -1.543  -2.305  1.00  0.00    -0.274 N 
ATOM      8  H2  UNL     1      -3.016  -1.615  -2.205  1.00  0.00     0.193 HD
HETATM    9  C17 UNL     1      -2.408  -0.871  -0.178  1.00  0.00     0.103 C 
HETATM   10  C18 UNL     1      -2.462  -2.097   0.667  1.00  0.00     0.053 C 
HETATM   11  O6  UNL     1      -3.685  -0.694  -0.702  1.00  0.00    -0.368 OA
HETATM   12  C19 UNL     1      -4.123   0.581  -0.333  1.00  0.00     0.137 C 
HETATM   13  C20 UNL     1      -3.415   0.940   0.926  1.00  0.00     0.026 C 
HETATM   14  C21 UNL     1      -3.840   0.467   2.214  1.00  0.00    -0.012 C 
HETATM   15  C22 UNL     1      -3.649   1.569   3.274  1.00  0.00     0.010 C 
HETATM   16  C23 UNL     1      -5.224  -0.038   2.398  1.00  0.00     0.005 C 
HETATM   17  C24 UNL     1      -6.289   0.854   1.855  1.00  0.00     0.013 C 
HETATM   18  C25 UNL     1      -6.541   0.401   0.426  1.00  0.00    -0.008 C 
HETATM   19  C26 UNL     1      -6.834  -1.063   0.404  1.00  0.00     0.019 C 
HETATM   20  C27 UNL     1      -7.788   1.181  -0.021  1.00  0.00     0.127 C 
HETATM   21  C28 UNL     1      -7.230   2.502  -0.498  1.00  0.00     0.033 C 
HETATM   22  C29 UNL     1      -5.740   2.377  -0.546  1.00  0.00     0.015 C 
HETATM   23  C30 UNL     1      -5.524   0.867  -0.509  1.00  0.00    -0.008 C 
HETATM   24  C31 UNL     1      -5.921   0.377  -1.913  1.00  0.00     0.019 C 
HETATM   25  C32 UNL     1      -2.064   0.409   0.448  1.00  0.00     0.033 C 
HETATM   26  C33 UNL     1      -0.944   0.412   1.384  1.00  0.00     0.009 C 
HETATM   27  C34 UNL     1       0.272   0.686   0.591  1.00  0.00     0.015 C 
HETATM   28  C35 UNL     1       0.873  -0.371  -0.256  1.00  0.00    -0.007 C 
HETATM   29  C36 UNL     1       1.401  -1.435   0.667  1.00  0.00     0.021 C 
ENDROOT
BRANCH   1  30
HETATM   30  C2  UNL     1       3.307  -0.207  -1.061  1.00  0.00     0.025 C 
HETATM   31  C1  UNL     1       3.779  -0.706  -2.191  1.00  0.00     0.029 C 
BRANCH  30  32
HETATM   32  C3  UNL     1       4.184  -0.118   0.063  1.00  0.00     0.251 C 
HETATM   33  O1  UNL     1       3.795   0.358   1.156  1.00  0.00    -0.268 OA
HETATM   34  N1  UNL     1       5.525  -0.558   0.010  1.00  0.00    -0.347 N 
ATOM     35  H1  UNL     1       5.891  -0.951  -0.857  1.00  0.00     0.163 HD
BRANCH  34  36
HETATM   36  C4  UNL     1       6.405  -0.458   1.190  1.00  0.00     0.152 C 
HETATM   37  C5  UNL     1       7.145  -1.730   1.461  1.00  0.00     0.283 C 
HETATM   38  O3  UNL     1       8.254  -1.745   0.625  1.00  0.00    -0.329 OA
HETATM   39  C6  UNL     1       8.543  -0.464   0.235  1.00  0.00     0.272 C 
HETATM   40  C8  UNL     1       7.575   0.482   0.860  1.00  0.00     0.027 C 
HETATM   41  C9  UNL     1       7.113   1.594  -0.037  1.00  0.00     0.022 C 
HETATM   42  C10 UNL     1       8.070   1.036   2.180  1.00  0.00     0.022 C 
BRANCH  37  43
HETATM   43  O2  UNL     1       6.370  -2.869   1.333  1.00  0.00    -0.369 OA
ATOM     44  H2  UNL     1       6.840  -3.677   1.505  1.00  0.00     0.212 HD
ENDBRANCH  37  43
BRANCH  39  45
HETATM   45  O4  UNL     1       8.398  -0.375  -1.148  1.00  0.00    -0.365 OA
HETATM   46  C7  UNL     1       9.596   0.010  -1.753  1.00  0.00     0.204 C 
ENDBRANCH  39  45
ENDBRANCH  34  36
ENDBRANCH  30  32
ENDBRANCH   1  30
BRANCH   7  47
HETATM   47  O5  UNL     1      -1.541  -1.904  -3.488  1.00  0.00    -0.290 OA
ATOM     48  H5  UNL     1      -1.994  -2.219  -4.261  1.00  0.00     0.244 HD
ENDBRANCH   7  47
BRANCH  20  49
HETATM   49  O7  UNL     1      -8.493   0.505  -0.986  1.00  0.00    -0.395 OA
ATOM     50  H7  UNL     1      -9.264   0.987  -1.262  1.00  0.00     0.210 HD
ENDBRANCH  20  49
TORSDOF 7
