REMARK  6 active torsions:
REMARK  status: ('A' for Active; 'I' for Inactive)
REMARK    1  A    between atoms: C2_2  and  C4_4 
REMARK    2  A    between atoms: C4_4  and  C5_5 
REMARK    3  A    between atoms: C7_7  and  O1_8 
REMARK    4  A    between atoms: O1_8  and  C8_9 
REMARK    5  A    between atoms: C18_21  and  N2_22 
REMARK    6  A    between atoms: N2_22  and  C19_24 
ROOT
HETATM    1  C19 UNL     1      -2.931   3.927  -0.874  1.00  0.00     0.262 C 
HETATM    2  C20 UNL     1      -2.697   5.355  -0.772  1.00  0.00     0.079 C 
HETATM    3  N3  UNL     1      -2.508   6.494  -0.693  1.00  0.00    -0.196 NA
ENDROOT
BRANCH   1   4
HETATM    4  N2  UNL     1      -1.711   3.187  -0.724  1.00  0.00    -0.214 N 
ATOM      5  H2  UNL     1      -0.833   3.704  -0.678  1.00  0.00     0.178 HD
BRANCH   4   6
HETATM    6  C18 UNL     1      -1.671   1.899  -0.644  1.00  0.00     0.681 A 
HETATM    7  N1  UNL     1      -0.500   1.253  -0.504  1.00  0.00    -0.171 N 
HETATM    8  C7  UNL     1      -0.421  -0.099  -0.417  1.00  0.00     0.159 A 
ATOM      9  H1  UNL     1       0.360   1.799  -0.462  1.00  0.00     0.186 HD
HETATM   10  C6  UNL     1      -1.616  -0.782  -0.482  1.00  0.00     0.082 A 
HETATM   11  C5  UNL     1      -2.834  -0.159  -0.625  1.00  0.00     0.031 A 
HETATM   12  N4  UNL     1      -2.815   1.194  -0.703  1.00  0.00    -0.195 N 
ATOM     13  H4  UNL     1      -3.697   1.694  -0.810  1.00  0.00     0.184 HD
BRANCH   8  14
HETATM   14  O1  UNL     1       0.811  -0.735  -0.272  1.00  0.00    -0.329 OA
BRANCH  14  15
HETATM   15  C8  UNL     1       1.976   0.016  -0.214  1.00  0.00     0.138 C 
HETATM   16  C9  UNL     1       2.596  -0.134   1.178  1.00  0.00     0.016 C 
HETATM   17  C10 UNL     1       3.629   0.959   1.295  1.00  0.00     0.012 C 
HETATM   18  C14 UNL     1       3.177  -1.506   1.310  1.00  0.00     0.012 C 
HETATM   19  C11 UNL     1       4.660   0.734   0.216  1.00  0.00    -0.013 C 
HETATM   20  C12 UNL     1       5.323  -0.589   0.487  1.00  0.00     0.009 C 
HETATM   21  C17 UNL     1       4.077   0.781  -1.164  1.00  0.00     0.012 C 
HETATM   22  C13 UNL     1       4.325  -1.688   0.317  1.00  0.00    -0.013 C 
HETATM   23  C15 UNL     1       3.679  -1.618  -1.068  1.00  0.00     0.012 C 
HETATM   24  C16 UNL     1       2.989  -0.296  -1.259  1.00  0.00     0.016 C 
ENDBRANCH  14  15
ENDBRANCH   8  14
BRANCH  11  25
HETATM   25  C4  UNL     1      -4.126  -0.892  -0.696  1.00  0.00     0.061 C 
BRANCH  25  26
HETATM   26  C2  UNL     1      -4.736  -1.086   0.678  1.00  0.00    -0.017 C 
HETATM   27  C1  UNL     1      -6.043  -1.843   0.466  1.00  0.00     0.010 C 
HETATM   28  C3  UNL     1      -3.820  -1.961   1.489  1.00  0.00     0.010 C 
ENDBRANCH  25  26
ENDBRANCH  11  25
ENDBRANCH   4   6
ENDBRANCH   1   4
TORSDOF 6
