REMARK  7 active torsions:
REMARK  status: ('A' for Active; 'I' for Inactive)
REMARK    1  A    between atoms: O1_2  and  C2_3 
REMARK    2  A    between atoms: C2_3  and  C3_4 
REMARK    3  A    between atoms: C3_4  and  O2_5 
REMARK    4  A    between atoms: O2_5  and  C4_6 
REMARK    5  A    between atoms: C9_11  and  O3_12 
REMARK    6  A    between atoms: N1_22  and  C18_23 
REMARK    7  A    between atoms: C18_23  and  C19_24 
ROOT
HETATM    1  C4  UNL     1       1.988   2.023   1.054  1.00  0.00     0.102 A 
HETATM    2  C5  UNL     1       1.186   1.217   0.210  1.00  0.00     0.048 A 
HETATM    3  C6  UNL     1       0.079   0.533   0.677  1.00  0.00    -0.040 A 
HETATM    4  C7  UNL     1      -0.213   0.674   2.013  1.00  0.00    -0.048 A 
HETATM    5  C8  UNL     1       0.546   1.448   2.862  1.00  0.00     0.047 A 
HETATM    6  C9  UNL     1       1.636   2.128   2.428  1.00  0.00     0.099 A 
HETATM    7  C10 UNL     1      -1.471  -0.123   2.312  1.00  0.00     0.045 C 
HETATM    8  C11 UNL     1      -2.113  -0.001   1.017  1.00  0.00     0.005 C 
HETATM    9  C12 UNL     1      -3.052  -1.014   0.491  1.00  0.00     0.041 C 
HETATM   10  C13 UNL     1      -2.810  -0.883  -0.999  1.00  0.00     0.224 C 
HETATM   11  C14 UNL     1      -1.576   0.027  -1.165  1.00  0.00     0.050 C 
HETATM   12  C15 UNL     1      -0.913  -0.347   0.112  1.00  0.00    -0.005 C 
HETATM   13  C16 UNL     1      -0.550  -1.764   0.135  1.00  0.00     0.045 C 
HETATM   14  C17 UNL     1      -1.323  -2.715  -0.732  1.00  0.00     0.274 C 
HETATM   15  N1  UNL     1      -2.407  -2.208  -1.480  1.00  0.00     0.093 N 
ENDROOT
BRANCH   1  16
HETATM   16  O2  UNL     1       3.003   2.648   0.624  1.00  0.00    -0.346 OA
BRANCH  16  17
HETATM   17  C3  UNL     1       4.018   3.240   0.071  1.00  0.00     0.201 C 
BRANCH  17  18
HETATM   18  C2  UNL     1       4.873   4.139   0.984  1.00  0.00     0.193 C 
BRANCH  18  19
HETATM   19  O1  UNL     1       5.893   4.659   0.166  1.00  0.00    -0.394 OA
HETATM   20  C1  UNL     1       6.709   5.492   0.927  1.00  0.00     0.201 C 
ENDBRANCH  18  19
ENDBRANCH  17  18
ENDBRANCH  16  17
ENDBRANCH   1  16
BRANCH   6  21
HETATM   21  O3  UNL     1       2.443   2.923   3.218  1.00  0.00    -0.358 OA
ATOM     22  H3  UNL     1       2.208   2.993   4.136  1.00  0.00     0.217 HD
ENDBRANCH   6  21
BRANCH  15  23
HETATM   23  C18 UNL     1      -3.577  -3.019  -1.350  1.00  0.00     0.277 C 
BRANCH  23  24
HETATM   24  C19 UNL     1      -3.625  -4.370  -1.916  1.00  0.00     0.014 A 
HETATM   25  C20 UNL     1      -3.439  -4.445  -3.412  1.00  0.00     0.007 A 
HETATM   26  C21 UNL     1      -2.585  -5.221  -2.457  1.00  0.00     0.007 A 
ENDBRANCH  23  24
ENDBRANCH  15  23
TORSDOF 7
