REMARK  6 active torsions:
REMARK  status: ('A' for Active; 'I' for Inactive)
REMARK    1  A    between atoms: O1_2  and  C2_3 
REMARK    2  A    between atoms: C2_3  and  C3_5 
REMARK    3  A    between atoms: C6_8  and  C7_9 
REMARK    4  A    between atoms: C7_9  and  C8_10 
REMARK    5  A    between atoms: C8_10  and  N1_11 
REMARK       I    between atoms: N1_11  and  C9_13 
REMARK    6  A    between atoms: C9_13  and  C10_15 
ROOT
HETATM    1  C3  UNL     1      -3.239  -0.315   0.142  1.00  0.00     0.081 C 
HETATM    2  C4  UNL     1      -2.966  -0.245   1.623  1.00  0.00     0.026 C 
HETATM    3  C5  UNL     1      -1.919   0.882   1.662  1.00  0.00     0.039 C 
HETATM    4  C6  UNL     1      -1.506   1.107   0.244  1.00  0.00     0.065 C 
HETATM    5  C16 UNL     1      -1.777  -0.286  -0.355  1.00  0.00     0.061 C 
HETATM    6  O4  UNL     1      -2.522   1.835  -0.379  1.00  0.00    -0.369 OA
HETATM    7  C17 UNL     1      -3.665   1.023  -0.376  1.00  0.00     0.071 C 
HETATM    8  C18 UNL     1      -4.717   1.697   0.428  1.00  0.00     0.047 C 
HETATM    9  C19 UNL     1      -4.132   0.932  -1.810  1.00  0.00     0.047 C 
ENDROOT
BRANCH   4  10
HETATM   10  C7  UNL     1      -0.155   1.594  -0.009  1.00  0.00     0.057 C 
BRANCH  10  11
HETATM   11  C8  UNL     1       0.874   0.645   0.511  1.00  0.00     0.125 C 
BRANCH  11  12
HETATM   12  N1  UNL     1       2.237   1.127   0.257  1.00  0.00    -0.361 N 
HETATM   13  C9  UNL     1       3.296   0.295   0.714  1.00  0.00     0.221 C 
HETATM   14  O3  UNL     1       3.102  -0.796   1.305  1.00  0.00    -0.273 OA
ATOM     15  H1  UNL     1       2.415   2.010  -0.221  1.00  0.00     0.162 HD
BRANCH  13  16
HETATM   16  C10 UNL     1       4.684   0.762   0.469  1.00  0.00     0.078 C 
HETATM   17  C11 UNL     1       5.711  -0.194   0.991  1.00  0.00     0.014 C 
HETATM   18  C12 UNL     1       5.764  -1.500   0.269  1.00  0.00     0.001 C 
HETATM   19  C13 UNL     1       5.663  -1.391  -1.218  1.00  0.00     0.000 C 
HETATM   20  C14 UNL     1       4.576  -0.427  -1.655  1.00  0.00     0.001 C 
HETATM   21  C15 UNL     1       4.814   0.935  -1.046  1.00  0.00     0.014 C 
ENDBRANCH  13  16
ENDBRANCH  11  12
ENDBRANCH  10  11
ENDBRANCH   4  10
BRANCH   1  22
HETATM   22  C2  UNL     1      -3.951  -1.465  -0.329  1.00  0.00     0.270 C 
HETATM   23  O2  UNL     1      -3.386  -2.225  -1.190  1.00  0.00    -0.264 OA
BRANCH  22  24
HETATM   24  O1  UNL     1      -5.204  -1.828   0.070  1.00  0.00    -0.326 OA
HETATM   25  C1  UNL     1      -5.846  -2.983  -0.442  1.00  0.00     0.213 C 
ENDBRANCH  22  24
ENDBRANCH   1  22
TORSDOF 6
