REMARK  2 active torsions:
REMARK  status: ('A' for Active; 'I' for Inactive)
REMARK    1  A    between atoms: C11_14  and  O4_15 
REMARK    2  A    between atoms: C20_26  and  C21_27 
ROOT
HETATM    1  C1  UNL     1       3.143   1.165   1.231  1.00  0.00     0.018 C 
HETATM    2  C2  UNL     1       2.257   0.990  -0.007  1.00  0.00     0.077 C 
HETATM    3  C3  UNL     1       3.058   0.149  -1.067  1.00  0.00     0.169 C 
HETATM    4  O1  UNL     1       2.301   0.309  -2.214  1.00  0.00    -0.330 OA
HETATM    5  C4  UNL     1       0.928   0.045  -2.049  1.00  0.00     0.417 C 
HETATM    6  O2  UNL     1       1.008  -0.818  -0.977  1.00  0.00    -0.301 OA
HETATM    7  C5  UNL     1       1.241  -0.034   0.180  1.00  0.00     0.180 C 
HETATM    8  O3  UNL     1       2.125  -1.012   0.753  1.00  0.00    -0.341 OA
HETATM    9  C6  UNL     1       3.037  -1.132  -0.338  1.00  0.00     0.084 C 
HETATM   10  C7  UNL     1       4.422  -1.291   0.326  1.00  0.00     0.048 C 
HETATM   11  C8  UNL     1       2.865  -2.382  -1.137  1.00  0.00     0.048 C 
HETATM   12  C9  UNL     1      -0.022   0.086   0.849  1.00  0.00     0.060 C 
HETATM   13  C10 UNL     1      -0.632  -1.345   0.674  1.00  0.00     0.050 C 
HETATM   14  C11 UNL     1      -1.307  -1.632  -0.625  1.00  0.00     0.076 C 
HETATM   15  C12 UNL     1      -2.550  -2.502  -0.273  1.00  0.00     0.017 C 
HETATM   16  C13 UNL     1      -2.192  -3.677   0.544  1.00  0.00     0.013 C 
HETATM   17  C14 UNL     1      -3.431  -1.531   0.300  1.00  0.00     0.008 C 
HETATM   18  C15 UNL     1      -3.121  -0.358  -0.153  1.00  0.00     0.020 C 
HETATM   19  C16 UNL     1      -1.897  -0.433  -1.155  1.00  0.00     0.044 A 
HETATM   20  C17 UNL     1      -2.505   0.082  -2.255  1.00  0.00    -0.012 A 
HETATM   21  C18 UNL     1      -1.870   1.182  -2.172  1.00  0.00     0.009 A 
HETATM   22  C19 UNL     1      -1.126   0.799  -1.051  1.00  0.00     0.102 A 
HETATM   23  O5  UNL     1       0.175   1.000  -1.569  1.00  0.00    -0.322 OA
HETATM   24  C20 UNL     1      -1.071   1.067   0.382  1.00  0.00     0.042 C 
ENDROOT
BRANCH  24  25
HETATM   25  C21 UNL     1      -1.174   2.421   0.925  1.00  0.00    -0.044 C 
HETATM   26  C22 UNL     1      -2.316   3.237   0.273  1.00  0.00     0.015 C 
HETATM   27  C23 UNL     1      -1.618   2.465   2.396  1.00  0.00     0.015 C 
HETATM   28  C24 UNL     1      -0.035   3.385   0.757  1.00  0.00     0.015 C 
ENDBRANCH  24  25
BRANCH  14  29
HETATM   29  O4  UNL     1      -0.739  -2.586  -1.462  1.00  0.00    -0.388 OA
ATOM     30  H4  UNL     1      -1.169  -2.769  -2.289  1.00  0.00     0.210 HD
ENDBRANCH  14  29
TORSDOF 2
