REMARK  11 active torsions:
REMARK  status: ('A' for Active; 'I' for Inactive)
REMARK    1  A    between atoms: C1_2  and  C2_4 
REMARK    2  A    between atoms: C2_4  and  C3_5 
REMARK    3  A    between atoms: C3_5  and  C4_6 
REMARK    4  A    between atoms: N1_12  and  C10_13 
REMARK    5  A    between atoms: C10_13  and  C11_14 
REMARK    6  A    between atoms: N2_19  and  C16_20 
REMARK    7  A    between atoms: C16_20  and  C17_21 
REMARK       I    between atoms: C17_21  and  N3_23 
REMARK    8  A    between atoms: N3_23  and  C18_25 
REMARK    9  A    between atoms: C18_25  and  O4_26 
REMARK   10  A    between atoms: C18_25  and  N4_28 
REMARK   11  A    between atoms: N4_28  and  C19_30 
ROOT
HETATM    1  C3  UNL     1      -1.965   0.988   0.005  1.00  0.00    -0.007 C 
HETATM    2  C14 UNL     1      -1.153   0.386   1.072  1.00  0.00     0.031 C 
HETATM    3  C15 UNL     1       0.338   0.370   0.715  1.00  0.00     0.118 C 
HETATM    4  N2  UNL     1       0.604  -0.344  -0.470  1.00  0.00    -0.404 N 
HETATM    5  C24 UNL     1      -0.485  -0.575  -1.345  1.00  0.00     0.118 C 
HETATM    6  C25 UNL     1      -1.551   0.459  -1.382  1.00  0.00     0.031 C 
ENDROOT
BRANCH   4   7
HETATM    7  C16 UNL     1       1.451  -1.480  -0.397  1.00  0.00     0.220 C 
BRANCH   7   8
HETATM    8  C17 UNL     1       2.905  -1.217  -0.222  1.00  0.00     0.242 C 
HETATM    9  O3  UNL     1       3.644  -2.252  -0.100  1.00  0.00    -0.271 OA
HETATM   10  N3  UNL     1       3.440   0.077  -0.198  1.00  0.00    -0.292 N 
ATOM     11  H3  UNL     1       2.771   0.842  -0.287  1.00  0.00     0.172 HD
BRANCH  10  12
HETATM   12  C18 UNL     1       4.770   0.442  -0.068  1.00  0.00     0.219 C 
BRANCH  12  13
HETATM   13  O4  UNL     1       5.042   1.714  -0.091  1.00  0.00    -0.332 OA
ATOM     14  H4  UNL     1       5.954   1.964  -0.002  1.00  0.00     0.220 HD
ENDBRANCH  12  13
BRANCH  12  15
HETATM   15  N4  UNL     1       5.854  -0.439   0.083  1.00  0.00    -0.351 N 
ATOM     16  H4  UNL     1       5.681  -1.444   0.116  1.00  0.00     0.163 HD
BRANCH  15  17
HETATM   17  C19 UNL     1       7.232   0.059   0.195  1.00  0.00     0.089 C 
HETATM   18  C20 UNL     1       7.862  -0.451   1.448  1.00  0.00     0.051 C 
HETATM   19  C21 UNL     1       9.329  -0.707   1.172  1.00  0.00     0.169 C 
HETATM   20  O5  UNL     1       9.532  -1.769   0.313  1.00  0.00    -0.391 OA
HETATM   21  C22 UNL     1       8.650  -1.765  -0.760  1.00  0.00     0.169 C 
HETATM   22  C23 UNL     1       8.040  -0.414  -0.990  1.00  0.00     0.051 C 
ENDBRANCH  15  17
ENDBRANCH  12  15
ENDBRANCH  10  12
ENDBRANCH   7   8
ENDBRANCH   4   7
BRANCH   1  23
HETATM   23  C2  UNL     1      -1.606   2.458  -0.019  1.00  0.00     0.124 C 
BRANCH  23  24
HETATM   24  C1  UNL     1      -2.009   3.274   1.115  1.00  0.00     0.173 C 
HETATM   25  O1  UNL     1      -1.795   4.534   0.988  1.00  0.00    -0.648 OA
HETATM   26  O2  UNL     1      -2.580   2.945   2.306  1.00  0.00    -0.648 OA
ENDBRANCH  23  24
ENDBRANCH   1  23
BRANCH   1  27
HETATM   27  C4  UNL     1      -3.430   0.877   0.056  1.00  0.00     0.092 C 
HETATM   28  C5  UNL     1      -3.974   1.513  -1.250  1.00  0.00     0.026 C 
HETATM   29  C6  UNL     1      -4.986   2.558  -1.019  1.00  0.00     0.002 C 
HETATM   30  C7  UNL     1      -5.717   2.519   0.266  1.00  0.00     0.002 C 
HETATM   31  C8  UNL     1      -5.954   1.205   0.892  1.00  0.00     0.020 C 
HETATM   32  C9  UNL     1      -5.569  -0.010   0.133  1.00  0.00     0.122 C 
HETATM   33  N1  UNL     1      -4.154  -0.285   0.186  1.00  0.00    -0.388 N 
BRANCH  33  34
HETATM   34  C10 UNL     1      -3.761  -1.493   0.697  1.00  0.00     0.063 C 
BRANCH  34  35
HETATM   35  C11 UNL     1      -4.808  -2.587   0.616  1.00  0.00     0.024 A 
HETATM   36  C12 UNL     1      -5.320  -2.998  -0.714  1.00  0.00     0.010 A 
HETATM   37  C13 UNL     1      -4.397  -3.922  -0.033  1.00  0.00     0.010 A 
ENDBRANCH  34  35
ENDBRANCH  33  34
ENDBRANCH   1  27
TORSDOF 11
