REMARK  10 active torsions:
REMARK  status: ('A' for Active; 'I' for Inactive)
REMARK    1  A    between atoms: C2_2  and  N1_4 
REMARK       I    between atoms: N1_4  and  C4_6 
REMARK    2  A    between atoms: C4_6  and  C5_8 
REMARK    3  A    between atoms: C9_12  and  C10_13 
REMARK    4  A    between atoms: C10_13  and  O2_14 
REMARK    5  A    between atoms: N2_16  and  C11_18 
REMARK    6  A    between atoms: C11_18  and  C12_19 
REMARK    7  A    between atoms: C11_18  and  C16_29 
REMARK       I    between atoms: C12_19  and  N3_21 
REMARK    8  A    between atoms: N3_21  and  S1_23 
REMARK    9  A    between atoms: S1_23  and  C13_26 
REMARK   10  A    between atoms: C20_33  and  C21_34 
ROOT
HETATM    1  C10 UNL     1       0.544   0.284   0.990  1.00  0.00     0.125 C 
HETATM    2  N2  UNL     1       1.046   0.901  -0.070  1.00  0.00    -0.338 N 
ATOM      3  H2  UNL     1       0.493   0.876  -0.927  1.00  0.00     0.167 HD
ENDROOT
BRANCH   1   4
HETATM    4  C9  UNL     1      -0.624  -0.513   1.356  1.00  0.00     0.037 A 
HETATM    5  C7  UNL     1      -1.028  -0.593   2.772  1.00  0.00     0.008 A 
HETATM    6  C6  UNL     1      -2.513  -0.503   2.872  1.00  0.00     0.046 C 
HETATM    7  C8  UNL     1      -0.393  -1.774   2.133  1.00  0.00     0.025 A 
HETATM    8  C5  UNL     1      -2.874  -0.007   1.465  1.00  0.00    -0.006 C 
HETATM    9  C20 UNL     1      -1.907  -0.495   0.505  1.00  0.00     0.040 C 
BRANCH   8  10
HETATM   10  C4  UNL     1      -4.285   0.049   1.254  1.00  0.00     0.244 C 
HETATM   11  N1  UNL     1      -4.969   0.342   0.086  1.00  0.00    -0.353 N 
ATOM     12  H1  UNL     1      -4.421   0.538  -0.752  1.00  0.00     0.163 HD
HETATM   13  O1  UNL     1      -5.036  -0.200   2.283  1.00  0.00    -0.268 OA
BRANCH  11  14
HETATM   14  C2  UNL     1      -6.445   0.389  -0.024  1.00  0.00     0.076 C 
HETATM   15  C1  UNL     1      -6.911   1.068  -1.278  1.00  0.00     0.032 C 
HETATM   16  C3  UNL     1      -6.936  -1.057  -0.067  1.00  0.00     0.032 C 
ENDBRANCH  11  14
ENDBRANCH   8  10
BRANCH   9  17
HETATM   17  C21 UNL     1      -1.998  -1.703  -0.295  1.00  0.00    -0.013 C 
HETATM   18  C22 UNL     1      -0.764  -1.859  -1.208  1.00  0.00     0.010 C 
HETATM   19  C23 UNL     1      -3.173  -2.096  -1.079  1.00  0.00     0.010 C 
ENDBRANCH   9  17
ENDBRANCH   1   4
BRANCH   1  20
HETATM   20  O2  UNL     1       1.341   0.397   2.102  1.00  0.00    -0.349 OA
ATOM     21  H2  UNL     1       2.101   0.915   1.864  1.00  0.00     0.219 HD
ENDBRANCH   1  20
BRANCH   2  22
HETATM   22  C11 UNL     1       2.305   1.605  -0.121  1.00  0.00     0.088 C 
BRANCH  22  23
HETATM   23  C12 UNL     1       3.383   0.574   0.122  1.00  0.00     0.278 C 
HETATM   24  O3  UNL     1       3.982   0.469   1.213  1.00  0.00    -0.265 OA
HETATM   25  N3  UNL     1       3.730  -0.347  -0.890  1.00  0.00    -0.249 N 
ATOM     26  H3  UNL     1       3.258  -0.251  -1.789  1.00  0.00     0.182 HD
BRANCH  25  27
HETATM   27  S1  UNL     1       4.870  -1.606  -0.740  1.00  0.00     0.237 S 
HETATM   28  O4  UNL     1       4.135  -2.952  -0.722  1.00  0.00    -0.205 OA
HETATM   29  O5  UNL     1       5.785  -1.625  -1.922  1.00  0.00    -0.205 OA
BRANCH  27  30
HETATM   30  C13 UNL     1       5.753  -1.531   0.778  1.00  0.00     0.130 A 
HETATM   31  C14 UNL     1       7.120  -0.909   0.861  1.00  0.00     0.023 A 
HETATM   32  C15 UNL     1       6.976  -2.419   0.854  1.00  0.00     0.023 A 
ENDBRANCH  27  30
ENDBRANCH  25  27
ENDBRANCH  22  23
BRANCH  22  33
HETATM   33  C16 UNL     1       2.636   2.584  -1.095  1.00  0.00    -0.003 C 
HETATM   34  C17 UNL     1       2.695   2.243  -2.565  1.00  0.00     0.021 C 
HETATM   35  C18 UNL     1       1.700   3.832  -0.982  1.00  0.00     0.021 C 
HETATM   36  C19 UNL     1       4.037   3.144  -0.730  1.00  0.00     0.021 C 
ENDBRANCH  22  33
ENDBRANCH   2  22
TORSDOF 10
