REMARK  6 active torsions:
REMARK  status: ('A' for Active; 'I' for Inactive)
REMARK    1  A    between atoms: C2_2  and  O1_3 
REMARK    2  A    between atoms: O1_3  and  C3_4 
REMARK    3  A    between atoms: C9_10  and  C10_11 
REMARK    4  A    between atoms: N1_14  and  S1_15 
REMARK    5  A    between atoms: S1_15  and  C13_18 
REMARK    6  A    between atoms: C13_18  and  C14_19 
ROOT
HETATM    1  S1  UNL     1       1.587  -0.868   0.288  1.00  0.00     0.214 S 
HETATM    2  O2  UNL     1       1.213  -0.793   1.708  1.00  0.00    -0.211 OA
HETATM    3  O3  UNL     1       2.158  -2.199  -0.107  1.00  0.00    -0.211 OA
ENDROOT
BRANCH   1   4
HETATM    4  N1  UNL     1       0.096  -0.720  -0.624  1.00  0.00    -0.211 NA
HETATM    5  C12 UNL     1      -0.539   0.522  -0.316  1.00  0.00     0.107 C 
HETATM    6  C11 UNL     1      -2.023   0.366  -0.677  1.00  0.00     0.020 C 
HETATM    7  C10 UNL     1      -2.629  -0.473   0.419  1.00  0.00    -0.006 C 
HETATM    8  C24 UNL     1      -1.769  -1.682   0.623  1.00  0.00     0.020 C 
HETATM    9  C23 UNL     1      -0.734  -1.870  -0.475  1.00  0.00     0.107 C 
BRANCH   7  10
HETATM   10  C9  UNL     1      -4.078  -0.815   0.172  1.00  0.00     0.019 C 
HETATM   11  C3  UNL     1      -4.871   0.445   0.088  1.00  0.00     0.125 C 
HETATM   12  C4  UNL     1      -6.291   0.197  -0.415  1.00  0.00     0.032 C 
HETATM   13  C5  UNL     1      -6.358  -0.133  -1.869  1.00  0.00     0.002 C 
HETATM   14  C6  UNL     1      -6.520  -1.624  -2.071  1.00  0.00     0.000 C 
HETATM   15  C7  UNL     1      -5.625  -2.320  -1.043  1.00  0.00     0.000 C 
HETATM   16  C8  UNL     1      -4.253  -1.681  -1.052  1.00  0.00     0.007 C 
BRANCH  11  17
HETATM   17  O1  UNL     1      -5.052   0.991   1.378  1.00  0.00    -0.386 OA
BRANCH  17  18
HETATM   18  C2  UNL     1      -4.651   2.308   1.434  1.00  0.00     0.163 C 
HETATM   19  C1  UNL     1      -4.827   2.931   2.779  1.00  0.00     0.033 C 
ENDBRANCH  17  18
ENDBRANCH  11  17
ENDBRANCH   7  10
ENDBRANCH   1   4
BRANCH   1  20
HETATM   20  C13 UNL     1       2.602   0.480  -0.246  1.00  0.00     0.199 C 
BRANCH  20  21
HETATM   21  C14 UNL     1       3.948   0.552   0.409  1.00  0.00     0.175 C 
HETATM   22  C15 UNL     1       3.673   0.754   1.882  1.00  0.00     0.050 C 
HETATM   23  C16 UNL     1       4.734  -0.750   0.274  1.00  0.00     0.077 C 
HETATM   24  C17 UNL     1       6.173  -0.388   0.092  1.00  0.00     0.085 C 
HETATM   25  C18 UNL     1       6.719  -0.584  -1.295  1.00  0.00     0.037 C 
HETATM   26  C21 UNL     1       6.191   1.109   0.306  1.00  0.00     0.355 C 
HETATM   27  N4  UNL     1       7.034  -0.866   1.139  1.00  0.00    -0.330 N 
HETATM   28  C19 UNL     1       6.276   0.636  -2.098  1.00  0.00     0.033 C 
HETATM   29  C20 UNL     1       4.923   1.105  -1.619  1.00  0.00     0.276 C 
HETATM   30  N2  UNL     1       4.888   1.441  -0.184  1.00  0.00     0.124 N 
HETATM   31  N3  UNL     1       6.540   1.294   1.637  1.00  0.00    -0.311 N 
HETATM   32  C22 UNL     1       6.962   0.079   2.214  1.00  0.00     0.318 C 
ATOM     33  H3  UNL     1       6.497   2.186   2.130  1.00  0.00     0.166 HD
HETATM   34  O4  UNL     1       7.233  -0.161   3.442  1.00  0.00    -0.247 OA
ATOM     35  H4  UNL     1       7.593  -1.719   1.120  1.00  0.00     0.165 HD
ENDBRANCH  20  21
ENDBRANCH   1  20
TORSDOF 6
