REMARK  14 active torsions:
REMARK  status: ('A' for Active; 'I' for Inactive)
REMARK    1  A    between atoms: N1_1  and  C1_5 
REMARK    2  A    between atoms: C1_5  and  C2_6 
REMARK    3  A    between atoms: C2_6  and  N2_7 
REMARK    4  A    between atoms: N2_7  and  C3_9 
REMARK    5  A    between atoms: C3_9  and  C4_10 
REMARK    6  A    between atoms: N3_11  and  C5_13 
REMARK    7  A    between atoms: C8_19  and  N5_20 
REMARK       I    between atoms: N5_20  and  C9_22 
REMARK    8  A    between atoms: C9_22  and  C10_24 
REMARK    9  A    between atoms: C10_24  and  O3_25 
REMARK   10  A    between atoms: C10_24  and  C11_27 
REMARK   11  A    between atoms: C11_27  and  N6_28 
REMARK   12  A    between atoms: N6_28  and  C12_31 
REMARK   13  A    between atoms: C12_31  and  C13_32 
REMARK   14  A    between atoms: C13_32  and  N7_33 
ROOT
HETATM    1  C5  UNL     1      -1.439  -0.768  -0.640  1.00  0.00     0.151 C 
HETATM    2  C6  UNL     1      -2.155  -1.945  -0.150  1.00  0.00     0.091 C 
HETATM    3  N4  UNL     1      -1.445  -2.552   0.780  1.00  0.00    -0.337 N 
ATOM      4  H4  UNL     1      -1.717  -3.394   1.287  1.00  0.00     0.168 HD
HETATM    5  C7  UNL     1      -0.224  -1.822   0.954  1.00  0.00     0.246 C 
HETATM    6  O1  UNL     1       0.433  -1.701   1.988  1.00  0.00    -0.271 OA
HETATM    7  C8  UNL     1       0.031  -1.269  -0.393  1.00  0.00     0.204 C 
ENDROOT
BRANCH   7   8
HETATM    8  N5  UNL     1       0.978  -0.231  -0.488  1.00  0.00    -0.343 N 
HETATM    9  C9  UNL     1       1.877  -0.190  -1.584  1.00  0.00     0.248 C 
HETATM   10  O2  UNL     1       1.826  -1.096  -2.488  1.00  0.00    -0.271 OA
ATOM     11  H5  UNL     1       1.017   0.491   0.231  1.00  0.00     0.163 HD
BRANCH   9  12
HETATM   12  C10 UNL     1       2.878   0.868  -1.728  1.00  0.00     0.235 C 
BRANCH  12  13
HETATM   13  O3  UNL     1       3.557   0.742  -2.965  1.00  0.00    -0.384 OA
ATOM     14  H3  UNL     1       4.207   1.429  -3.058  1.00  0.00     0.210 HD
ENDBRANCH  12  13
BRANCH  12  15
HETATM   15  C11 UNL     1       3.928   0.808  -0.623  1.00  0.00     0.273 C 
BRANCH  15  16
HETATM   16  N6  UNL     1       4.610  -0.478  -0.733  1.00  0.00    -0.071 N 
ATOM     17  H62 UNL     1       3.950  -1.254  -0.689  1.00  0.00     0.277 HD
ATOM     18  H61 UNL     1       4.970  -0.629  -1.675  1.00  0.00     0.277 HD
BRANCH  16  19
HETATM   19  C12 UNL     1       5.640  -0.613   0.247  1.00  0.00     0.259 C 
BRANCH  19  20
HETATM   20  C13 UNL     1       6.798   0.328  -0.004  1.00  0.00     0.257 C 
BRANCH  20  21
HETATM   21  N7  UNL     1       7.778   0.097   1.045  1.00  0.00    -0.078 N 
ATOM     22  H73 UNL     1       7.387   0.187   1.983  1.00  0.00     0.274 HD
ATOM     23  H72 UNL     1       8.065  -0.879   1.115  1.00  0.00     0.274 HD
ATOM     24  H71 UNL     1       8.559   0.731   0.876  1.00  0.00     0.274 HD
ENDBRANCH  20  21
ENDBRANCH  19  20
ENDBRANCH  16  19
ENDBRANCH  15  16
ENDBRANCH  12  15
ENDBRANCH   9  12
ENDBRANCH   7   8
BRANCH   1  25
HETATM   25  N3  UNL     1      -1.625   0.390   0.066  1.00  0.00    -0.386 N 
HETATM   26  C4  UNL     1      -2.713   1.193   0.254  1.00  0.00     0.100 C 
ATOM     27  H3  UNL     1      -0.786   0.717   0.546  1.00  0.00     0.159 HD
BRANCH  26  28
HETATM   28  C3  UNL     1      -3.910   0.886   1.044  1.00  0.00     0.099 C 
BRANCH  28  29
HETATM   29  N2  UNL     1      -4.667  -0.200   0.585  1.00  0.00    -0.396 N 
ATOM     30  H2  UNL     1      -4.392  -0.734  -0.239  1.00  0.00     0.158 HD
BRANCH  29  31
HETATM   31  C2  UNL     1      -5.837  -0.521   1.324  1.00  0.00     0.146 C 
BRANCH  31  32
HETATM   32  C1  UNL     1      -6.942   0.494   1.240  1.00  0.00     0.249 C 
BRANCH  32  33
HETATM   33  N1  UNL     1      -7.356   0.637  -0.154  1.00  0.00    -0.078 N 
ATOM     34  H13 UNL     1      -6.574   0.863  -0.769  1.00  0.00     0.274 HD
ATOM     35  H12 UNL     1      -7.616  -0.255  -0.574  1.00  0.00     0.274 HD
ATOM     36  H11 UNL     1      -8.106   1.326  -0.211  1.00  0.00     0.274 HD
ENDBRANCH  32  33
ENDBRANCH  31  32
ENDBRANCH  29  31
ENDBRANCH  28  29
ENDBRANCH  26  28
ENDBRANCH   1  25
TORSDOF 14
