REMARK  12 active torsions:
REMARK  status: ('A' for Active; 'I' for Inactive)
REMARK    1  A    between atoms: N2_3  and  N3_5 
REMARK    2  A    between atoms: C2_7  and  N4_8 
REMARK    3  A    between atoms: C2_7  and  C9_22 
REMARK    4  A    between atoms: N4_8  and  N5_10 
REMARK       I    between atoms: N5_10  and  C3_12 
REMARK    5  A    between atoms: C3_12  and  C4_14 
REMARK    6  A    between atoms: C4_14  and  N6_15 
REMARK    7  A    between atoms: N7_18  and  C7_19 
REMARK    8  A    between atoms: C9_22  and  O3_23 
REMARK    9  A    between atoms: C9_22  and  C10_25 
REMARK   10  A    between atoms: C10_25  and  C11_26 
REMARK   11  A    between atoms: C11_26  and  N8_27 
REMARK   12  A    between atoms: C11_26  and  N9_31 
ROOT
HETATM    1  N3  UNL     1      -1.786  -1.919   0.218  1.00  0.00    -0.285 N 
ATOM      2  H3  UNL     1      -1.047  -2.428   0.703  1.00  0.00     0.188 HD
HETATM    3  C2  UNL     1      -1.574  -0.687  -0.017  1.00  0.00     0.140 C 
ENDROOT
BRANCH   3   4
HETATM    4  N4  UNL     1      -0.355  -0.082   0.392  1.00  0.00    -0.283 N 
ATOM      5  H4  UNL     1      -0.352   0.795   0.912  1.00  0.00     0.188 HD
BRANCH   4   6
HETATM    6  N5  UNL     1       0.859  -0.736   0.054  1.00  0.00    -0.267 N 
HETATM    7  C3  UNL     1       2.118  -0.169   0.368  1.00  0.00     0.254 C 
HETATM    8  O1  UNL     1       2.110   0.947   0.961  1.00  0.00    -0.270 OA
ATOM      9  H5  UNL     1       0.823  -1.635  -0.426  1.00  0.00     0.190 HD
BRANCH   7  10
HETATM   10  C4  UNL     1       3.346  -0.881  -0.000  1.00  0.00     0.233 C 
BRANCH  10  11
HETATM   11  N6  UNL     1       4.546  -0.176   0.386  1.00  0.00    -0.342 N 
HETATM   12  C5  UNL     1       5.231  -0.269   1.539  1.00  0.00     0.110 A 
HETATM   13  C6  UNL     1       6.291   0.600   1.426  1.00  0.00     0.117 A 
HETATM   14  N7  UNL     1       6.242   1.209   0.215  1.00  0.00    -0.295 N 
HETATM   15  C8  UNL     1       5.155   0.716  -0.415  1.00  0.00     0.192 A 
BRANCH  14  16
HETATM   16  C7  UNL     1       7.150   2.171  -0.290  1.00  0.00     0.360 C 
HETATM   17  O2  UNL     1       8.130   2.562   0.378  1.00  0.00    -0.283 OA
ENDBRANCH  14  16
ENDBRANCH  10  11
ENDBRANCH   7  10
ENDBRANCH   4   6
ENDBRANCH   3   4
BRANCH   3  18
HETATM   18  C9  UNL     1      -2.593   0.131  -0.711  1.00  0.00     0.192 C 
BRANCH  18  19
HETATM   19  O3  UNL     1      -2.096   0.777  -1.843  1.00  0.00    -0.388 OA
ATOM     20  H3  UNL     1      -2.750   1.302  -2.289  1.00  0.00     0.210 HD
ENDBRANCH  18  19
BRANCH  18  21
HETATM   21  C10 UNL     1      -3.262   1.046   0.263  1.00  0.00     0.101 C 
BRANCH  21  22
HETATM   22  C11 UNL     1      -4.312   1.909  -0.405  1.00  0.00     0.380 C 
BRANCH  22  23
HETATM   23  N8  UNL     1      -3.775   2.752  -1.441  1.00  0.00    -0.050 N 
ATOM     24  H83 UNL     1      -3.009   3.323  -1.084  1.00  0.00     0.276 HD
ATOM     25  H82 UNL     1      -3.265   2.200  -2.131  1.00  0.00     0.276 HD
ATOM     26  H81 UNL     1      -4.482   3.333  -1.891  1.00  0.00     0.276 HD
ENDBRANCH  22  23
BRANCH  22  27
HETATM   27  N9  UNL     1      -5.373   1.045  -0.907  1.00  0.00    -0.050 N 
ATOM     28  H93 UNL     1      -5.021   0.311  -1.522  1.00  0.00     0.276 HD
ATOM     29  H92 UNL     1      -5.764   0.445  -0.181  1.00  0.00     0.276 HD
ATOM     30  H91 UNL     1      -6.080   1.626  -1.357  1.00  0.00     0.276 HD
ENDBRANCH  22  27
ENDBRANCH  21  22
ENDBRANCH  18  21
ENDBRANCH   3  18
BRANCH   1  31
HETATM   31  N2  UNL     1      -2.912  -2.631  -0.117  1.00  0.00    -0.297 N 
HETATM   32  C1  UNL     1      -3.110  -3.817   0.340  1.00  0.00     0.206 C 
HETATM   33  N1  UNL     1      -4.272  -4.580   0.009  1.00  0.00    -0.095 NA
ATOM     34  H2  UNL     1      -3.603  -2.212  -0.739  1.00  0.00     0.187 HD
ENDBRANCH   1  31
TORSDOF 12
