REMARK  10 active torsions:
REMARK  status: ('A' for Active; 'I' for Inactive)
REMARK       I    between atoms: C2_2  and  N1_4 
REMARK    1  A    between atoms: N1_4  and  N2_6 
REMARK       I    between atoms: N2_6  and  C3_8 
REMARK    2  A    between atoms: C3_8  and  C4_10 
REMARK    3  A    between atoms: C4_10  and  N3_11 
REMARK    4  A    between atoms: C4_10  and  C5_15 
REMARK       I    between atoms: C5_15  and  N4_17 
REMARK    5  A    between atoms: N4_17  and  C6_19 
REMARK    6  A    between atoms: C6_19  and  C8_21 
REMARK       I    between atoms: C8_21  and  N5_23 
REMARK    7  A    between atoms: N5_23  and  C9_25 
REMARK    8  A    between atoms: C9_25  and  C11_27 
REMARK    9  A    between atoms: C11_27  and  N6_28 
REMARK   10  A    between atoms: C11_27  and  N7_32 
ROOT
HETATM    1  C5  UNL     1       1.515  -0.260  -0.744  1.00  0.00     0.258 C 
HETATM    2  O3  UNL     1       1.404  -1.480  -0.991  1.00  0.00    -0.271 OA
HETATM    3  N4  UNL     1       0.468   0.460  -0.128  1.00  0.00    -0.346 N 
ATOM      4  H4  UNL     1       0.582   1.455   0.065  1.00  0.00     0.163 HD
ENDROOT
BRANCH   3   5
HETATM    5  C6  UNL     1      -0.763  -0.203   0.231  1.00  0.00     0.172 C 
HETATM    6  C7  UNL     1      -0.862  -0.217   1.756  1.00  0.00     0.042 C 
BRANCH   5   7
HETATM    7  C8  UNL     1      -1.946   0.460  -0.369  1.00  0.00     0.240 C 
HETATM    8  O4  UNL     1      -1.794   1.470  -1.088  1.00  0.00    -0.271 OA
HETATM    9  N5  UNL     1      -3.226  -0.052  -0.122  1.00  0.00    -0.351 N 
ATOM     10  H5  UNL     1      -3.307  -0.877   0.472  1.00  0.00     0.163 HD
BRANCH   9  11
HETATM   11  C9  UNL     1      -4.444   0.524  -0.662  1.00  0.00     0.138 C 
HETATM   12  C10 UNL     1      -5.285   1.015   0.486  1.00  0.00     0.036 C 
BRANCH  11  13
HETATM   13  C11 UNL     1      -5.175  -0.476  -1.528  1.00  0.00     0.400 C 
BRANCH  13  14
HETATM   14  N6  UNL     1      -5.527  -1.645  -0.749  1.00  0.00    -0.048 N 
ATOM     15  H63 UNL     1      -4.714  -2.058  -0.292  1.00  0.00     0.276 HD
ATOM     16  H62 UNL     1      -6.060  -1.401   0.086  1.00  0.00     0.276 HD
ATOM     17  H61 UNL     1      -6.020  -2.320  -1.333  1.00  0.00     0.276 HD
ENDBRANCH  13  14
BRANCH  13  18
HETATM   18  N7  UNL     1      -6.393   0.138  -1.991  1.00  0.00    -0.048 N 
ATOM     19  H73 UNL     1      -6.969   0.494  -1.228  1.00  0.00     0.276 HD
ATOM     20  H72 UNL     1      -6.231   1.026  -2.466  1.00  0.00     0.276 HD
ATOM     21  H71 UNL     1      -6.886  -0.537  -2.575  1.00  0.00     0.276 HD
ENDBRANCH  13  18
ENDBRANCH  11  13
ENDBRANCH   9  11
ENDBRANCH   5   7
ENDBRANCH   3   5
BRANCH   1  22
HETATM   22  C4  UNL     1       2.774   0.425  -1.110  1.00  0.00     0.367 C 
BRANCH  22  23
HETATM   23  C3  UNL     1       3.927  -0.217  -0.425  1.00  0.00     0.276 C 
HETATM   24  N2  UNL     1       4.764   0.546   0.417  1.00  0.00    -0.265 N 
ATOM     25  H2  UNL     1       4.570   1.538   0.551  1.00  0.00     0.190 HD
HETATM   26  O2  UNL     1       4.147  -1.422  -0.598  1.00  0.00    -0.269 OA
BRANCH  24  27
HETATM   27  N1  UNL     1       5.863  -0.039   1.076  1.00  0.00    -0.268 N 
HETATM   28  C2  UNL     1       6.933  -0.600   0.343  1.00  0.00     0.232 C 
HETATM   29  C1  UNL     1       8.068  -1.204   1.040  1.00  0.00     0.119 C 
HETATM   30  O1  UNL     1       6.899  -0.574  -0.905  1.00  0.00    -0.272 OA
ATOM     31  H1  UNL     1       5.887  -0.058   2.096  1.00  0.00     0.190 HD
ENDBRANCH  24  27
ENDBRANCH  22  23
BRANCH  22  32
HETATM   32  N3  UNL     1       2.726   1.846  -0.760  1.00  0.00    -0.058 N 
ATOM     33  H33 UNL     1       2.705   1.994   0.249  1.00  0.00     0.275 HD
ATOM     34  H32 UNL     1       3.606   2.322  -0.959  1.00  0.00     0.275 HD
ATOM     35  H31 UNL     1       1.935   2.286  -1.230  1.00  0.00     0.275 HD
ENDBRANCH  22  32
ENDBRANCH   1  22
TORSDOF 10
