REMARK  12 active torsions:
REMARK  status: ('A' for Active; 'I' for Inactive)
REMARK       I    between atoms: C1_4  and  N3_6 
REMARK    1  A    between atoms: N3_6  and  C2_8 
REMARK    2  A    between atoms: C2_8  and  C3_9 
REMARK    3  A    between atoms: C3_9  and  N4_10 
REMARK    4  A    between atoms: N4_10  and  C4_13 
REMARK    5  A    between atoms: C4_13  and  C5_14 
REMARK       I    between atoms: C5_14  and  N5_16 
REMARK    6  A    between atoms: N5_16  and  C6_18 
REMARK    7  A    between atoms: C6_18  and  C7_19 
REMARK    8  A    between atoms: N7_24  and  C9_25 
REMARK    9  A    between atoms: C9_25  and  C10_26 
REMARK       I    between atoms: C10_26  and  N8_28 
REMARK   10  A    between atoms: N8_28  and  C11_30 
REMARK   11  A    between atoms: C11_30  and  C12_31 
REMARK   12  A    between atoms: C12_31  and  N9_32 
ROOT
HETATM    1  C6  UNL     1       0.355   0.342  -1.241  1.00  0.00     0.171 C 
ENDROOT
BRANCH   1   2
HETATM    2  N5  UNL     1      -0.598   0.760  -0.236  1.00  0.00    -0.356 N 
HETATM    3  C5  UNL     1      -1.963   0.307  -0.272  1.00  0.00     0.243 C 
HETATM    4  O1  UNL     1      -2.290  -0.451  -1.200  1.00  0.00    -0.272 OA
ATOM      5  H5  UNL     1      -0.297   1.386   0.511  1.00  0.00     0.162 HD
BRANCH   3   6
HETATM    6  C4  UNL     1      -2.922   0.727   0.745  1.00  0.00     0.335 C 
BRANCH   6   7
HETATM    7  N4  UNL     1      -4.252   0.203   0.614  1.00  0.00    -0.062 N 
ATOM      8  H42 UNL     1      -4.642   0.413  -0.305  1.00  0.00     0.278 HD
ATOM      9  H41 UNL     1      -4.911   0.723   1.193  1.00  0.00     0.278 HD
BRANCH   7  10
HETATM   10  C3  UNL     1      -4.312  -1.179   0.889  1.00  0.00     0.277 C 
BRANCH  10  11
HETATM   11  C2  UNL     1      -5.627  -1.862   0.788  1.00  0.00     0.090 C 
BRANCH  11  12
HETATM   12  N3  UNL     1      -6.292  -1.866  -0.451  1.00  0.00    -0.343 N 
HETATM   13  C1  UNL     1      -6.878  -0.725  -1.034  1.00  0.00     0.185 C 
HETATM   14  N1  UNL     1      -7.713   0.059  -0.424  1.00  0.00    -0.374 N 
HETATM   15  N2  UNL     1      -6.549  -0.410  -2.381  1.00  0.00    -0.064 NA
ATOM     16  H12 UNL     1      -8.137   0.885  -0.846  1.00  0.00     0.158 HD
ATOM     17  H11 UNL     1      -7.949  -0.167   0.542  1.00  0.00     0.158 HD
ATOM     18  H3  UNL     1      -6.354  -2.749  -0.959  1.00  0.00     0.167 HD
ENDBRANCH  11  12
ENDBRANCH  10  11
ENDBRANCH   7  10
ENDBRANCH   6   7
ENDBRANCH   3   6
ENDBRANCH   1   2
BRANCH   1  19
HETATM   19  C7  UNL     1       1.698   0.975  -0.971  1.00  0.00     0.285 C 
HETATM   20  N6  UNL     1       1.569   2.446  -1.010  1.00  0.00    -0.045 N 
HETATM   21  C8  UNL     1       2.146   2.513   0.346  1.00  0.00     0.332 C 
ATOM     22  H62 UNL     1       1.985   2.979  -1.774  1.00  0.00     0.280 HD
ATOM     23  H61 UNL     1       0.667   2.879  -1.208  1.00  0.00     0.280 HD
HETATM   24  N7  UNL     1       1.964   1.112   0.417  1.00  0.00    -0.234 NA
BRANCH  24  25
HETATM   25  C9  UNL     1       2.867   0.276   1.084  1.00  0.00     0.137 C 
BRANCH  25  26
HETATM   26  C10 UNL     1       4.285   0.380   0.758  1.00  0.00     0.251 C 
HETATM   27  O2  UNL     1       4.774   1.161  -0.097  1.00  0.00    -0.268 OA
HETATM   28  N8  UNL     1       5.205  -0.456   1.448  1.00  0.00    -0.355 N 
ATOM     29  H8  UNL     1       4.837  -1.097   2.151  1.00  0.00     0.162 HD
BRANCH  28  30
HETATM   30  C11 UNL     1       6.620  -0.451   1.214  1.00  0.00     0.150 C 
BRANCH  30  31
HETATM   31  C12 UNL     1       7.000  -0.820  -0.188  1.00  0.00     0.249 C 
BRANCH  31  32
HETATM   32  N9  UNL     1       6.530  -2.156  -0.524  1.00  0.00    -0.078 N 
ATOM     33  H93 UNL     1       6.857  -2.849   0.149  1.00  0.00     0.274 HD
ATOM     34  H92 UNL     1       5.526  -2.251  -0.370  1.00  0.00     0.274 HD
ATOM     35  H91 UNL     1       6.789  -2.407  -1.478  1.00  0.00     0.274 HD
ENDBRANCH  31  32
ENDBRANCH  30  31
ENDBRANCH  28  30
ENDBRANCH  25  26
ENDBRANCH  24  25
ENDBRANCH   1  19
TORSDOF 12
