REMARK  7 active torsions:
REMARK  status: ('A' for Active; 'I' for Inactive)
REMARK    1  A    between atoms: C2_2  and  C4_4 
REMARK    2  A    between atoms: C4_4  and  C5_6 
REMARK    3  A    between atoms: C5_6  and  O2_7 
REMARK    4  A    between atoms: C5_6  and  C6_9 
REMARK    5  A    between atoms: C7_10  and  C8_11 
REMARK    6  A    between atoms: C9_12  and  C10_13 
REMARK    7  A    between atoms: C11_14  and  C12_15 
ROOT
HETATM    1  C6  UNL     1      -1.854  -1.106   0.601  1.00  0.00     0.012 C 
HETATM    2  C7  UNL     1      -0.590  -1.340   0.363  1.00  0.00    -0.001 C 
ENDROOT
BRANCH   2   3
HETATM    3  C8  UNL     1       0.291  -0.239  -0.010  1.00  0.00    -0.000 C 
HETATM    4  C9  UNL     1       1.570  -0.415  -0.261  1.00  0.00    -0.000 C 
BRANCH   4   5
HETATM    5  C10 UNL     1       2.256  -1.686  -0.202  1.00  0.00    -0.001 C 
HETATM    6  C11 UNL     1       3.545  -1.779  -0.469  1.00  0.00     0.006 C 
BRANCH   6   7
HETATM    7  C12 UNL     1       4.348  -0.575  -0.842  1.00  0.00     0.168 C 
HETATM    8  O3  UNL     1       5.681  -0.911  -1.167  1.00  0.00    -0.311 OA
HETATM    9  C13 UNL     1       5.922  -1.014   0.208  1.00  0.00     0.266 C 
HETATM   10  O4  UNL     1       6.625  -1.677   0.982  1.00  0.00    -0.265 OA
HETATM   11  C14 UNL     1       4.915   0.081   0.392  1.00  0.00     0.114 C 
HETATM   12  C15 UNL     1       5.521   1.441   0.177  1.00  0.00     0.023 C 
ENDBRANCH   6   7
ENDBRANCH   4   5
ENDBRANCH   2   3
BRANCH   1  13
HETATM   13  C5  UNL     1      -2.403   0.259   0.497  1.00  0.00     0.210 C 
BRANCH  13  14
HETATM   14  C4  UNL     1      -3.789   0.300   1.093  1.00  0.00     0.162 C 
HETATM   15  O1  UNL     1      -3.841   0.009   2.276  1.00  0.00    -0.294 OA
BRANCH  14  16
HETATM   16  C2  UNL     1      -4.993   0.661   0.321  1.00  0.00     0.050 C 
HETATM   17  C1  UNL     1      -5.150  -0.311  -0.829  1.00  0.00     0.017 C 
HETATM   18  C3  UNL     1      -5.084   2.088  -0.077  1.00  0.00     0.017 C 
ENDBRANCH  14  16
ENDBRANCH  13  14
BRANCH  13  19
HETATM   19  O2  UNL     1      -2.433   0.597  -0.849  1.00  0.00    -0.384 OA
ATOM     20  H2  UNL     1      -1.561   0.571  -1.224  1.00  0.00     0.211 HD
ENDBRANCH  13  19
ENDBRANCH   1  13
TORSDOF 7
