REMARK  7 active torsions:
REMARK  status: ('A' for Active; 'I' for Inactive)
REMARK    1  A    between atoms: O1_2  and  C2_3 
REMARK    2  A    between atoms: C6_8  and  C7_9 
REMARK    3  A    between atoms: C7_9  and  C8_10 
REMARK    4  A    between atoms: C10_14  and  N2_15 
REMARK    5  A    between atoms: N2_15  and  C11_17 
REMARK    6  A    between atoms: C14_21  and  N3_22 
REMARK    7  A    between atoms: N3_22  and  C15_24 
ROOT
HETATM    1  C11 UNL     1       1.189   1.186   0.114  1.00  0.00     0.074 A 
HETATM    2  C12 UNL     1       2.090   1.513  -0.908  1.00  0.00     0.058 A 
HETATM    3  C13 UNL     1       3.206   0.751  -1.158  1.00  0.00     0.065 A 
HETATM    4 CL1  UNL     1       4.316   1.196  -2.460  1.00  0.00    -0.082 Cl
HETATM    5  C14 UNL     1       3.489  -0.385  -0.397  1.00  0.00     0.094 A 
HETATM    6  C22 UNL     1       2.600  -0.730   0.632  1.00  0.00     0.087 A 
HETATM    7 CL2  UNL     1       2.951  -2.160   1.610  1.00  0.00    -0.080 Cl
HETATM    8  C23 UNL     1       1.500   0.067   0.837  1.00  0.00     0.085 A 
HETATM    9 CL3  UNL     1       0.403  -0.384   2.122  1.00  0.00    -0.080 Cl
ENDROOT
BRANCH   1  10
HETATM   10  N2  UNL     1       0.061   2.017   0.302  1.00  0.00    -0.190 N 
ATOM     11  H2  UNL     1       0.158   2.839   0.898  1.00  0.00     0.184 HD
BRANCH  10  12
HETATM   12  C10 UNL     1      -1.093   1.784  -0.248  1.00  0.00     0.685 A 
HETATM   13  N1  UNL     1      -2.112   2.607  -0.033  1.00  0.00    -0.201 N 
HETATM   14  C9  UNL     1      -3.331   2.379  -0.604  1.00  0.00     0.119 A 
ATOM     15  H1  UNL     1      -1.982   3.421   0.567  1.00  0.00     0.183 HD
HETATM   16  C8  UNL     1      -3.541   1.288  -1.419  1.00  0.00     0.031 A 
HETATM   17  C24 UNL     1      -2.440   0.440  -1.623  1.00  0.00     0.267 A 
HETATM   18  N6  UNL     1      -1.272   0.723  -1.030  1.00  0.00    -0.155 N 
HETATM   19  O2  UNL     1      -2.496  -0.588  -2.355  1.00  0.00    -0.267 OA
ATOM     20  H6  UNL     1      -0.483   0.095  -1.186  1.00  0.00     0.187 HD
BRANCH  16  21
HETATM   21  C7  UNL     1      -4.813   0.905  -2.038  1.00  0.00     0.089 C 
BRANCH  21  22
HETATM   22  C6  UNL     1      -5.939   0.488  -1.207  1.00  0.00     0.009 A 
HETATM   23  C5  UNL     1      -6.834   1.502  -0.812  1.00  0.00     0.124 A 
HETATM   24  C4  UNL     1      -7.919   1.245  -0.005  1.00  0.00     0.046 A 
HETATM   25  F1  UNL     1      -6.667   2.766  -1.299  1.00  0.00    -0.205 F 
HETATM   26  C3  UNL     1      -8.168  -0.031   0.446  1.00  0.00     0.041 A 
HETATM   27  C2  UNL     1      -7.321  -1.050   0.083  1.00  0.00     0.090 A 
HETATM   28  C25 UNL     1      -6.227  -0.753  -0.738  1.00  0.00     0.076 A 
HETATM   29 CL4  UNL     1      -5.255  -2.124  -1.166  1.00  0.00    -0.081 Cl
BRANCH  27  30
HETATM   30  O1  UNL     1      -7.567  -2.346   0.539  1.00  0.00    -0.354 OA
HETATM   31  C1  UNL     1      -8.708  -2.553   1.368  1.00  0.00     0.210 C 
ENDBRANCH  27  30
ENDBRANCH  21  22
ENDBRANCH  16  21
ENDBRANCH  10  12
ENDBRANCH   1  10
BRANCH   5  32
HETATM   32  N3  UNL     1       4.593  -1.201  -0.626  1.00  0.00    -0.188 N 
ATOM     33  H3  UNL     1       4.433  -2.017  -1.216  1.00  0.00     0.184 HD
BRANCH  32  34
HETATM   34  C15 UNL     1       5.777  -1.051  -0.188  1.00  0.00     0.683 A 
HETATM   35  N4  UNL     1       6.781  -1.925  -0.482  1.00  0.00    -0.189 N 
HETATM   36  C16 UNL     1       7.923  -1.527   0.115  1.00  0.00     0.079 A 
ATOM     37  H4  UNL     1       6.683  -2.756  -1.066  1.00  0.00     0.184 HD
HETATM   38  C17 UNL     1       9.213  -2.016   0.165  1.00  0.00     0.032 A 
HETATM   39  C21 UNL     1       7.634  -0.367   0.805  1.00  0.00     0.115 A 
HETATM   40  C18 UNL     1      10.193  -1.377   0.879  1.00  0.00     0.005 A 
HETATM   41  C19 UNL     1       9.923  -0.210   1.581  1.00  0.00     0.045 A 
HETATM   42  C20 UNL     1       8.630   0.258   1.514  1.00  0.00     0.145 A 
HETATM   43  F2  UNL     1       8.303   1.398   2.177  1.00  0.00    -0.204 F 
HETATM   44  N5  UNL     1       6.313  -0.110   0.594  1.00  0.00    -0.186 N 
ATOM     45  H5  UNL     1       5.806   0.687   0.978  1.00  0.00     0.184 HD
ENDBRANCH  32  34
ENDBRANCH   5  32
TORSDOF 7
