REMARK  8 active torsions:
REMARK  status: ('A' for Active; 'I' for Inactive)
REMARK    1  A    between atoms: C2_2  and  C3_3 
REMARK    2  A    between atoms: C4_4  and  O1_5 
REMARK    3  A    between atoms: O1_5  and  C5_6 
REMARK    4  A    between atoms: C5_6  and  C6_7 
REMARK    5  A    between atoms: C10_14  and  O2_15 
REMARK    6  A    between atoms: O2_15  and  C11_16 
REMARK    7  A    between atoms: C18_24  and  C19_25 
REMARK    8  A    between atoms: C18_24  and  C22_32 
ROOT
HETATM    1  C11 UNL     1       0.581  -1.673   0.589  1.00  0.00     0.115 A 
HETATM    2  C12 UNL     1      -0.517  -1.080   0.041  1.00  0.00     0.049 A 
HETATM    3  C13 UNL     1      -1.560  -0.562   0.785  1.00  0.00    -0.032 A 
HETATM    4  C14 UNL     1      -1.475  -0.654   2.150  1.00  0.00    -0.046 A 
HETATM    5  C15 UNL     1      -0.349  -1.261   2.719  1.00  0.00     0.053 A 
HETATM    6  C16 UNL     1       0.687  -1.776   1.980  1.00  0.00     0.150 A 
HETATM    7  F3  UNL     1       1.722  -2.338   2.608  1.00  0.00    -0.203 F 
HETATM    8  C17 UNL     1      -2.765   0.010   2.417  1.00  0.00     0.062 A 
HETATM    9  C18 UNL     1      -2.870   0.112   0.931  1.00  0.00     0.053 A 
ENDROOT
BRANCH   1  10
HETATM   10  O2  UNL     1       1.596  -2.178  -0.165  1.00  0.00    -0.307 OA
BRANCH  10  11
HETATM   11  C10 UNL     1       2.934  -1.916  -0.169  1.00  0.00     0.086 A 
HETATM   12  C3  UNL     1       3.491  -0.716  -0.469  1.00  0.00     0.009 A 
HETATM   13  C4  UNL     1       4.874  -0.533  -0.446  1.00  0.00     0.079 A 
HETATM   14  C7  UNL     1       5.675  -1.587  -0.115  1.00  0.00     0.061 A 
HETATM   15  C8  UNL     1       5.172  -2.825   0.197  1.00  0.00     0.039 A 
HETATM   16 CL1  UNL     1       6.288  -4.110   0.608  1.00  0.00    -0.084 Cl
HETATM   17  C9  UNL     1       3.821  -2.977   0.168  1.00  0.00     0.061 A 
BRANCH  12  18
HETATM   18  C2  UNL     1       2.667   0.461  -0.845  1.00  0.00     0.040 C 
HETATM   19  C1  UNL     1       2.510   1.364   0.338  1.00  0.00     0.010 C 
ENDBRANCH  12  18
BRANCH  13  20
HETATM   20  O1  UNL     1       5.405   0.732  -0.764  1.00  0.00    -0.345 OA
BRANCH  20  21
HETATM   21  C5  UNL     1       6.788   0.963  -0.756  1.00  0.00     0.246 C 
BRANCH  21  22
HETATM   22  C6  UNL     1       7.111   2.402  -1.134  1.00  0.00     0.377 C 
HETATM   23  F1  UNL     1       6.516   3.262  -0.229  1.00  0.00    -0.212 F 
HETATM   24  F2  UNL     1       8.484   2.550  -1.152  1.00  0.00    -0.212 F 
ENDBRANCH  21  22
ENDBRANCH  20  21
ENDBRANCH  13  20
ENDBRANCH  10  11
ENDBRANCH   1  10
BRANCH   9  25
HETATM   25  C19 UNL     1      -2.836   1.499   0.442  1.00  0.00     0.087 C 
HETATM   26  N1  UNL     1      -3.110   2.517   1.188  1.00  0.00    -0.377 N 
HETATM   27  C20 UNL     1      -3.007   3.754   0.484  1.00  0.00     0.140 C 
ATOM     28  H1  UNL     1      -3.371   2.445   2.171  1.00  0.00     0.160 HD
HETATM   29  C21 UNL     1      -2.827   3.384  -0.977  1.00  0.00     0.140 C 
HETATM   30  N2  UNL     1      -2.515   1.979  -0.874  1.00  0.00    -0.377 N 
ATOM     31  H2  UNL     1      -2.124   1.410  -1.625  1.00  0.00     0.160 HD
ENDBRANCH   9  25
BRANCH   9  32
HETATM   32  C22 UNL     1      -3.990  -0.753   0.406  1.00  0.00     0.010 C 
HETATM   33  C23 UNL     1      -5.347  -0.148   0.517  1.00  0.00     0.032 C 
HETATM   34  C24 UNL     1      -6.347  -1.283   0.241  1.00  0.00     0.168 C 
HETATM   35  O3  UNL     1      -6.151  -1.671  -1.064  1.00  0.00    -0.391 OA
HETATM   36  C25 UNL     1      -4.910  -2.189  -1.323  1.00  0.00     0.168 C 
HETATM   37  C26 UNL     1      -3.782  -1.233  -1.001  1.00  0.00     0.032 C 
ENDBRANCH   9  32
TORSDOF 8
