REMARK  7 active torsions:
REMARK  status: ('A' for Active; 'I' for Inactive)
REMARK       I    between atoms: C2_2  and  N1_4 
REMARK    1  A    between atoms: N1_4  and  C3_6 
REMARK    2  A    between atoms: C3_6  and  C5_8 
REMARK    3  A    between atoms: C5_8  and  O3_10 
REMARK    4  A    between atoms: O3_10  and  C6_11 
REMARK    5  A    between atoms: C9_14  and  C10_15 
REMARK    6  A    between atoms: C10_15  and  O4_17 
REMARK    7  A    between atoms: O4_17  and  C12_18 
ROOT
HETATM    1  C6  UNL     1       0.003  -0.596   0.395  1.00  0.00     0.172 C 
HETATM    2  C7  UNL     1      -0.894  -1.050  -0.767  1.00  0.00     0.046 C 
HETATM    3  C8  UNL     1      -0.580  -0.293  -1.997  1.00  0.00     0.015 C 
HETATM    4  C9  UNL     1      -2.239  -0.895  -0.197  1.00  0.00     0.158 C 
HETATM    5  O6  UNL     1      -2.160  -0.149   0.974  1.00  0.00    -0.370 OA
HETATM    6  C14 UNL     1      -0.906   0.373   1.090  1.00  0.00     0.081 C 
HETATM    7  C15 UNL     1      -0.522   0.371   2.573  1.00  0.00     0.048 C 
HETATM    8  C16 UNL     1      -0.763   1.784   0.610  1.00  0.00     0.048 C 
ENDROOT
BRANCH   1   9
HETATM    9  O3  UNL     1       1.203  -0.041  -0.053  1.00  0.00    -0.311 OA
BRANCH   9  10
HETATM   10  C5  UNL     1       2.426  -0.511   0.335  1.00  0.00     0.281 C 
HETATM   11  O2  UNL     1       2.477  -1.488   1.132  1.00  0.00    -0.263 OA
BRANCH  10  12
HETATM   12  C3  UNL     1       3.715   0.088  -0.149  1.00  0.00     0.180 C 
HETATM   13  C4  UNL     1       3.741  -0.005  -1.673  1.00  0.00     0.043 C 
BRANCH  12  14
HETATM   14  N1  UNL     1       4.851  -0.578   0.399  1.00  0.00    -0.348 N 
HETATM   15  C2  UNL     1       5.792   0.140   1.170  1.00  0.00     0.214 C 
HETATM   16  C1  UNL     1       6.971  -0.517   1.747  1.00  0.00     0.117 C 
HETATM   17  O1  UNL     1       5.644   1.382   1.388  1.00  0.00    -0.274 OA
ATOM     18  H1  UNL     1       4.984  -1.576   0.234  1.00  0.00     0.163 HD
ENDBRANCH  12  14
ENDBRANCH  10  12
ENDBRANCH   9  10
ENDBRANCH   1   9
BRANCH   4  19
HETATM   19  C10 UNL     1      -3.283  -0.286  -1.068  1.00  0.00     0.157 C 
HETATM   20  C11 UNL     1      -3.510  -1.040  -2.358  1.00  0.00     0.043 C 
BRANCH  19  21
HETATM   21  O4  UNL     1      -4.514  -0.323  -0.357  1.00  0.00    -0.314 OA
BRANCH  21  22
HETATM   22  C12 UNL     1      -5.267   0.797  -0.082  1.00  0.00     0.255 C 
HETATM   23  C13 UNL     1      -6.548   0.735   0.661  1.00  0.00     0.126 C 
HETATM   24  O5  UNL     1      -4.872   1.930  -0.468  1.00  0.00    -0.266 OA
ENDBRANCH  21  22
ENDBRANCH  19  21
ENDBRANCH   4  19
TORSDOF 7
