REMARK  6 active torsions:
REMARK  status: ('A' for Active; 'I' for Inactive)
REMARK    1  A    between atoms: C4_4  and  C6_6 
REMARK    2  A    between atoms: C6_6  and  O2_8 
REMARK    3  A    between atoms: O2_8  and  C7_9 
REMARK    4  A    between atoms: C8_11  and  C9_12 
REMARK    5  A    between atoms: C9_12  and  C10_13 
REMARK    6  A    between atoms: C11_15  and  C12_16 
ROOT
HETATM    1  C7  UNL     1      -0.039  -0.307   0.078  1.00  0.00     0.303 C 
HETATM    2  O3  UNL     1       0.747   0.773  -0.119  1.00  0.00    -0.350 OA
HETATM    3  C8  UNL     1       2.036   0.575  -0.486  1.00  0.00     0.151 C 
HETATM    4  C13 UNL     1       2.456  -0.817  -0.080  1.00  0.00     0.201 C 
HETATM    5  O7  UNL     1       1.702  -1.682  -0.890  1.00  0.00    -0.373 OA
HETATM    6  C14 UNL     1       0.392  -1.592  -0.527  1.00  0.00     0.103 C 
HETATM    7  C15 UNL     1      -0.449  -1.856  -1.773  1.00  0.00     0.051 C 
HETATM    8  C16 UNL     1       0.089  -2.763   0.420  1.00  0.00     0.051 C 
ENDROOT
BRANCH   1   9
HETATM    9  O2  UNL     1      -1.357   0.003  -0.342  1.00  0.00    -0.283 OA
BRANCH   9  10
HETATM   10  C6  UNL     1      -2.446   0.062   0.511  1.00  0.00     0.291 C 
HETATM   11  O1  UNL     1      -2.228  -0.177   1.719  1.00  0.00    -0.260 OA
BRANCH  10  12
HETATM   12  C4  UNL     1      -3.752   0.392  -0.039  1.00  0.00     0.015 C 
HETATM   13  C2  UNL     1      -4.855   0.481   0.650  1.00  0.00    -0.076 C 
HETATM   14  C1  UNL     1      -6.120   0.821  -0.011  1.00  0.00     0.044 C 
HETATM   15  C3  UNL     1      -4.826   0.236   2.100  1.00  0.00     0.044 C 
HETATM   16  C5  UNL     1      -3.843   0.654  -1.524  1.00  0.00     0.055 C 
ENDBRANCH  10  12
ENDBRANCH   9  10
ENDBRANCH   1   9
BRANCH   3  17
HETATM   17  C9  UNL     1       2.928   1.634   0.075  1.00  0.00     0.069 C 
BRANCH  17  18
HETATM   18  C10 UNL     1       4.378   1.437  -0.320  1.00  0.00     0.165 A 
HETATM   19  O4  UNL     1       5.157   2.545   0.295  1.00  0.00    -0.364 OA
HETATM   20  C11 UNL     1       5.437   1.231   0.662  1.00  0.00     0.251 A 
BRANCH  20  21
HETATM   21  C12 UNL     1       6.709   0.653   0.149  1.00  0.00     0.205 C 
HETATM   22  O5  UNL     1       7.386  -0.129   0.858  1.00  0.00    -0.646 OA
HETATM   23  O6  UNL     1       7.174   0.966  -1.120  1.00  0.00    -0.646 OA
ENDBRANCH  20  21
ENDBRANCH  17  18
ENDBRANCH   3  17
TORSDOF 6
