REMARK  4 active torsions:
REMARK  status: ('A' for Active; 'I' for Inactive)
REMARK    1  A    between atoms: C5_9  and  N3_10 
REMARK       I    between atoms: N3_10  and  C6_12 
REMARK    2  A    between atoms: C6_12  and  C7_14 
REMARK    3  A    between atoms: C7_14  and  N4_15 
REMARK    4  A    between atoms: C8_18  and  C9_19 
ROOT
HETATM    1  N4  UNL     1      -0.944  -0.986  -1.235  1.00  0.00    -0.287 N 
HETATM    2  N5  UNL     1      -1.267  -2.238  -0.930  1.00  0.00    -0.293 N 
ATOM      3  H5  UNL     1      -0.812  -3.056  -1.335  1.00  0.00     0.187 HD
HETATM    4  C8  UNL     1      -2.247  -2.303  -0.040  1.00  0.00     0.140 A 
HETATM    5  C10 UNL     1      -2.601  -0.982   0.269  1.00  0.00    -0.001 A 
HETATM    6  C11 UNL     1      -1.747  -0.212  -0.515  1.00  0.00     0.037 A 
HETATM    7  C12 UNL     1      -1.798   1.285  -0.531  1.00  0.00     0.059 C 
HETATM    8  C13 UNL     1      -3.167   1.745  -0.936  1.00  0.00     0.006 C 
HETATM    9  C14 UNL     1      -4.249   1.471   0.046  1.00  0.00     0.001 C 
HETATM   10  C15 UNL     1      -3.817   0.862   1.338  1.00  0.00     0.005 C 
HETATM   11  C16 UNL     1      -3.668  -0.637   1.237  1.00  0.00     0.043 C 
ENDROOT
BRANCH   1  12
HETATM   12  C7  UNL     1       0.093  -0.530  -2.135  1.00  0.00     0.252 C 
BRANCH  12  13
HETATM   13  C6  UNL     1       1.428  -0.471  -1.542  1.00  0.00     0.242 C 
HETATM   14  N3  UNL     1       1.885   0.551  -0.675  1.00  0.00    -0.321 N 
ATOM     15  H3  UNL     1       1.259   1.318  -0.428  1.00  0.00     0.169 HD
HETATM   16  O1  UNL     1       2.250  -1.405  -1.818  1.00  0.00    -0.271 OA
BRANCH  14  17
HETATM   17  C5  UNL     1       3.217   0.524  -0.138  1.00  0.00     0.099 A 
HETATM   18  C2  UNL     1       4.296   1.200  -0.646  1.00  0.00     0.052 A 
HETATM   19  C1  UNL     1       4.337   2.133  -1.806  1.00  0.00     0.072 C 
HETATM   20  N1  UNL     1       5.361   0.863   0.138  1.00  0.00    -0.300 N 
HETATM   21  N2  UNL     1       4.967   0.019   1.086  1.00  0.00    -0.283 N 
ATOM     22  H1  UNL     1       6.314   1.206   0.015  1.00  0.00     0.187 HD
HETATM   23  C3  UNL     1       5.799  -0.592   2.128  1.00  0.00     0.179 C 
HETATM   24  C4  UNL     1       3.655  -0.204   0.939  1.00  0.00     0.148 A 
HETATM   25 CL1  UNL     1       2.706  -1.261   1.985  1.00  0.00    -0.060 Cl
ENDBRANCH  14  17
ENDBRANCH  12  13
ENDBRANCH   1  12
BRANCH   4  26
HETATM   26  C9  UNL     1      -2.916  -3.482   0.580  1.00  0.00     0.434 C 
HETATM   27  F1  UNL     1      -2.365  -4.654   0.093  1.00  0.00    -0.165 F 
HETATM   28  F2  UNL     1      -2.823  -3.482   1.956  1.00  0.00    -0.165 F 
HETATM   29  F3  UNL     1      -4.252  -3.515   0.251  1.00  0.00    -0.165 F 
ENDBRANCH   4  26
TORSDOF 4
