REMARK  11 active torsions:
REMARK  status: ('A' for Active; 'I' for Inactive)
REMARK    1  A    between atoms: C2_2  and  O1_5 
REMARK    2  A    between atoms: O1_5  and  C5_6 
REMARK       I    between atoms: C5_6  and  N1_8 
REMARK    3  A    between atoms: N1_8  and  C6_9 
REMARK    4  A    between atoms: N1_8  and  C21_35 
REMARK    5  A    between atoms: C6_9  and  N2_10 
REMARK    6  A    between atoms: C6_9  and  C12_22 
REMARK       I    between atoms: N2_10  and  C7_12 
REMARK    7  A    between atoms: C7_12  and  C8_14 
REMARK    8  A    between atoms: C10_16  and  N3_17 
REMARK    9  A    between atoms: C15_26  and  C16_27 
REMARK   10  A    between atoms: C16_27  and  N4_28 
REMARK   11  A    between atoms: N4_28  and  C17_31 
ROOT
HETATM    1  C6  UNL     1      -1.072   0.285   0.486  1.00  0.00     0.206 C 
ENDROOT
BRANCH   1   2
HETATM    2  N1  UNL     1      -1.387  -0.992   1.025  1.00  0.00    -0.213 N 
HETATM    3  C5  UNL     1      -1.298  -2.171   0.190  1.00  0.00     0.372 C 
HETATM    4  O2  UNL     1      -0.958  -2.088  -1.009  1.00  0.00    -0.238 OA
BRANCH   3   5
HETATM    5  O1  UNL     1      -1.589  -3.392   0.729  1.00  0.00    -0.294 OA
BRANCH   5   6
HETATM    6  C2  UNL     1      -1.544  -4.630   0.060  1.00  0.00     0.061 C 
HETATM    7  C1  UNL     1      -2.457  -4.729  -1.126  1.00  0.00     0.046 C 
HETATM    8  C3  UNL     1      -2.047  -5.664   1.079  1.00  0.00     0.046 C 
HETATM    9  C4  UNL     1      -0.170  -5.077  -0.331  1.00  0.00     0.046 C 
ENDBRANCH   5   6
ENDBRANCH   3   5
BRANCH   2  10
HETATM   10  C21 UNL     1      -1.854  -1.212   2.358  1.00  0.00     0.492 C 
HETATM   11  F1  UNL     1      -2.126  -0.134   3.121  1.00  0.00    -0.150 F 
HETATM   12  F2  UNL     1      -0.985  -2.044   3.090  1.00  0.00    -0.150 F 
HETATM   13  F3  UNL     1      -3.020  -2.022   2.230  1.00  0.00    -0.150 F 
ENDBRANCH   2  10
ENDBRANCH   1   2
BRANCH   1  14
HETATM   14  N2  UNL     1      -2.137   1.257   0.502  1.00  0.00    -0.339 N 
HETATM   15  C7  UNL     1      -2.566   1.907  -0.699  1.00  0.00     0.223 C 
HETATM   16  O3  UNL     1      -1.992   1.621  -1.779  1.00  0.00    -0.273 OA
ATOM     17  H2  UNL     1      -2.593   1.486   1.385  1.00  0.00     0.164 HD
BRANCH  15  18
HETATM   18  C8  UNL     1      -3.651   2.888  -0.708  1.00  0.00     0.082 C 
HETATM   19  C9  UNL     1      -3.897   3.503  -2.083  1.00  0.00     0.046 C 
HETATM   20  C10 UNL     1      -4.120   4.822  -1.340  1.00  0.00     0.185 C 
HETATM   21  C11 UNL     1      -3.206   4.267  -0.233  1.00  0.00     0.046 C 
BRANCH  20  22
HETATM   22  N3  UNL     1      -3.513   5.975  -1.954  1.00  0.00    -0.075 N 
ATOM     23  H33 UNL     1      -2.516   5.815  -2.096  1.00  0.00     0.274 HD
ATOM     24  H32 UNL     1      -3.819   6.060  -2.923  1.00  0.00     0.274 HD
ATOM     25  H31 UNL     1      -3.662   6.854  -1.459  1.00  0.00     0.274 HD
ENDBRANCH  20  22
ENDBRANCH  15  18
ENDBRANCH   1  14
BRANCH   1  26
HETATM   26  C12 UNL     1       0.201   0.932   0.887  1.00  0.00     0.053 C 
HETATM   27  C13 UNL     1       0.491   1.296   2.276  1.00  0.00     0.176 C 
HETATM   28  O4  UNL     1       1.587   2.204   2.250  1.00  0.00    -0.390 OA
HETATM   29  C14 UNL     1       2.765   1.599   1.829  1.00  0.00     0.173 C 
HETATM   30  C15 UNL     1       2.575   1.077   0.454  1.00  0.00     0.036 C 
HETATM   31  C20 UNL     1       1.411   0.123   0.381  1.00  0.00     0.019 C 
BRANCH  30  32
HETATM   32  C16 UNL     1       3.760   0.463  -0.208  1.00  0.00     0.239 C 
BRANCH  32  33
HETATM   33  N4  UNL     1       4.860   1.331  -0.400  1.00  0.00    -0.070 N 
ATOM     34  H42 UNL     1       4.576   2.148  -0.940  1.00  0.00     0.277 HD
ATOM     35  H41 UNL     1       5.114   1.781   0.479  1.00  0.00     0.277 HD
BRANCH  33  36
HETATM   36  C17 UNL     1       5.998   0.721  -0.989  1.00  0.00     0.186 A 
HETATM   37  C18 UNL     1       6.660  -0.373  -0.138  1.00  0.00     0.035 A 
HETATM   38  C19 UNL     1       6.036  -0.709  -1.421  1.00  0.00     0.035 A 
ENDBRANCH  33  36
ENDBRANCH  32  33
ENDBRANCH  30  32
ENDBRANCH   1  26
TORSDOF 11
