REMARK  13 active torsions:
REMARK  status: ('A' for Active; 'I' for Inactive)
REMARK    1  A    between atoms: C2_2  and  C3_3 
REMARK    2  A    between atoms: C3_3  and  C4_4 
REMARK    3  A    between atoms: C3_3  and  N1_6 
REMARK    4  A    between atoms: C6_7  and  C7_8 
REMARK    5  A    between atoms: C7_8  and  N2_9 
REMARK    6  A    between atoms: N3_15  and  C13_16 
REMARK    7  A    between atoms: C13_16  and  O1_17 
REMARK    8  A    between atoms: C13_16  and  N4_19 
REMARK    9  A    between atoms: N4_19  and  C14_21 
REMARK   10  A    between atoms: C14_21  and  O2_22 
REMARK   11  A    between atoms: C14_21  and  N5_24 
REMARK   12  A    between atoms: N5_24  and  C15_26 
REMARK   13  A    between atoms: C15_26  and  C16_27 
ROOT
HETATM    1  N2  UNL     1      -1.170   0.867   0.939  1.00  0.00    -0.386 N 
HETATM    2  C8  UNL     1      -0.640  -0.000   1.911  1.00  0.00     0.123 C 
HETATM    3  C9  UNL     1       0.812   0.489   2.015  1.00  0.00     0.033 C 
HETATM    4  C10 UNL     1       1.126   0.759   0.571  1.00  0.00    -0.002 C 
HETATM    5  C11 UNL     1       2.202   1.812   0.389  1.00  0.00     0.057 C 
HETATM    6  C12 UNL     1       3.474   1.021   0.458  1.00  0.00     0.068 C 
HETATM    7  N3  UNL     1       3.214  -0.318   0.102  1.00  0.00    -0.326 N 
HETATM    8  C17 UNL     1       1.739  -0.429  -0.071  1.00  0.00     0.143 C 
HETATM    9  C18 UNL     1      -0.179   1.176  -0.040  1.00  0.00     0.133 C 
ENDROOT
BRANCH   7  10
HETATM   10  C13 UNL     1       4.032  -1.435  -0.092  1.00  0.00     0.226 C 
BRANCH  10  11
HETATM   11  O1  UNL     1       3.264  -2.495  -0.448  1.00  0.00    -0.332 OA
ATOM     12  H1  UNL     1       3.820  -3.254  -0.580  1.00  0.00     0.221 HD
ENDBRANCH  10  11
BRANCH  10  13
HETATM   13  N4  UNL     1       5.362  -1.718  -0.017  1.00  0.00    -0.288 N 
ATOM     14  H4  UNL     1       5.525  -2.694  -0.265  1.00  0.00     0.173 HD
BRANCH  13  15
HETATM   15  C14 UNL     1       6.558  -1.103   0.288  1.00  0.00     0.220 C 
BRANCH  15  16
HETATM   16  O2  UNL     1       7.585  -1.962   0.166  1.00  0.00    -0.332 OA
ATOM     17  H2  UNL     1       8.409  -1.538   0.376  1.00  0.00     0.220 HD
ENDBRANCH  15  16
BRANCH  15  18
HETATM   18  N5  UNL     1       6.916   0.182   0.683  1.00  0.00    -0.348 N 
ATOM     19  H5  UNL     1       6.172   0.863   0.837  1.00  0.00     0.163 HD
BRANCH  18  20
HETATM   20  C15 UNL     1       8.291   0.609   0.889  1.00  0.00     0.240 C 
BRANCH  20  21
HETATM   21  C16 UNL     1       9.151   0.663  -0.314  1.00  0.00     0.403 C 
HETATM   22  F1  UNL     1       9.380  -0.446  -1.028  1.00  0.00    -0.169 F 
HETATM   23  F2  UNL     1      10.418   1.146   0.104  1.00  0.00    -0.169 F 
HETATM   24  F3  UNL     1       8.628   1.695  -1.118  1.00  0.00    -0.169 F 
ENDBRANCH  20  21
ENDBRANCH  18  20
ENDBRANCH  15  18
ENDBRANCH  13  15
ENDBRANCH  10  13
ENDBRANCH   7  10
BRANCH   1  25
HETATM   25  C7  UNL     1      -2.476   0.668   0.491  1.00  0.00     0.136 C 
BRANCH  25  26
HETATM   26  C6  UNL     1      -2.759  -0.619  -0.145  1.00  0.00     0.142 A 
HETATM   27  N1  UNL     1      -3.987  -0.966  -0.605  1.00  0.00    -0.277 N 
HETATM   28  C19 UNL     1      -3.932  -2.201  -1.134  1.00  0.00     0.343 A 
HETATM   29  N7  UNL     1      -2.663  -2.628  -1.004  1.00  0.00    -0.249 N 
HETATM   30  O3  UNL     1      -4.875  -2.880  -1.669  1.00  0.00    -0.245 OA
HETATM   31  N6  UNL     1      -1.984  -1.676  -0.415  1.00  0.00    -0.280 N 
ATOM     32  H7  UNL     1      -2.296  -3.530  -1.309  1.00  0.00     0.192 HD
ATOM     33  H6  UNL     1      -0.991  -1.733  -0.190  1.00  0.00     0.188 HD
BRANCH  27  34
HETATM   34  C3  UNL     1      -5.223  -0.170  -0.565  1.00  0.00     0.095 C 
BRANCH  34  35
HETATM   35  C2  UNL     1      -5.548   0.191  -1.963  1.00  0.00     0.021 C 
HETATM   36  C1  UNL     1      -6.674   1.134  -2.184  1.00  0.00     0.007 C 
ENDBRANCH  34  35
BRANCH  34  37
HETATM   37  C4  UNL     1      -6.280  -0.834   0.236  1.00  0.00     0.021 C 
HETATM   38  C5  UNL     1      -7.541  -0.072   0.439  1.00  0.00     0.007 C 
ENDBRANCH  34  37
ENDBRANCH  27  34
ENDBRANCH  25  26
ENDBRANCH   1  25
TORSDOF 13
