REMARK  4 active torsions:
REMARK  status: ('A' for Active; 'I' for Inactive)
REMARK    1  A    between atoms: N1_1  and  C1_4 
REMARK    2  A    between atoms: C2_7  and  C3_8 
REMARK    3  A    between atoms: C4_13  and  N5_14 
REMARK    4  A    between atoms: N5_14  and  N6_16 
ROOT
HETATM    1  C1  UNL     1       0.181   1.770   0.247  1.00  0.00     0.692 A 
HETATM    2  N2  UNL     1       1.092   0.806   0.153  1.00  0.00    -0.171 N 
ATOM      3  H2  UNL     1       2.080   1.056   0.101  1.00  0.00     0.186 HD
HETATM    4  C2  UNL     1       0.738  -0.495   0.125  1.00  0.00     0.201 A 
HETATM    5  N4  UNL     1      -0.564  -0.792   0.196  1.00  0.00    -0.169 N 
ATOM      6  H4  UNL     1      -0.840  -1.774   0.176  1.00  0.00     0.186 HD
HETATM    7  C4  UNL     1      -1.527   0.144   0.293  1.00  0.00     0.712 A 
HETATM    8  N7  UNL     1      -1.134   1.432   0.318  1.00  0.00    -0.021 N 
ATOM      9  H7  UNL     1      -1.836   2.168   0.392  1.00  0.00     0.203 HD
ENDROOT
BRANCH   7  10
HETATM   10  N5  UNL     1      -2.784  -0.124   0.363  1.00  0.00    -0.138 N 
ATOM     11  H5  UNL     1      -3.426   0.666   0.434  1.00  0.00     0.205 HD
BRANCH  10  12
HETATM   12  N6  UNL     1      -3.334  -1.378   0.350  1.00  0.00    -0.331 N 
ATOM     13  H62 UNL     1      -2.677  -2.155   0.278  1.00  0.00     0.177 HD
ATOM     14  H61 UNL     1      -4.330  -1.590   0.405  1.00  0.00     0.177 HD
ENDBRANCH  10  12
ENDBRANCH   7  10
BRANCH   4  15
HETATM   15  C3  UNL     1       1.769  -1.539   0.020  1.00  0.00     0.299 C 
HETATM   16  N3  UNL     1       3.142  -1.204  -0.055  1.00  0.00    -0.054 NA
HETATM   17  O1  UNL     1       1.429  -2.738  -0.005  1.00  0.00    -0.268 OA
ENDBRANCH   4  15
BRANCH   1  18
HETATM   18  N1  UNL     1       0.580   2.996   0.269  1.00  0.00    -0.234 N 
ATOM     19  H12 UNL     1       1.567   3.250   0.216  1.00  0.00     0.174 HD
ATOM     20  H11 UNL     1      -0.119   3.735   0.341  1.00  0.00     0.174 HD
ENDBRANCH   1  18
TORSDOF 4
