REMARK  11 active torsions:
REMARK  status: ('A' for Active; 'I' for Inactive)
REMARK    1  A    between atoms: N1_1  and  C1_4 
REMARK    2  A    between atoms: C2_7  and  O1_8 
REMARK    3  A    between atoms: C3_10  and  C4_11 
REMARK    4  A    between atoms: C6_15  and  O4_16 
REMARK    5  A    between atoms: C6_15  and  C7_18 
REMARK    6  A    between atoms: C9_25  and  N5_26 
REMARK    7  A    between atoms: N5_26  and  C10_28 
REMARK    8  A    between atoms: C10_28  and  C11_29 
REMARK    9  A    between atoms: C10_28  and  C13_35 
REMARK   10  A    between atoms: C11_29  and  C12_30 
REMARK   11  A    between atoms: C12_30  and  N6_31 
ROOT
HETATM    1  C1  UNL     1       0.967  -2.305   0.982  1.00  0.00     0.145 A 
HETATM    2  N2  UNL     1      -0.229  -2.847   1.373  1.00  0.00    -0.319 N 
ATOM      3  H2  UNL     1      -0.241  -3.793   1.754  1.00  0.00     0.169 HD
HETATM    4  C2  UNL     1      -1.384  -2.173   1.271  1.00  0.00     0.166 A 
HETATM    5  C3  UNL     1      -1.425  -0.889   0.763  1.00  0.00     0.083 A 
HETATM    6  N4  UNL     1      -0.284  -0.352   0.382  1.00  0.00    -0.338 N 
ATOM      7  H4  UNL     1      -0.289   0.595   0.003  1.00  0.00     0.167 HD
HETATM    8  C9  UNL     1       0.923  -1.026   0.477  1.00  0.00     0.146 A 
ENDROOT
BRANCH   5   9
HETATM    9  C4  UNL     1      -2.747  -0.230   0.692  1.00  0.00     0.215 C 
HETATM   10  C5  UNL     1      -2.706   1.169   1.179  1.00  0.00     0.280 C 
HETATM   11  O2  UNL     1      -2.133   1.643   2.198  1.00  0.00    -0.264 OA
HETATM   12  O3  UNL     1      -3.439   1.953   0.300  1.00  0.00    -0.267 OA
HETATM   13  C6  UNL     1      -4.040   1.183  -0.704  1.00  0.00     0.315 C 
HETATM   14  C8  UNL     1      -3.240  -0.064  -0.694  1.00  0.00     0.218 C 
HETATM   15  O6  UNL     1      -3.020  -0.811  -1.617  1.00  0.00    -0.290 OA
BRANCH  13  16
HETATM   16  O4  UNL     1      -3.992   1.808  -1.945  1.00  0.00    -0.352 OA
ATOM     17  H4  UNL     1      -4.400   1.286  -2.626  1.00  0.00     0.214 HD
ENDBRANCH  13  16
BRANCH  13  18
HETATM   18  C7  UNL     1      -5.462   0.869  -0.393  1.00  0.00     0.302 C 
HETATM   19  N3  UNL     1      -6.501   1.201  -1.290  1.00  0.00    -0.057 NA
HETATM   20  O5  UNL     1      -5.717   0.302   0.684  1.00  0.00    -0.270 OA
ENDBRANCH  13  18
ENDBRANCH   5   9
BRANCH   4  21
HETATM   21  O1  UNL     1      -2.538  -2.805   1.691  1.00  0.00    -0.345 OA
ATOM     22  H1  UNL     1      -3.356  -2.328   1.619  1.00  0.00     0.219 HD
ENDBRANCH   4  21
BRANCH   8  23
HETATM   23  N5  UNL     1       1.901  -0.406   0.087  1.00  0.00    -0.360 N 
ATOM     24  H5  UNL     1       1.539   0.497  -0.221  1.00  0.00     0.162 HD
BRANCH  23  25
HETATM   25  C10 UNL     1       3.249  -0.344  -0.134  1.00  0.00     0.174 C 
BRANCH  25  26
HETATM   26  C11 UNL     1       3.798   1.090  -0.248  1.00  0.00     0.061 C 
BRANCH  26  27
HETATM   27  C12 UNL     1       3.533   1.858   1.020  1.00  0.00     0.232 C 
BRANCH  27  28
HETATM   28  N6  UNL     1       4.056   3.205   0.898  1.00  0.00    -0.079 N 
ATOM     29  H63 UNL     1       5.044   3.211   0.646  1.00  0.00     0.274 HD
ATOM     30  H62 UNL     1       3.690   3.685   0.076  1.00  0.00     0.274 HD
ATOM     31  H61 UNL     1       3.877   3.725   1.757  1.00  0.00     0.274 HD
ENDBRANCH  27  28
ENDBRANCH  26  27
ENDBRANCH  25  26
BRANCH  25  32
HETATM   32  C13 UNL     1       3.734  -1.017  -1.377  1.00  0.00     0.254 C 
HETATM   33  N7  UNL     1       5.098  -1.048  -1.757  1.00  0.00    -0.060 NA
HETATM   34  O7  UNL     1       2.882  -1.574  -2.104  1.00  0.00    -0.275 OA
ENDBRANCH  25  32
ENDBRANCH  23  25
ENDBRANCH   8  23
BRANCH   1  35
HETATM   35  N1  UNL     1       2.008  -3.030   1.121  1.00  0.00    -0.382 N 
ATOM     36  H12 UNL     1       2.041  -3.978   1.495  1.00  0.00     0.157 HD
ATOM     37  H11 UNL     1       2.898  -2.626   0.830  1.00  0.00     0.157 HD
ENDBRANCH   1  35
TORSDOF 11
