REMARK  7 active torsions:
REMARK  status: ('A' for Active; 'I' for Inactive)
REMARK    1  A    between atoms: C2_2  and  C3_3 
REMARK    2  A    between atoms: C2_2  and  C13_16 
REMARK    3  A    between atoms: C4_4  and  C5_5 
REMARK    4  A    between atoms: C9_9  and  O1_10 
REMARK    5  A    between atoms: C13_16  and  O3_17 
REMARK    6  A    between atoms: C13_16  and  C14_19 
REMARK    7  A    between atoms: C17_23  and  C18_24 
ROOT
HETATM    1  C14 UNL     1      -0.266  -0.968  -0.179  1.00  0.00     0.162 C 
HETATM    2  O4  UNL     1      -0.971   0.232  -0.102  1.00  0.00    -0.365 OA
HETATM    3  C15 UNL     1      -1.913   0.103   0.845  1.00  0.00     0.128 A 
HETATM    4  C16 UNL     1      -2.657   1.101   1.558  1.00  0.00     0.087 A 
HETATM    5  C17 UNL     1      -3.366   0.218   0.608  1.00  0.00     0.110 A 
HETATM    6  O6  UNL     1      -3.468  -1.143   0.754  1.00  0.00    -0.361 OA
HETATM    7  C25 UNL     1      -2.149  -1.346   1.158  1.00  0.00     0.098 C 
HETATM    8  C26 UNL     1      -2.090  -1.715   2.606  1.00  0.00     0.050 C 
HETATM    9  C27 UNL     1      -1.246  -2.054   0.217  1.00  0.00     0.051 C 
HETATM   10  C28 UNL     1      -0.457  -3.168   0.871  1.00  0.00     0.016 C 
ENDROOT
BRANCH   1  11
HETATM   11  C13 UNL     1       0.162  -1.252  -1.594  1.00  0.00     0.179 C 
BRANCH  11  12
HETATM   12  C2  UNL     1       1.091  -0.214  -2.105  1.00  0.00    -0.037 C 
HETATM   13  C1  UNL     1       0.608   0.600  -3.029  1.00  0.00     0.021 C 
BRANCH  12  14
HETATM   14  C3  UNL     1       2.444   0.000  -1.647  1.00  0.00     0.006 C 
HETATM   15  C4  UNL     1       3.102  -0.704  -0.756  1.00  0.00    -0.013 C 
BRANCH  15  16
HETATM   16  C5  UNL     1       4.499  -0.293  -0.437  1.00  0.00     0.015 C 
HETATM   17  C6  UNL     1       5.550  -0.875  -1.325  1.00  0.00     0.023 C 
HETATM   18  C7  UNL     1       4.649   1.225  -0.253  1.00  0.00     0.073 C 
HETATM   19  C8  UNL     1       5.697   0.871   0.814  1.00  0.00     0.052 C 
HETATM   20  C12 UNL     1       3.511   1.803   0.483  1.00  0.00     0.132 C 
HETATM   21  C9  UNL     1       4.886  -0.418   1.020  1.00  0.00     0.070 C 
HETATM   22  C10 UNL     1       3.774  -0.146   2.004  1.00  0.00     0.046 C 
HETATM   23  C11 UNL     1       3.115   1.173   1.770  1.00  0.00     0.081 C 
HETATM   24  O2  UNL     1       2.893   2.762   0.083  1.00  0.00    -0.298 OA
BRANCH  21  25
HETATM   25  O1  UNL     1       5.712  -1.469   1.334  1.00  0.00    -0.389 OA
ATOM     26  H1  UNL     1       5.955  -1.548   2.249  1.00  0.00     0.210 HD
ENDBRANCH  21  25
ENDBRANCH  15  16
ENDBRANCH  12  14
ENDBRANCH  11  12
BRANCH  11  27
HETATM   27  O3  UNL     1       0.867  -2.475  -1.636  1.00  0.00    -0.388 OA
ATOM     28  H3  UNL     1       0.272  -3.140  -1.309  1.00  0.00     0.210 HD
ENDBRANCH  11  27
ENDBRANCH   1  11
BRANCH   5  29
HETATM   29  C18 UNL     1      -3.939   0.887  -0.617  1.00  0.00     0.009 C 
HETATM   30  C19 UNL     1      -3.489   0.202  -1.892  1.00  0.00     0.023 C 
HETATM   31  C20 UNL     1      -3.575   2.302  -0.717  1.00  0.00    -0.011 C 
HETATM   32  C21 UNL     1      -4.379   3.281  -0.412  1.00  0.00     0.047 C 
HETATM   33  C22 UNL     1      -5.723   3.021   0.059  1.00  0.00     0.149 C 
HETATM   34  O5  UNL     1      -6.603   3.927   0.120  1.00  0.00    -0.293 OA
HETATM   35  C23 UNL     1      -6.057   1.633   0.479  1.00  0.00     0.084 C 
HETATM   36  C24 UNL     1      -5.457   0.678  -0.537  1.00  0.00     0.024 C 
ENDBRANCH   5  29
TORSDOF 7
