REMARK  12 active torsions:
REMARK  status: ('A' for Active; 'I' for Inactive)
REMARK    1  A    between atoms: N1_1  and  C1_4 
REMARK    2  A    between atoms: C4_10  and  C5_11 
REMARK       I    between atoms: C5_11  and  N3_13 
REMARK    3  A    between atoms: N3_13  and  C6_15 
REMARK    4  A    between atoms: C6_15  and  C7_16 
REMARK    5  A    between atoms: C7_16  and  N4_17 
REMARK    6  A    between atoms: N4_17  and  C8_19 
REMARK    7  A    between atoms: C8_19  and  C9_20 
REMARK    8  A    between atoms: C9_20  and  O3_21 
REMARK    9  A    between atoms: C10_25  and  N6_26 
REMARK   10  A    between atoms: N6_26  and  C11_28 
REMARK   11  A    between atoms: C11_28  and  C12_29 
REMARK   12  A    between atoms: C12_29  and  N7_30 
ROOT
HETATM    1  C1  UNL     1      -2.327   2.904   1.054  1.00  0.00     0.146 C 
HETATM    2  N2  UNL     1      -1.658   3.853   0.342  1.00  0.00    -0.307 N 
ATOM      3  H2  UNL     1      -1.912   4.823   0.527  1.00  0.00     0.170 HD
HETATM    4  C2  UNL     1      -0.703   3.650  -0.574  1.00  0.00     0.249 C 
HETATM    5  O1  UNL     1      -0.447   4.589  -1.384  1.00  0.00    -0.268 OA
HETATM    6  C3  UNL     1       0.069   2.520  -0.764  1.00  0.00     0.109 C 
HETATM    7  C4  UNL     1      -0.254   1.225  -0.430  1.00  0.00     0.107 C 
HETATM    8  N5  UNL     1      -1.189   0.848   0.491  1.00  0.00    -0.335 N 
ATOM      9  H5  UNL     1      -1.072  -0.091   0.873  1.00  0.00     0.168 HD
HETATM   10  C10 UNL     1      -2.238   1.532   0.966  1.00  0.00     0.146 C 
ENDROOT
BRANCH   7  11
HETATM   11  C5  UNL     1       0.487   0.194  -1.129  1.00  0.00     0.268 C 
HETATM   12  O2  UNL     1       1.381   0.597  -1.963  1.00  0.00    -0.266 OA
HETATM   13  N3  UNL     1       0.307  -1.202  -0.969  1.00  0.00    -0.354 N 
ATOM     14  H3  UNL     1      -0.407  -1.514  -0.311  1.00  0.00     0.162 HD
BRANCH  13  15
HETATM   15  C6  UNL     1       1.058  -2.211  -1.666  1.00  0.00     0.142 C 
BRANCH  15  16
HETATM   16  C7  UNL     1       2.548  -2.097  -1.315  1.00  0.00     0.133 C 
BRANCH  16  17
HETATM   17  N4  UNL     1       2.768  -2.249   0.076  1.00  0.00    -0.418 N 
ATOM     18  H4  UNL     1       1.989  -2.386   0.720  1.00  0.00     0.153 HD
BRANCH  17  19
HETATM   19  C8  UNL     1       4.101  -2.205   0.543  1.00  0.00     0.139 C 
BRANCH  19  20
HETATM   20  C9  UNL     1       4.822  -0.907   0.491  1.00  0.00     0.183 C 
BRANCH  20  21
HETATM   21  O3  UNL     1       4.918  -0.437  -0.798  1.00  0.00    -0.399 OA
ATOM     22  H3  UNL     1       5.379   0.393  -0.831  1.00  0.00     0.209 HD
ENDBRANCH  20  21
ENDBRANCH  19  20
ENDBRANCH  17  19
ENDBRANCH  16  17
ENDBRANCH  15  16
ENDBRANCH  13  15
ENDBRANCH   7  11
BRANCH  10  23
HETATM   23  N6  UNL     1      -3.224   0.880   1.367  1.00  0.00    -0.372 N 
ATOM     24  H6  UNL     1      -3.994   1.449   1.720  1.00  0.00     0.161 HD
BRANCH  23  25
HETATM   25  C11 UNL     1      -3.454  -0.522   1.414  1.00  0.00     0.148 C 
BRANCH  25  26
HETATM   26  C12 UNL     1      -3.672  -1.150   0.064  1.00  0.00     0.249 C 
BRANCH  26  27
HETATM   27  N7  UNL     1      -4.825  -0.577  -0.612  1.00  0.00    -0.078 N 
ATOM     28  H73 UNL     1      -5.663  -0.636  -0.034  1.00  0.00     0.274 HD
ATOM     29  H72 UNL     1      -4.751   0.438  -0.681  1.00  0.00     0.274 HD
ATOM     30  H71 UNL     1      -4.973  -1.003  -1.527  1.00  0.00     0.274 HD
ENDBRANCH  26  27
ENDBRANCH  25  26
ENDBRANCH  23  25
ENDBRANCH  10  23
BRANCH   1  31
HETATM   31  N1  UNL     1      -3.144   3.387   1.923  1.00  0.00    -0.382 N 
ATOM     32  H12 UNL     1      -3.210   4.403   1.988  1.00  0.00     0.157 HD
ATOM     33  H11 UNL     1      -3.645   2.676   2.456  1.00  0.00     0.157 HD
ENDBRANCH   1  31
TORSDOF 12
