REMARK  2 active torsions:
REMARK  status: ('A' for Active; 'I' for Inactive)
REMARK    1  A    between atoms: C2_2  and  C3_3 
REMARK    2  A    between atoms: C3_3  and  N1_4 
ROOT
HETATM    1  N1  UNL     1       0.092   1.964   1.297  1.00  0.00    -0.344 N 
HETATM    2  C4  UNL     1       1.172   1.803   0.258  1.00  0.00     0.166 C 
HETATM    3  C5  UNL     1       1.128   0.381   0.121  1.00  0.00    -0.011 C 
HETATM    4  C6  UNL     1       2.231  -0.403  -0.168  1.00  0.00    -0.004 C 
HETATM    5  C7  UNL     1       2.954   0.674  -0.619  1.00  0.00    -0.002 C 
HETATM    6  C8  UNL     1       4.350   0.792  -0.961  1.00  0.00     0.053 A 
HETATM    7  C9  UNL     1       4.915  -0.478  -0.880  1.00  0.00    -0.036 A 
HETATM    8  C10 UNL     1       5.807   0.520  -1.248  1.00  0.00     0.052 A 
HETATM    9  C11 UNL     1       7.033  -0.216  -1.402  1.00  0.00    -0.017 A 
HETATM   10  C12 UNL     1       7.157  -1.583  -1.202  1.00  0.00    -0.001 A 
HETATM   11  C13 UNL     1       6.104  -2.447  -0.819  1.00  0.00     0.029 A 
HETATM   12  C14 UNL     1       4.909  -1.727  -0.669  1.00  0.00     0.036 A 
HETATM   13  N2  UNL     1       3.804  -2.460  -0.291  1.00  0.00    -0.355 N 
ATOM     14  H2  UNL     1       3.868  -3.474  -0.196  1.00  0.00     0.166 HD
HETATM   15  C15 UNL     1       2.607  -1.812  -0.041  1.00  0.00     0.043 C 
HETATM   16  C16 UNL     1       1.978  -2.971   0.365  1.00  0.00     0.033 C 
HETATM   17  C17 UNL     1       0.655  -3.320   0.588  1.00  0.00     0.033 C 
HETATM   18  C18 UNL     1      -0.505  -2.627   0.304  1.00  0.00     0.044 A 
HETATM   19  N3  UNL     1      -1.614  -3.317   0.003  1.00  0.00    -0.355 N 
ATOM     20  H3  UNL     1      -1.706  -4.332   0.030  1.00  0.00     0.166 HD
HETATM   21  C19 UNL     1      -2.603  -2.436  -0.346  1.00  0.00     0.044 A 
HETATM   22  C20 UNL     1      -3.901  -2.623  -0.773  1.00  0.00     0.042 A 
HETATM   23  C21 UNL     1      -4.693  -1.533  -1.124  1.00  0.00    -0.024 A 
HETATM   24  C22 UNL     1      -5.992  -1.715  -1.540  1.00  0.00     0.012 A 
HETATM   25  C23 UNL     1      -6.777  -0.638  -1.878  1.00  0.00     0.001 A 
HETATM   26  C24 UNL     1      -6.275   0.639  -1.807  1.00  0.00     0.001 A 
HETATM   27  C25 UNL     1      -4.974   0.800  -1.389  1.00  0.00     0.012 A 
HETATM   28  C26 UNL     1      -4.155  -0.265  -1.039  1.00  0.00    -0.025 A 
HETATM   29  C27 UNL     1      -2.864  -0.044  -0.615  1.00  0.00     0.027 A 
HETATM   30  C28 UNL     1      -2.126  -1.131  -0.272  1.00  0.00     0.005 A 
HETATM   31  C29 UNL     1      -0.838  -1.283   0.141  1.00  0.00     0.019 A 
HETATM   32  C30 UNL     1      -0.159  -0.112   0.420  1.00  0.00     0.054 C 
HETATM   33  C31 UNL     1      -0.857   0.881   1.202  1.00  0.00     0.255 C 
HETATM   34  O1  UNL     1      -1.994   0.841   1.705  1.00  0.00    -0.267 OA
ENDROOT
BRANCH   1  35
HETATM   35  C3  UNL     1      -0.059   3.014   2.275  1.00  0.00     0.126 C 
BRANCH  35  36
HETATM   36  C2  UNL     1      -0.882   4.170   1.738  1.00  0.00     0.015 C 
HETATM   37  C1  UNL     1      -1.015   5.245   2.791  1.00  0.00     0.006 C 
ENDBRANCH  35  36
ENDBRANCH   1  35
TORSDOF 2
