REMARK  4 active torsions:
REMARK  status: ('A' for Active; 'I' for Inactive)
REMARK    1  A    between atoms: C2_2  and  C3_3 
REMARK    2  A    between atoms: C2_2  and  N2_10 
REMARK    3  A    between atoms: C3_3  and  N1_4 
REMARK    4  A    between atoms: N2_10  and  C9_12 
ROOT
HETATM    1  C9  UNL     1       3.367   0.662   0.484  1.00  0.00     0.186 C 
HETATM    2  N3  UNL     1       2.855   1.633  -0.181  1.00  0.00    -0.290 N 
ATOM      3  H3  UNL     1       1.852   1.610  -0.363  1.00  0.00     0.178 HD
HETATM    4  C10 UNL     1       3.578   2.712  -0.669  1.00  0.00     0.182 C 
HETATM    5  N4  UNL     1       4.190   3.638  -1.067  1.00  0.00    -0.172 NA
ENDROOT
BRANCH   1   6
HETATM    6  N2  UNL     1       2.717  -0.452   1.007  1.00  0.00    -0.380 N 
ATOM      7  H2  UNL     1       3.242  -0.969   1.712  1.00  0.00     0.160 HD
BRANCH   6   8
HETATM    8  C2  UNL     1       1.423  -0.980   0.703  1.00  0.00     0.106 C 
HETATM    9  C1  UNL     1       1.482  -2.401   0.123  1.00  0.00     0.034 C 
BRANCH   8  10
HETATM   10  C3  UNL     1       0.592  -0.177  -0.235  1.00  0.00     0.296 C 
BRANCH  10  11
HETATM   11  N1  UNL     1      -0.757  -0.757  -0.291  1.00  0.00     0.090 N 
HETATM   12  C4  UNL     1      -1.444  -0.307  -1.481  1.00  0.00     0.272 C 
HETATM   13  C5  UNL     1      -2.866   0.073  -1.335  1.00  0.00     0.030 C 
HETATM   14  C6  UNL     1      -3.126   1.038  -0.208  1.00  0.00     0.003 C 
HETATM   15  C7  UNL     1      -1.979   1.059   0.773  1.00  0.00     0.030 C 
HETATM   16  C8  UNL     1      -1.471  -0.353   0.906  1.00  0.00     0.272 C 
ENDBRANCH  10  11
ENDBRANCH   8  10
ENDBRANCH   6   8
ENDBRANCH   1   6
TORSDOF 4
