REMARK  17 active torsions:
REMARK  status: ('A' for Active; 'I' for Inactive)
REMARK    1  A    between atoms: C2_2  and  C3_3 
REMARK    2  A    between atoms: C3_3  and  C4_4 
REMARK    3  A    between atoms: C4_4  and  C5_5 
REMARK    4  A    between atoms: C5_5  and  C6_6 
REMARK    5  A    between atoms: C6_6  and  C7_7 
REMARK    6  A    between atoms: C7_7  and  C8_8 
REMARK    7  A    between atoms: C8_8  and  N1_9 
REMARK    8  A    between atoms: N1_9  and  C9_10 
REMARK    9  A    between atoms: N1_9  and  C11_12 
REMARK   10  A    between atoms: C11_12  and  C12_13 
REMARK   11  A    between atoms: C13_15  and  C14_16 
REMARK   12  A    between atoms: C14_16  and  O2_17 
REMARK   13  A    between atoms: C15_19  and  N2_20 
REMARK   14  A    between atoms: N2_20  and  C16_21 
REMARK   15  A    between atoms: C19_26  and  N4_27 
REMARK   16  A    between atoms: C20_32  and  O3_33 
REMARK   17  A    between atoms: C21_35  and  O4_36 
ROOT
HETATM    1  C12 UNL     1       1.348  -0.718   0.877  1.00  0.00     0.181 C 
HETATM    2  O1  UNL     1       1.591   0.140  -0.197  1.00  0.00    -0.371 OA
HETATM    3  C13 UNL     1       2.621  -0.254  -1.007  1.00  0.00     0.184 C 
HETATM    4  C15 UNL     1       3.929  -0.433  -0.255  1.00  0.00     0.227 C 
HETATM    5  C20 UNL     1       3.702  -1.204   1.043  1.00  0.00     0.188 C 
HETATM    6  C21 UNL     1       2.292  -1.849   0.913  1.00  0.00     0.180 C 
ENDROOT
BRANCH   1   7
HETATM    7  C11 UNL     1      -0.084  -1.002   1.085  1.00  0.00     0.306 C 
BRANCH   7   8
HETATM    8  N1  UNL     1      -0.868  -1.565   0.073  1.00  0.00     0.090 N 
BRANCH   8   9
HETATM    9  C8  UNL     1      -2.290  -1.293   0.374  1.00  0.00     0.272 C 
BRANCH   9  10
HETATM   10  C7  UNL     1      -3.126  -1.257  -0.845  1.00  0.00     0.030 C 
BRANCH  10  11
HETATM   11  C6  UNL     1      -4.562  -0.924  -0.511  1.00  0.00     0.002 C 
BRANCH  11  12
HETATM   12  C5  UNL     1      -4.602   0.411   0.147  1.00  0.00     0.000 C 
BRANCH  12  13
HETATM   13  C4  UNL     1      -5.998   0.925   0.450  1.00  0.00     0.000 C 
BRANCH  13  14
HETATM   14  C3  UNL     1      -6.812   1.100  -0.778  1.00  0.00    -0.000 C 
BRANCH  14  15
HETATM   15  C2  UNL     1      -8.181   1.621  -0.460  1.00  0.00    -0.005 C 
HETATM   16  C1  UNL     1      -8.094   2.965   0.217  1.00  0.00     0.005 C 
ENDBRANCH  14  15
ENDBRANCH  13  14
ENDBRANCH  12  13
ENDBRANCH  11  12
ENDBRANCH  10  11
ENDBRANCH   9  10
ENDBRANCH   8   9
BRANCH   8  17
HETATM   17  C9  UNL     1      -0.678  -2.882  -0.378  1.00  0.00     0.268 C 
HETATM   18  C10 UNL     1      -0.950  -3.980   0.626  1.00  0.00     0.037 C 
ENDBRANCH   8  17
ENDBRANCH   7   8
ENDBRANCH   1   7
BRANCH   6  19
HETATM   19  O4  UNL     1       2.113  -2.660   2.050  1.00  0.00    -0.390 OA
ATOM     20  H4  UNL     1       2.722  -3.389   2.073  1.00  0.00     0.210 HD
ENDBRANCH   6  19
BRANCH   3  21
HETATM   21  C14 UNL     1       2.820   0.822  -2.046  1.00  0.00     0.199 C 
BRANCH  21  22
HETATM   22  O2  UNL     1       3.848   0.538  -2.938  1.00  0.00    -0.398 OA
ATOM     23  H2  UNL     1       3.973   1.215  -3.592  1.00  0.00     0.209 HD
ENDBRANCH  21  22
ENDBRANCH   3  21
BRANCH   5  24
HETATM   24  O3  UNL     1       4.662  -2.178   1.232  1.00  0.00    -0.390 OA
ATOM     25  H3  UNL     1       4.521  -2.658   2.040  1.00  0.00     0.210 HD
ENDBRANCH   5  24
BRANCH   4  26
HETATM   26  N2  UNL     1       4.668   0.657  -0.045  1.00  0.00    -0.419 NA
BRANCH  26  27
HETATM   27  C16 UNL     1       5.519   1.488   0.140  1.00  0.00     0.189 A 
HETATM   28  C17 UNL     1       5.150   2.841   0.283  1.00  0.00     0.081 A 
HETATM   29  C18 UNL     1       6.113   3.779   0.497  1.00  0.00     0.111 A 
HETATM   30  N3  UNL     1       7.424   3.436   0.575  1.00  0.00    -0.202 N 
HETATM   31  C19 UNL     1       7.800   2.159   0.442  1.00  0.00     0.678 A 
ATOM     32  H3  UNL     1       8.127   4.157   0.736  1.00  0.00     0.183 HD
HETATM   33  N5  UNL     1       6.856   1.249   0.235  1.00  0.00    -0.165 N 
ATOM     34  H5  UNL     1       7.161   0.280   0.138  1.00  0.00     0.187 HD
BRANCH  31  35
HETATM   35  N4  UNL     1       9.061   1.807   0.510  1.00  0.00    -0.234 N 
ATOM     36  H42 UNL     1       9.786   2.506   0.669  1.00  0.00     0.174 HD
ATOM     37  H41 UNL     1       9.348   0.833   0.409  1.00  0.00     0.174 HD
ENDBRANCH  31  35
ENDBRANCH  26  27
ENDBRANCH   4  26
TORSDOF 17
