REMARK  8 active torsions:
REMARK  status: ('A' for Active; 'I' for Inactive)
REMARK    1  A    between atoms: O1_2  and  C2_3 
REMARK    2  A    between atoms: C5_6  and  N1_7 
REMARK    3  A    between atoms: C7_10  and  C8_11 
REMARK    4  A    between atoms: C8_11  and  C9_12 
REMARK    5  A    between atoms: C13_16  and  O3_17 
REMARK    6  A    between atoms: C16_22  and  N2_23 
REMARK    7  A    between atoms: N2_23  and  C17_25 
REMARK    8  A    between atoms: C21_29  and  O5_30 
ROOT
HETATM    1  N1  UNL     1       0.007   0.692   0.120  1.00  0.00    -0.260 N 
HETATM    2  C6  UNL     1      -1.379   0.677  -0.260  1.00  0.00     0.268 A 
HETATM    3  O2  UNL     1      -2.042   1.717  -0.606  1.00  0.00    -0.267 OA
HETATM    4  C7  UNL     1      -1.862  -0.677  -0.176  1.00  0.00     0.087 A 
HETATM    5  C15 UNL     1      -0.724  -1.538   0.277  1.00  0.00     0.232 A 
HETATM    6  O4  UNL     1      -0.792  -2.778   0.458  1.00  0.00    -0.283 OA
HETATM    7  C16 UNL     1       0.389  -0.630   0.438  1.00  0.00     0.168 A 
ENDROOT
BRANCH   7   8
HETATM    8  N2  UNL     1       1.574  -0.954   0.819  1.00  0.00    -0.339 N 
ATOM      9  H2  UNL     1       2.249  -0.192   0.884  1.00  0.00     0.167 HD
BRANCH   8  10
HETATM   10  C17 UNL     1       2.044  -2.222   1.153  1.00  0.00     0.036 A 
HETATM   11  C18 UNL     1       1.692  -2.893   2.299  1.00  0.00     0.029 A 
HETATM   12  C19 UNL     1       2.213  -4.144   2.538  1.00  0.00     0.005 A 
HETATM   13  C20 UNL     1       3.093  -4.773   1.661  1.00  0.00     0.037 A 
HETATM   14  C21 UNL     1       3.450  -4.103   0.508  1.00  0.00     0.070 A 
HETATM   15  C23 UNL     1       2.915  -2.852   0.292  1.00  0.00     0.066 A 
BRANCH  14  16
HETATM   16  O5  UNL     1       4.323  -4.735  -0.355  1.00  0.00    -0.356 OA
HETATM   17  C22 UNL     1       4.769  -4.161  -1.568  1.00  0.00     0.210 C 
ENDBRANCH  14  16
ENDBRANCH   8  10
ENDBRANCH   7   8
BRANCH   1  18
HETATM   18  C5  UNL     1       0.815   1.860   0.151  1.00  0.00     0.044 A 
HETATM   19  C4  UNL     1       1.834   1.932  -0.792  1.00  0.00     0.033 A 
HETATM   20  C3  UNL     1       2.662   3.036  -0.823  1.00  0.00     0.039 A 
HETATM   21  C2  UNL     1       2.469   4.066   0.089  1.00  0.00     0.068 A 
HETATM   22  C25 UNL     1       1.453   3.970   1.012  1.00  0.00     0.039 A 
HETATM   23  C24 UNL     1       0.621   2.862   1.043  1.00  0.00     0.033 A 
BRANCH  21  24
HETATM   24  O1  UNL     1       3.289   5.183   0.074  1.00  0.00    -0.356 OA
HETATM   25  C1  UNL     1       3.141   6.256   0.973  1.00  0.00     0.210 C 
ENDBRANCH  21  24
ENDBRANCH   1  18
BRANCH   4  26
HETATM   26  C8  UNL     1      -3.057  -1.171  -0.452  1.00  0.00     0.032 C 
BRANCH  26  27
HETATM   27  C9  UNL     1      -4.206  -0.449  -0.925  1.00  0.00    -0.033 A 
HETATM   28  C10 UNL     1      -4.273   0.338  -2.051  1.00  0.00     0.011 A 
HETATM   29  C11 UNL     1      -5.416   1.019  -2.418  1.00  0.00     0.004 A 
HETATM   30  C12 UNL     1      -6.568   0.944  -1.665  1.00  0.00     0.036 A 
HETATM   31  C13 UNL     1      -6.515   0.158  -0.535  1.00  0.00     0.066 A 
HETATM   32  C14 UNL     1      -5.390  -0.517  -0.165  1.00  0.00     0.048 A 
BRANCH  31  33
HETATM   33  O3  UNL     1      -7.696   0.087   0.227  1.00  0.00    -0.361 OA
ATOM     34  H3  UNL     1      -7.659  -0.455   1.006  1.00  0.00     0.217 HD
ENDBRANCH  31  33
ENDBRANCH  26  27
ENDBRANCH   4  26
TORSDOF 8
