REMARK  11 active torsions:
REMARK  status: ('A' for Active; 'I' for Inactive)
REMARK    1  A    between atoms: N1_1  and  N2_4 
REMARK    2  A    between atoms: N2_4  and  C1_6 
REMARK    3  A    between atoms: C1_6  and  N3_7 
REMARK    4  A    between atoms: C1_6  and  C3_12 
REMARK       I    between atoms: N3_7  and  C2_9 
REMARK    5  A    between atoms: C3_12  and  N6_13 
REMARK    6  A    between atoms: C3_12  and  C6_28 
REMARK    7  A    between atoms: N6_13  and  C4_15 
REMARK    8  A    between atoms: C5_20  and  S1_21 
REMARK    9  A    between atoms: S1_21  and  N9_22 
REMARK   10  A    between atoms: C6_28  and  O4_29 
REMARK   11  A    between atoms: C6_28  and  O5_31 
ROOT
HETATM    1  C3  UNL     1      -0.587  -0.371  -0.411  1.00  0.00     0.209 C 
ENDROOT
BRANCH   1   2
HETATM    2  C1  UNL     1      -1.620   0.442   0.266  1.00  0.00     0.125 C 
BRANCH   2   3
HETATM    3  N2  UNL     1      -1.978   0.142   1.459  1.00  0.00    -0.294 N 
ATOM      4  H2  UNL     1      -2.690   0.698   1.933  1.00  0.00     0.187 HD
BRANCH   3   5
HETATM    5  N1  UNL     1      -1.395  -0.944   2.109  1.00  0.00    -0.344 N 
ATOM      6  H12 UNL     1      -0.685  -1.490   1.621  1.00  0.00     0.176 HD
ATOM      7  H11 UNL     1      -1.680  -1.183   3.059  1.00  0.00     0.176 HD
ENDBRANCH   3   5
ENDBRANCH   2   3
BRANCH   2   8
HETATM    8  N3  UNL     1      -2.214   1.554  -0.406  1.00  0.00    -0.320 N 
HETATM    9  C2  UNL     1      -3.491   1.744  -0.419  1.00  0.00     0.202 C 
HETATM   10  N4  UNL     1      -4.398   0.866   0.232  1.00  0.00    -0.066 NA
HETATM   11  N5  UNL     1      -3.976   2.872  -1.111  1.00  0.00    -0.066 NA
ATOM     12  H3  UNL     1      -1.611   2.218  -0.891  1.00  0.00     0.169 HD
ENDBRANCH   2   8
ENDBRANCH   1   2
BRANCH   1  13
HETATM   13  N6  UNL     1       0.506   0.481  -0.740  1.00  0.00    -0.338 N 
ATOM     14  H6  UNL     1       0.272   1.314  -1.281  1.00  0.00     0.164 HD
BRANCH  13  15
HETATM   15  C4  UNL     1       1.724   0.340  -0.450  1.00  0.00     0.242 A 
HETATM   16  N7  UNL     1       2.676   1.215  -0.817  1.00  0.00    -0.262 N 
HETATM   17  N8  UNL     1       3.843   0.792  -0.365  1.00  0.00    -0.265 N 
ATOM     18  H7  UNL     1       2.522   2.067  -1.357  1.00  0.00     0.190 HD
HETATM   19  C5  UNL     1       3.625  -0.360   0.294  1.00  0.00     0.284 A 
ATOM     20  H8  UNL     1       4.743   1.254  -0.492  1.00  0.00     0.190 HD
HETATM   21  O3  UNL     1       2.341  -0.598   0.220  1.00  0.00    -0.248 OA
BRANCH  19  22
HETATM   22  S1  UNL     1       4.888  -1.280   1.061  1.00  0.00     0.297 S 
HETATM   23  O1  UNL     1       4.616  -2.755   1.017  1.00  0.00    -0.197 OA
HETATM   24  O2  UNL     1       6.168  -1.049   0.315  1.00  0.00    -0.197 OA
BRANCH  22  25
HETATM   25  N9  UNL     1       5.086  -0.762   2.689  1.00  0.00    -0.321 N 
ATOM     26  H92 UNL     1       4.536  -0.023   3.126  1.00  0.00     0.169 HD
ATOM     27  H91 UNL     1       5.826  -1.301   3.138  1.00  0.00     0.169 HD
ENDBRANCH  22  25
ENDBRANCH  19  22
ENDBRANCH  13  15
ENDBRANCH   1  13
BRANCH   1  28
HETATM   28  C6  UNL     1      -1.232  -1.048  -1.582  1.00  0.00     0.284 C 
BRANCH  28  29
HETATM   29  O4  UNL     1      -1.716  -0.066  -2.447  1.00  0.00    -0.369 OA
ATOM     30  H4  UNL     1      -2.125  -0.495  -3.189  1.00  0.00     0.212 HD
ENDBRANCH  28  29
BRANCH  28  31
HETATM   31  O5  UNL     1      -0.436  -1.942  -2.236  1.00  0.00    -0.369 OA
ATOM     32  H5  UNL     1      -0.845  -2.371  -2.978  1.00  0.00     0.212 HD
ENDBRANCH  28  31
ENDBRANCH   1  28
TORSDOF 11
