REMARK  9 active torsions:
REMARK  status: ('A' for Active; 'I' for Inactive)
REMARK    1  A    between atoms: N1_1  and  C1_4 
REMARK    2  A    between atoms: C2_7  and  O1_8 
REMARK    3  A    between atoms: C3_12  and  C4_13 
REMARK       I    between atoms: C4_13  and  N4_15 
REMARK    4  A    between atoms: N4_15  and  C5_17 
REMARK    5  A    between atoms: C5_17  and  C6_18 
REMARK    6  A    between atoms: C5_17  and  C7_21 
REMARK       I    between atoms: C7_21  and  N6_23 
REMARK    7  A    between atoms: N6_23  and  N7_25 
REMARK    8  A    between atoms: C8_28  and  N8_29 
REMARK    9  A    between atoms: N8_29  and  O5_31 
ROOT
HETATM    1  C1  UNL     1      -3.927  -1.369  -1.163  1.00  0.00     0.133 A 
HETATM    2  N2  UNL     1      -4.465  -0.178  -0.848  1.00  0.00    -0.307 N 
ATOM      3  H2  UNL     1      -5.472  -0.037  -0.934  1.00  0.00     0.171 HD
HETATM    4  C2  UNL     1      -3.684   0.828  -0.421  1.00  0.00     0.223 A 
HETATM    5  N3  UNL     1      -2.355   0.677  -0.298  1.00  0.00    -0.316 N 
ATOM      6  H3  UNL     1      -1.789   1.460   0.029  1.00  0.00     0.169 HD
HETATM    7  C3  UNL     1      -1.756  -0.493  -0.599  1.00  0.00     0.136 A 
HETATM    8  C8  UNL     1      -2.562  -1.518  -1.035  1.00  0.00     0.130 A 
ENDROOT
BRANCH   7   9
HETATM    9  C4  UNL     1      -0.329  -0.706  -0.482  1.00  0.00     0.271 C 
HETATM   10  O2  UNL     1       0.150  -1.818  -0.780  1.00  0.00    -0.266 OA
HETATM   11  N4  UNL     1       0.504   0.330  -0.040  1.00  0.00    -0.335 N 
ATOM     12  H4  UNL     1       0.074   1.225   0.193  1.00  0.00     0.164 HD
BRANCH  11  13
HETATM   13  C5  UNL     1       1.943   0.205   0.106  1.00  0.00     0.268 C 
BRANCH  13  14
HETATM   14  C6  UNL     1       2.593   1.119  -0.859  1.00  0.00     0.263 C 
HETATM   15  N5  UNL     1       4.003   1.251  -0.996  1.00  0.00    -0.060 NA
HETATM   16  O3  UNL     1       1.876   1.821  -1.605  1.00  0.00    -0.274 OA
ENDBRANCH  13  14
BRANCH  13  17
HETATM   17  C7  UNL     1       2.365   0.416   1.508  1.00  0.00     0.267 C 
HETATM   18  O4  UNL     1       1.474   0.686   2.376  1.00  0.00    -0.269 OA
HETATM   19  N6  UNL     1       3.702   0.340   1.966  1.00  0.00    -0.274 N 
ATOM     20  H6  UNL     1       4.437   0.124   1.293  1.00  0.00     0.189 HD
BRANCH  19  21
HETATM   21  N7  UNL     1       4.054   0.545   3.285  1.00  0.00    -0.343 N 
ATOM     22  H72 UNL     1       3.306   0.759   3.945  1.00  0.00     0.176 HD
ATOM     23  H71 UNL     1       5.018   0.490   3.615  1.00  0.00     0.176 HD
ENDBRANCH  19  21
ENDBRANCH  13  17
ENDBRANCH  11  13
ENDBRANCH   7   9
BRANCH   8  24
HETATM   24  N8  UNL     1      -1.989  -2.773  -1.366  1.00  0.00    -0.263 N 
ATOM     25  H8  UNL     1      -1.493  -2.922  -2.245  1.00  0.00     0.194 HD
BRANCH  24  26
HETATM   26  O5  UNL     1      -2.126  -3.694  -0.517  1.00  0.00    -0.289 OA
ATOM     27  H5  UNL     1      -1.742  -4.534  -0.739  1.00  0.00     0.244 HD
ENDBRANCH  24  26
ENDBRANCH   8  24
BRANCH   4  28
HETATM   28  O1  UNL     1      -4.264   2.055  -0.100  1.00  0.00    -0.332 OA
ATOM     29  H1  UNL     1      -3.712   2.766   0.202  1.00  0.00     0.220 HD
ENDBRANCH   4  28
BRANCH   1  30
HETATM   30  N1  UNL     1      -4.660  -2.345  -1.574  1.00  0.00    -0.383 N 
ATOM     31  H12 UNL     1      -5.670  -2.235  -1.669  1.00  0.00     0.157 HD
ATOM     32  H11 UNL     1      -4.252  -3.249  -1.813  1.00  0.00     0.157 HD
ENDBRANCH   1  30
TORSDOF 9
