REMARK  10 active torsions:
REMARK  status: ('A' for Active; 'I' for Inactive)
REMARK    1  A    between atoms: N1_1  and  C1_4 
REMARK    2  A    between atoms: C2_7  and  N3_8 
REMARK    3  A    between atoms: N3_8  and  N4_10 
REMARK    4  A    between atoms: N7_19  and  C5_20 
REMARK    5  A    between atoms: C5_20  and  C6_21 
REMARK    6  A    between atoms: C6_21  and  C7_23 
REMARK    7  A    between atoms: C7_23  and  C8_24 
REMARK    8  A    between atoms: C8_24  and  N8_25 
REMARK    9  A    between atoms: C8_24  and  C9_29 
REMARK   10  A    between atoms: N9_32  and  N10_33 
ROOT
HETATM    1  C1  UNL     1      -4.136  -0.273  -0.618  1.00  0.00     0.700 A 
HETATM    2  N2  UNL     1      -3.265   0.743  -0.732  1.00  0.00    -0.171 N 
ATOM      3  H2  UNL     1      -3.506   1.557  -1.298  1.00  0.00     0.186 HD
HETATM    4  C2  UNL     1      -2.077   0.693  -0.104  1.00  0.00     0.167 A 
HETATM    5  C3  UNL     1      -1.769  -0.417   0.657  1.00  0.00     0.146 A 
HETATM    6  C4  UNL     1      -2.702  -1.469   0.760  1.00  0.00     0.193 A 
HETATM    7  N5  UNL     1      -2.115  -2.374   1.548  1.00  0.00    -0.267 N 
ATOM      8  H5  UNL     1      -2.525  -3.266   1.827  1.00  0.00     0.190 HD
HETATM    9  N6  UNL     1      -0.924  -1.937   1.910  1.00  0.00    -0.238 N 
ATOM     10  H6  UNL     1      -0.275  -2.444   2.512  1.00  0.00     0.208 HD
HETATM   11  N7  UNL     1      -0.691  -0.743   1.379  1.00  0.00    -0.264 N 
HETATM   12  N9  UNL     1      -3.876  -1.370   0.112  1.00  0.00    -0.073 N 
ENDROOT
BRANCH  11  13
HETATM   13  C5  UNL     1       0.507   0.019   1.582  1.00  0.00     0.229 C 
BRANCH  13  14
HETATM   14  C6  UNL     1       1.537  -0.242   0.539  1.00  0.00     0.149 C 
HETATM   15  O1  UNL     1       1.397  -1.006  -0.382  1.00  0.00    -0.296 OA
BRANCH  14  16
HETATM   16  C7  UNL     1       2.820   0.503   0.661  1.00  0.00     0.124 C 
BRANCH  16  17
HETATM   17  C8  UNL     1       3.776   0.146  -0.459  1.00  0.00     0.290 C 
BRANCH  17  18
HETATM   18  N8  UNL     1       4.056  -1.255  -0.412  1.00  0.00    -0.065 N 
ATOM     19  H83 UNL     1       4.403  -1.550   0.501  1.00  0.00     0.275 HD
ATOM     20  H82 UNL     1       3.207  -1.820  -0.433  1.00  0.00     0.275 HD
ATOM     21  H81 UNL     1       4.700  -1.495  -1.166  1.00  0.00     0.275 HD
ENDBRANCH  17  18
BRANCH  17  22
HETATM   22  C9  UNL     1       5.023   0.944  -0.384  1.00  0.00     0.204 C 
HETATM   23  O2  UNL     1       4.918   2.196  -0.416  1.00  0.00    -0.646 OA
HETATM   24  O3  UNL     1       6.270   0.349  -0.282  1.00  0.00    -0.646 OA
ENDBRANCH  17  22
ENDBRANCH  16  17
ENDBRANCH  14  16
ENDBRANCH  13  14
ENDBRANCH  11  13
BRANCH   4  25
HETATM   25  N3  UNL     1      -1.207   1.635  -0.185  1.00  0.00    -0.290 N 
ATOM     26  H3  UNL     1      -0.316   1.562   0.306  1.00  0.00     0.188 HD
BRANCH  25  27
HETATM   27  N4  UNL     1      -1.504   2.760  -0.957  1.00  0.00    -0.344 N 
ATOM     28  H42 UNL     1      -2.400   2.817  -1.441  1.00  0.00     0.176 HD
ATOM     29  H41 UNL     1      -0.813   3.508  -1.021  1.00  0.00     0.176 HD
ENDBRANCH  25  27
ENDBRANCH   4  25
BRANCH  12  30
HETATM   30  N10 UNL     1      -4.808  -2.395   0.200  1.00  0.00    -0.322 N 
ATOM     31 2H10 UNL     1      -5.699  -2.320  -0.292  1.00  0.00     0.178 HD
ATOM     32 1H10 UNL     1      -4.611  -3.228   0.754  1.00  0.00     0.178 HD
ENDBRANCH  12  30
BRANCH   1  33
HETATM   33  N1  UNL     1      -5.261  -0.189  -1.232  1.00  0.00    -0.233 N 
ATOM     34  H12 UNL     1      -5.458   0.644  -1.786  1.00  0.00     0.174 HD
ATOM     35  H11 UNL     1      -5.922  -0.961  -1.145  1.00  0.00     0.174 HD
ENDBRANCH   1  33
TORSDOF 10
