REMARK  11 active torsions:
REMARK  status: ('A' for Active; 'I' for Inactive)
REMARK    1  A    between atoms: C9_15  and  C10_16 
REMARK    2  A    between atoms: C10_16  and  O2_17 
REMARK    3  A    between atoms: O2_17  and  C11_18 
REMARK    4  A    between atoms: C14_21  and  O3_22 
REMARK    5  A    between atoms: C15_24  and  C16_25 
REMARK    6  A    between atoms: C16_25  and  N4_26 
REMARK    7  A    between atoms: N4_26  and  C17_28 
REMARK    8  A    between atoms: C17_28  and  O4_32 
REMARK    9  A    between atoms: O4_32  and  C18_33 
REMARK   10  A    between atoms: C18_33  and  C19_34 
REMARK   11  A    between atoms: N6_35  and  O5_37 
ROOT
HETATM    1  C11 UNL     1      -0.187   0.507  -0.457  1.00  0.00     0.153 C 
HETATM    2  C12 UNL     1       0.717   0.581  -1.688  1.00  0.00     0.043 C 
HETATM    3  C13 UNL     1       1.398  -0.672  -1.181  1.00  0.00     0.052 C 
HETATM    4  C14 UNL     1       2.887  -0.583  -1.061  1.00  0.00     0.156 C 
HETATM    5  C15 UNL     1       3.094   0.430   0.019  1.00  0.00     0.233 C 
HETATM    6  N7  UNL     1       1.881   0.534   0.796  1.00  0.00    -0.060 N 
ATOM      7  H71 UNL     1       1.560   1.497   0.897  1.00  0.00     0.278 HD
ATOM      8  H72 UNL     1       2.029   0.334   1.785  1.00  0.00     0.278 HD
HETATM    9  C20 UNL     1       0.896  -0.316   0.203  1.00  0.00     0.221 C 
ENDROOT
BRANCH   1  10
HETATM   10  O2  UNL     1      -1.347  -0.195  -0.782  1.00  0.00    -0.383 OA
BRANCH  10  11
HETATM   11  C10 UNL     1      -2.417   0.568  -0.353  1.00  0.00     0.175 C 
BRANCH  11  12
HETATM   12  C9  UNL     1      -3.756  -0.074  -0.642  1.00  0.00     0.040 C 
HETATM   13  C3  UNL     1      -3.719  -1.410   0.115  1.00  0.00     0.091 C 
HETATM   14  N3  UNL     1      -4.946  -2.262  -0.581  1.00  0.00    -0.350 N 
HETATM   15  C4  UNL     1      -4.258  -1.084   1.439  1.00  0.00     0.028 C 
HETATM   16  C2  UNL     1      -5.697  -1.230  -1.116  1.00  0.00     0.234 C 
ATOM     17  H3  UNL     1      -5.107  -3.269  -0.610  1.00  0.00     0.163 HD
HETATM   18  N2  UNL     1      -6.216  -0.935   0.091  1.00  0.00    -0.264 N 
HETATM   19  O1  UNL     1      -6.003  -0.532  -2.204  1.00  0.00    -0.321 OA
HETATM   20  N1  UNL     1      -6.979  -0.033   0.543  1.00  0.00    -0.305 N 
ATOM     21  H2  UNL     1      -5.925  -1.595   0.812  1.00  0.00     0.190 HD
HETATM   22  C1  UNL     1      -8.117   0.540   0.960  1.00  0.00     0.143 C 
HETATM   23  C6  UNL     1      -5.655   1.008   0.738  1.00  0.00     0.113 C 
HETATM   24  C5  UNL     1      -4.894   0.209   1.787  1.00  0.00     0.030 C 
HETATM   25  C7  UNL     1      -4.869   0.891  -0.529  1.00  0.00     0.043 C 
HETATM   26  C8  UNL     1      -5.638   0.960  -1.866  1.00  0.00     0.186 C 
ENDBRANCH  11  12
ENDBRANCH  10  11
ENDBRANCH   1  10
BRANCH   4  27
HETATM   27  O3  UNL     1       3.483  -0.225  -2.278  1.00  0.00    -0.393 OA
ATOM     28  H3  UNL     1       4.428  -0.169  -2.202  1.00  0.00     0.210 HD
ENDBRANCH   4  27
BRANCH   5  29
HETATM   29  C16 UNL     1       4.205   0.052   0.967  1.00  0.00     0.159 C 
BRANCH  29  30
HETATM   30  N4  UNL     1       5.433  -0.064   0.221  1.00  0.00    -0.354 N 
ATOM     31  H4  UNL     1       5.432   0.105  -0.785  1.00  0.00     0.163 HD
BRANCH  30  32
HETATM   32  C17 UNL     1       6.649  -0.414   0.879  1.00  0.00     0.212 C 
HETATM   33  N5  UNL     1       6.624  -1.116   1.949  1.00  0.00    -0.365 N 
ATOM     34  H52 UNL     1       5.732  -1.427   2.334  1.00  0.00     0.159 HD
ATOM     35  H51 UNL     1       7.494  -1.366   2.420  1.00  0.00     0.159 HD
BRANCH  32  36
HETATM   36  O4  UNL     1       7.845   0.003   0.362  1.00  0.00    -0.317 OA
BRANCH  36  37
HETATM   37  C18 UNL     1       9.051  -0.610   0.736  1.00  0.00     0.225 C 
BRANCH  37  38
HETATM   38  C19 UNL     1      10.175   0.046   0.022  1.00  0.00     0.113 C 
HETATM   39  N6  UNL     1      10.134   1.309  -0.159  1.00  0.00    -0.282 N 
ATOM     40  H6  UNL     1      10.904   1.765  -0.648  1.00  0.00     0.192 HD
BRANCH  39  41
HETATM   41  O5  UNL     1       9.085   2.067   0.286  1.00  0.00    -0.290 OA
ATOM     42  H5  UNL     1       9.054   3.007   0.151  1.00  0.00     0.244 HD
ENDBRANCH  39  41
ENDBRANCH  37  38
ENDBRANCH  36  37
ENDBRANCH  32  36
ENDBRANCH  30  32
ENDBRANCH  29  30
ENDBRANCH   5  29
TORSDOF 11
