REMARK  11 active torsions:
REMARK  status: ('A' for Active; 'I' for Inactive)
REMARK    1  A    between atoms: O1_2  and  C2_3 
REMARK    2  A    between atoms: C3_4  and  N1_5 
REMARK    3  A    between atoms: C5_10  and  N2_11 
REMARK    4  A    between atoms: C6_15  and  O2_16 
REMARK    5  A    between atoms: O2_16  and  C7_17 
REMARK    6  A    between atoms: C9_19  and  N3_20 
REMARK       I    between atoms: N3_20  and  C10_22 
REMARK    7  A    between atoms: C10_22  and  C11_24 
REMARK    8  A    between atoms: C11_24  and  C12_26 
REMARK    9  A    between atoms: C17_33  and  N5_34 
REMARK   10  A    between atoms: C19_39  and  N6_40 
REMARK   11  A    between atoms: C20_44  and  O5_45 
ROOT
HETATM    1  C7  UNL     1      -0.143  -1.919  -1.289  1.00  0.00     0.154 C 
HETATM    2  C8  UNL     1       1.169  -1.219  -0.962  1.00  0.00     0.061 C 
HETATM    3  C9  UNL     1       1.300   0.120  -1.601  1.00  0.00     0.117 C 
HETATM    4  C17 UNL     1       1.146  -0.007  -3.125  1.00  0.00     0.208 C 
HETATM    5  C18 UNL     1      -0.297  -0.448  -3.307  1.00  0.00     0.070 C 
HETATM    6  C19 UNL     1      -0.346  -1.871  -2.771  1.00  0.00     0.214 C 
ENDROOT
BRANCH   1   7
HETATM    7  O2  UNL     1      -1.210  -1.430  -0.645  1.00  0.00    -0.374 OA
BRANCH   7   8
HETATM    8  C6  UNL     1      -1.857  -2.177   0.311  1.00  0.00     0.183 C 
HETATM    9  C5  UNL     1      -3.324  -2.297   0.225  1.00  0.00     0.217 C 
HETATM   10  C4  UNL     1      -3.946  -2.408   1.604  1.00  0.00     0.071 C 
HETATM   11  C3  UNL     1      -3.860  -1.127   2.395  1.00  0.00     0.216 C 
HETATM   12  C2  UNL     1      -2.572  -0.434   2.005  1.00  0.00     0.182 C 
HETATM   13  C20 UNL     1      -1.512  -1.428   1.609  1.00  0.00     0.182 C 
BRANCH   9  14
HETATM   14  N2  UNL     1      -3.807  -3.494  -0.462  1.00  0.00    -0.072 N 
ATOM     15  H23 UNL     1      -3.608  -4.369   0.023  1.00  0.00     0.274 HD
ATOM     16  H22 UNL     1      -4.821  -3.601  -0.463  1.00  0.00     0.274 HD
ATOM     17  H21 UNL     1      -3.389  -3.419  -1.389  1.00  0.00     0.274 HD
ENDBRANCH   9  14
BRANCH  11  18
HETATM   18  N1  UNL     1      -3.936  -1.304   3.810  1.00  0.00    -0.072 N 
ATOM     19  H13 UNL     1      -3.119  -1.796   4.172  1.00  0.00     0.274 HD
ATOM     20  H12 UNL     1      -3.818  -0.421   4.307  1.00  0.00     0.274 HD
ATOM     21  H11 UNL     1      -4.804  -1.771   4.073  1.00  0.00     0.274 HD
ENDBRANCH  11  18
BRANCH  12  22
HETATM   22  O1  UNL     1      -2.741   0.505   0.999  1.00  0.00    -0.386 OA
HETATM   23  C1  UNL     1      -2.382   1.779   1.413  1.00  0.00     0.202 C 
ENDBRANCH  12  22
BRANCH  13  24
HETATM   24  O5  UNL     1      -1.246  -2.326   2.631  1.00  0.00    -0.385 OA
HETATM   25  C21 UNL     1       0.071  -2.152   3.117  1.00  0.00     0.202 C 
ENDBRANCH  13  24
ENDBRANCH   7   8
ENDBRANCH   1   7
BRANCH   6  26
HETATM   26  N6  UNL     1      -1.644  -2.384  -3.135  1.00  0.00    -0.072 N 
ATOM     27  H63 UNL     1      -1.794  -3.323  -2.766  1.00  0.00     0.274 HD
ATOM     28  H62 UNL     1      -2.392  -1.900  -2.638  1.00  0.00     0.274 HD
ATOM     29  H61 UNL     1      -1.782  -2.351  -4.145  1.00  0.00     0.274 HD
ENDBRANCH   6  26
BRANCH   3  30
HETATM   30  N3  UNL     1       2.568   0.701  -1.322  1.00  0.00    -0.347 N 
HETATM   31  C10 UNL     1       2.764   1.994  -0.749  1.00  0.00     0.292 C 
HETATM   32  O3  UNL     1       1.749   2.641  -0.488  1.00  0.00    -0.264 OA
ATOM     33  H3  UNL     1       3.398   0.154  -1.548  1.00  0.00     0.163 HD
BRANCH  31  34
HETATM   34  C11 UNL     1       4.092   2.490  -0.500  1.00  0.00     0.250 C 
HETATM   35  O4  UNL     1       5.096   1.732  -0.794  1.00  0.00    -0.281 OA
BRANCH  34  36
HETATM   36  C12 UNL     1       4.465   3.774   0.056  1.00  0.00     0.035 A 
HETATM   37  C13 UNL     1       3.555   4.726   0.425  1.00  0.00     0.018 A 
HETATM   38  C14 UNL     1       3.969   5.941   0.951  1.00  0.00     0.018 A 
HETATM   39  C15 UNL     1       5.292   6.243   1.126  1.00  0.00     0.087 A 
HETATM   40  N4  UNL     1       6.169   5.282   0.754  1.00  0.00    -0.374 N 
HETATM   41  C16 UNL     1       5.812   4.104   0.244  1.00  0.00     0.103 A 
ATOM     42  H4  UNL     1       7.164   5.471   0.871  1.00  0.00     0.164 HD
ENDBRANCH  34  36
ENDBRANCH  31  34
ENDBRANCH   3  30
BRANCH   4  43
HETATM   43  N5  UNL     1       1.985  -1.055  -3.642  1.00  0.00    -0.073 N 
ATOM     44  H53 UNL     1       2.960  -0.924  -3.372  1.00  0.00     0.274 HD
ATOM     45  H52 UNL     1       1.811  -1.943  -3.171  1.00  0.00     0.274 HD
ATOM     46  H51 UNL     1       1.883  -1.139  -4.653  1.00  0.00     0.274 HD
ENDBRANCH   4  43
TORSDOF 11
