REMARK  5 active torsions:
REMARK  status: ('A' for Active; 'I' for Inactive)
REMARK    1  A    between atoms: N1_1  and  C1_4 
REMARK    2  A    between atoms: C5_16  and  O3_17 
REMARK    3  A    between atoms: C6_19  and  C7_20 
REMARK    4  A    between atoms: C7_20  and  N6_21 
REMARK    5  A    between atoms: N6_21  and  C8_23 
ROOT
HETATM    1  C1  UNL     1      -2.628   1.736   0.187  1.00  0.00     0.145 A 
HETATM    2  N2  UNL     1      -3.519   0.771   0.457  1.00  0.00    -0.258 N 
ATOM      3  H2  UNL     1      -4.496   1.015   0.617  1.00  0.00     0.191 HD
HETATM    4  N3  UNL     1      -3.141  -0.495   0.517  1.00  0.00    -0.129 N 
HETATM    5  C2  UNL     1      -3.921  -1.568   0.777  1.00  0.00     0.365 A 
HETATM    6  O1  UNL     1      -5.176  -1.521   1.011  1.00  0.00    -0.243 OA
HETATM    7  N4  UNL     1      -3.131  -2.641   0.738  1.00  0.00    -0.256 N 
ATOM      8  H4  UNL     1      -3.435  -3.602   0.896  1.00  0.00     0.175 HD
HETATM    9  C3  UNL     1      -1.854  -2.256   0.455  1.00  0.00     0.351 A 
HETATM   10  O2  UNL     1      -0.940  -3.085   0.367  1.00  0.00    -0.244 OA
HETATM   11  N5  UNL     1      -1.897  -0.927   0.325  1.00  0.00    -0.174 N 
HETATM   12  C4  UNL     1      -0.954   0.009   0.048  1.00  0.00     0.128 A 
HETATM   13  C5  UNL     1       0.344  -0.352  -0.162  1.00  0.00     0.109 A 
HETATM   14  C6  UNL     1       1.277   0.639  -0.442  1.00  0.00     0.051 A 
HETATM   15  C10 UNL     1       0.911   1.948  -0.508  1.00  0.00     0.103 A 
HETATM   16  N8  UNL     1      -0.369   2.268  -0.298  1.00  0.00    -0.360 N 
ATOM     17  H8  UNL     1      -0.635   3.251  -0.349  1.00  0.00     0.165 HD
HETATM   18  C11 UNL     1      -1.321   1.368  -0.024  1.00  0.00     0.109 A 
ENDROOT
BRANCH  14  19
HETATM   19  C7  UNL     1       2.693   0.263  -0.644  1.00  0.00     0.255 A 
HETATM   20  C9  UNL     1       3.030  -0.084  -2.068  1.00  0.00     0.302 A 
HETATM   21  N7  UNL     1       3.515   1.127  -1.486  1.00  0.00    -0.038 N 
ATOM     22  H72 UNL     1       3.453   2.109  -1.755  1.00  0.00     0.280 HD
ATOM     23  H71 UNL     1       4.446   1.530  -1.379  1.00  0.00     0.280 HD
BRANCH  19  24
HETATM   24  N6  UNL     1       3.435  -0.380   0.419  1.00  0.00    -0.330 N 
ATOM     25  H6  UNL     1       4.164  -1.048   0.169  1.00  0.00     0.164 HD
BRANCH  24  26
HETATM   26  C8  UNL     1       3.196  -0.125   1.784  1.00  0.00     0.350 C 
HETATM   27  O4  UNL     1       2.313   0.688   2.171  1.00  0.00    -0.284 OA
ENDBRANCH  24  26
ENDBRANCH  19  24
ENDBRANCH  14  19
BRANCH  13  28
HETATM   28  O3  UNL     1       0.770  -1.644  -0.111  1.00  0.00    -0.358 OA
ATOM     29  H3  UNL     1       1.674  -1.896  -0.257  1.00  0.00     0.217 HD
ENDBRANCH  13  28
BRANCH   1  30
HETATM   30  N1  UNL     1      -2.953   2.984   0.119  1.00  0.00    -0.382 N 
ATOM     31  H12 UNL     1      -3.923   3.257   0.276  1.00  0.00     0.157 HD
ATOM     32  H11 UNL     1      -2.275   3.718  -0.086  1.00  0.00     0.157 HD
ENDBRANCH   1  30
TORSDOF 5
