REMARK  7 active torsions:
REMARK  status: ('A' for Active; 'I' for Inactive)
REMARK    1  A    between atoms: N1_1  and  C1_4 
REMARK    2  A    between atoms: C2_10  and  C3_11 
REMARK       I    between atoms: C3_11  and  N4_13 
REMARK    3  A    between atoms: N4_13  and  C4_15 
REMARK    4  A    between atoms: C6_20  and  C7_21 
REMARK    5  A    between atoms: C8_22  and  N7_23 
REMARK    6  A    between atoms: N7_23  and  C9_25 
REMARK    7  A    between atoms: C13_37  and  N10_38 
ROOT
HETATM    1  C4  UNL     1       1.965  -0.266   0.325  1.00  0.00     0.090 A 
HETATM    2  C5  UNL     1       1.179  -1.359   0.501  1.00  0.00     0.151 A 
HETATM    3  N5  UNL     1      -0.138  -1.078   0.253  1.00  0.00    -0.239 N 
HETATM    4  N6  UNL     1      -1.362  -1.567   0.216  1.00  0.00    -0.270 N 
ATOM      5  H6  UNL     1      -1.631  -2.528   0.427  1.00  0.00     0.190 HD
HETATM    6  C6  UNL     1      -2.214  -0.550  -0.159  1.00  0.00     0.184 A 
HETATM    7  O6  UNL     1      -1.439   0.466  -0.317  1.00  0.00    -0.270 OA
HETATM    8  C12 UNL     1      -0.172   0.216  -0.084  1.00  0.00     0.206 A 
HETATM    9  C13 UNL     1       1.107   0.760  -0.053  1.00  0.00     0.184 A 
ENDROOT
BRANCH   1  10
HETATM   10  N4  UNL     1       3.362  -0.039   0.452  1.00  0.00    -0.318 N 
HETATM   11  C3  UNL     1       4.291  -1.015   0.829  1.00  0.00     0.278 C 
HETATM   12  O2  UNL     1       3.840  -2.184   1.073  1.00  0.00    -0.265 OA
ATOM     13  H4  UNL     1       3.711   0.899   0.255  1.00  0.00     0.169 HD
BRANCH  11  14
HETATM   14  C2  UNL     1       5.723  -0.844   0.976  1.00  0.00     0.169 A 
HETATM   15  C1  UNL     1       6.503   0.254   0.793  1.00  0.00     0.155 A 
HETATM   16  N2  UNL     1       7.792  -0.077   1.052  1.00  0.00    -0.224 N 
HETATM   17  O1  UNL     1       7.798  -1.326   1.380  1.00  0.00    -0.155 OA
ATOM     18  H2  UNL     1       8.601   0.542   0.998  1.00  0.00     0.198 HD
HETATM   19  N3  UNL     1       6.610  -1.821   1.351  1.00  0.00    -0.233 N 
ATOM     20  H3  UNL     1       6.367  -2.787   1.572  1.00  0.00     0.197 HD
BRANCH  15  21
HETATM   21  N1  UNL     1       6.162   1.425   0.441  1.00  0.00    -0.382 N 
ATOM     22  H12 UNL     1       6.747   2.249   0.304  1.00  0.00     0.157 HD
ATOM     23  H11 UNL     1       5.192   1.674   0.246  1.00  0.00     0.157 HD
ENDBRANCH  15  21
ENDBRANCH  11  14
ENDBRANCH   1  10
BRANCH   9  24
HETATM   24  N10 UNL     1       1.398   2.114  -0.362  1.00  0.00    -0.109 N 
HETATM   25  O7  UNL     1       1.946   2.461  -1.405  1.00  0.00    -0.532 OA
HETATM   26  O8  UNL     1       1.044   3.068   0.555  1.00  0.00    -0.532 OA
ENDBRANCH   9  24
BRANCH   6  27
HETATM   27  C7  UNL     1      -3.655  -0.699  -0.313  1.00  0.00     0.129 A 
HETATM   28  C8  UNL     1      -4.511   0.306  -0.683  1.00  0.00     0.131 A 
HETATM   29  N8  UNL     1      -5.847   0.012  -0.789  1.00  0.00    -0.293 N 
HETATM   30  C10 UNL     1      -6.375  -1.196  -0.553  1.00  0.00     0.328 A 
ATOM     31  H8  UNL     1      -6.480   0.763  -1.066  1.00  0.00     0.172 HD
HETATM   32  O4  UNL     1      -7.609  -1.435  -0.659  1.00  0.00    -0.247 OA
HETATM   33  N9  UNL     1      -5.551  -2.188  -0.191  1.00  0.00    -0.275 N 
HETATM   34  C11 UNL     1      -4.236  -1.956  -0.073  1.00  0.00     0.267 A 
ATOM     35  H9  UNL     1      -5.924  -3.119  -0.005  1.00  0.00     0.173 HD
HETATM   36  O5  UNL     1      -3.452  -2.881   0.267  1.00  0.00    -0.267 OA
BRANCH  28  37
HETATM   37  N7  UNL     1      -4.032   1.595  -0.943  1.00  0.00    -0.319 N 
ATOM     38  H7  UNL     1      -3.033   1.781  -0.852  1.00  0.00     0.169 HD
BRANCH  37  39
HETATM   39  C9  UNL     1      -4.895   2.646  -1.328  1.00  0.00     0.354 C 
HETATM   40  O3  UNL     1      -4.427   3.809  -1.555  1.00  0.00    -0.283 OA
ENDBRANCH  37  39
ENDBRANCH  28  37
ENDBRANCH   6  27
TORSDOF 7
