REMARK  9 active torsions:
REMARK  status: ('A' for Active; 'I' for Inactive)
REMARK    1  A    between atoms: N3_11  and  C7_12 
REMARK    2  A    between atoms: C8_15  and  N5_16 
REMARK    3  A    between atoms: N5_16  and  C9_18 
REMARK    4  A    between atoms: C9_18  and  C10_19 
REMARK    5  A    between atoms: C10_19  and  O1_20 
REMARK    6  A    between atoms: C10_19  and  C11_22 
REMARK    7  A    between atoms: C11_22  and  N6_23 
REMARK    8  A    between atoms: C13_25  and  C14_26 
REMARK    9  A    between atoms: C15_41  and  N14_42 
ROOT
HETATM    1  C7  UNL     1      -2.847   0.053   0.335  1.00  0.00     0.719 A 
HETATM    2  N4  UNL     1      -1.949  -0.898   0.048  1.00  0.00    -0.021 N 
ATOM      3  H4  UNL     1      -1.948  -1.284  -0.896  1.00  0.00     0.203 HD
HETATM    4  C8  UNL     1      -1.041  -1.380   0.933  1.00  0.00     0.707 A 
HETATM    5  N13 UNL     1      -1.079  -0.845   2.155  1.00  0.00    -0.022 N 
ATOM      6  H13 UNL     1      -0.414  -1.176   2.854  1.00  0.00     0.203 HD
HETATM    7  C15 UNL     1      -1.974   0.131   2.512  1.00  0.00     0.705 A 
HETATM    8  N15 UNL     1      -2.833   0.550   1.584  1.00  0.00    -0.021 N 
ATOM      9  H15 UNL     1      -3.506   1.276   1.831  1.00  0.00     0.203 HD
ENDROOT
BRANCH   4  10
HETATM   10  N5  UNL     1      -0.209  -2.284   0.611  1.00  0.00    -0.223 N 
ATOM     11  H5  UNL     1      -0.286  -2.607  -0.353  1.00  0.00     0.177 HD
BRANCH  10  12
HETATM   12  C9  UNL     1       0.809  -2.920   1.367  1.00  0.00     0.171 C 
BRANCH  12  13
HETATM   13  C10 UNL     1       2.198  -2.389   1.071  1.00  0.00     0.156 C 
BRANCH  13  14
HETATM   14  O1  UNL     1       2.412  -2.627  -0.302  1.00  0.00    -0.392 OA
ATOM     15  H1  UNL     1       3.282  -2.294  -0.487  1.00  0.00     0.210 HD
ENDBRANCH  13  14
BRANCH  13  16
HETATM   16  C11 UNL     1       2.361  -0.948   1.404  1.00  0.00     0.183 C 
BRANCH  16  17
HETATM   17  N6  UNL     1       3.714  -0.533   1.089  1.00  0.00    -0.284 N 
HETATM   18  C12 UNL     1       4.123  -0.035  -0.110  1.00  0.00     0.146 A 
HETATM   19  C13 UNL     1       5.467   0.252  -0.051  1.00  0.00     0.113 A 
HETATM   20  N11 UNL     1       5.852  -0.080   1.191  1.00  0.00    -0.281 N 
HETATM   21  N12 UNL     1       4.794  -0.541   1.842  1.00  0.00    -0.240 N 
ATOM     22  H11 UNL     1       6.796   0.007   1.568  1.00  0.00     0.188 HD
ATOM     23  H12 UNL     1       4.814  -0.863   2.810  1.00  0.00     0.208 HD
BRANCH  19  24
HETATM   24  C14 UNL     1       6.346   0.799  -1.078  1.00  0.00     0.167 A 
HETATM   25  N7  UNL     1       7.658   1.070  -0.994  1.00  0.00    -0.267 N 
HETATM   26  N8  UNL     1       8.081   1.554  -2.144  1.00  0.00    -0.227 N 
ATOM     27  H7  UNL     1       8.238   0.924  -0.168  1.00  0.00     0.190 HD
HETATM   28  N9  UNL     1       7.062   1.599  -2.964  1.00  0.00    -0.227 N 
ATOM     29  H8  UNL     1       9.036   1.843  -2.358  1.00  0.00     0.210 HD
HETATM   30  N10 UNL     1       5.989   1.144  -2.342  1.00  0.00    -0.267 N 
ATOM     31  H9  UNL     1       7.092   1.932  -3.928  1.00  0.00     0.210 HD
ATOM     32  H10 UNL     1       5.054   1.065  -2.742  1.00  0.00     0.190 HD
ENDBRANCH  19  24
ENDBRANCH  16  17
ENDBRANCH  13  16
ENDBRANCH  12  13
ENDBRANCH  10  12
ENDBRANCH   4  10
BRANCH   1  33
HETATM   33  N3  UNL     1      -3.786   0.524  -0.644  1.00  0.00    -0.132 N 
HETATM   34  C2  UNL     1      -4.620  -0.237  -1.375  1.00  0.00     0.103 A 
HETATM   35  C1  UNL     1      -4.779  -1.717  -1.356  1.00  0.00     0.090 C 
HETATM   36  N1  UNL     1      -5.357   0.558  -2.194  1.00  0.00    -0.330 N 
HETATM   37  C3  UNL     1      -4.995   1.841  -1.991  1.00  0.00     0.135 A 
ATOM     38  H1  UNL     1      -6.066   0.238  -2.853  1.00  0.00     0.168 HD
HETATM   39  N2  UNL     1      -5.226   3.113  -2.368  1.00  0.00    -0.350 N 
HETATM   40  C6  UNL     1      -4.012   1.796  -1.017  1.00  0.00     0.103 A 
HETATM   41  C4  UNL     1      -4.404   3.903  -1.653  1.00  0.00     0.092 A 
ATOM     42  H2  UNL     1      -5.901   3.421  -3.068  1.00  0.00     0.166 HD
HETATM   43  C5  UNL     1      -3.639   3.106  -0.806  1.00  0.00     0.051 A 
ENDBRANCH   1  33
BRANCH   7  44
HETATM   44  N14 UNL     1      -1.939   0.590   3.714  1.00  0.00    -0.234 N 
ATOM     45 2H14 UNL     1      -1.281   0.269   4.425  1.00  0.00     0.174 HD
ATOM     46 1H14 UNL     1      -2.605   1.316   3.980  1.00  0.00     0.174 HD
ENDBRANCH   7  44
TORSDOF 9
