REMARK  14 active torsions:
REMARK  status: ('A' for Active; 'I' for Inactive)
REMARK    1  A    between atoms: O1_2  and  C2_3 
REMARK    2  A    between atoms: C2_3  and  C3_4 
REMARK    3  A    between atoms: C3_4  and  O2_5 
REMARK    4  A    between atoms: O2_5  and  C4_6 
REMARK    5  A    between atoms: C4_6  and  C5_7 
REMARK    6  A    between atoms: C5_7  and  O3_8 
REMARK    7  A    between atoms: O3_8  and  C6_9 
REMARK    8  A    between atoms: C6_9  and  C7_10 
REMARK    9  A    between atoms: C7_10  and  S1_11 
REMARK   10  A    between atoms: S1_11  and  C8_12 
REMARK   11  A    between atoms: C11_19  and  N3_20 
REMARK   12  A    between atoms: C12_25  and  N5_26 
REMARK   13  A    between atoms: N5_26  and  C13_28 
REMARK   14  A    between atoms: N6_33  and  N7_34 
ROOT
HETATM    1  C8  UNL     1      -0.933  -2.179  -0.125  1.00  0.00     0.086 A 
HETATM    2  N1  UNL     1      -0.192  -3.240   0.261  1.00  0.00    -0.357 N 
ATOM      3  H1  UNL     1       0.616  -3.599  -0.247  1.00  0.00     0.166 HD
HETATM    4  C9  UNL     1      -0.663  -3.753   1.397  1.00  0.00     0.120 A 
HETATM    5  C10 UNL     1      -1.767  -2.999   1.787  1.00  0.00     0.081 A 
HETATM    6  N2  UNL     1      -2.614  -3.055   2.823  1.00  0.00    -0.190 N 
ATOM      7  H2  UNL     1      -2.502  -3.777   3.534  1.00  0.00     0.184 HD
HETATM    8  C11 UNL     1      -3.620  -2.153   2.927  1.00  0.00     0.677 A 
HETATM    9  N4  UNL     1      -3.795  -1.189   2.006  1.00  0.00    -0.176 N 
ATOM     10  H4  UNL     1      -4.559  -0.520   2.102  1.00  0.00     0.186 HD
HETATM   11  C12 UNL     1      -2.957  -1.113   0.957  1.00  0.00     0.133 A 
HETATM   12  C18 UNL     1      -1.924  -2.025   0.833  1.00  0.00     0.070 A 
ENDROOT
BRANCH   1  13
HETATM   13  S1  UNL     1      -0.701  -1.162  -1.575  1.00  0.00    -0.109 SA
BRANCH  13  14
HETATM   14  C7  UNL     1       0.413   0.202  -1.121  1.00  0.00     0.107 C 
BRANCH  14  15
HETATM   15  C6  UNL     1       1.811  -0.350  -0.796  1.00  0.00     0.178 C 
BRANCH  15  16
HETATM   16  O3  UNL     1       2.578   0.739  -0.468  1.00  0.00    -0.388 OA
BRANCH  16  17
HETATM   17  C5  UNL     1       3.899   0.422  -0.129  1.00  0.00     0.193 C 
BRANCH  17  18
HETATM   18  C4  UNL     1       4.650  -0.254  -1.228  1.00  0.00     0.193 C 
BRANCH  18  19
HETATM   19  O2  UNL     1       5.929  -0.551  -0.857  1.00  0.00    -0.387 OA
BRANCH  19  20
HETATM   20  C3  UNL     1       6.708   0.554  -0.505  1.00  0.00     0.193 C 
BRANCH  20  21
HETATM   21  C2  UNL     1       8.071   0.013  -0.162  1.00  0.00     0.193 C 
BRANCH  21  22
HETATM   22  O1  UNL     1       8.924   1.002   0.206  1.00  0.00    -0.394 OA
HETATM   23  C1  UNL     1       9.141   1.927  -0.771  1.00  0.00     0.201 C 
ENDBRANCH  21  22
ENDBRANCH  20  21
ENDBRANCH  19  20
ENDBRANCH  18  19
ENDBRANCH  17  18
ENDBRANCH  16  17
ENDBRANCH  15  16
ENDBRANCH  14  15
ENDBRANCH  13  14
ENDBRANCH   1  13
BRANCH  11  24
HETATM   24  N5  UNL     1      -3.061  -0.224   0.036  1.00  0.00    -0.357 N 
ATOM     25  H5  UNL     1      -2.372  -0.259  -0.716  1.00  0.00     0.162 HD
BRANCH  24  26
HETATM   26  C13 UNL     1      -4.038   0.801  -0.040  1.00  0.00     0.177 C 
HETATM   27  C14 UNL     1      -3.694   1.724  -1.181  1.00  0.00     0.042 C 
HETATM   28  C15 UNL     1      -4.510   2.987  -1.030  1.00  0.00     0.004 C 
HETATM   29  C16 UNL     1      -5.783   2.761  -0.279  1.00  0.00     0.016 C 
HETATM   30  C17 UNL     1      -6.299   1.378  -0.584  1.00  0.00     0.115 C 
HETATM   31  N6  UNL     1      -5.385   0.338  -0.238  1.00  0.00    -0.215 NA
BRANCH  31  32
HETATM   32  N7  UNL     1      -5.501  -0.680  -1.177  1.00  0.00    -0.361 NA
ATOM     33  H72 UNL     1      -4.848  -1.423  -0.930  1.00  0.00     0.171 HD
ATOM     34  H71 UNL     1      -6.456  -1.008  -1.317  1.00  0.00     0.171 HD
ENDBRANCH  31  32
ENDBRANCH  24  26
ENDBRANCH  11  24
BRANCH   8  35
HETATM   35  N3  UNL     1      -4.407  -2.256   3.950  1.00  0.00    -0.234 N 
ATOM     36  H32 UNL     1      -4.274  -2.987   4.649  1.00  0.00     0.174 HD
ATOM     37  H31 UNL     1      -5.164  -1.577   4.028  1.00  0.00     0.174 HD
ENDBRANCH   8  35
TORSDOF 14
