REMARK  14 active torsions:
REMARK  status: ('A' for Active; 'I' for Inactive)
REMARK       I    between atoms: C1_4  and  N3_6 
REMARK    1  A    between atoms: N3_6  and  C2_8 
REMARK    2  A    between atoms: C2_8  and  C3_9 
REMARK    3  A    between atoms: C3_9  and  C4_10 
REMARK    4  A    between atoms: C4_10  and  N4_11 
REMARK    5  A    between atoms: C6_16  and  C7_17 
REMARK    6  A    between atoms: C6_16  and  C11_25 
REMARK    7  A    between atoms: C7_17  and  C8_18 
REMARK    8  A    between atoms: C8_18  and  C9_19 
REMARK    9  A    between atoms: C9_19  and  C10_20 
REMARK   10  A    between atoms: C10_20  and  N6_21 
REMARK   11  A    between atoms: C11_25  and  C12_26 
REMARK   12  A    between atoms: C12_26  and  C13_27 
REMARK   13  A    between atoms: C13_27  and  N7_28 
REMARK   14  A    between atoms: N8_36  and  N9_38 
ROOT
HETATM    1  N4  UNL     1       1.772  -0.167   1.238  1.00  0.00    -0.297 N 
HETATM    2  C5  UNL     1       0.900   0.903   0.907  1.00  0.00     0.100 C 
HETATM    3  N5  UNL     1       1.257   2.125   0.836  1.00  0.00    -0.387 N 
ATOM      4  H51 UNL     1       0.630   2.894   0.598  1.00  0.00     0.157 HD
ATOM      5  H52 UNL     1       2.205   2.461   1.003  1.00  0.00     0.157 HD
HETATM    6  C6  UNL     1      -0.488   0.411   0.662  1.00  0.00     0.075 C 
HETATM    7  S1  UNL     1      -0.565  -0.690   2.154  1.00  0.00    -0.051 SA
HETATM    8  C18 UNL     1       1.164  -1.122   2.072  1.00  0.00     0.288 C 
HETATM    9  O1  UNL     1       1.685  -2.072   2.645  1.00  0.00    -0.260 OA
ENDROOT
BRANCH   6  10
HETATM   10  C7  UNL     1      -1.555   1.417   0.721  1.00  0.00     0.029 C 
BRANCH  10  11
HETATM   11  C8  UNL     1      -1.475   2.517  -0.284  1.00  0.00     0.004 C 
BRANCH  11  12
HETATM   12  C9  UNL     1      -2.666   3.464  -0.109  1.00  0.00     0.027 C 
BRANCH  12  13
HETATM   13  C10 UNL     1      -2.546   4.574  -1.157  1.00  0.00     0.229 C 
BRANCH  13  14
HETATM   14  N6  UNL     1      -1.313   5.316  -0.993  1.00  0.00    -0.079 N 
ATOM     15  H63 UNL     1      -1.218   5.682  -0.046  1.00  0.00     0.274 HD
ATOM     16  H62 UNL     1      -0.500   4.700  -1.004  1.00  0.00     0.274 HD
ATOM     17  H61 UNL     1      -1.233   6.055  -1.691  1.00  0.00     0.274 HD
ENDBRANCH  13  14
ENDBRANCH  12  13
ENDBRANCH  11  12
ENDBRANCH  10  11
ENDBRANCH   6  10
BRANCH   6  18
HETATM   18  C11 UNL     1      -0.528  -0.485  -0.531  1.00  0.00     0.031 C 
BRANCH  18  19
HETATM   19  C12 UNL     1      -1.874  -1.018  -0.852  1.00  0.00     0.032 C 
BRANCH  19  20
HETATM   20  C13 UNL     1      -2.545  -1.868   0.169  1.00  0.00     0.272 C 
BRANCH  20  21
HETATM   21  N7  UNL     1      -3.845  -2.365  -0.341  1.00  0.00     0.088 N 
HETATM   22  C14 UNL     1      -4.392  -3.188   0.719  1.00  0.00     0.272 C 
HETATM   23  C15 UNL     1      -5.651  -2.522   1.218  1.00  0.00     0.032 C 
HETATM   24  C16 UNL     1      -6.085  -1.717   0.012  1.00  0.00     0.032 C 
HETATM   25  C17 UNL     1      -4.707  -1.227  -0.468  1.00  0.00     0.272 C 
ENDBRANCH  20  21
ENDBRANCH  19  20
ENDBRANCH  18  19
ENDBRANCH   6  18
BRANCH   1  26
HETATM   26  C4  UNL     1       3.137  -0.264   0.770  1.00  0.00     0.141 C 
BRANCH  26  27
HETATM   27  C3  UNL     1       3.263  -1.005  -0.539  1.00  0.00     0.098 C 
BRANCH  27  28
HETATM   28  C2  UNL     1       4.694  -1.038  -0.905  1.00  0.00     0.099 C 
HETATM   29  N8  UNL     1       5.070  -0.507  -2.008  1.00  0.00    -0.295 N 
ATOM     30  H8  UNL     1       4.382  -0.068  -2.620  1.00  0.00     0.187 HD
BRANCH  28  31
HETATM   31  N3  UNL     1       5.665  -1.645  -0.068  1.00  0.00    -0.319 N 
HETATM   32  C1  UNL     1       6.669  -0.925   0.604  1.00  0.00     0.187 C 
HETATM   33  N1  UNL     1       6.685   0.362   0.668  1.00  0.00    -0.373 N 
HETATM   34  N2  UNL     1       7.719  -1.635   1.245  1.00  0.00    -0.064 NA
ATOM     35  H12 UNL     1       7.413   0.884   1.155  1.00  0.00     0.158 HD
ATOM     36  H11 UNL     1       5.931   0.872   0.208  1.00  0.00     0.158 HD
ATOM     37  H3  UNL     1       5.633  -2.657   0.053  1.00  0.00     0.169 HD
ENDBRANCH  28  31
BRANCH  29  38
HETATM   38  N9  UNL     1       6.400  -0.526  -2.372  1.00  0.00    -0.344 N 
ATOM     39  H92 UNL     1       7.075  -0.969  -1.748  1.00  0.00     0.176 HD
ATOM     40  H91 UNL     1       6.699  -0.103  -3.251  1.00  0.00     0.176 HD
ENDBRANCH  29  38
ENDBRANCH  27  28
ENDBRANCH  26  27
ENDBRANCH   1  26
TORSDOF 14
