REMARK  9 active torsions:
REMARK  status: ('A' for Active; 'I' for Inactive)
REMARK    1  A    between atoms: S1_3  and  C2_4 
REMARK    2  A    between atoms: C3_5  and  C4_6 
REMARK    3  A    between atoms: C4_6  and  O1_7 
REMARK    4  A    between atoms: O1_7  and  N2_8 
REMARK       I    between atoms: N2_8  and  C5_10 
REMARK       I    between atoms: C5_10  and  N3_11 
REMARK    5  A    between atoms: N5_16  and  N6_18 
REMARK    6  A    between atoms: C6_21  and  N7_22 
REMARK    7  A    between atoms: C7_25  and  N8_26 
REMARK    8  A    between atoms: N15_38  and  N16_39 
REMARK    9  A    between atoms: C11_42  and  N17_43 
ROOT
HETATM    1  N1  UNL     1      -0.587  -0.021   4.862  1.00  0.00    -0.184 NA
HETATM    2  C1  UNL     1      -0.111   0.540   3.970  1.00  0.00     0.140 C 
HETATM    3  S1  UNL     1       0.609   1.417   2.584  1.00  0.00     0.009 SA
ENDROOT
BRANCH   3   4
HETATM    4  C2  UNL     1       0.093   0.677   1.029  1.00  0.00     0.119 A 
HETATM    5  C3  UNL     1       0.840  -0.404   0.512  1.00  0.00     0.032 A 
HETATM    6  C6  UNL     1       0.411  -0.932  -0.657  1.00  0.00     0.070 A 
HETATM    7  C7  UNL     1      -0.744  -0.429  -1.348  1.00  0.00     0.133 A 
HETATM    8  C8  UNL     1      -1.404   0.622  -0.770  1.00  0.00     0.118 A 
HETATM    9  C9  UNL     1      -2.498   1.155  -1.373  1.00  0.00     0.120 A 
HETATM   10  N18 UNL     1      -0.983   1.168   0.411  1.00  0.00    -0.134 N 
HETATM   11  N13 UNL     1      -3.070   0.708  -2.602  1.00  0.00    -0.096 NA
HETATM   12  C10 UNL     1      -3.162   2.241  -0.776  1.00  0.00     0.182 A 
HETATM   13  N14 UNL     1      -4.319   2.779  -1.446  1.00  0.00    -0.078 NA
HETATM   14  N15 UNL     1      -2.716   2.736   0.365  1.00  0.00    -0.077 N 
HETATM   15  C11 UNL     1      -1.639   2.217   0.966  1.00  0.00     0.706 A 
BRANCH   5  16
HETATM   16  C4  UNL     1       2.002  -0.840   1.305  1.00  0.00     0.246 C 
BRANCH  16  17
HETATM   17  O1  UNL     1       2.704  -1.871   0.793  1.00  0.00    -0.262 OA
BRANCH  17  18
HETATM   18  N2  UNL     1       3.750  -2.275   1.507  1.00  0.00    -0.093 N 
HETATM   19  C5  UNL     1       4.794  -2.990   0.890  1.00  0.00     0.730 C 
HETATM   20  N3  UNL     1       4.687  -4.424   0.813  1.00  0.00    -0.136 N 
HETATM   21  N5  UNL     1       5.800  -2.360   0.418  1.00  0.00    -0.136 N 
HETATM   22  N4  UNL     1       5.719  -5.146   0.766  1.00  0.00    -0.331 N 
ATOM     23  H3  UNL     1       3.765  -4.861   0.796  1.00  0.00     0.205 HD
ATOM     24  H42 UNL     1       6.633  -4.694   0.784  1.00  0.00     0.177 HD
ATOM     25  H41 UNL     1       5.643  -6.162   0.711  1.00  0.00     0.177 HD
ATOM     26  H5  UNL     1       6.558  -2.876  -0.029  1.00  0.00     0.205 HD
ATOM     27  H2  UNL     1       3.796  -2.066   2.504  1.00  0.00     0.213 HD
BRANCH  21  28
HETATM   28  N6  UNL     1       5.868  -0.972   0.511  1.00  0.00    -0.331 N 
ATOM     29  H62 UNL     1       5.102  -0.471   0.961  1.00  0.00     0.177 HD
ATOM     30  H61 UNL     1       6.671  -0.469   0.134  1.00  0.00     0.177 HD
ENDBRANCH  21  28
ENDBRANCH  17  18
ENDBRANCH  16  17
ENDBRANCH   5  16
BRANCH   6  31
HETATM   31  N7  UNL     1       0.946  -1.904  -1.276  1.00  0.00    -0.397 N 
ATOM     32  H72 UNL     1       1.766  -2.261  -0.785  1.00  0.00     0.156 HD
ATOM     33  H71 UNL     1       0.622  -2.302  -2.158  1.00  0.00     0.156 HD
ENDBRANCH   6  31
BRANCH   7  34
HETATM   34  N8  UNL     1      -1.085  -1.074  -2.553  1.00  0.00    -0.167 N 
HETATM   35  N9  UNL     1      -0.630  -0.790  -3.749  1.00  0.00    -0.205 N 
HETATM   36  N10 UNL     1      -1.117  -1.669  -4.638  1.00  0.00     0.010 NA
ATOM     37  H9  UNL     1      -0.001  -0.018  -3.970  1.00  0.00     0.207 HD
HETATM   38  N11 UNL     1      -1.883  -2.499  -3.954  1.00  0.00     0.010 NA
HETATM   39  N12 UNL     1      -1.859  -2.127  -2.671  1.00  0.00    -0.205 N 
ATOM     40  H12 UNL     1      -2.359  -2.585  -1.910  1.00  0.00     0.207 HD
ENDBRANCH   7  34
BRANCH  14  41
HETATM   41  N16 UNL     1      -3.368   3.815   0.966  1.00  0.00    -0.323 N 
ATOM     42 2H16 UNL     1      -4.189   4.211   0.508  1.00  0.00     0.178 HD
ATOM     43 1H16 UNL     1      -3.024   4.197   1.847  1.00  0.00     0.178 HD
ENDBRANCH  14  41
BRANCH  15  44
HETATM   44  N17 UNL     1      -1.205   2.743   2.091  1.00  0.00    -0.232 N 
ATOM     45 2H17 UNL     1      -1.698   3.532   2.508  1.00  0.00     0.174 HD
ATOM     46 1H17 UNL     1      -0.384   2.347   2.549  1.00  0.00     0.174 HD
ENDBRANCH  15  44
ENDBRANCH   3   4
TORSDOF 9
