REMARK  5 active torsions:
REMARK  status: ('A' for Active; 'I' for Inactive)
REMARK    1  A    between atoms: C2_2  and  O2_4 
REMARK    2  A    between atoms: O2_4  and  C3_5 
REMARK    3  A    between atoms: C4_6  and  C5_7 
REMARK    4  A    between atoms: C5_7  and  C6_9 
REMARK    5  A    between atoms: C7_10  and  C8_11 
ROOT
HETATM    1  C3  UNL     1      -0.019   0.484   0.615  1.00  0.00     0.149 C 
HETATM    2  C4  UNL     1      -1.435   0.330   0.050  1.00  0.00     0.097 C 
HETATM    3  C9  UNL     1      -1.795  -1.067  -0.280  1.00  0.00     0.044 C 
HETATM    4  C10 UNL     1      -2.871  -1.206  -1.317  1.00  0.00     0.059 C 
HETATM    5  C11 UNL     1      -4.252  -1.371  -0.723  1.00  0.00     0.046 C 
HETATM    6  C12 UNL     1      -2.911  -0.135  -2.336  1.00  0.00     0.046 C 
HETATM    7  O5  UNL     1      -2.602  -2.424  -1.986  1.00  0.00    -0.380 OA
HETATM    8  C13 UNL     1      -1.250  -2.354  -2.165  1.00  0.00     0.178 C 
HETATM    9  C14 UNL     1      -0.693  -1.901  -0.820  1.00  0.00    -0.011 C 
HETATM   10  C15 UNL     1      -0.597  -3.200  -0.002  1.00  0.00     0.018 C 
HETATM   11  C16 UNL     1       0.650  -1.354  -0.961  1.00  0.00     0.004 C 
HETATM   12  C17 UNL     1       1.750  -2.218  -0.333  1.00  0.00     0.007 C 
HETATM   13  C18 UNL     1       2.928  -1.288  -0.476  1.00  0.00     0.014 C 
HETATM   14  C19 UNL     1       2.364   0.143  -0.326  1.00  0.00    -0.016 C 
HETATM   15  C20 UNL     1       2.939   0.871  -1.499  1.00  0.00    -0.013 C 
HETATM   16  C21 UNL     1       3.952   1.687  -1.503  1.00  0.00     0.047 C 
HETATM   17  C22 UNL     1       4.621   1.937  -0.235  1.00  0.00     0.149 C 
HETATM   18  O6  UNL     1       5.264   2.962   0.026  1.00  0.00    -0.293 OA
HETATM   19  C23 UNL     1       4.469   0.836   0.753  1.00  0.00     0.084 C 
HETATM   20  C24 UNL     1       2.966   0.664   0.927  1.00  0.00     0.022 C 
HETATM   21  C25 UNL     1       0.911   0.043  -0.447  1.00  0.00     0.033 C 
ENDROOT
BRANCH   2  22
HETATM   22  C5  UNL     1      -2.402   1.100   0.831  1.00  0.00     0.156 C 
HETATM   23  O3  UNL     1      -3.248   0.513   1.608  1.00  0.00    -0.293 OA
BRANCH  22  24
HETATM   24  C6  UNL     1      -2.509   2.545   0.823  1.00  0.00     0.053 C 
HETATM   25  C7  UNL     1      -1.815   3.390   0.121  1.00  0.00     0.045 C 
BRANCH  25  26
HETATM   26  C8  UNL     1      -2.036   4.838   0.222  1.00  0.00     0.258 C 
HETATM   27  O4  UNL     1      -2.910   5.306   0.995  1.00  0.00    -0.302 OA
ENDBRANCH  25  26
ENDBRANCH  22  24
ENDBRANCH   2  22
BRANCH   1  28
HETATM   28  O2  UNL     1       0.112   0.049   1.899  1.00  0.00    -0.315 OA
BRANCH  28  29
HETATM   29  C2  UNL     1       0.269   0.651   3.091  1.00  0.00     0.255 C 
HETATM   30  C1  UNL     1       0.394  -0.070   4.384  1.00  0.00     0.126 C 
HETATM   31  O1  UNL     1       0.297   1.876   2.995  1.00  0.00    -0.266 OA
ENDBRANCH  28  29
ENDBRANCH   1  28
TORSDOF 5
