REMARK  6 active torsions:
REMARK  status: ('A' for Active; 'I' for Inactive)
REMARK    1  A    between atoms: C3_3  and  C4_4 
REMARK    2  A    between atoms: C4_4  and  O1_5 
REMARK    3  A    between atoms: C4_4  and  C5_7 
REMARK    4  A    between atoms: C5_7  and  C7_9 
REMARK    5  A    between atoms: C22_26  and  C24_28 
REMARK    6  A    between atoms: C24_28  and  O5_30 
ROOT
HETATM    1  C7  UNL     1       0.805  -0.622   0.646  1.00  0.00     0.016 C 
HETATM    2  C8  UNL     1       0.334   0.543   1.512  1.00  0.00     0.007 C 
HETATM    3  C9  UNL     1      -0.481   1.528   0.748  1.00  0.00     0.014 C 
HETATM    4  C10 UNL     1      -1.554   0.891  -0.148  1.00  0.00     0.033 C 
HETATM    5  C11 UNL     1      -2.732   1.763  -0.106  1.00  0.00     0.129 C 
HETATM    6  C12 UNL     1      -4.062   1.310   0.226  1.00  0.00     0.065 C 
HETATM    7  C13 UNL     1      -4.292   1.532  -1.248  1.00  0.00     0.131 C 
HETATM    8  C14 UNL     1      -4.207   0.299  -2.074  1.00  0.00     0.110 C 
HETATM    9  C15 UNL     1      -3.794  -0.825  -1.162  1.00  0.00     0.130 C 
HETATM   10  O2  UNL     1      -4.806  -1.470  -0.919  1.00  0.00    -0.298 OA
HETATM   11  C16 UNL     1      -2.635  -1.387  -0.493  1.00  0.00     0.097 C 
HETATM   12  C17 UNL     1      -1.625  -0.534   0.144  1.00  0.00     0.051 C 
HETATM   13  C18 UNL     1      -1.692  -0.664   1.643  1.00  0.00     0.146 C 
HETATM   14  O3  UNL     1      -2.568  -1.248   2.247  1.00  0.00    -0.296 OA
HETATM   15  C19 UNL     1      -0.640  -0.055   2.533  1.00  0.00     0.018 C 
HETATM   16  C20 UNL     1      -1.320   1.021   3.361  1.00  0.00     0.023 C 
HETATM   17  C21 UNL     1      -0.015  -0.996   3.488  1.00  0.00     0.023 C 
HETATM   18  C22 UNL     1      -0.264  -1.199  -0.212  1.00  0.00     0.064 C 
HETATM   19  C23 UNL     1      -0.519  -2.670   0.225  1.00  0.00     0.028 C 
HETATM   20  O6  UNL     1      -3.115   2.219  -1.398  1.00  0.00    -0.380 OA
ENDROOT
BRANCH   1  21
HETATM   21  C5  UNL     1       2.196  -0.551   0.192  1.00  0.00     0.020 C 
HETATM   22  C6  UNL     1       3.112  -0.611   1.434  1.00  0.00     0.013 C 
BRANCH  21  23
HETATM   23  C4  UNL     1       2.701   0.580  -0.604  1.00  0.00     0.144 C 
BRANCH  23  24
HETATM   24  C3  UNL     1       4.138   0.247  -0.959  1.00  0.00     0.000 C 
HETATM   25  C2  UNL     1       4.899   1.227  -1.400  1.00  0.00    -0.033 C 
HETATM   26  C1  UNL     1       6.328   1.024  -1.781  1.00  0.00     0.036 C 
ENDBRANCH  23  24
BRANCH  23  27
HETATM   27  O1  UNL     1       2.887   1.732   0.218  1.00  0.00    -0.391 OA
ATOM     28  H1  UNL     1       1.987   1.941   0.440  1.00  0.00     0.210 HD
ENDBRANCH  23  27
ENDBRANCH  21  23
ENDBRANCH   1  21
BRANCH  18  29
HETATM   29  C24 UNL     1      -0.027  -1.296  -1.638  1.00  0.00     0.268 C 
HETATM   30  O4  UNL     1       0.211  -2.465  -2.134  1.00  0.00    -0.264 OA
BRANCH  29  31
HETATM   31  O5  UNL     1       0.007  -0.375  -2.639  1.00  0.00    -0.326 OA
HETATM   32  C25 UNL     1       0.246  -0.564  -3.991  1.00  0.00     0.213 C 
ENDBRANCH  29  31
ENDBRANCH  18  29
TORSDOF 6
