REMARK  4 active torsions:
REMARK  status: ('A' for Active; 'I' for Inactive)
REMARK    1  A    between atoms: C3_3  and  C4_4 
REMARK    2  A    between atoms: C5_5  and  C7_8 
REMARK    3  A    between atoms: C8_9  and  C9_10 
REMARK    4  A    between atoms: C10_12  and  O2_13 
ROOT
HETATM    1  C4  UNL     1      -1.595  -0.036   0.317  1.00  0.00     0.022 C 
HETATM    2  C5  UNL     1      -0.258  -0.027   0.376  1.00  0.00     0.044 C 
HETATM    3  C6  UNL     1       0.329  -0.220   1.704  1.00  0.00     0.099 C 
HETATM    4  N1  UNL     1       0.760  -0.377   2.779  1.00  0.00    -0.191 NA
ENDROOT
BRANCH   2   5
HETATM    5  C7  UNL     1       0.568   0.160  -0.776  1.00  0.00     0.021 C 
HETATM    6  C8  UNL     1       1.862   0.188  -0.845  1.00  0.00     0.011 C 
BRANCH   6   7
HETATM    7  C9  UNL     1       2.868   0.039   0.216  1.00  0.00     0.202 A 
HETATM    8  O1  UNL     1       3.332  -1.190   0.594  1.00  0.00    -0.345 OA
HETATM    9  C10 UNL     1       4.236  -0.475  -0.145  1.00  0.00     0.290 A 
BRANCH   9  10
HETATM   10  O2  UNL     1       5.290   0.198   0.423  1.00  0.00    -0.368 OA
ATOM     11  H2  UNL     1       6.153  -0.126   0.195  1.00  0.00     0.212 HD
ENDBRANCH   9  10
ENDBRANCH   6   7
ENDBRANCH   2   5
BRANCH   1  12
HETATM   12  C3  UNL     1      -2.287   0.141  -0.911  1.00  0.00    -0.003 C 
HETATM   13  C2  UNL     1      -3.631   0.122  -0.911  1.00  0.00    -0.031 C 
HETATM   14  C1  UNL     1      -4.321  -0.082   0.372  1.00  0.00     0.036 C 
ENDBRANCH   1  12
TORSDOF 4
