REMARK  15 active torsions:
REMARK  status: ('A' for Active; 'I' for Inactive)
REMARK    1  A    between atoms: O1_2  and  C2_3 
REMARK    2  A    between atoms: C4_5  and  C5_6 
REMARK    3  A    between atoms: C5_6  and  C6_7 
REMARK    4  A    between atoms: C6_7  and  C7_8 
REMARK    5  A    between atoms: C7_8  and  O2_9 
REMARK    6  A    between atoms: C7_8  and  C8_11 
REMARK    7  A    between atoms: C9_12  and  O3_13 
REMARK    8  A    between atoms: C12_18  and  N2_19 
REMARK    9  A    between atoms: C13_22  and  C14_23 
REMARK   10  A    between atoms: C16_26  and  O7_27 
REMARK   11  A    between atoms: C18_31  and  O8_32 
REMARK   12  A    between atoms: O8_32  and  C19_33 
REMARK   13  A    between atoms: C19_33  and  C20_34 
REMARK   14  A    between atoms: C20_34  and  O9_36 
REMARK   15  A    between atoms: C22_38  and  O10_39 
ROOT
HETATM    1  C8  UNL     1      -3.300   0.151   0.450  1.00  0.00     0.066 A 
HETATM    2  C9  UNL     1      -3.309  -0.917  -0.400  1.00  0.00     0.104 A 
HETATM    3  C10 UNL     1      -4.414  -1.661  -0.697  1.00  0.00     0.112 A 
HETATM    4  C11 UNL     1      -4.312  -2.768  -1.608  1.00  0.00     0.105 C 
HETATM    5  N1  UNL     1      -4.224  -3.650  -2.347  1.00  0.00    -0.191 NA
HETATM    6  C12 UNL     1      -5.638  -1.335  -0.109  1.00  0.00     0.143 A 
HETATM    7  C13 UNL     1      -5.694  -0.293   0.738  1.00  0.00     0.078 A 
HETATM    8  C16 UNL     1      -4.550   0.485   1.051  1.00  0.00     0.098 A 
ENDROOT
BRANCH   2   9
HETATM    9  O3  UNL     1      -2.128  -1.285  -1.013  1.00  0.00    -0.358 OA
ATOM     10  H3  UNL     1      -2.134  -2.028  -1.605  1.00  0.00     0.217 HD
ENDBRANCH   2   9
BRANCH   6  11
HETATM   11  N2  UNL     1      -6.716  -2.157  -0.500  1.00  0.00    -0.113 N 
HETATM   12  O4  UNL     1      -6.811  -3.345  -0.035  1.00  0.00    -0.532 OA
HETATM   13  O5  UNL     1      -7.675  -1.813  -1.391  1.00  0.00    -0.532 OA
ENDBRANCH   6  11
BRANCH   1  14
HETATM   14  C7  UNL     1      -2.196   0.968   0.845  1.00  0.00     0.081 C 
BRANCH  14  15
HETATM   15  C6  UNL     1      -0.827   1.041   0.609  1.00  0.00     0.038 C 
BRANCH  15  16
HETATM   16  C5  UNL     1       0.113   0.461  -0.030  1.00  0.00     0.017 C 
BRANCH  16  17
HETATM   17  C4  UNL     1       1.548   0.896  -0.007  1.00  0.00     0.008 A 
HETATM   18  C3  UNL     1       1.995   1.975   0.676  1.00  0.00     0.054 A 
HETATM   19  C2  UNL     1       3.365   2.328   0.682  1.00  0.00     0.105 A 
HETATM   20  C22 UNL     1       4.226   1.538  -0.031  1.00  0.00     0.136 A 
HETATM   21  C18 UNL     1       3.798   0.431  -0.737  1.00  0.00     0.144 A 
HETATM   22  C17 UNL     1       2.453   0.109  -0.725  1.00  0.00     0.162 A 
HETATM   23  F1  UNL     1       2.068  -0.988  -1.433  1.00  0.00    -0.202 F 
BRANCH  19  24
HETATM   24  O1  UNL     1       3.788   3.429   1.385  1.00  0.00    -0.353 OA
HETATM   25  C1  UNL     1       2.935   4.275   2.123  1.00  0.00     0.210 C 
ENDBRANCH  19  24
BRANCH  20  26
HETATM   26  O10 UNL     1       5.560   1.854  -0.044  1.00  0.00    -0.356 OA
ATOM     27  H10 UNL     1       6.158   1.306  -0.539  1.00  0.00     0.218 HD
ENDBRANCH  20  26
BRANCH  21  28
HETATM   28  O8  UNL     1       4.736  -0.313  -1.429  1.00  0.00    -0.343 OA
BRANCH  28  29
HETATM   29  C19 UNL     1       5.327  -1.375  -0.674  1.00  0.00     0.207 C 
BRANCH  29  30
HETATM   30  C20 UNL     1       6.334  -2.152  -1.478  1.00  0.00     0.138 C 
HETATM   31  C21 UNL     1       7.534  -1.365  -1.886  1.00  0.00     0.041 C 
BRANCH  30  32
HETATM   32  O9  UNL     1       5.798  -2.742  -2.607  1.00  0.00    -0.394 OA
ATOM     33  H9  UNL     1       6.434  -3.233  -3.115  1.00  0.00     0.210 HD
ENDBRANCH  30  32
ENDBRANCH  29  30
ENDBRANCH  28  29
ENDBRANCH  21  28
ENDBRANCH  16  17
ENDBRANCH  15  16
ENDBRANCH  14  15
BRANCH  14  34
HETATM   34  O2  UNL     1      -2.588   1.952   1.693  1.00  0.00    -0.360 OA
ATOM     35  H2  UNL     1      -3.523   1.902   1.854  1.00  0.00     0.217 HD
ENDBRANCH  14  34
ENDBRANCH   1  14
BRANCH   7  36
HETATM   36  C14 UNL     1      -6.914   0.106   1.395  1.00  0.00     0.161 C 
HETATM   37  C15 UNL     1      -8.245  -0.479   1.301  1.00  0.00     0.097 C 
HETATM   38  O6  UNL     1      -6.855   1.121   2.188  1.00  0.00    -0.293 OA
ENDBRANCH   7  36
BRANCH   8  39
HETATM   39  O7  UNL     1      -4.681   1.495   1.891  1.00  0.00    -0.359 OA
ATOM     40  H7  UNL     1      -5.513   1.717   2.291  1.00  0.00     0.217 HD
ENDBRANCH   8  39
TORSDOF 15
