REMARK  8 active torsions:
REMARK  status: ('A' for Active; 'I' for Inactive)
REMARK       I    between atoms: N2_3  and  C2_5 
REMARK       I    between atoms: C2_5  and  N3_7 
REMARK       I    between atoms: N3_7  and  C3_9 
REMARK    1  A    between atoms: C3_9  and  C4_11 
REMARK    2  A    between atoms: C4_11  and  C5_12 
REMARK    3  A    between atoms: C5_12  and  O3_13 
REMARK    4  A    between atoms: C7_17  and  N4_18 
REMARK    5  A    between atoms: C9_22  and  C10_23 
REMARK    6  A    between atoms: C16_29  and  N6_30 
REMARK    7  A    between atoms: N6_30  and  C17_32 
REMARK    8  A    between atoms: C17_32  and  C18_33 
ROOT
HETATM    1  N1  UNL     1       8.921   3.966   0.463  1.00  0.00    -0.172 NA
HETATM    2  C1  UNL     1       7.991   3.296   0.361  1.00  0.00     0.185 C 
HETATM    3  N2  UNL     1       6.837   2.469   0.258  1.00  0.00    -0.245 N 
ATOM      4  H2  UNL     1       5.982   2.868  -0.129  1.00  0.00     0.183 HD
HETATM    5  C2  UNL     1       6.830   1.134   0.666  1.00  0.00     0.335 C 
HETATM    6  O1  UNL     1       7.950   0.719   1.152  1.00  0.00    -0.246 OA
HETATM    7  N3  UNL     1       5.792   0.224   0.611  1.00  0.00    -0.277 N 
ATOM      8  H3  UNL     1       5.999  -0.698   0.996  1.00  0.00     0.173 HD
HETATM    9  C3  UNL     1       4.469   0.387   0.092  1.00  0.00     0.247 C 
HETATM   10  O2  UNL     1       4.062   1.457  -0.359  1.00  0.00    -0.271 OA
ENDROOT
BRANCH   9  11
HETATM   11  C4  UNL     1       3.590  -0.848   0.119  1.00  0.00     0.121 C 
HETATM   12  C6  UNL     1       3.456  -1.381   1.509  1.00  0.00     0.109 C 
HETATM   13  S1  UNL     1       1.890  -2.339   1.580  1.00  0.00    -0.131 SA
HETATM   14  C7  UNL     1       1.058  -1.932   0.033  1.00  0.00     0.217 C 
HETATM   15  S2  UNL     1       1.918  -0.428  -0.406  1.00  0.00    -0.110 SA
BRANCH  11  16
HETATM   16  C5  UNL     1       4.228  -1.896  -0.787  1.00  0.00     0.195 C 
BRANCH  16  17
HETATM   17  O3  UNL     1       3.526  -3.051  -0.827  1.00  0.00    -0.399 OA
ATOM     18  H3  UNL     1       3.923  -3.704  -1.391  1.00  0.00     0.209 HD
ENDBRANCH  16  17
ENDBRANCH  11  16
BRANCH  14  19
HETATM   19  N4  UNL     1      -0.390  -1.825   0.108  1.00  0.00    -0.305 N 
HETATM   20  C8  UNL     1      -1.156  -2.939   0.230  1.00  0.00     0.187 A 
HETATM   21  N5  UNL     1      -2.433  -2.556   0.166  1.00  0.00    -0.349 N 
HETATM   22  C9  UNL     1      -2.536  -1.200   0.007  1.00  0.00     0.080 A 
ATOM     23  H5  UNL     1      -3.229  -3.191   0.228  1.00  0.00     0.167 HD
HETATM   24  C16 UNL     1      -1.202  -0.787  -0.028  1.00  0.00     0.133 A 
BRANCH  22  25
HETATM   25  C10 UNL     1      -3.775  -0.400   0.168  1.00  0.00    -0.049 C 
HETATM   26  C11 UNL     1      -4.724  -0.384  -0.963  1.00  0.00     0.036 C 
HETATM   27  C12 UNL     1      -6.153  -0.226  -0.574  1.00  0.00     0.004 C 
HETATM   28  C13 UNL     1      -6.270   0.344   0.803  1.00  0.00     0.001 C 
HETATM   29  C14 UNL     1      -5.202   1.308   1.175  1.00  0.00     0.004 C 
HETATM   30  C15 UNL     1      -3.790   0.709   1.103  1.00  0.00     0.036 C 
ENDBRANCH  22  25
BRANCH  24  31
HETATM   31  N6  UNL     1      -0.769   0.555  -0.219  1.00  0.00    -0.372 N 
ATOM     32  H6  UNL     1      -0.117   0.997   0.430  1.00  0.00     0.161 HD
BRANCH  31  33
HETATM   33  C17 UNL     1      -1.287   1.274  -1.369  1.00  0.00     0.152 C 
BRANCH  33  34
HETATM   34  C18 UNL     1      -1.372   2.745  -1.191  1.00  0.00     0.241 C 
HETATM   35  F1  UNL     1      -1.846   3.311  -2.377  1.00  0.00    -0.254 F 
ENDBRANCH  33  34
ENDBRANCH  31  33
ENDBRANCH  24  31
ENDBRANCH  14  19
ENDBRANCH   9  11
TORSDOF 8
