REMARK  3 active torsions:
REMARK  status: ('A' for Active; 'I' for Inactive)
REMARK    1  A    between atoms: C2_2  and  N1_3 
REMARK       I    between atoms: N1_3  and  C3_5 
REMARK       I    between atoms: C3_5  and  N2_7 
REMARK    2  A    between atoms: N3_16  and  S1_17 
REMARK    3  A    between atoms: S1_17  and  N4_20 
ROOT
HETATM    1  N1  UNL     1       4.701  -1.186   1.315  1.00  0.00    -0.343 N 
ATOM      2  H1  UNL     1       5.172  -0.282   1.277  1.00  0.00     0.164 HD
HETATM    3  C3  UNL     1       3.309  -1.225   1.221  1.00  0.00     0.318 C 
HETATM    4  O1  UNL     1       2.774  -2.391   1.274  1.00  0.00    -0.247 OA
HETATM    5  N2  UNL     1       2.484  -0.089   1.074  1.00  0.00    -0.333 N 
HETATM    6  C4  UNL     1       2.978   1.256   1.007  1.00  0.00     0.127 C 
HETATM    7  C5  UNL     1       2.610   1.802  -0.358  1.00  0.00     0.021 C 
HETATM    8  C6  UNL     1       1.666   0.890  -1.086  1.00  0.00     0.014 C 
HETATM    9  C7  UNL     1       0.491   0.553  -0.194  1.00  0.00    -0.004 C 
HETATM   10  C8  UNL     1      -0.173   1.830   0.230  1.00  0.00     0.055 C 
HETATM   11  C9  UNL     1      -0.619   2.589  -0.988  1.00  0.00     0.210 C 
HETATM   12  F1  UNL     1      -1.385   3.670  -0.543  1.00  0.00    -0.244 F 
HETATM   13  C10 UNL     1      -1.413   1.720  -1.945  1.00  0.00     0.114 C 
HETATM   14  N3  UNL     1      -1.661   0.479  -1.337  1.00  0.00    -0.274 N 
HETATM   15  C15 UNL     1      -0.539  -0.279  -0.926  1.00  0.00     0.152 C 
HETATM   16  C16 UNL     1       1.023  -0.235   0.979  1.00  0.00     0.138 C 
ENDROOT
BRANCH  14  17
HETATM   17  S1  UNL     1      -3.110  -0.282  -1.581  1.00  0.00     0.304 S 
HETATM   18  O2  UNL     1      -3.109  -1.635  -0.925  1.00  0.00    -0.188 OA
HETATM   19  O3  UNL     1      -3.313  -0.540  -3.068  1.00  0.00    -0.188 OA
BRANCH  17  20
HETATM   20  N4  UNL     1      -4.498   0.568  -1.035  1.00  0.00    -0.193 NA
HETATM   21  C11 UNL     1      -4.484   0.803   0.388  1.00  0.00     0.109 C 
HETATM   22  C12 UNL     1      -5.079  -0.458   0.975  1.00  0.00     0.017 C 
HETATM   23  C13 UNL     1      -6.059  -0.951  -0.065  1.00  0.00     0.017 C 
HETATM   24  C14 UNL     1      -5.722  -0.122  -1.258  1.00  0.00     0.109 C 
ENDBRANCH  17  20
ENDBRANCH  14  17
BRANCH   1  25
HETATM   25  C2  UNL     1       5.509  -2.398   1.466  1.00  0.00     0.120 C 
HETATM   26  C1  UNL     1       6.970  -2.111   1.547  1.00  0.00     0.026 C 
ENDBRANCH   1  25
TORSDOF 3
