REMARK  4 active torsions:
REMARK  status: ('A' for Active; 'I' for Inactive)
REMARK    1  A    between atoms: C2_2  and  N2_10 
REMARK    2  A    between atoms: N1_3  and  C3_5 
REMARK       I    between atoms: N2_10  and  C6_12 
REMARK       I    between atoms: C6_12  and  N3_14 
REMARK    3  A    between atoms: N4_17  and  S1_18 
REMARK    4  A    between atoms: S1_18  and  N5_21 
ROOT
HETATM    1  N2  UNL     1       2.992   0.102   0.389  1.00  0.00    -0.298 N 
ATOM      2  H2  UNL     1       2.633   0.847   0.986  1.00  0.00     0.172 HD
HETATM    3  C6  UNL     1       2.074  -0.689  -0.325  1.00  0.00     0.323 C 
HETATM    4  O1  UNL     1       2.544  -1.615  -1.067  1.00  0.00    -0.247 OA
HETATM    5  N3  UNL     1       0.667  -0.490  -0.244  1.00  0.00    -0.332 N 
HETATM    6  C7  UNL     1       0.084   0.534   0.571  1.00  0.00     0.143 C 
HETATM    7  C8  UNL     1      -1.394   0.709   0.202  1.00  0.00     0.128 C 
HETATM    8  N4  UNL     1      -2.123  -0.510   0.161  1.00  0.00    -0.194 NA
HETATM    9  C13 UNL     1      -1.353  -1.701  -0.068  1.00  0.00     0.128 C 
HETATM   10  C14 UNL     1      -0.205  -1.339  -1.001  1.00  0.00     0.143 C 
ENDROOT
BRANCH   1  11
HETATM   11  C2  UNL     1       4.373  -0.087   0.316  1.00  0.00     0.081 C 
HETATM   12  C1  UNL     1       5.012  -1.119  -0.503  1.00  0.00     0.089 C 
HETATM   13  N1  UNL     1       5.187   0.682   1.006  1.00  0.00    -0.347 N 
ATOM     14  H1  UNL     1       4.781   1.413   1.590  1.00  0.00     0.167 HD
BRANCH  13  15
HETATM   15  C3  UNL     1       6.592   0.549   0.981  1.00  0.00     0.057 C 
HETATM   16  C4  UNL     1       7.447   1.207  -0.048  1.00  0.00     0.072 C 
HETATM   17  C5  UNL     1       7.154  -0.194   1.919  1.00  0.00     0.208 C 
HETATM   18  F1  UNL     1       8.480  -0.342   1.926  1.00  0.00    -0.191 F 
HETATM   19 CL1  UNL     1       6.189  -0.993   3.160  1.00  0.00    -0.050 Cl
ENDBRANCH  13  15
ENDBRANCH   1  11
BRANCH   8  20
HETATM   20  S1  UNL     1      -3.454  -0.505  -0.905  1.00  0.00     0.283 S 
HETATM   21  O2  UNL     1      -3.017  -0.214  -2.313  1.00  0.00    -0.194 OA
HETATM   22  O3  UNL     1      -4.054  -1.902  -0.911  1.00  0.00    -0.194 OA
BRANCH  20  23
HETATM   23  N5  UNL     1      -4.639   0.671  -0.479  1.00  0.00    -0.198 NA
HETATM   24  C9  UNL     1      -5.195   0.412   0.842  1.00  0.00     0.108 C 
HETATM   25  C10 UNL     1      -6.514   1.146   0.787  1.00  0.00     0.017 C 
HETATM   26  C11 UNL     1      -6.822   1.348  -0.679  1.00  0.00     0.017 C 
HETATM   27  C12 UNL     1      -5.803   0.414  -1.332  1.00  0.00     0.108 C 
ENDBRANCH  20  23
ENDBRANCH   8  20
TORSDOF 4
