REMARK  6 active torsions:
REMARK  status: ('A' for Active; 'I' for Inactive)
REMARK    1  A    between atoms: C2_2  and  N1_3 
REMARK    2  A    between atoms: C4_9  and  C5_10 
REMARK    3  A    between atoms: C5_10  and  O1_11 
REMARK    4  A    between atoms: C5_10  and  C6_13 
REMARK    5  A    between atoms: C5_10  and  C8_15 
REMARK    6  A    between atoms: N4_17  and  C10_18 
ROOT
HETATM    1  C8  UNL     1       1.518  -0.905   0.489  1.00  0.00     0.024 A 
HETATM    2  C9  UNL     1       0.417  -0.086   0.233  1.00  0.00     0.123 A 
HETATM    3  N4  UNL     1      -0.658  -0.844  -0.013  1.00  0.00    -0.293 N 
HETATM    4  N5  UNL     1      -0.280  -2.079   0.075  1.00  0.00    -0.302 N 
ATOM      5  H5  UNL     1      -0.896  -2.880  -0.066  1.00  0.00     0.186 HD
HETATM    6  C20 UNL     1       1.045  -2.173   0.380  1.00  0.00     0.033 A 
HETATM    7  C21 UNL     1       1.756  -3.465   0.483  1.00  0.00     0.070 C 
ENDROOT
BRANCH   1   8
HETATM    8  C5  UNL     1       2.843  -0.359   0.871  1.00  0.00     0.147 C 
BRANCH   8   9
HETATM    9  C4  UNL     1       2.719   1.163   0.674  1.00  0.00     0.139 A 
HETATM   10  N1  UNL     1       2.817   1.779  -0.492  1.00  0.00    -0.328 N 
HETATM   11  C3  UNL     1       2.655   3.093  -0.225  1.00  0.00     0.201 A 
HETATM   12  N2  UNL     1       2.458   3.289   1.092  1.00  0.00    -0.295 N 
HETATM   13  N3  UNL     1       2.502   2.082   1.627  1.00  0.00    -0.285 N 
ATOM     14  H2  UNL     1       2.308   4.176   1.572  1.00  0.00     0.187 HD
ATOM     15  H3  UNL     1       2.388   1.878   2.620  1.00  0.00     0.188 HD
BRANCH  10  16
HETATM   16  C2  UNL     1       3.049   1.273  -1.809  1.00  0.00     0.127 C 
HETATM   17  C1  UNL     1       4.527   1.252  -2.084  1.00  0.00     0.027 C 
ENDBRANCH  10  16
ENDBRANCH   8   9
BRANCH   8  18
HETATM   18  O1  UNL     1       3.873  -0.811   0.117  1.00  0.00    -0.377 OA
ATOM     19  H1  UNL     1       3.950  -1.750   0.239  1.00  0.00     0.211 HD
ENDBRANCH   8  18
BRANCH   8  20
HETATM   20  C6  UNL     1       3.032  -0.531   2.366  1.00  0.00     0.047 C 
HETATM   21  C7  UNL     1       3.231  -1.875   2.918  1.00  0.00     0.009 C 
ENDBRANCH   8  20
ENDBRANCH   1   8
BRANCH   3  22
HETATM   22  C10 UNL     1      -1.994  -0.316  -0.322  1.00  0.00     0.054 C 
HETATM   23  C11 UNL     1      -2.100   1.094   0.205  1.00  0.00     0.038 C 
HETATM   24  C12 UNL     1      -3.471   1.658  -0.112  1.00  0.00    -0.011 C 
HETATM   25  C13 UNL     1      -4.502   0.777   0.507  1.00  0.00     0.009 C 
HETATM   26  C17 UNL     1      -3.660   1.699  -1.611  1.00  0.00     0.009 C 
HETATM   27  C14 UNL     1      -4.400  -0.604  -0.085  1.00  0.00    -0.011 C 
HETATM   28  C15 UNL     1      -4.556  -0.580  -1.589  1.00  0.00     0.009 C 
HETATM   29  C19 UNL     1      -3.066  -1.201   0.270  1.00  0.00     0.038 C 
HETATM   30  C16 UNL     1      -3.500   0.326  -2.183  1.00  0.00    -0.011 C 
HETATM   31  C18 UNL     1      -2.148  -0.244  -1.821  1.00  0.00     0.038 C 
ENDBRANCH   3  22
TORSDOF 6
