REMARK  17 active torsions:
REMARK  status: ('A' for Active; 'I' for Inactive)
REMARK    1  A    between atoms: C1_2  and  C2_4 
REMARK    2  A    between atoms: C2_4  and  C3_5 
REMARK    3  A    between atoms: C3_5  and  C4_6 
REMARK    4  A    between atoms: C4_6  and  C5_7 
REMARK    5  A    between atoms: C5_7  and  C6_8 
REMARK    6  A    between atoms: C6_8  and  C7_9 
REMARK    7  A    between atoms: C7_9  and  C8_10 
REMARK    8  A    between atoms: C8_10  and  C9_11 
REMARK    9  A    between atoms: C9_11  and  C10_12 
REMARK   10  A    between atoms: C10_12  and  N1_13 
REMARK   11  A    between atoms: N1_13  and  C11_15 
REMARK   12  A    between atoms: N3_19  and  C13_21 
REMARK   13  A    between atoms: C13_21  and  C14_22 
REMARK   14  A    between atoms: C15_23  and  O3_24 
REMARK   15  A    between atoms: C17_27  and  O4_28 
REMARK   16  A    between atoms: C18_30  and  C19_31 
REMARK   17  A    between atoms: C19_31  and  O5_32 
ROOT
HETATM    1  C11 UNL     1      -0.010  -0.959   1.008  1.00  0.00     0.681 A 
HETATM    2  N2  UNL     1      -1.128  -0.909   0.294  1.00  0.00    -0.174 N 
ATOM      3  H2  UNL     1      -1.047  -0.829  -0.720  1.00  0.00     0.186 HD
HETATM    4  C12 UNL     1      -2.381  -0.959   0.837  1.00  0.00     0.151 A 
HETATM    5  N3  UNL     1      -3.367  -0.902   0.046  1.00  0.00    -0.353 N 
ATOM      6  H3  UNL     1      -3.085  -0.824  -0.931  1.00  0.00     0.166 HD
HETATM    7  C20 UNL     1      -2.471  -1.068   2.200  1.00  0.00     0.123 A 
HETATM    8  N4  UNL     1      -3.525  -1.142   3.043  1.00  0.00    -0.346 N 
ATOM      9  H4  UNL     1      -4.507  -1.127   2.768  1.00  0.00     0.167 HD
HETATM   10  C21 UNL     1      -3.068  -1.239   4.299  1.00  0.00     0.182 A 
HETATM   11  N5  UNL     1      -1.727  -1.226   4.240  1.00  0.00    -0.336 N 
ATOM     12  H5  UNL     1      -1.104  -1.286   5.045  1.00  0.00     0.168 HD
HETATM   13  C22 UNL     1      -1.326  -1.121   2.951  1.00  0.00     0.152 A 
HETATM   14  N6  UNL     1      -0.132  -1.067   2.352  1.00  0.00    -0.174 N 
ATOM     15  H6  UNL     1       0.711  -1.108   2.924  1.00  0.00     0.186 HD
ENDROOT
BRANCH   5  16
HETATM   16  C13 UNL     1      -4.755  -0.922   0.208  1.00  0.00     0.070 C 
BRANCH  16  17
HETATM   17  C14 UNL     1      -5.403   0.426   0.380  1.00  0.00     0.061 C 
HETATM   18  C15 UNL     1      -6.880   0.355   0.551  1.00  0.00     0.130 C 
HETATM   19  C16 UNL     1      -7.439   1.599  -0.050  1.00  0.00     0.064 C 
HETATM   20  C17 UNL     1      -6.242   2.416  -0.534  1.00  0.00     0.127 C 
HETATM   21  C18 UNL     1      -5.144   1.387  -0.709  1.00  0.00     0.049 C 
BRANCH  18  22
HETATM   22  O3  UNL     1      -7.450  -0.817   0.054  1.00  0.00    -0.395 OA
ATOM     23  H3  UNL     1      -8.393  -0.862   0.163  1.00  0.00     0.210 HD
ENDBRANCH  18  22
BRANCH  20  24
HETATM   24  O4  UNL     1      -5.882   3.297   0.471  1.00  0.00    -0.395 OA
ATOM     25  H4  UNL     1      -5.138   3.805   0.170  1.00  0.00     0.210 HD
ENDBRANCH  20  24
BRANCH  21  26
HETATM   26  C19 UNL     1      -5.235   0.866  -2.109  1.00  0.00     0.172 C 
BRANCH  26  27
HETATM   27  O5  UNL     1      -6.503   0.366  -2.389  1.00  0.00    -0.400 OA
ATOM     28  H5  UNL     1      -6.561   0.035  -3.278  1.00  0.00     0.209 HD
ENDBRANCH  26  27
ENDBRANCH  21  26
ENDBRANCH  16  17
ENDBRANCH   5  16
BRANCH   1  29
HETATM   29  N1  UNL     1       1.181  -0.911   0.506  1.00  0.00    -0.226 N 
ATOM     30  H1  UNL     1       1.943  -0.962   1.182  1.00  0.00     0.177 HD
BRANCH  29  31
HETATM   31  C10 UNL     1       1.575  -0.798  -0.844  1.00  0.00     0.138 C 
BRANCH  31  32
HETATM   32  C9  UNL     1       2.374  -1.982  -1.347  1.00  0.00     0.020 C 
BRANCH  32  33
HETATM   33  C8  UNL     1       3.631  -2.248  -0.620  1.00  0.00     0.002 C 
BRANCH  33  34
HETATM   34  C7  UNL     1       4.566  -1.043  -0.680  1.00  0.00     0.004 C 
BRANCH  34  35
HETATM   35  C6  UNL     1       4.932  -0.684  -2.061  1.00  0.00     0.027 C 
BRANCH  35  36
HETATM   36  C5  UNL     1       5.821   0.482  -2.205  1.00  0.00    -0.031 C 
BRANCH  36  37
HETATM   37  C4  UNL     1       7.173   0.508  -1.664  1.00  0.00    -0.030 C 
BRANCH  37  38
HETATM   38  C3  UNL     1       7.448   0.415  -0.220  1.00  0.00     0.037 C 
BRANCH  38  39
HETATM   39  C2  UNL     1       6.783   1.546   0.544  1.00  0.00     0.117 C 
BRANCH  39  40
HETATM   40  C1  UNL     1       7.058   1.440   1.991  1.00  0.00     0.172 C 
HETATM   41  O1  UNL     1       7.755   0.504   2.425  1.00  0.00    -0.648 OA
HETATM   42  O2  UNL     1       6.542   2.376   2.854  1.00  0.00    -0.648 OA
ENDBRANCH  39  40
ENDBRANCH  38  39
ENDBRANCH  37  38
ENDBRANCH  36  37
ENDBRANCH  35  36
ENDBRANCH  34  35
ENDBRANCH  33  34
ENDBRANCH  32  33
ENDBRANCH  31  32
ENDBRANCH  29  31
ENDBRANCH   1  29
TORSDOF 17
