REMARK  11 active torsions:
REMARK  status: ('A' for Active; 'I' for Inactive)
REMARK    1  A    between atoms: C2_2  and  C3_3 
REMARK    2  A    between atoms: C3_3  and  C4_4 
REMARK    3  A    between atoms: C6_7  and  C7_8 
REMARK    4  A    between atoms: C9_15  and  C10_16 
REMARK    5  A    between atoms: C10_16  and  C11_17 
REMARK    6  A    between atoms: C11_17  and  C12_18 
REMARK    7  A    between atoms: C12_18  and  N3_19 
REMARK       I    between atoms: N3_19  and  C13_21 
REMARK       I    between atoms: N5_23  and  C14_25 
REMARK    8  A    between atoms: N7_27  and  C15_29 
REMARK    9  A    between atoms: C15_29  and  C16_30 
REMARK   10  A    between atoms: C16_30  and  C17_31 
REMARK   11  A    between atoms: C19_33  and  C20_34 
ROOT
HETATM    1  C7  UNL     1      -2.589  -2.170  -1.199  1.00  0.00     0.064 A 
HETATM    2  N1  UNL     1      -3.080  -3.449  -1.181  1.00  0.00    -0.336 N 
ATOM      3  H1  UNL     1      -3.850  -3.771  -0.594  1.00  0.00     0.168 HD
HETATM    4  C8  UNL     1      -2.404  -4.214  -2.043  1.00  0.00     0.154 A 
HETATM    5 BR1  UNL     1      -2.680  -6.061  -2.407  1.00  0.00    -0.010 Br
HETATM    6  N2  UNL     1      -1.477  -3.433  -2.619  1.00  0.00    -0.338 N 
ATOM      7  H2  UNL     1      -0.805  -3.733  -3.325  1.00  0.00     0.168 HD
HETATM    8  C9  UNL     1      -1.580  -2.156  -2.101  1.00  0.00     0.036 A 
ENDROOT
BRANCH   8   9
HETATM    9  C10 UNL     1      -0.678  -1.110  -2.513  1.00  0.00     0.061 C 
BRANCH   9  10
HETATM   10  C11 UNL     1       0.637  -1.032  -1.823  1.00  0.00     0.026 C 
BRANCH  10  11
HETATM   11  C12 UNL     1       0.676  -0.844  -0.363  1.00  0.00     0.122 C 
BRANCH  11  12
HETATM   12  N3  UNL     1       2.030  -0.768   0.168  1.00  0.00    -0.364 N 
HETATM   13  C13 UNL     1       2.246  -0.629   1.565  1.00  0.00     0.190 C 
HETATM   14  N4  UNL     1       1.561  -1.554   2.440  1.00  0.00    -0.063 NA
HETATM   15  N5  UNL     1       3.015   0.267   2.073  1.00  0.00    -0.305 N 
HETATM   16  C14 UNL     1       3.690   1.171   1.244  1.00  0.00     0.190 C 
ATOM     17  H5  UNL     1       3.134   0.320   3.085  1.00  0.00     0.171 HD
HETATM   18  N6  UNL     1       3.370   2.538   1.286  1.00  0.00    -0.063 NA
HETATM   19  N7  UNL     1       4.605   0.762   0.447  1.00  0.00    -0.364 N 
ATOM     20  H7  UNL     1       4.831  -0.232   0.427  1.00  0.00     0.162 HD
ATOM     21  H3  UNL     1       2.827  -0.815  -0.467  1.00  0.00     0.162 HD
BRANCH  19  22
HETATM   22  C15 UNL     1       5.335   1.665  -0.432  1.00  0.00     0.122 C 
BRANCH  22  23
HETATM   23  C16 UNL     1       6.807   1.263  -0.301  1.00  0.00     0.019 C 
BRANCH  23  24
HETATM   24  C17 UNL     1       7.646   2.155  -1.183  1.00  0.00    -0.003 C 
HETATM   25  C18 UNL     1       7.468   3.610  -0.744  1.00  0.00     0.005 C 
ENDBRANCH  23  24
ENDBRANCH  22  23
ENDBRANCH  19  22
ENDBRANCH  11  12
ENDBRANCH  10  11
ENDBRANCH   9  10
ENDBRANCH   8   9
BRANCH   1  26
HETATM   26  C6  UNL     1      -3.142  -1.111  -0.363  1.00  0.00     0.181 C 
HETATM   27  O1  UNL     1      -2.511  -1.016   0.879  1.00  0.00    -0.379 OA
HETATM   28  C5  UNL     1      -3.357  -0.409   1.763  1.00  0.00     0.174 C 
HETATM   29  C4  UNL     1      -4.742  -0.325   1.085  1.00  0.00     0.023 C 
HETATM   30  C19 UNL     1      -4.572  -1.420   0.096  1.00  0.00     0.049 C 
BRANCH  29  31
HETATM   31  C3  UNL     1      -4.893   1.064   0.627  1.00  0.00     0.033 C 
BRANCH  31  32
HETATM   32  C2  UNL     1      -4.909   2.010   1.777  1.00  0.00    -0.036 C 
HETATM   33  C1  UNL     1      -5.004   1.685   3.027  1.00  0.00     0.007 C 
ENDBRANCH  31  32
ENDBRANCH  29  31
BRANCH  30  34
HETATM   34  C20 UNL     1      -5.556  -1.615  -0.930  1.00  0.00    -0.029 C 
HETATM   35  C21 UNL     1      -6.700  -1.057  -1.188  1.00  0.00     0.007 C 
ENDBRANCH  30  34
ENDBRANCH   1  26
TORSDOF 11
