REMARK  3 active torsions:
REMARK  status: ('A' for Active; 'I' for Inactive)
REMARK    1  A    between atoms: C1_2  and  C2_4 
REMARK    2  A    between atoms: C3_5  and  C4_6 
REMARK    3  A    between atoms: C5_8  and  C6_9 
ROOT
HETATM    1  C2  UNL     1      -2.081   0.181  -0.132  1.00  0.00     0.086 A 
HETATM    2  C3  UNL     1      -1.687  -1.158   0.437  1.00  0.00     0.032 A 
HETATM    3  C5  UNL     1      -0.884  -0.459  -0.647  1.00  0.00     0.010 A 
ENDROOT
BRANCH   3   4
HETATM    4  C6  UNL     1       0.535  -0.178  -0.460  1.00  0.00    -0.009 C 
HETATM    5  C7  UNL     1       1.019   1.191  -0.859  1.00  0.00     0.005 C 
HETATM    6  C8  UNL     1       2.484   1.014  -1.257  1.00  0.00     0.000 C 
HETATM    7  C9  UNL     1       3.277   0.440  -0.156  1.00  0.00     0.000 C 
HETATM    8  C10 UNL     1       2.670  -0.662   0.640  1.00  0.00     0.000 C 
HETATM    9  C11 UNL     1       1.178  -0.528   0.851  1.00  0.00     0.005 C 
ENDBRANCH   3   4
BRANCH   1  10
HETATM   10  C1  UNL     1      -2.210   1.339   0.730  1.00  0.00     0.236 C 
HETATM   11  N1  UNL     1      -3.352   2.180   0.658  1.00  0.00    -0.062 NA
HETATM   12  O1  UNL     1      -1.346   1.652   1.561  1.00  0.00    -0.276 OA
ENDBRANCH   1  10
BRANCH   2  13
HETATM   13  C4  UNL     1      -2.470  -2.400   0.100  1.00  0.00     0.228 C 
HETATM   14  F1  UNL     1      -1.899  -3.463   0.748  1.00  0.00    -0.255 F 
ENDBRANCH   2  13
TORSDOF 3
