REMARK  7 active torsions:
REMARK  status: ('A' for Active; 'I' for Inactive)
REMARK    1  A    between atoms: C2_2  and  C3_3 
REMARK    2  A    between atoms: C3_3  and  C5_6 
REMARK    3  A    between atoms: C3_3  and  N2_12 
REMARK    4  A    between atoms: C5_6  and  C6_7 
REMARK    5  A    between atoms: N2_12  and  C11_14 
REMARK    6  A    between atoms: C11_14  and  N3_15 
REMARK    7  A    between atoms: C11_14  and  C13_18 
ROOT
HETATM    1  C3  UNL     1      -0.892  -0.612  -0.795  1.00  0.00     0.121 C 
HETATM    2  C4  UNL     1      -1.141  -0.378  -2.265  1.00  0.00     0.091 C 
HETATM    3  N1  UNL     1      -1.320  -0.181  -3.390  1.00  0.00    -0.195 NA
ENDROOT
BRANCH   1   4
HETATM    4  C2  UNL     1      -1.638  -1.876  -0.512  1.00  0.00     0.042 C 
HETATM    5  C1  UNL     1      -0.981  -2.973  -1.389  1.00  0.00     0.009 C 
ENDBRANCH   1   4
BRANCH   1   6
HETATM    6  C5  UNL     1      -1.357   0.586  -0.071  1.00  0.00     0.051 C 
BRANCH   6   7
HETATM    7  C6  UNL     1      -2.753   1.069  -0.277  1.00  0.00    -0.011 C 
HETATM    8  C7  UNL     1      -2.919   2.331   0.576  1.00  0.00     0.005 C 
HETATM    9  C8  UNL     1      -3.945   1.987   1.632  1.00  0.00     0.000 C 
HETATM   10  C9  UNL     1      -4.868   1.099   0.800  1.00  0.00     0.000 C 
HETATM   11  C10 UNL     1      -3.847   0.168   0.162  1.00  0.00     0.005 C 
ENDBRANCH   6   7
ENDBRANCH   1   6
BRANCH   1  12
HETATM   12  N2  UNL     1       0.538  -0.815  -0.653  1.00  0.00    -0.354 N 
ATOM     13  H2  UNL     1       1.024  -1.006  -1.529  1.00  0.00     0.163 HD
BRANCH  12  14
HETATM   14  C11 UNL     1       1.360  -0.795   0.465  1.00  0.00     0.116 C 
BRANCH  14  15
HETATM   15  N3  UNL     1       1.155  -1.221   1.606  1.00  0.00    -0.362 N 
HETATM   16  C12 UNL     1       0.320  -1.839   2.478  1.00  0.00     0.120 C 
ATOM     17  H3  UNL     1       2.002  -1.012   2.135  1.00  0.00     0.165 HD
ENDBRANCH  14  15
BRANCH  14  18
HETATM   18  C13 UNL     1       2.733  -0.169   0.285  1.00  0.00     0.055 A 
HETATM   19  C14 UNL     1       3.828  -0.365   1.098  1.00  0.00     0.038 A 
HETATM   20  C15 UNL     1       3.860  -1.240   2.299  1.00  0.00     0.071 C 
HETATM   21  N4  UNL     1       4.843   0.368   0.611  1.00  0.00    -0.302 N 
HETATM   22  N5  UNL     1       4.450   1.013  -0.457  1.00  0.00    -0.300 N 
ATOM     23  H4  UNL     1       5.779   0.415   1.013  1.00  0.00     0.186 HD
HETATM   24  C16 UNL     1       5.230   1.925  -1.304  1.00  0.00     0.177 C 
HETATM   25  C17 UNL     1       3.140   0.698  -0.685  1.00  0.00     0.040 A 
HETATM   26  C18 UNL     1       2.356   1.244  -1.802  1.00  0.00     0.071 C 
ENDBRANCH  14  18
ENDBRANCH  12  14
ENDBRANCH   1  12
TORSDOF 7
