REMARK  2 active torsions:
REMARK  status: ('A' for Active; 'I' for Inactive)
REMARK    1  A    between atoms: C2_2  and  C3_3 
REMARK    2  A    between atoms: C4_4  and  N1_5 
ROOT
HETATM    1  C3  UNL     1       1.370   0.206   0.320  1.00  0.00     0.148 C 
HETATM    2  C4  UNL     1       1.459   1.510  -0.487  1.00  0.00     0.323 C 
HETATM    3  N2  UNL     1      -0.004   1.309  -0.534  1.00  0.00    -0.090 NA
HETATM    4  O1  UNL     1      -0.515   1.716   0.617  1.00  0.00    -0.281 OA
HETATM    5  C5  UNL     1      -1.636   1.068   1.047  1.00  0.00     0.145 C 
HETATM    6  C6  UNL     1      -2.866   1.630   0.383  1.00  0.00     0.041 C 
HETATM    7  C7  UNL     1      -1.555  -0.433   0.962  1.00  0.00     0.059 C 
HETATM    8  C8  UNL     1      -0.742  -0.916  -0.193  1.00  0.00     0.026 C 
HETATM    9  C9  UNL     1      -0.131  -2.279   0.166  1.00  0.00     0.033 C 
HETATM   10  C10 UNL     1      -1.619  -1.198  -1.413  1.00  0.00     0.033 C 
HETATM   11  N3  UNL     1       0.299  -0.052  -0.587  1.00  0.00    -0.204 NA
ENDROOT
BRANCH   2  12
HETATM   12  N1  UNL     1       2.071   1.277  -1.764  1.00  0.00    -0.057 N 
ATOM     13  H13 UNL     1       2.982   0.828  -1.670  1.00  0.00     0.276 HD
ATOM     14  H12 UNL     1       1.591   0.543  -2.284  1.00  0.00     0.276 HD
ATOM     15  H11 UNL     1       2.130   2.143  -2.300  1.00  0.00     0.276 HD
ENDBRANCH   2  12
BRANCH   1  16
HETATM   16  C2  UNL     1       2.571  -0.650   0.198  1.00  0.00    -0.013 C 
HETATM   17  C1  UNL     1       3.598  -0.395   0.985  1.00  0.00     0.008 C 
ENDBRANCH   1  16
TORSDOF 2
