REMARK  9 active torsions:
REMARK  status: ('A' for Active; 'I' for Inactive)
REMARK    1  A    between atoms: C2_2  and  O1_3 
REMARK    2  A    between atoms: C2_2  and  N1_5 
REMARK    3  A    between atoms: N1_5  and  N2_6 
REMARK    4  A    between atoms: N1_5  and  C10_20 
REMARK    5  A    between atoms: N2_6  and  C3_8 
REMARK    6  A    between atoms: N3_10  and  C4_12 
REMARK    7  A    between atoms: C4_12  and  C5_13 
REMARK    8  A    between atoms: C5_13  and  O3_15 
REMARK    9  A    between atoms: O3_15  and  C6_16 
ROOT
HETATM    1  N2  UNL     1      -2.295  -0.045  -0.020  1.00  0.00    -0.266 N 
ATOM      2  H2  UNL     1      -2.013   0.479  -0.849  1.00  0.00     0.190 HD
ENDROOT
BRANCH   1   3
HETATM    3  N1  UNL     1      -3.633  -0.104   0.233  1.00  0.00    -0.213 N 
BRANCH   3   4
HETATM    4  C2  UNL     1      -4.397  -1.050   0.914  1.00  0.00     0.135 C 
HETATM    5  C1  UNL     1      -4.867  -2.357   0.472  1.00  0.00     0.099 C 
BRANCH   4   6
HETATM    6  O1  UNL     1      -4.770  -0.712   2.120  1.00  0.00    -0.348 OA
ATOM      7  H1  UNL     1      -4.464   0.140   2.408  1.00  0.00     0.219 HD
ENDBRANCH   4   6
ENDBRANCH   3   4
BRANCH   3   8
HETATM    8  C10 UNL     1      -4.391   1.084  -0.198  1.00  0.00     0.173 A 
HETATM    9  N4  UNL     1      -5.629   1.100  -0.683  1.00  0.00    -0.343 N 
HETATM   10  C11 UNL     1      -6.161   2.197  -1.018  1.00  0.00     0.117 A 
ATOM     11  H4  UNL     1      -6.149   0.228  -0.785  1.00  0.00     0.167 HD
HETATM   12  C12 UNL     1      -5.409   3.358  -0.856  1.00  0.00     0.070 A 
HETATM   13 BR1  UNL     1      -5.905   5.150  -1.275  1.00  0.00    -0.042 Br
HETATM   14  S2  UNL     1      -3.959   2.711  -0.219  1.00  0.00    -0.043 SA
ENDBRANCH   3   8
ENDBRANCH   1   3
BRANCH   1  15
HETATM   15  C3  UNL     1      -1.248  -0.632   0.742  1.00  0.00     0.187 C 
HETATM   16  S1  UNL     1      -1.772  -1.650   1.970  1.00  0.00    -0.040 SA
HETATM   17  N3  UNL     1       0.097  -0.547   0.545  1.00  0.00    -0.357 N 
ATOM     18  H3  UNL     1       0.673  -0.986   1.263  1.00  0.00     0.162 HD
BRANCH  17  19
HETATM   19  C4  UNL     1       0.809   0.064  -0.514  1.00  0.00     0.233 C 
BRANCH  19  20
HETATM   20  C5  UNL     1       2.247   0.355  -0.196  1.00  0.00     0.277 C 
HETATM   21  O2  UNL     1       2.496   1.572   0.086  1.00  0.00    -0.263 OA
BRANCH  20  22
HETATM   22  O3  UNL     1       3.241  -0.530  -0.199  1.00  0.00    -0.310 OA
BRANCH  22  23
HETATM   23  C6  UNL     1       4.607  -0.403  -0.044  1.00  0.00     0.060 C 
HETATM   24  C7  UNL     1       5.255   0.164  -1.304  1.00  0.00     0.045 C 
HETATM   25  C8  UNL     1       5.064   0.606   1.046  1.00  0.00     0.045 C 
HETATM   26  C9  UNL     1       5.235  -1.714   0.290  1.00  0.00     0.045 C 
ENDBRANCH  22  23
ENDBRANCH  20  22
ENDBRANCH  19  20
ENDBRANCH  17  19
ENDBRANCH   1  15
TORSDOF 9
