REMARK  6 active torsions:
REMARK  status: ('A' for Active; 'I' for Inactive)
REMARK    1  A    between atoms: N1_2  and  C2_3 
REMARK       I    between atoms: N1_2  and  C4_7 
REMARK    2  A    between atoms: C2_3  and  C3_4 
REMARK    3  A    between atoms: C3_4  and  O1_5 
REMARK    4  A    between atoms: C4_7  and  C5_9 
REMARK    5  A    between atoms: C5_9  and  O3_10 
REMARK    6  A    between atoms: C17_24  and  O4_25 
ROOT
HETATM    1  C5  UNL     1       2.443  -0.972  -0.701  1.00  0.00     0.146 C 
HETATM    2  C6  UNL     1       2.184  -2.338  -1.387  1.00  0.00     0.049 C 
HETATM    3  C7  UNL     1       0.715  -2.533  -1.075  1.00  0.00     0.009 C 
HETATM    4  C8  UNL     1       0.166  -1.184  -1.309  1.00  0.00     0.002 C 
HETATM    5  C9  UNL     1      -1.209  -0.905  -0.786  1.00  0.00    -0.002 C 
HETATM    6  C10 UNL     1      -1.578  -1.510   0.493  1.00  0.00     0.033 C 
HETATM    7  C11 UNL     1      -1.937  -0.671   1.619  1.00  0.00    -0.007 C 
HETATM    8  C12 UNL     1      -2.691   0.379   1.690  1.00  0.00     0.027 C 
HETATM    9  C13 UNL     1      -2.850   0.993   2.980  1.00  0.00     0.095 C 
HETATM   10  N2  UNL     1      -2.980   1.487   4.036  1.00  0.00    -0.192 NA
HETATM   11  C14 UNL     1      -3.413   1.047   0.625  1.00  0.00    -0.001 C 
HETATM   12  C15 UNL     1      -3.639   2.504   1.072  1.00  0.00     0.021 C 
HETATM   13  C16 UNL     1      -4.794   0.439   0.549  1.00  0.00     0.046 C 
HETATM   14  C17 UNL     1      -4.847  -0.438  -0.677  1.00  0.00     0.119 C 
HETATM   15  C18 UNL     1      -3.885   0.248  -1.611  1.00  0.00     0.038 C 
HETATM   16  C19 UNL     1      -2.909   0.990  -0.734  1.00  0.00     0.006 C 
HETATM   17  C20 UNL     1      -1.498   0.538  -0.981  1.00  0.00    -0.005 C 
HETATM   18  C21 UNL     1      -0.500   1.471  -0.388  1.00  0.00     0.006 C 
HETATM   19  C22 UNL     1       0.831   0.875  -0.049  1.00  0.00     0.013 C 
HETATM   20  C23 UNL     1       1.229  -0.167  -1.034  1.00  0.00     0.000 C 
HETATM   21  C24 UNL     1       1.605   0.614  -2.316  1.00  0.00     0.019 C 
ENDROOT
BRANCH  14  22
HETATM   22  O4  UNL     1      -6.174  -0.355  -1.145  1.00  0.00    -0.396 OA
ATOM     23  H4  UNL     1      -6.207  -0.907  -1.917  1.00  0.00     0.210 HD
ENDBRANCH  14  22
BRANCH   1  24
HETATM   24  C4  UNL     1       2.806  -1.127   0.685  1.00  0.00     0.255 C 
HETATM   25  N1  UNL     1       3.993  -0.866   1.333  1.00  0.00    -0.352 N 
HETATM   26  C1  UNL     1       4.081  -1.248   2.800  1.00  0.00     0.152 C 
HETATM   27  O2  UNL     1       1.873  -1.589   1.444  1.00  0.00    -0.270 OA
BRANCH  25  28
HETATM   28  C2  UNL     1       5.196  -0.212   0.910  1.00  0.00     0.151 C 
BRANCH  28  29
HETATM   29  C3  UNL     1       5.294   1.240   1.271  1.00  0.00     0.183 C 
BRANCH  29  30
HETATM   30  O1  UNL     1       4.279   1.965   0.731  1.00  0.00    -0.399 OA
ATOM     31  H1  UNL     1       4.341   2.885   0.960  1.00  0.00     0.209 HD
ENDBRANCH  29  30
ENDBRANCH  28  29
ENDBRANCH  25  28
ENDBRANCH   1  24
BRANCH   1  32
HETATM   32  O3  UNL     1       3.581  -0.523  -1.413  1.00  0.00    -0.379 OA
ATOM     33  H3  UNL     1       3.342  -0.421  -2.327  1.00  0.00     0.211 HD
ENDBRANCH   1  32
TORSDOF 6
