REMARK  5 active torsions:
REMARK  status: ('A' for Active; 'I' for Inactive)
REMARK    1  A    between atoms: O1_1  and  C1_3 
REMARK    2  A    between atoms: C1_3  and  C2_4 
REMARK    3  A    between atoms: C4_6  and  C5_7 
REMARK    4  A    between atoms: C11_13  and  O2_14 
REMARK    5  A    between atoms: C13_18  and  C14_19 
ROOT
HETATM    1  C2  UNL     1      -0.433   1.714   0.221  1.00  0.00    -0.004 A 
HETATM    2  C3  UNL     1      -1.761   1.355  -0.041  1.00  0.00     0.022 A 
HETATM    3  C4  UNL     1      -2.128   0.144  -0.554  1.00  0.00    -0.017 A 
HETATM    4  C11 UNL     1      -1.067  -0.736  -0.812  1.00  0.00     0.108 A 
HETATM    5  C12 UNL     1       0.244  -0.394  -0.566  1.00  0.00     0.138 A 
HETATM    6  O3  UNL     1       1.401  -1.022  -0.729  1.00  0.00    -0.292 OA
HETATM    7  C13 UNL     1       2.403  -0.278  -0.362  1.00  0.00     0.129 A 
HETATM    8  N1  UNL     1       1.893   0.902   0.076  1.00  0.00    -0.337 N 
ATOM      9  H1  UNL     1       2.427   1.694   0.435  1.00  0.00     0.168 HD
HETATM   10  C20 UNL     1       0.552   0.836  -0.050  1.00  0.00     0.079 A 
ENDROOT
BRANCH   3  11
HETATM   11  C5  UNL     1      -3.474  -0.092  -1.083  1.00  0.00     0.021 C 
HETATM   12  C6  UNL     1      -4.041  -1.469  -0.806  1.00  0.00     0.009 C 
HETATM   13  C7  UNL     1      -5.557  -1.403  -1.043  1.00  0.00     0.001 C 
HETATM   14  C8  UNL     1      -6.228  -0.841   0.200  1.00  0.00     0.000 C 
HETATM   15  C9  UNL     1      -5.248   0.153   0.755  1.00  0.00     0.001 C 
HETATM   16  C10 UNL     1      -4.430   0.867  -0.317  1.00  0.00     0.009 C 
ENDBRANCH   3  11
BRANCH   4  17
HETATM   17  O2  UNL     1      -1.375  -1.970  -1.297  1.00  0.00    -0.357 OA
ATOM     18  H2  UNL     1      -0.656  -2.566  -1.472  1.00  0.00     0.217 HD
ENDBRANCH   4  17
BRANCH   1  19
HETATM   19  C1  UNL     1      -0.073   3.063   0.728  1.00  0.00     0.205 C 
BRANCH  19  20
HETATM   20  O1  UNL     1      -0.813   3.081   1.962  1.00  0.00    -0.396 OA
ATOM     21  H1  UNL     1      -0.583   3.944   2.286  1.00  0.00     0.209 HD
ENDBRANCH  19  20
ENDBRANCH   1  19
BRANCH   7  22
HETATM   22  C14 UNL     1       3.875  -0.542  -0.383  1.00  0.00     0.061 C 
HETATM   23  C15 UNL     1       4.570   0.793  -0.269  1.00  0.00     0.013 C 
HETATM   24  C16 UNL     1       5.810   0.729   0.579  1.00  0.00     0.001 C 
HETATM   25  C17 UNL     1       6.530  -0.577   0.320  1.00  0.00     0.000 C 
HETATM   26  C18 UNL     1       5.714  -1.738   0.790  1.00  0.00     0.001 C 
HETATM   27  C19 UNL     1       4.224  -1.477   0.719  1.00  0.00     0.013 C 
ENDBRANCH   7  22
TORSDOF 5
