REMARK  7 active torsions:
REMARK  status: ('A' for Active; 'I' for Inactive)
REMARK    1  A    between atoms: C2_2  and  C4_4 
REMARK    2  A    between atoms: C5_6  and  O2_7 
REMARK    3  A    between atoms: C6_9  and  O3_10 
REMARK    4  A    between atoms: C7_12  and  C8_13 
REMARK    5  A    between atoms: C15_20  and  N1_21 
REMARK    6  A    between atoms: N1_21  and  N2_23 
REMARK    7  A    between atoms: N2_23  and  N3_24 
ROOT
HETATM    1  C8  UNL     1       0.367  -0.664  -0.482  1.00  0.00    -0.055 C 
HETATM    2  C9  UNL     1       0.440  -2.147  -0.462  1.00  0.00     0.037 C 
HETATM    3  C10 UNL     1      -0.710  -2.606   0.452  1.00  0.00     0.014 C 
HETATM    4  C11 UNL     1      -1.702  -1.525   0.223  1.00  0.00    -0.032 C 
HETATM    5  C12 UNL     1      -2.348  -1.728  -1.099  1.00  0.00     0.016 C 
HETATM    6  C13 UNL     1      -2.797  -1.409   1.239  1.00  0.00     0.012 C 
HETATM    7  C14 UNL     1      -3.644  -0.259   0.800  1.00  0.00     0.028 C 
HETATM    8  C15 UNL     1      -2.960   0.950   0.306  1.00  0.00     0.115 C 
HETATM    9  C16 UNL     1      -1.635   0.823  -0.333  1.00  0.00     0.042 C 
HETATM   10  C17 UNL     1      -0.809  -0.285   0.305  1.00  0.00    -0.010 C 
HETATM   11  C18 UNL     1      -0.540   0.051   1.704  1.00  0.00     0.021 C 
ENDROOT
BRANCH   1  12
HETATM   12  C7  UNL     1       1.467   0.144  -0.881  1.00  0.00     0.035 A 
HETATM   13  C4  UNL     1       2.617   0.477  -0.159  1.00  0.00     0.072 A 
HETATM   14  O1  UNL     1       3.307   1.324  -0.918  1.00  0.00    -0.289 OA
HETATM   15  C5  UNL     1       2.730   1.572  -2.041  1.00  0.00     0.218 A 
HETATM   16  C6  UNL     1       1.560   0.856  -2.080  1.00  0.00     0.137 A 
BRANCH  13  17
HETATM   17  C2  UNL     1       3.102   0.076   1.142  1.00  0.00     0.036 C 
HETATM   18  C1  UNL     1       4.700   0.146   0.980  1.00  0.00     0.016 C 
HETATM   19  C3  UNL     1       2.996   1.179   2.215  1.00  0.00     0.016 C 
ENDBRANCH  13  17
BRANCH  15  20
HETATM   20  O2  UNL     1       3.201   2.424  -3.059  1.00  0.00    -0.339 OA
ATOM     21  H2  UNL     1       2.775   2.607  -3.888  1.00  0.00     0.220 HD
ENDBRANCH  15  20
BRANCH  16  22
HETATM   22  O3  UNL     1       0.662   0.889  -3.177  1.00  0.00    -0.355 OA
ATOM     23  H3  UNL     1      -0.148   0.393  -3.204  1.00  0.00     0.218 HD
ENDBRANCH  16  22
ENDBRANCH   1  12
BRANCH   8  24
HETATM   24  N1  UNL     1      -3.013   1.999   1.316  1.00  0.00    -0.248 N 
ATOM     25  H1  UNL     1      -2.298   2.006   2.043  1.00  0.00     0.197 HD
BRANCH  24  26
HETATM   26  N2  UNL     1      -3.877   2.880   1.338  1.00  0.00    -0.248 NA
BRANCH  26  27
HETATM   27  N3  UNL     1      -4.466   3.930   1.098  1.00  0.00    -0.261 N 
ATOM     28  H32 UNL     1      -3.767   4.310   0.460  1.00  0.00     0.193 HD
ATOM     29  H31 UNL     1      -5.180   4.658   1.116  1.00  0.00     0.193 HD
ENDBRANCH  26  27
ENDBRANCH  24  26
ENDBRANCH   8  24
TORSDOF 7
