REMARK  5 active torsions:
REMARK  status: ('A' for Active; 'I' for Inactive)
REMARK    1  A    between atoms: C2_2  and  C3_4 
REMARK    2  A    between atoms: C4_5  and  O2_6 
REMARK    3  A    between atoms: C5_8  and  C6_9 
REMARK    4  A    between atoms: C6_9  and  C7_10 
REMARK    5  A    between atoms: C12_15  and  O3_16 
ROOT
HETATM    1  C3  UNL     1       1.442   2.240  -0.202  1.00  0.00     0.077 A 
HETATM    2  C4  UNL     1       2.189   1.135   0.124  1.00  0.00     0.090 A 
HETATM    3  C5  UNL     1       1.556  -0.048   0.586  1.00  0.00    -0.006 A 
HETATM    4  C10 UNL     1       0.211  -0.059   0.695  1.00  0.00     0.020 A 
HETATM    5  C11 UNL     1      -0.599   1.014   0.385  1.00  0.00     0.002 A 
HETATM    6  C12 UNL     1       0.044   2.154  -0.062  1.00  0.00     0.090 A 
HETATM    7  C13 UNL     1      -2.025   0.868   0.546  1.00  0.00    -0.015 C 
HETATM    8  C14 UNL     1      -2.902   1.933  -0.073  1.00  0.00     0.020 C 
HETATM    9  C15 UNL     1      -2.323   1.011   2.049  1.00  0.00     0.020 C 
HETATM   10  C16 UNL     1      -2.601  -0.415  -0.006  1.00  0.00     0.033 C 
HETATM   11  C17 UNL     1      -2.149  -1.686   0.568  1.00  0.00     0.007 C 
HETATM   12  C18 UNL     1      -2.043  -2.694  -0.592  1.00  0.00     0.027 C 
HETATM   13  C19 UNL     1      -3.116  -2.316   1.549  1.00  0.00     0.027 C 
HETATM   14  S1  UNL     1      -0.499  -1.613   1.304  1.00  0.00    -0.119 SA
ENDROOT
BRANCH   3  15
HETATM   15  C6  UNL     1       2.434  -1.192   0.919  1.00  0.00     0.046 C 
BRANCH  15  16
HETATM   16  C7  UNL     1       2.982  -1.911  -0.277  1.00  0.00    -0.018 C 
HETATM   17  C8  UNL     1       1.887  -2.481  -1.153  1.00  0.00     0.010 C 
HETATM   18  C9  UNL     1       3.746  -3.125   0.262  1.00  0.00     0.010 C 
ENDBRANCH  15  16
ENDBRANCH   3  15
BRANCH   2  19
HETATM   19  O2  UNL     1       3.551   1.095   0.031  1.00  0.00    -0.359 OA
ATOM     20  H2  UNL     1       4.068   0.330   0.257  1.00  0.00     0.217 HD
ENDBRANCH   2  19
BRANCH   1  21
HETATM   21  C2  UNL     1       2.010   3.491  -0.681  1.00  0.00     0.161 C 
HETATM   22  C1  UNL     1       1.229   4.695  -1.039  1.00  0.00     0.097 C 
HETATM   23  O1  UNL     1       3.249   3.586  -0.811  1.00  0.00    -0.293 OA
ENDBRANCH   1  21
BRANCH   6  24
HETATM   24  O3  UNL     1      -0.658   3.214  -0.375  1.00  0.00    -0.359 OA
ATOM     25  H3  UNL     1      -1.602   3.156  -0.281  1.00  0.00     0.217 HD
ENDBRANCH   6  24
TORSDOF 5
