REMARK  3 active torsions:
REMARK  status: ('A' for Active; 'I' for Inactive)
REMARK    1  A    between atoms: C7_7  and  C9_9 
REMARK    2  A    between atoms: C9_9  and  O1_10 
REMARK    3  A    between atoms: C11_13  and  O2_14 
ROOT
HETATM    1  C1  UNL     1      -3.288   0.561   0.735  1.00  0.00     0.012 C 
HETATM    2  C2  UNL     1      -2.207   0.183  -0.204  1.00  0.00     0.011 C 
HETATM    3  C3  UNL     1      -1.798  -1.296  -0.069  1.00  0.00     0.012 C 
HETATM    4  C4  UNL     1      -0.405  -1.209  -0.563  1.00  0.00    -0.007 C 
HETATM    5  C5  UNL     1       0.563  -2.222  -0.123  1.00  0.00     0.006 C 
HETATM    6  C6  UNL     1       1.876  -1.423  -0.086  1.00  0.00     0.012 C 
HETATM    7  C7  UNL     1       1.455   0.056  -0.075  1.00  0.00    -0.016 C 
HETATM    8  C8  UNL     1       1.743   0.712  -1.378  1.00  0.00     0.018 C 
HETATM    9  C10 UNL     1       0.063  -0.036   0.326  1.00  0.00     0.029 C 
HETATM   10  C11 UNL     1      -0.915   0.982   0.025  1.00  0.00     0.127 C 
ENDROOT
BRANCH   7  11
HETATM   11  C9  UNL     1       2.263   0.741   1.017  1.00  0.00     0.173 C 
BRANCH  11  12
HETATM   12  O1  UNL     1       1.923   2.088   1.073  1.00  0.00    -0.400 OA
ATOM     13  H1  UNL     1       2.428   2.516   1.755  1.00  0.00     0.209 HD
ENDBRANCH  11  12
ENDBRANCH   7  11
BRANCH  10  14
HETATM   14  O2  UNL     1      -0.655   1.846  -1.006  1.00  0.00    -0.395 OA
ATOM     15  H2  UNL     1       0.144   2.340  -0.864  1.00  0.00     0.210 HD
ENDBRANCH  10  14
TORSDOF 3
