REMARK  15 active torsions:
REMARK  status: ('A' for Active; 'I' for Inactive)
REMARK    1  A    between atoms: N1_1  and  C1_5 
REMARK    2  A    between atoms: C1_5  and  C2_6 
REMARK    3  A    between atoms: C2_6  and  C3_7 
REMARK    4  A    between atoms: C3_7  and  C4_8 
REMARK    5  A    between atoms: C4_8  and  C5_9 
REMARK    6  A    between atoms: C8_15  and  C9_16 
REMARK    7  A    between atoms: C9_16  and  C10_17 
REMARK    8  A    between atoms: C10_17  and  C11_18 
REMARK    9  A    between atoms: C11_18  and  C12_19 
REMARK   10  A    between atoms: C12_19  and  N3_20 
REMARK   11  A    between atoms: C16_30  and  C17_31 
REMARK   12  A    between atoms: C17_31  and  C18_32 
REMARK   13  A    between atoms: C18_32  and  C19_33 
REMARK   14  A    between atoms: C19_33  and  C20_34 
REMARK   15  A    between atoms: C20_34  and  N5_35 
ROOT
HETATM    1  C5  UNL     1      -0.277   1.281  -0.611  1.00  0.00     0.093 C 
HETATM    2  C6  UNL     1       1.047   1.930  -0.843  1.00  0.00     0.128 C 
HETATM    3  C7  UNL     1       1.902   2.005   0.372  1.00  0.00     0.220 C 
HETATM    4  O1  UNL     1       2.385   3.149   0.679  1.00  0.00    -0.274 OA
HETATM    5  N2  UNL     1       2.195   0.903   1.177  1.00  0.00    -0.348 N 
ATOM      6  H2  UNL     1       2.289   1.078   2.177  1.00  0.00     0.163 HD
HETATM    7  C8  UNL     1       2.379  -0.465   0.735  1.00  0.00     0.176 C 
HETATM    8  C13 UNL     1       1.630  -1.325   1.686  1.00  0.00     0.240 C 
HETATM    9  O2  UNL     1       1.653  -1.001   2.898  1.00  0.00    -0.271 OA
HETATM   10  N4  UNL     1       0.899  -2.474   1.315  1.00  0.00    -0.359 N 
ATOM     11  H4  UNL     1       0.184  -2.804   1.963  1.00  0.00     0.162 HD
HETATM   12  C14 UNL     1       1.080  -3.218   0.096  1.00  0.00     0.123 C 
HETATM   13  C15 UNL     1       0.089  -2.899  -0.973  1.00  0.00     0.034 C 
HETATM   14  C16 UNL     1      -0.967  -1.889  -0.538  1.00  0.00     0.079 C 
HETATM   15  C21 UNL     1      -1.197  -0.874  -1.603  1.00  0.00     0.222 C 
HETATM   16  O3  UNL     1      -2.076  -1.149  -2.493  1.00  0.00    -0.273 OA
HETATM   17  N6  UNL     1      -0.528   0.353  -1.706  1.00  0.00    -0.356 N 
ATOM     18  H6  UNL     1      -0.187   0.620  -2.629  1.00  0.00     0.162 HD
ENDROOT
BRANCH   1  19
HETATM   19  C4  UNL     1      -1.357   2.343  -0.751  1.00  0.00     0.026 C 
BRANCH  19  20
HETATM   20  C3  UNL     1      -1.205   3.475   0.231  1.00  0.00     0.004 C 
BRANCH  20  21
HETATM   21  C2  UNL     1      -2.369   4.433  -0.060  1.00  0.00     0.027 C 
BRANCH  21  22
HETATM   22  C1  UNL     1      -2.323   5.622   0.872  1.00  0.00     0.229 C 
BRANCH  22  23
HETATM   23  N1  UNL     1      -3.439   6.477   0.546  1.00  0.00    -0.079 N 
ATOM     24  H13 UNL     1      -3.459   6.745  -0.438  1.00  0.00     0.274 HD
ATOM     25  H12 UNL     1      -4.334   5.988   0.571  1.00  0.00     0.274 HD
ATOM     26  H11 UNL     1      -3.408   7.279   1.175  1.00  0.00     0.274 HD
ENDBRANCH  22  23
ENDBRANCH  21  22
ENDBRANCH  20  21
ENDBRANCH  19  20
ENDBRANCH   1  19
BRANCH  14  27
HETATM   27  C17 UNL     1      -2.239  -2.696  -0.314  1.00  0.00     0.014 C 
BRANCH  27  28
HETATM   28  C18 UNL     1      -3.393  -1.850   0.123  1.00  0.00     0.002 C 
BRANCH  28  29
HETATM   29  C19 UNL     1      -4.585  -2.770   0.308  1.00  0.00     0.027 C 
BRANCH  29  30
HETATM   30  C20 UNL     1      -5.809  -1.996   0.754  1.00  0.00     0.229 C 
BRANCH  30  31
HETATM   31  N5  UNL     1      -6.947  -2.876   0.930  1.00  0.00    -0.079 N 
ATOM     32  H53 UNL     1      -7.134  -3.422   0.089  1.00  0.00     0.274 HD
ATOM     33  H52 UNL     1      -6.734  -3.642   1.568  1.00  0.00     0.274 HD
ATOM     34  H51 UNL     1      -7.771  -2.355   1.230  1.00  0.00     0.274 HD
ENDBRANCH  30  31
ENDBRANCH  29  30
ENDBRANCH  28  29
ENDBRANCH  27  28
ENDBRANCH  14  27
BRANCH   7  35
HETATM   35  C9  UNL     1       3.856  -0.809   0.777  1.00  0.00     0.035 C 
BRANCH  35  36
HETATM   36  C10 UNL     1       4.575   0.132  -0.134  1.00  0.00     0.004 C 
BRANCH  36  37
HETATM   37  C11 UNL     1       6.067  -0.120  -0.174  1.00  0.00     0.027 C 
BRANCH  37  38
HETATM   38  C12 UNL     1       6.389  -1.511  -0.654  1.00  0.00     0.229 C 
BRANCH  38  39
HETATM   39  N3  UNL     1       5.908  -1.791  -1.974  1.00  0.00    -0.079 N 
ATOM     40  H33 UNL     1       4.906  -1.612  -2.037  1.00  0.00     0.274 HD
ATOM     41  H32 UNL     1       6.249  -1.094  -2.636  1.00  0.00     0.274 HD
ATOM     42  H31 UNL     1       6.126  -2.733  -2.299  1.00  0.00     0.274 HD
ENDBRANCH  38  39
ENDBRANCH  37  38
ENDBRANCH  36  37
ENDBRANCH  35  36
ENDBRANCH   7  35
TORSDOF 15
