REMARK  0 active torsions:
REMARK  status: ('A' for Active; 'I' for Inactive)
ROOT
HETATM    1  C1  UNL     1       5.147   0.560   1.398  1.00  0.00     0.149 C 
HETATM    2  N1  UNL     1       4.654   0.105   0.164  1.00  0.00    -0.391 N 
HETATM    3  C2  UNL     1       4.520  -1.278  -0.032  1.00  0.00     0.060 C 
HETATM    4  C3  UNL     1       3.149  -1.822   0.339  1.00  0.00     0.076 C 
HETATM    5  C4  UNL     1       2.116  -1.435  -0.707  1.00  0.00     0.130 C 
HETATM    6  O1  UNL     1       2.597  -0.804  -1.779  1.00  0.00    -0.383 OA
HETATM    7  C5  UNL     1       3.232   0.343  -1.771  1.00  0.00     0.193 C 
HETATM    8  C6  UNL     1       3.706   0.946  -0.495  1.00  0.00     0.106 C 
HETATM    9  C7  UNL     1       2.638   1.496   0.389  1.00  0.00     0.028 C 
HETATM   10  C8  UNL     1       1.319   1.704  -0.266  1.00  0.00     0.007 C 
HETATM   11  C9  UNL     1       0.555   0.528  -0.655  1.00  0.00    -0.003 C 
HETATM   12  C10 UNL     1       0.956  -0.778  -0.005  1.00  0.00     0.020 C 
HETATM   13  C11 UNL     1      -0.308  -1.635  -0.023  1.00  0.00     0.013 C 
HETATM   14  C12 UNL     1      -1.325  -0.768  -0.670  1.00  0.00     0.001 C 
HETATM   15  C13 UNL     1      -0.873   0.598  -0.130  1.00  0.00    -0.003 C 
HETATM   16  C14 UNL     1      -1.714   1.631  -0.754  1.00  0.00     0.040 C 
HETATM   17  C15 UNL     1      -3.096   1.515  -0.145  1.00  0.00     0.162 C 
HETATM   18  O2  UNL     1      -3.242   2.543   0.758  1.00  0.00    -0.356 OA
HETATM   19  C16 UNL     1      -3.102   2.195   2.071  1.00  0.00     0.379 C 
HETATM   20  O3  UNL     1      -3.741   1.001   2.400  1.00  0.00    -0.214 OA
HETATM   21  O4  UNL     1      -3.099   0.044   1.772  1.00  0.00    -0.224 OA
HETATM   22  C17 UNL     1      -3.390   0.164   0.415  1.00  0.00     0.126 C 
HETATM   23  C18 UNL     1      -4.910  -0.032   0.302  1.00  0.00     0.053 C 
HETATM   24  C19 UNL     1      -2.728  -0.966  -0.300  1.00  0.00    -0.007 C 
HETATM   25  C20 UNL     1      -3.528  -1.208  -1.589  1.00  0.00     0.018 C 
HETATM   26  C21 UNL     1      -2.878  -2.224   0.524  1.00  0.00     0.018 C 
ENDROOT
TORSDOF 0
