REMARK  10 active torsions:
REMARK  status: ('A' for Active; 'I' for Inactive)
REMARK    1  A    between atoms: O1_2  and  C2_3 
REMARK    2  A    between atoms: C2_3  and  C3_5 
REMARK    3  A    between atoms: N1_8  and  C6_9 
REMARK    4  A    between atoms: C6_9  and  C7_10 
REMARK    5  A    between atoms: C7_10  and  C8_11 
REMARK    6  A    between atoms: C8_11  and  C9_12 
REMARK    7  A    between atoms: C9_12  and  O3_13 
REMARK    8  A    between atoms: C9_12  and  N2_15 
REMARK    9  A    between atoms: C14_23  and  N4_24 
REMARK   10  A    between atoms: C15_30  and  N7_31 
ROOT
HETATM    1  C3  UNL     1       4.190   0.625   0.098  1.00  0.00     0.107 A 
HETATM    2  C4  UNL     1       3.006   0.291  -0.361  1.00  0.00     0.050 A 
HETATM    3  C5  UNL     1       2.339   1.333  -1.234  1.00  0.00     0.071 C 
HETATM    4  N1  UNL     1       2.331  -0.940  -0.138  1.00  0.00    -0.272 N 
HETATM    5  N5  UNL     1       2.864  -2.009   0.628  1.00  0.00    -0.155 N 
HETATM    6  N6  UNL     1       2.313  -3.203   0.885  1.00  0.00    -0.109 N 
ATOM      7  H6  UNL     1       1.401  -3.530   0.565  1.00  0.00     0.208 HD
HETATM    8  C15 UNL     1       3.181  -3.887   1.640  1.00  0.00     0.694 A 
HETATM    9  N8  UNL     1       4.267  -3.149   1.865  1.00  0.00    -0.166 N 
ATOM     10  H8  UNL     1       5.091  -3.411   2.407  1.00  0.00     0.186 HD
HETATM   11  C16 UNL     1       4.049  -1.990   1.230  1.00  0.00     0.203 A 
HETATM   12  S1  UNL     1       5.085  -0.553   1.134  1.00  0.00    -0.042 SA
ENDROOT
BRANCH   4  13
HETATM   13  C6  UNL     1       0.959  -1.111  -0.653  1.00  0.00     0.151 C 
BRANCH  13  14
HETATM   14  C7  UNL     1       0.044  -0.311   0.205  1.00  0.00     0.026 C 
BRANCH  14  15
HETATM   15  C8  UNL     1      -1.415  -0.416  -0.275  1.00  0.00     0.056 C 
BRANCH  15  16
HETATM   16  C9  UNL     1      -2.192   0.448   0.708  1.00  0.00     0.242 C 
BRANCH  16  17
HETATM   17  O3  UNL     1      -1.632   1.740   0.573  1.00  0.00    -0.376 OA
ATOM     18  H3  UNL     1      -2.117   2.279   1.187  1.00  0.00     0.212 HD
ENDBRANCH  16  17
BRANCH  16  19
HETATM   19  N2  UNL     1      -3.603   0.488   0.451  1.00  0.00    -0.166 N 
HETATM   20  C10 UNL     1      -4.266  -0.530  -0.103  1.00  0.00     0.124 A 
HETATM   21  C11 UNL     1      -5.638  -0.464  -0.342  1.00  0.00     0.023 A 
HETATM   22  C12 UNL     1      -6.395  -1.591  -0.960  1.00  0.00     0.056 C 
HETATM   23  C13 UNL     1      -6.330   0.676   0.001  1.00  0.00     0.266 A 
HETATM   24  O4  UNL     1      -7.584   0.780  -0.199  1.00  0.00    -0.267 OA
HETATM   25  N3  UNL     1      -5.633   1.683   0.557  1.00  0.00    -0.156 N 
HETATM   26  C14 UNL     1      -4.314   1.598   0.778  1.00  0.00     0.682 A 
ATOM     27  H3  UNL     1      -6.124   2.538   0.819  1.00  0.00     0.187 HD
BRANCH  26  28
HETATM   28  N4  UNL     1      -3.675   2.573   1.308  1.00  0.00    -0.234 N 
ATOM     29  H42 UNL     1      -2.671   2.508   1.476  1.00  0.00     0.174 HD
ATOM     30  H41 UNL     1      -4.209   3.407   1.554  1.00  0.00     0.174 HD
ENDBRANCH  26  28
ENDBRANCH  16  19
ENDBRANCH  15  16
ENDBRANCH  14  15
ENDBRANCH  13  14
ENDBRANCH   4  13
BRANCH   1  31
HETATM   31  C2  UNL     1       4.876   1.862  -0.153  1.00  0.00     0.302 C 
HETATM   32  O2  UNL     1       4.427   2.808  -0.846  1.00  0.00    -0.259 OA
BRANCH  31  33
HETATM   33  O1  UNL     1       6.160   2.073   0.404  1.00  0.00    -0.322 OA
HETATM   34  C1  UNL     1       6.826   3.311   0.143  1.00  0.00     0.213 C 
ENDBRANCH  31  33
ENDBRANCH   1  31
BRANCH   8  35
HETATM   35  N7  UNL     1       3.030  -5.080   2.100  1.00  0.00    -0.233 N 
ATOM     36  H72 UNL     1       2.198  -5.645   1.928  1.00  0.00     0.174 HD
ATOM     37  H71 UNL     1       3.692  -5.601   2.675  1.00  0.00     0.174 HD
ENDBRANCH   8  35
TORSDOF 10
