REMARK  8 active torsions:
REMARK  status: ('A' for Active; 'I' for Inactive)
REMARK    1  A    between atoms: O1_2  and  N1_3 
REMARK    2  A    between atoms: N1_3  and  C2_4 
REMARK    3  A    between atoms: C2_4  and  C3_5 
REMARK    4  A    between atoms: C2_4  and  C7_20 
REMARK       I    between atoms: C3_5  and  N2_7 
REMARK    5  A    between atoms: N2_7  and  C4_9 
REMARK    6  A    between atoms: C4_9  and  C5_10 
REMARK    7  A    between atoms: C4_9  and  C6_13 
REMARK       I    between atoms: C6_13  and  N3_15 
REMARK    8  A    between atoms: N3_15  and  N4_17 
ROOT
HETATM    1  C3  UNL     1       0.081   1.142  -0.465  1.00  0.00     0.245 C 
HETATM    2  O2  UNL     1       0.260   2.299   0.017  1.00  0.00    -0.271 OA
HETATM    3  N2  UNL     1       1.178   0.249  -0.667  1.00  0.00    -0.337 N 
ATOM      4  H2  UNL     1       1.015  -0.680  -1.056  1.00  0.00     0.163 HD
ENDROOT
BRANCH   1   5
HETATM    5  C2  UNL     1      -1.294   0.711  -0.823  1.00  0.00     0.231 C 
BRANCH   5   6
HETATM    6  N1  UNL     1      -2.235   1.762  -0.539  1.00  0.00    -0.082 NA
BRANCH   6   7
HETATM    7  O1  UNL     1      -2.174   2.040   0.783  1.00  0.00    -0.290 OA
HETATM    8  C1  UNL     1      -3.269   2.797   1.203  1.00  0.00     0.231 C 
ENDBRANCH   6   7
ENDBRANCH   5   6
BRANCH   5   9
HETATM    9  C7  UNL     1      -1.593  -0.523  -0.042  1.00  0.00    -0.022 A 
HETATM   10  C8  UNL     1      -1.298  -0.647   1.292  1.00  0.00     0.010 A 
HETATM   11  C9  UNL     1      -1.565  -1.784   2.039  1.00  0.00     0.001 A 
HETATM   12  C10 UNL     1      -2.165  -2.851   1.393  1.00  0.00     0.001 A 
HETATM   13  C11 UNL     1      -2.467  -2.737   0.051  1.00  0.00     0.007 A 
HETATM   14  C12 UNL     1      -2.196  -1.601  -0.682  1.00  0.00    -0.053 A 
HETATM   15  C13 UNL     1      -2.549  -1.560  -2.107  1.00  0.00     0.049 C 
ENDBRANCH   5   9
ENDBRANCH   1   5
BRANCH   3  16
HETATM   16  C4  UNL     1       2.528   0.664  -0.318  1.00  0.00     0.280 C 
BRANCH  16  17
HETATM   17  C5  UNL     1       3.360   0.693  -1.549  1.00  0.00     0.206 C 
HETATM   18  O3  UNL     1       2.877   0.384  -2.664  1.00  0.00    -0.646 OA
HETATM   19  O4  UNL     1       4.685   1.070  -1.434  1.00  0.00    -0.646 OA
ENDBRANCH  16  17
BRANCH  16  20
HETATM   20  C6  UNL     1       3.070  -0.242   0.723  1.00  0.00     0.269 C 
HETATM   21  O5  UNL     1       2.341  -1.183   1.120  1.00  0.00    -0.269 OA
HETATM   22  N3  UNL     1       4.355  -0.092   1.281  1.00  0.00    -0.274 N 
ATOM     23  H3  UNL     1       4.956   0.670   0.967  1.00  0.00     0.189 HD
BRANCH  22  24
HETATM   24  N4  UNL     1       4.812  -0.970   2.253  1.00  0.00    -0.343 N 
ATOM     25  H42 UNL     1       4.199  -1.727   2.556  1.00  0.00     0.176 HD
ATOM     26  H41 UNL     1       5.742  -0.861   2.657  1.00  0.00     0.176 HD
ENDBRANCH  22  24
ENDBRANCH  16  20
ENDBRANCH   3  16
TORSDOF 8
