REMARK  7 active torsions:
REMARK  status: ('A' for Active; 'I' for Inactive)
REMARK    1  A    between atoms: C2_2  and  S1_16 
REMARK    2  A    between atoms: N1_3  and  C3_5 
REMARK    3  A    between atoms: C3_5  and  C4_6 
REMARK    4  A    between atoms: C4_6  and  C5_7 
REMARK    5  A    between atoms: S1_16  and  C11_17 
REMARK    6  A    between atoms: C12_18  and  O1_19 
REMARK    7  A    between atoms: N4_25  and  N5_26 
ROOT
HETATM    1  C1  UNL     1       1.372   2.536   1.167  1.00  0.00     0.076 C 
HETATM    2  C2  UNL     1       2.113   1.383   0.590  1.00  0.00     0.044 C 
HETATM    3  N1  UNL     1       1.587   0.456  -0.078  1.00  0.00    -0.388 N 
ATOM      4  H1  UNL     1       2.208  -0.278  -0.419  1.00  0.00     0.159 HD
ENDROOT
BRANCH   2   5
HETATM    5  S1  UNL     1       3.883   1.319   0.871  1.00  0.00    -0.053 SA
BRANCH   5   6
HETATM    6  C11 UNL     1       4.617  -0.113   0.126  1.00  0.00     0.152 A 
HETATM    7  C12 UNL     1       5.131  -0.233  -1.158  1.00  0.00     0.179 A 
HETATM    8  N3  UNL     1       5.580  -1.510  -1.277  1.00  0.00    -0.310 N 
HETATM    9  C13 UNL     1       5.346  -2.146  -0.105  1.00  0.00     0.200 A 
ATOM     10  H3  UNL     1       6.017  -1.918  -2.104  1.00  0.00     0.170 HD
HETATM   11  S2  UNL     1       5.719  -3.717   0.230  1.00  0.00    -0.039 SA
HETATM   12  N4  UNL     1       4.758  -1.297   0.754  1.00  0.00    -0.225 N 
BRANCH   7  13
HETATM   13  O1  UNL     1       5.159   0.782  -2.102  1.00  0.00    -0.344 OA
ATOM     14  H1  UNL     1       5.511   0.700  -2.981  1.00  0.00     0.219 HD
ENDBRANCH   7  13
BRANCH  12  15
HETATM   15  N5  UNL     1       4.362  -1.580   2.067  1.00  0.00    -0.335 N 
ATOM     16  H52 UNL     1       3.916  -0.935   2.719  1.00  0.00     0.177 HD
ATOM     17  H51 UNL     1       4.469  -2.476   2.542  1.00  0.00     0.177 HD
ENDBRANCH  12  15
ENDBRANCH   5   6
ENDBRANCH   2   5
BRANCH   3  18
HETATM   18  C3  UNL     1       0.202   0.335  -0.404  1.00  0.00     0.122 C 
BRANCH  18  19
HETATM   19  C4  UNL     1      -0.657  -0.050   0.741  1.00  0.00     0.052 C 
BRANCH  19  20
HETATM   20  C5  UNL     1      -2.097  -0.159   0.328  1.00  0.00     0.187 C 
HETATM   21  C6  UNL     1      -2.690   1.118  -0.204  1.00  0.00     0.033 C 
HETATM   22  C7  UNL     1      -3.392   0.872  -1.519  1.00  0.00     0.002 C 
HETATM   23  C8  UNL     1      -4.446  -0.176  -1.391  1.00  0.00     0.002 C 
HETATM   24  C9  UNL     1      -4.940  -0.424  -0.005  1.00  0.00     0.027 C 
HETATM   25  C10 UNL     1      -4.062  -1.322   0.823  1.00  0.00     0.232 C 
HETATM   26  N2  UNL     1      -2.932  -0.662   1.423  1.00  0.00    -0.071 N 
ATOM     27  H22 UNL     1      -2.421  -1.257   2.076  1.00  0.00     0.277 HD
ATOM     28  H21 UNL     1      -3.199   0.063   2.089  1.00  0.00     0.277 HD
ENDBRANCH  19  20
ENDBRANCH  18  19
ENDBRANCH   3  18
TORSDOF 7
