REMARK  0 active torsions:
REMARK  status: ('A' for Active; 'I' for Inactive)
ROOT
HETATM    1  C1  UNL     1       3.555  -0.039   0.035  1.00  0.00     0.014 C 
HETATM    2  C2  UNL     1       2.142   0.143  -0.594  1.00  0.00     0.009 C 
HETATM    3  C3  UNL     1       1.778   1.500  -0.709  1.00  0.00    -0.026 C 
HETATM    4  C4  UNL     1       0.562   2.242  -0.343  1.00  0.00    -0.029 C 
HETATM    5  C5  UNL     1      -0.791   1.897  -0.815  1.00  0.00     0.036 C 
HETATM    6  C6  UNL     1      -1.589   0.863  -0.019  1.00  0.00    -0.036 C 
HETATM    7  C7  UNL     1      -2.336   1.535   1.149  1.00  0.00     0.016 C 
HETATM    8  C8  UNL     1      -2.488  -0.017  -0.776  1.00  0.00     0.010 C 
HETATM    9  C9  UNL     1      -2.298  -1.482  -0.782  1.00  0.00     0.002 C 
HETATM   10  C10 UNL     1      -0.948  -2.072  -0.361  1.00  0.00     0.010 C 
HETATM   11  C11 UNL     1      -0.015  -0.893  -0.431  1.00  0.00    -0.035 C 
HETATM   12  C12 UNL     1       0.078  -0.751  -1.853  1.00  0.00     0.016 C 
HETATM   13  C13 UNL     1       1.385  -0.980   0.079  1.00  0.00     0.006 C 
HETATM   14  C14 UNL     1       1.540  -0.945   1.574  1.00  0.00     0.052 C 
HETATM   15  C15 UNL     1       0.340  -1.327   2.352  1.00  0.00    -0.012 C 
HETATM   16  S1  UNL     1       0.397  -2.166   3.494  1.00  0.00    -0.090 SA
HETATM   17  C16 UNL     1      -0.974  -0.762   1.849  1.00  0.00     0.052 C 
HETATM   18  C17 UNL     1      -0.571  -0.002   0.591  1.00  0.00     0.007 C 
ENDROOT
TORSDOF 0
