REMARK  6 active torsions:
REMARK  status: ('A' for Active; 'I' for Inactive)
REMARK    1  A    between atoms: N1_1  and  N2_4 
REMARK    2  A    between atoms: N2_4  and  C1_6 
REMARK    3  A    between atoms: C2_9  and  N4_10 
REMARK    4  A    between atoms: N4_10  and  C3_12 
REMARK    5  A    between atoms: C3_12  and  N5_13 
REMARK    6  A    between atoms: N5_13  and  O1_15 
ROOT
HETATM    1  C1  UNL     1      -1.018   1.418  -0.046  1.00  0.00     0.699 C 
HETATM    2  N3  UNL     1       0.327   1.266   0.002  1.00  0.00    -0.171 N 
ATOM      3  H3  UNL     1       0.866   2.125   0.106  1.00  0.00     0.186 HD
HETATM    4  C2  UNL     1       1.058   0.111  -0.071  1.00  0.00     0.175 C 
HETATM    5  C4  UNL     1       0.552  -1.120   0.267  1.00  0.00     0.246 C 
HETATM    6  O2  UNL     1       1.371  -1.929   0.713  1.00  0.00    -0.282 OA
HETATM    7  C5  UNL     1      -0.763  -1.602   0.181  1.00  0.00     0.133 A 
HETATM    8  N6  UNL     1      -1.146  -2.886   0.250  1.00  0.00    -0.346 N 
ATOM      9  H6  UNL     1      -0.524  -3.685   0.375  1.00  0.00     0.167 HD
HETATM   10  C6  UNL     1      -2.494  -2.947   0.127  1.00  0.00     0.182 A 
HETATM   11  N7  UNL     1      -2.973  -1.701  -0.022  1.00  0.00    -0.336 N 
ATOM     12  H7  UNL     1      -3.952  -1.440  -0.137  1.00  0.00     0.168 HD
HETATM   13  C7  UNL     1      -1.923  -0.861   0.009  1.00  0.00     0.153 A 
HETATM   14  N8  UNL     1      -1.987   0.486  -0.108  1.00  0.00    -0.173 N 
ATOM     15  H8  UNL     1      -2.924   0.856  -0.270  1.00  0.00     0.186 HD
ENDROOT
BRANCH   4  16
HETATM   16  N4  UNL     1       2.235   0.275  -0.475  1.00  0.00    -0.333 N 
ATOM     17  H4  UNL     1       2.451   1.250  -0.683  1.00  0.00     0.168 HD
BRANCH  16  18
HETATM   18  C3  UNL     1       3.322  -0.587  -0.705  1.00  0.00     0.205 C 
BRANCH  18  19
HETATM   19  N5  UNL     1       4.140  -0.848   0.474  1.00  0.00    -0.265 N 
ATOM     20  H5  UNL     1       4.394  -1.792   0.766  1.00  0.00     0.194 HD
BRANCH  19  21
HETATM   21  O1  UNL     1       4.492   0.130   1.075  1.00  0.00    -0.289 OA
ATOM     22  H1  UNL     1       5.025  -0.040   1.843  1.00  0.00     0.244 HD
ENDBRANCH  19  21
ENDBRANCH  18  19
ENDBRANCH  16  18
ENDBRANCH   4  16
BRANCH   1  23
HETATM   23  N2  UNL     1      -1.473   2.624  -0.033  1.00  0.00    -0.138 N 
ATOM     24  H2  UNL     1      -2.486   2.742  -0.070  1.00  0.00     0.205 HD
BRANCH  23  25
HETATM   25  N1  UNL     1      -0.708   3.765   0.026  1.00  0.00    -0.331 N 
ATOM     26  H12 UNL     1       0.302   3.628   0.062  1.00  0.00     0.177 HD
ATOM     27  H11 UNL     1      -1.068   4.719   0.036  1.00  0.00     0.177 HD
ENDBRANCH  23  25
ENDBRANCH   1  23
TORSDOF 6
