REMARK  4 active torsions:
REMARK  status: ('A' for Active; 'I' for Inactive)
REMARK    1  A    between atoms: O1_1  and  C1_3 
REMARK    2  A    between atoms: C1_3  and  C2_4 
REMARK    3  A    between atoms: C2_4  and  O2_5 
REMARK    4  A    between atoms: O2_5  and  C3_6 
ROOT
HETATM    1  C3  UNL     1       1.175  -0.282  -0.191  1.00  0.00     0.156 C 
HETATM    2  C4  UNL     1       0.388   0.335  -1.349  1.00  0.00     0.305 C 
HETATM    3  N1  UNL     1      -0.992   0.215  -1.033  1.00  0.00     0.097 N 
HETATM    4  C5  UNL     1      -1.822   1.284  -1.493  1.00  0.00     0.273 C 
HETATM    5  C6  UNL     1      -3.264   0.923  -1.588  1.00  0.00     0.040 C 
HETATM    6  C7  UNL     1      -4.019   1.065  -0.293  1.00  0.00     0.076 C 
HETATM    7  S1  UNL     1      -3.713  -0.287   0.858  1.00  0.00    -0.162 SA
HETATM    8  C8  UNL     1      -2.093  -1.015   0.670  1.00  0.00     0.081 C 
HETATM    9  C9  UNL     1      -1.507  -1.576   1.920  1.00  0.00     0.018 C 
HETATM   10  C10 UNL     1      -0.028  -1.683   1.514  1.00  0.00     0.010 C 
HETATM   11  C11 UNL     1       0.211  -0.305   0.949  1.00  0.00     0.051 C 
HETATM   12  C12 UNL     1      -1.104   0.126   0.389  1.00  0.00     0.243 C 
ENDROOT
BRANCH   1  13
HETATM   13  O2  UNL     1       2.336   0.409   0.048  1.00  0.00    -0.382 OA
BRANCH  13  14
HETATM   14  C2  UNL     1       3.489  -0.319  -0.090  1.00  0.00     0.194 C 
BRANCH  14  15
HETATM   15  C1  UNL     1       4.655   0.631   0.216  1.00  0.00     0.190 C 
BRANCH  15  16
HETATM   16  O1  UNL     1       5.833  -0.073   0.086  1.00  0.00    -0.399 OA
ATOM     17  H1  UNL     1       6.555   0.515   0.275  1.00  0.00     0.209 HD
ENDBRANCH  15  16
ENDBRANCH  14  15
ENDBRANCH  13  14
ENDBRANCH   1  13
TORSDOF 4
