REMARK  5 active torsions:
REMARK  status: ('A' for Active; 'I' for Inactive)
REMARK    1  A    between atoms: C2_2  and  C3_3 
REMARK    2  A    between atoms: C4_4  and  C5_5 
REMARK    3  A    between atoms: C5_5  and  O1_6 
REMARK    4  A    between atoms: O1_6  and  C6_7 
REMARK    5  A    between atoms: C13_16  and  O4_17 
ROOT
HETATM    1  C6  UNL     1       0.005  -0.186  -0.110  1.00  0.00     0.296 C 
HETATM    2  O2  UNL     1      -0.742  -0.978   0.749  1.00  0.00    -0.323 OA
HETATM    3  C7  UNL     1      -2.022  -1.070   0.228  1.00  0.00     0.161 C 
HETATM    4  C8  UNL     1      -1.991  -2.284  -0.712  1.00  0.00     0.078 C 
HETATM    5  C9  UNL     1      -3.004  -1.431   1.325  1.00  0.00     0.078 C 
HETATM    6  O3  UNL     1      -2.444  -0.015  -0.503  1.00  0.00    -0.343 OA
HETATM    7  C10 UNL     1      -1.943   1.214  -0.244  1.00  0.00     0.087 C 
HETATM    8  C11 UNL     1      -2.761   2.009   0.764  1.00  0.00     0.048 C 
HETATM    9  C12 UNL     1      -2.023   2.015  -1.554  1.00  0.00     0.048 C 
HETATM   10  C13 UNL     1      -0.478   1.228   0.141  1.00  0.00     0.207 C 
ENDROOT
BRANCH   1  11
HETATM   11  O1  UNL     1       1.359  -0.332   0.023  1.00  0.00    -0.347 OA
BRANCH  11  12
HETATM   12  C5  UNL     1       2.018  -0.773  -1.093  1.00  0.00     0.265 C 
BRANCH  12  13
HETATM   13  C4  UNL     1       3.454  -0.864  -0.745  1.00  0.00    -0.076 C 
HETATM   14  C3  UNL     1       4.620  -0.930  -0.442  1.00  0.00    -0.077 C 
BRANCH  14  15
HETATM   15  C2  UNL     1       6.000  -1.022  -0.060  1.00  0.00     0.054 C 
HETATM   16  C1  UNL     1       6.736   0.081   0.042  1.00  0.00     0.020 C 
ENDBRANCH  14  15
ENDBRANCH  12  13
ENDBRANCH  11  12
ENDBRANCH   1  11
BRANCH  10  17
HETATM   17  O4  UNL     1      -0.450   1.501   1.529  1.00  0.00    -0.388 OA
ATOM     18  H4  UNL     1      -0.753   2.388   1.686  1.00  0.00     0.210 HD
ENDBRANCH  10  17
TORSDOF 5
