REMARK  5 active torsions:
REMARK  status: ('A' for Active; 'I' for Inactive)
REMARK    1  A    between atoms: N4_12  and  N5_13 
REMARK    2  A    between atoms: N5_13  and  N6_14 
REMARK    3  A    between atoms: N5_13  and  C6_17 
REMARK    4  A    between atoms: C6_17  and  C8_19 
REMARK    5  A    between atoms: C8_19  and  O1_20 
ROOT
HETATM    1  C1  UNL     1      -0.111  -2.199  -1.265  1.00  0.00     0.092 C 
HETATM    2  C2  UNL     1      -0.897  -1.088  -0.741  1.00  0.00     0.118 A 
HETATM    3  N1  UNL     1      -2.251  -1.279  -0.686  1.00  0.00    -0.179 N 
ATOM      4  H1  UNL     1      -2.655  -2.158  -1.010  1.00  0.00     0.185 HD
HETATM    5  C3  UNL     1      -3.043  -0.318  -0.210  1.00  0.00     0.679 A 
HETATM    6  N2  UNL     1      -4.320  -0.460  -0.138  1.00  0.00    -0.234 N 
ATOM      7  H21 UNL     1      -4.926   0.275   0.226  1.00  0.00     0.174 HD
ATOM      8  H22 UNL     1      -4.735  -1.335  -0.458  1.00  0.00     0.174 HD
HETATM    9  N3  UNL     1      -2.493   0.841   0.214  1.00  0.00    -0.182 N 
HETATM   10  C4  UNL     1      -3.359   1.883   0.729  1.00  0.00     0.176 C 
HETATM   11  C5  UNL     1      -1.163   1.005   0.150  1.00  0.00     0.229 A 
HETATM   12  N4  UNL     1      -0.337   0.050  -0.327  1.00  0.00    -0.222 N 
ENDROOT
BRANCH  12  13
HETATM   13  N5  UNL     1       1.040   0.198  -0.406  1.00  0.00    -0.225 N 
BRANCH  13  14
HETATM   14  N6  UNL     1       1.573   0.990  -1.434  1.00  0.00    -0.328 N 
ATOM     15  H62 UNL     1       0.927   1.445  -2.079  1.00  0.00     0.178 HD
ATOM     16  H61 UNL     1       2.586   1.099  -1.492  1.00  0.00     0.178 HD
ENDBRANCH  13  14
BRANCH  13  17
HETATM   17  C6  UNL     1       1.955  -0.446   0.508  1.00  0.00     0.146 C 
HETATM   18  C7  UNL     1       1.566  -0.160   1.967  1.00  0.00     0.038 C 
BRANCH  17  19
HETATM   19  C8  UNL     1       3.383   0.081   0.320  1.00  0.00     0.192 C 
BRANCH  19  20
HETATM   20  O1  UNL     1       3.744  -0.183  -0.979  1.00  0.00    -0.399 OA
ATOM     21  H1  UNL     1       4.629   0.143  -1.095  1.00  0.00     0.209 HD
ENDBRANCH  19  20
ENDBRANCH  17  19
ENDBRANCH  13  17
ENDBRANCH  12  13
TORSDOF 5
