REMARK  3 active torsions:
REMARK  status: ('A' for Active; 'I' for Inactive)
REMARK    1  A    between atoms: C2_2  and  C3_3 
REMARK    2  A    between atoms: C3_3  and  C4_4 
REMARK    3  A    between atoms: C4_4  and  N1_5 
ROOT
HETATM    1  N1  UNL     1       2.199  -0.487   0.590  1.00  0.00    -0.264 N 
HETATM    2  C5  UNL     1       1.541   0.673   0.502  1.00  0.00     0.281 A 
HETATM    3  O1  UNL     1       2.177   1.761   0.662  1.00  0.00    -0.265 OA
HETATM    4  C6  UNL     1       0.213   0.699   0.248  1.00  0.00     0.133 A 
HETATM    5  C7  UNL     1      -0.474  -0.507   0.074  1.00  0.00     0.087 A 
HETATM    6  C8  UNL     1      -1.778  -0.165  -0.142  1.00  0.00     0.065 A 
HETATM    7  C9  UNL     1      -2.894  -0.908  -0.390  1.00  0.00     0.056 A 
HETATM    8  C10 UNL     1      -4.098  -0.255  -0.552  1.00  0.00     0.039 A 
HETATM    9  C11 UNL     1      -4.192   1.112  -0.480  1.00  0.00     0.257 A 
HETATM   10  O2  UNL     1      -5.290   1.710  -0.628  1.00  0.00    -0.267 OA
HETATM   11  N2  UNL     1      -3.066   1.830  -0.241  1.00  0.00    -0.303 N 
HETATM   12  C12 UNL     1      -3.222   3.267  -0.159  1.00  0.00     0.161 C 
HETATM   13  C13 UNL     1      -1.872   1.244  -0.072  1.00  0.00     0.127 A 
HETATM   14  N3  UNL     1      -0.645   1.749   0.159  1.00  0.00    -0.330 N 
HETATM   15  C14 UNL     1      -0.324   3.145   0.264  1.00  0.00     0.158 C 
HETATM   16  C15 UNL     1      -5.226  -1.237  -0.750  1.00  0.00     0.066 C 
HETATM   17  C16 UNL     1      -4.542  -2.484  -0.157  1.00  0.00     0.124 C 
HETATM   18  N4  UNL     1      -3.207  -2.244  -0.733  1.00  0.00    -0.388 N 
ATOM     19  H4  UNL     1      -2.633  -2.899  -1.264  1.00  0.00     0.159 HD
HETATM   20  N5  UNL     1       0.185  -1.671   0.168  1.00  0.00    -0.300 N 
HETATM   21  C17 UNL     1      -0.407  -2.978   0.160  1.00  0.00     0.161 C 
HETATM   22  C18 UNL     1       1.524  -1.618   0.425  1.00  0.00     0.331 A 
HETATM   23  O3  UNL     1       2.152  -2.727   0.508  1.00  0.00    -0.246 OA
ENDROOT
BRANCH   1  24
HETATM   24  C4  UNL     1       3.602  -0.454   0.857  1.00  0.00     0.137 C 
BRANCH  24  25
HETATM   25  C3  UNL     1       4.317  -0.397  -0.495  1.00  0.00     0.020 C 
BRANCH  25  26
HETATM   26  C2  UNL     1       5.809  -0.360  -0.306  1.00  0.00    -0.003 C 
HETATM   27  C1  UNL     1       6.169   0.870   0.498  1.00  0.00     0.005 C 
ENDBRANCH  25  26
ENDBRANCH  24  25
ENDBRANCH   1  24
TORSDOF 3
