REMARK  9 active torsions:
REMARK  status: ('A' for Active; 'I' for Inactive)
REMARK    1  A    between atoms: N1_2  and  C2_4 
REMARK    2  A    between atoms: C3_7  and  N3_8 
REMARK    3  A    between atoms: N3_8  and  C4_10 
REMARK    4  A    between atoms: C4_10  and  C5_11 
REMARK    5  A    between atoms: C5_11  and  C7_13 
REMARK    6  A    between atoms: C16_27  and  N6_28 
REMARK    7  A    between atoms: N6_28  and  C17_30 
REMARK    8  A    between atoms: C20_33  and  O1_34 
REMARK    9  A    between atoms: C22_36  and  O2_37 
ROOT
HETATM    1  C2  UNL     1       1.659  -2.480   0.109  1.00  0.00     0.706 A 
HETATM    2  N2  UNL     1       0.369  -2.484   0.433  1.00  0.00    -0.022 N 
ATOM      3  H2  UNL     1      -0.100  -3.389   0.476  1.00  0.00     0.203 HD
HETATM    4  C3  UNL     1      -0.380  -1.375   0.713  1.00  0.00     0.707 A 
HETATM    5  N5  UNL     1       0.272  -0.203   0.647  1.00  0.00    -0.021 N 
ATOM      6  H5  UNL     1      -0.243   0.654   0.848  1.00  0.00     0.203 HD
HETATM    7  C16 UNL     1       1.594  -0.111   0.323  1.00  0.00     0.711 A 
HETATM    8  N7  UNL     1       2.262  -1.228   0.063  1.00  0.00    -0.021 N 
ATOM      9  H7  UNL     1       3.251  -1.166  -0.179  1.00  0.00     0.203 HD
ENDROOT
BRANCH   4  10
HETATM   10  N3  UNL     1      -1.557  -1.579   1.007  1.00  0.00    -0.224 N 
ATOM     11  H3  UNL     1      -1.820  -2.564   1.019  1.00  0.00     0.177 HD
BRANCH  10  12
HETATM   12  C4  UNL     1      -2.636  -0.674   1.339  1.00  0.00     0.147 C 
BRANCH  12  13
HETATM   13  C5  UNL     1      -3.240  -0.221  -0.030  1.00  0.00     0.036 C 
HETATM   14  C6  UNL     1      -3.658  -1.642  -0.576  1.00  0.00     0.017 C 
BRANCH  13  15
HETATM   15  C7  UNL     1      -4.417   0.589   0.012  1.00  0.00    -0.018 A 
HETATM   16  C8  UNL     1      -4.410   1.946  -0.459  1.00  0.00     0.013 A 
HETATM   17  C9  UNL     1      -3.127   2.638  -0.775  1.00  0.00     0.068 C 
HETATM   18  N4  UNL     1      -5.657   2.327  -0.460  1.00  0.00    -0.359 N 
HETATM   19  C10 UNL     1      -6.499   1.366  -0.037  1.00  0.00     0.043 A 
ATOM     20  H4  UNL     1      -5.962   3.256  -0.751  1.00  0.00     0.166 HD
HETATM   21  C11 UNL     1      -7.867   1.291   0.089  1.00  0.00     0.033 A 
HETATM   22  C15 UNL     1      -5.715   0.246   0.270  1.00  0.00     0.002 A 
HETATM   23  C12 UNL     1      -8.502   0.150   0.504  1.00  0.00     0.044 A 
HETATM   24  C13 UNL     1      -7.765  -0.983   0.813  1.00  0.00     0.117 A 
HETATM   25  F1  UNL     1      -8.356  -2.159   1.208  1.00  0.00    -0.206 F 
HETATM   26  C14 UNL     1      -6.398  -0.905   0.691  1.00  0.00     0.056 A 
ENDBRANCH  13  15
ENDBRANCH  12  13
ENDBRANCH  10  12
ENDBRANCH   4  10
BRANCH   1  27
HETATM   27  N1  UNL     1       2.391  -3.413  -0.266  1.00  0.00    -0.229 N 
HETATM   28  C1  UNL     1       2.038  -4.777  -0.467  1.00  0.00     0.165 C 
ATOM     29  H1  UNL     1       3.364  -3.171  -0.452  1.00  0.00     0.177 HD
ENDBRANCH   1  27
BRANCH   7  30
HETATM   30  N6  UNL     1       2.154   1.044   0.263  1.00  0.00    -0.191 N 
ATOM     31  H6  UNL     1       1.606   1.880   0.466  1.00  0.00     0.184 HD
BRANCH  30  32
HETATM   32  C17 UNL     1       3.544   1.175  -0.086  1.00  0.00     0.052 A 
HETATM   33  C18 UNL     1       3.903   1.319  -1.418  1.00  0.00     0.033 A 
HETATM   34  C19 UNL     1       5.272   1.458  -1.735  1.00  0.00     0.042 A 
HETATM   35  C20 UNL     1       6.236   1.456  -0.785  1.00  0.00     0.101 A 
HETATM   36  C22 UNL     1       5.870   1.307   0.587  1.00  0.00     0.103 A 
HETATM   37  C24 UNL     1       4.515   1.178   0.856  1.00  0.00     0.069 A 
BRANCH  35  38
HETATM   38  O1  UNL     1       7.574   1.586  -1.090  1.00  0.00    -0.353 OA
HETATM   39  C21 UNL     1       8.082   1.721  -2.385  1.00  0.00     0.210 C 
ENDBRANCH  35  38
BRANCH  36  40
HETATM   40  O2  UNL     1       6.865   1.309   1.508  1.00  0.00    -0.353 OA
HETATM   41  C23 UNL     1       6.668   1.224   2.903  1.00  0.00     0.210 C 
ENDBRANCH  36  40
ENDBRANCH  30  32
ENDBRANCH   7  30
TORSDOF 9
