REMARK  7 active torsions:
REMARK  status: ('A' for Active; 'I' for Inactive)
REMARK    1  A    between atoms: O1_2  and  C2_3 
REMARK    2  A    between atoms: C2_3  and  C3_4 
REMARK    3  A    between atoms: C3_4  and  N1_5 
REMARK    4  A    between atoms: C5_10  and  C6_11 
REMARK    5  A    between atoms: C10_15  and  C11_16 
REMARK    6  A    between atoms: C21_34  and  N7_35 
REMARK    7  A    between atoms: N7_35  and  C22_37 
ROOT
HETATM    1  C6  UNL     1      -0.119  -0.684  -0.240  1.00  0.00     0.037 A 
HETATM    2  C7  UNL     1      -0.839  -1.742  -0.834  1.00  0.00     0.018 A 
HETATM    3  C8  UNL     1      -2.190  -1.527  -0.680  1.00  0.00     0.016 A 
HETATM    4  C9  UNL     1      -2.383  -0.364  -0.003  1.00  0.00     0.006 A 
HETATM    5  C10 UNL     1      -3.563   0.290   0.409  1.00  0.00     0.026 A 
HETATM    6  C16 UNL     1      -3.411   1.459   1.094  1.00  0.00     0.080 A 
HETATM    7  C17 UNL     1      -4.570   2.118   1.656  1.00  0.00     0.102 C 
HETATM    8  N4  UNL     1      -5.490   2.653   2.155  1.00  0.00    -0.191 NA
HETATM    9  C18 UNL     1      -2.150   1.957   1.353  1.00  0.00     0.027 A 
HETATM   10  C19 UNL     1      -2.074   3.240   2.102  1.00  0.00     0.070 C 
HETATM   11  N5  UNL     1      -1.027   1.331   0.956  1.00  0.00    -0.357 N 
ATOM     12  H5  UNL     1      -0.123   1.748   1.178  1.00  0.00     0.166 HD
HETATM   13  C20 UNL     1      -1.062   0.169   0.274  1.00  0.00     0.058 A 
ENDROOT
BRANCH   5  14
HETATM   14  C11 UNL     1      -4.809  -0.400   0.130  1.00  0.00     0.054 A 
HETATM   15  N3  UNL     1      -5.059  -1.725   0.339  1.00  0.00    -0.362 N 
HETATM   16  C12 UNL     1      -6.255  -2.077  -0.138  1.00  0.00     0.131 A 
ATOM     17  H3  UNL     1      -4.414  -2.365   0.801  1.00  0.00     0.165 HD
HETATM   18  C13 UNL     1      -6.850  -0.980  -0.689  1.00  0.00     0.139 A 
HETATM   19  F1  UNL     1      -8.064  -0.913  -1.276  1.00  0.00    -0.204 F 
HETATM   20  C14 UNL     1      -5.920   0.064  -0.511  1.00  0.00     0.006 A 
HETATM   21  C15 UNL     1      -6.237   1.406  -1.088  1.00  0.00     0.054 C 
ENDBRANCH   5  14
BRANCH   1  22
HETATM   22  C5  UNL     1       1.335  -0.616  -0.192  1.00  0.00     0.149 A 
HETATM   23  N2  UNL     1       2.086   0.427   0.113  1.00  0.00    -0.175 N 
HETATM   24  C4  UNL     1       3.451   0.385   0.186  1.00  0.00     0.694 A 
ATOM     25  H2  UNL     1       1.621   1.314   0.305  1.00  0.00     0.186 HD
HETATM   26  N1  UNL     1       4.113   1.445   0.492  1.00  0.00    -0.223 N 
HETATM   27  N8  UNL     1       4.078  -0.777  -0.066  1.00  0.00    -0.022 N 
ATOM     28  H1  UNL     1       5.130   1.380   0.538  1.00  0.00     0.177 HD
HETATM   29  C21 UNL     1       3.359  -1.876  -0.384  1.00  0.00     0.694 A 
ATOM     30  H8  UNL     1       5.095  -0.829  -0.017  1.00  0.00     0.203 HD
HETATM   31  N6  UNL     1       2.042  -1.775  -0.439  1.00  0.00    -0.175 N 
ATOM     32  H6  UNL     1       1.512  -2.612  -0.681  1.00  0.00     0.186 HD
BRANCH  26  33
HETATM   33  C3  UNL     1       3.502   2.715   0.772  1.00  0.00     0.164 C 
BRANCH  33  34
HETATM   34  C2  UNL     1       4.466   3.717   1.332  1.00  0.00     0.187 C 
BRANCH  34  35
HETATM   35  O1  UNL     1       5.517   3.993   0.491  1.00  0.00    -0.394 OA
HETATM   36  C1  UNL     1       5.129   4.510  -0.729  1.00  0.00     0.201 C 
ENDBRANCH  34  35
ENDBRANCH  33  34
ENDBRANCH  26  33
BRANCH  29  37
HETATM   37  N7  UNL     1       3.980  -2.990  -0.625  1.00  0.00    -0.222 N 
ATOM     38  H7  UNL     1       4.998  -3.007  -0.568  1.00  0.00     0.178 HD
BRANCH  37  39
HETATM   39  C22 UNL     1       3.286  -4.201  -0.969  1.00  0.00     0.091 C 
HETATM   40  C23 UNL     1       4.300  -5.301  -1.167  1.00  0.00     0.032 C 
HETATM   41  C24 UNL     1       2.298  -4.609   0.094  1.00  0.00     0.032 C 
ENDBRANCH  37  39
ENDBRANCH  29  37
ENDBRANCH   1  22
TORSDOF 7
