REMARK  9 active torsions:
REMARK  status: ('A' for Active; 'I' for Inactive)
REMARK    1  A    between atoms: C2_2  and  C3_3 
REMARK    2  A    between atoms: C5_5  and  C6_6 
REMARK    3  A    between atoms: C7_7  and  C8_8 
REMARK    4  A    between atoms: C15_15  and  O1_16 
REMARK    5  A    between atoms: C16_18  and  O2_19 
REMARK    6  A    between atoms: C19_25  and  C20_26 
REMARK    7  A    between atoms: C20_26  and  C22_28 
REMARK    8  A    between atoms: C24_30  and  C25_31 
REMARK    9  A    between atoms: C25_31  and  O3_32 
ROOT
HETATM    1  C8  UNL     1       1.070  -0.286   0.853  1.00  0.00    -0.039 C 
HETATM    2  C9  UNL     1      -0.212  -0.065   1.167  1.00  0.00    -0.004 C 
HETATM    3  C10 UNL     1      -1.403  -0.250   0.351  1.00  0.00     0.062 C 
HETATM    4  C11 UNL     1      -1.149  -0.895  -0.927  1.00  0.00    -0.058 C 
HETATM    5  C12 UNL     1      -2.060  -0.623  -2.093  1.00  0.00     0.076 C 
HETATM    6  C13 UNL     1      -3.504  -0.792  -1.795  1.00  0.00    -0.025 A 
HETATM    7  C14 UNL     1      -4.174  -1.668  -2.631  1.00  0.00     0.049 A 
HETATM    8  C15 UNL     1      -5.511  -1.919  -2.477  1.00  0.00     0.099 A 
HETATM    9  C16 UNL     1      -6.188  -1.277  -1.463  1.00  0.00     0.101 A 
HETATM   10  C17 UNL     1      -5.534  -0.391  -0.609  1.00  0.00     0.069 A 
HETATM   11  C18 UNL     1      -4.191  -0.155  -0.783  1.00  0.00     0.037 A 
HETATM   12  N1  UNL     1      -3.609   0.751   0.123  1.00  0.00    -0.383 N 
ATOM     13  H1  UNL     1      -4.243   1.241   0.754  1.00  0.00     0.160 HD
HETATM   14  C19 UNL     1      -2.160   1.064   0.250  1.00  0.00     0.097 C 
HETATM   15  C24 UNL     1       0.244  -1.098  -1.302  1.00  0.00    -0.031 C 
HETATM   16  C26 UNL     1       1.237  -0.826  -0.482  1.00  0.00     0.020 C 
ENDROOT
BRANCH   1  17
HETATM   17  C7  UNL     1       2.135  -0.027   1.808  1.00  0.00     0.012 C 
HETATM   18  C6  UNL     1       3.396  -0.163   1.811  1.00  0.00     0.013 C 
BRANCH  18  19
HETATM   19  C5  UNL     1       4.434  -0.624   0.962  1.00  0.00    -0.015 A 
HETATM   20  C4  UNL     1       5.381   0.320   0.531  1.00  0.00     0.042 A 
HETATM   21  C3  UNL     1       6.487   0.008  -0.209  1.00  0.00     0.034 A 
HETATM   22  N3  UNL     1       6.654  -1.291  -0.529  1.00  0.00    -0.334 N 
HETATM   23  C29 UNL     1       5.810  -2.253  -0.162  1.00  0.00     0.186 A 
ATOM     24  H3  UNL     1       7.471  -1.551  -1.082  1.00  0.00     0.168 HD
HETATM   25  C27 UNL     1       4.686  -1.922   0.593  1.00  0.00     0.085 A 
HETATM   26  O4  UNL     1       5.775  -3.563  -0.347  1.00  0.00    -0.216 OA
HETATM   27  C28 UNL     1       4.022  -3.104   0.830  1.00  0.00     0.223 A 
HETATM   28  F1  UNL     1       2.913  -3.264   1.546  1.00  0.00    -0.183 F 
HETATM   29  N2  UNL     1       4.728  -4.075   0.232  1.00  0.00    -0.232 N 
ATOM     30  H2  UNL     1       4.482  -5.065   0.231  1.00  0.00     0.197 HD
BRANCH  21  31
HETATM   31  C2  UNL     1       7.453   1.006  -0.645  1.00  0.00     0.019 C 
HETATM   32  C1  UNL     1       7.363   2.285  -0.377  1.00  0.00     0.013 C 
ENDBRANCH  21  31
ENDBRANCH  18  19
ENDBRANCH   1  17
BRANCH  15  33
HETATM   33  C25 UNL     1       0.639  -1.645  -2.652  1.00  0.00     0.203 C 
BRANCH  33  34
HETATM   34  O3  UNL     1       0.227  -0.843  -3.702  1.00  0.00    -0.396 OA
ATOM     35  H3  UNL     1       0.476  -1.187  -4.552  1.00  0.00     0.209 HD
ENDBRANCH  33  34
ENDBRANCH  15  33
BRANCH  14  36
HETATM   36  C20 UNL     1      -2.069   2.035   1.340  1.00  0.00     0.005 C 
HETATM   37  C21 UNL     1      -2.524   1.573   2.702  1.00  0.00     0.012 C 
BRANCH  36  38
HETATM   38  C22 UNL     1      -0.888   2.968   1.365  1.00  0.00     0.002 C 
HETATM   39  C23 UNL     1      -1.004   3.909   2.588  1.00  0.00     0.005 C 
ENDBRANCH  36  38
ENDBRANCH  14  36
BRANCH   8  40
HETATM   40  O1  UNL     1      -6.195  -2.811  -3.328  1.00  0.00    -0.358 OA
ATOM     41  H1  UNL     1      -7.123  -2.985  -3.221  1.00  0.00     0.217 HD
ENDBRANCH   8  40
BRANCH   9  42
HETATM   42  O2  UNL     1      -7.536  -1.539  -1.318  1.00  0.00    -0.358 OA
ATOM     43  H2  UNL     1      -8.003  -1.096  -0.619  1.00  0.00     0.217 HD
ENDBRANCH   9  42
TORSDOF 9
