REMARK  8 active torsions:
REMARK  status: ('A' for Active; 'I' for Inactive)
REMARK    1  A    between atoms: O1_2  and  C2_3 
REMARK    2  A    between atoms: C4_5  and  C5_6 
REMARK    3  A    between atoms: C5_6  and  C6_7 
REMARK    4  A    between atoms: C7_8  and  C8_9 
REMARK    5  A    between atoms: C9_12  and  C10_13 
REMARK    6  A    between atoms: C14_19  and  N3_20 
REMARK    7  A    between atoms: C15_25  and  C16_26 
REMARK    8  A    between atoms: C22_36  and  C23_37 
ROOT
HETATM    1  C6  UNL     1      -0.714  -1.413  -0.365  1.00  0.00    -0.010 A 
HETATM    2  C7  UNL     1       0.593  -1.064  -0.700  1.00  0.00     0.069 A 
HETATM    3  N5  UNL     1       0.824  -1.597  -1.914  1.00  0.00    -0.353 N 
ATOM      4  H5  UNL     1       1.706  -1.498  -2.416  1.00  0.00     0.166 HD
HETATM    5  C19 UNL     1      -0.224  -2.267  -2.389  1.00  0.00     0.047 A 
HETATM    6  C20 UNL     1      -0.454  -2.960  -3.559  1.00  0.00     0.047 A 
HETATM    7  C21 UNL     1      -1.669  -3.555  -3.755  1.00  0.00     0.090 A 
HETATM    8  N6  UNL     1      -2.649  -3.492  -2.843  1.00  0.00    -0.364 N 
ATOM      9  H6  UNL     1      -3.546  -3.947  -3.013  1.00  0.00     0.165 HD
HETATM   10  C22 UNL     1      -2.423  -2.799  -1.665  1.00  0.00     0.057 A 
HETATM   11  C28 UNL     1      -1.230  -2.169  -1.404  1.00  0.00     0.027 A 
ENDROOT
BRANCH   2  12
HETATM   12  C8  UNL     1       1.621  -0.369   0.060  1.00  0.00     0.088 A 
HETATM   13  N1  UNL     1       2.057   0.853  -0.337  1.00  0.00    -0.338 N 
HETATM   14  C9  UNL     1       2.993   1.317   0.481  1.00  0.00     0.120 A 
ATOM     15  H1  UNL     1       1.710   1.350  -1.157  1.00  0.00     0.167 HD
HETATM   16  N4  UNL     1       3.151   0.347   1.429  1.00  0.00    -0.340 N 
HETATM   17  C15 UNL     1       2.310  -0.695   1.167  1.00  0.00     0.064 A 
ATOM     18  H4  UNL     1       3.800   0.394   2.215  1.00  0.00     0.167 HD
BRANCH  14  19
HETATM   19  C10 UNL     1       3.807   2.529   0.477  1.00  0.00     0.052 A 
HETATM   20  C11 UNL     1       4.497   2.860   1.643  1.00  0.00     0.020 A 
HETATM   21  C12 UNL     1       5.316   3.961   1.746  1.00  0.00     0.018 A 
HETATM   22  C13 UNL     1       5.442   4.756   0.634  1.00  0.00     0.089 A 
HETATM   23  N2  UNL     1       4.789   4.446  -0.475  1.00  0.00    -0.352 N 
HETATM   24  C14 UNL     1       3.951   3.335  -0.608  1.00  0.00     0.112 A 
ATOM     25  H2  UNL     1       4.905   5.057  -1.284  1.00  0.00     0.166 HD
BRANCH  24  26
HETATM   26  N3  UNL     1       3.454   3.173  -1.711  1.00  0.00    -0.385 N 
ATOM     27  H32 UNL     1       2.843   2.362  -1.808  1.00  0.00     0.157 HD
ATOM     28  H31 UNL     1       3.562   3.778  -2.525  1.00  0.00     0.157 HD
ENDBRANCH  24  26
ENDBRANCH  14  19
BRANCH  17  29
HETATM   29  C16 UNL     1       2.423  -1.980   1.943  1.00  0.00    -0.059 C 
HETATM   30  C17 UNL     1       2.817  -1.785   3.365  1.00  0.00     0.045 C 
HETATM   31  C18 UNL     1       1.539  -3.082   1.588  1.00  0.00     0.045 C 
ENDBRANCH  17  29
ENDBRANCH   2  12
BRANCH   1  32
HETATM   32  C5  UNL     1      -1.387  -0.892   0.830  1.00  0.00     0.080 C 
BRANCH  32  33
HETATM   33  C4  UNL     1      -1.613   0.581   0.605  1.00  0.00    -0.048 A 
HETATM   34  C3  UNL     1      -2.367   1.044  -0.438  1.00  0.00     0.063 A 
HETATM   35  C2  UNL     1      -2.584   2.413  -0.609  1.00  0.00     0.141 A 
HETATM   36  N8  UNL     1      -2.035   3.241   0.270  1.00  0.00    -0.347 N 
HETATM   37  C30 UNL     1      -1.284   2.868   1.318  1.00  0.00     0.090 A 
ATOM     38  H8  UNL     1      -2.196   4.240   0.139  1.00  0.00     0.167 HD
HETATM   39  C29 UNL     1      -1.081   1.501   1.470  1.00  0.00     0.024 A 
BRANCH  35  40
HETATM   40  O1  UNL     1      -3.336   2.884  -1.648  1.00  0.00    -0.341 OA
HETATM   41  C1  UNL     1      -3.549   4.276  -1.818  1.00  0.00     0.211 C 
ENDBRANCH  35  40
ENDBRANCH  32  33
ENDBRANCH   1  32
BRANCH  10  42
HETATM   42  C23 UNL     1      -3.469  -2.860  -0.673  1.00  0.00     0.010 A 
HETATM   43  C24 UNL     1      -3.380  -3.700   0.454  1.00  0.00     0.101 A 
HETATM   44  N7  UNL     1      -4.409  -3.742   1.337  1.00  0.00    -0.372 N 
HETATM   45  C25 UNL     1      -5.532  -3.020   1.207  1.00  0.00     0.130 A 
ATOM     46  H7  UNL     1      -4.324  -4.358   2.146  1.00  0.00     0.164 HD
HETATM   47  C26 UNL     1      -5.637  -2.192   0.112  1.00  0.00     0.132 A 
HETATM   48  F1  UNL     1      -6.750  -1.428  -0.086  1.00  0.00    -0.205 F 
HETATM   49  C27 UNL     1      -4.601  -2.123  -0.817  1.00  0.00     0.058 A 
ENDBRANCH  10  42
TORSDOF 8
