REMARK  7 active torsions:
REMARK  status: ('A' for Active; 'I' for Inactive)
REMARK    1  A    between atoms: C2_2  and  C3_3 
REMARK    2  A    between atoms: C3_3  and  C4_4 
REMARK    3  A    between atoms: C3_3  and  C6_7 
REMARK    4  A    between atoms: C9_11  and  O1_12 
REMARK    5  A    between atoms: C14_20  and  C15_21 
REMARK    6  A    between atoms: C18_24  and  O2_25 
REMARK    7  A    between atoms: C20_27  and  O3_28 
ROOT
HETATM    1  C4  UNL     1      -2.857  -1.637   0.357  1.00  0.00     0.133 C 
HETATM    2  C5  UNL     1      -4.294  -1.274   0.438  1.00  0.00     0.059 C 
HETATM    3  N1  UNL     1      -5.420  -1.010   0.494  1.00  0.00    -0.197 NA
ENDROOT
BRANCH   1   4
HETATM    4  C3  UNL     1      -2.217  -0.686  -0.637  1.00  0.00     0.032 C 
BRANCH   4   5
HETATM    5  C2  UNL     1      -2.985  -0.944  -1.947  1.00  0.00     0.006 C 
HETATM    6  C1  UNL     1      -2.792  -2.416  -2.349  1.00  0.00     0.006 C 
ENDBRANCH   4   5
BRANCH   4   7
HETATM    7  C6  UNL     1      -2.436   0.689  -0.142  1.00  0.00    -0.038 A 
HETATM    8  C7  UNL     1      -3.474   1.478  -0.635  1.00  0.00     0.030 A 
HETATM    9  C8  UNL     1      -3.675   2.728  -0.106  1.00  0.00     0.046 A 
HETATM   10 BR1  UNL     1      -5.088   3.801  -0.777  1.00  0.00    -0.048 Br
HETATM   11  C9  UNL     1      -2.889   3.241   0.900  1.00  0.00     0.110 A 
HETATM   12  C10 UNL     1      -1.848   2.457   1.397  1.00  0.00     0.079 A 
HETATM   13  N2  UNL     1      -0.951   2.708   2.362  1.00  0.00    -0.348 N 
HETATM   14  C13 UNL     1      -1.637   1.181   0.860  1.00  0.00     0.011 A 
HETATM   15  C11 UNL     1      -0.134   1.639   2.496  1.00  0.00     0.111 A 
ATOM     16  H2  UNL     1      -0.894   3.568   2.908  1.00  0.00     0.166 HD
HETATM   17  C12 UNL     1      -0.525   0.690   1.582  1.00  0.00     0.015 A 
HETATM   18  C23 UNL     1       0.930   1.072   3.319  1.00  0.00     0.269 C 
HETATM   19  C14 UNL     1       0.414  -0.406   1.634  1.00  0.00     0.155 C 
HETATM   20  N3  UNL     1       1.144  -0.249   2.871  1.00  0.00    -0.343 N 
ATOM     21  H3  UNL     1       1.709  -0.961   3.334  1.00  0.00     0.163 HD
HETATM   22  O4  UNL     1       1.565   1.633   4.268  1.00  0.00    -0.266 OA
BRANCH  11  23
HETATM   23  O1  UNL     1      -3.102   4.510   1.430  1.00  0.00    -0.357 OA
ATOM     24  H1  UNL     1      -2.559   4.864   2.125  1.00  0.00     0.217 HD
ENDBRANCH  11  23
BRANCH  19  25
HETATM   25  C15 UNL     1       1.523  -0.297   0.588  1.00  0.00    -0.028 A 
HETATM   26  C16 UNL     1       1.439   0.591  -0.440  1.00  0.00     0.012 A 
HETATM   27  C17 UNL     1       2.495   0.632  -1.359  1.00  0.00     0.040 A 
HETATM   28  C18 UNL     1       3.582  -0.187  -1.241  1.00  0.00     0.101 A 
HETATM   29  C20 UNL     1       3.619  -1.077  -0.172  1.00  0.00     0.102 A 
HETATM   30  C22 UNL     1       2.588  -1.147   0.763  1.00  0.00     0.049 A 
BRANCH  28  31
HETATM   31  O2  UNL     1       4.617  -0.144  -2.147  1.00  0.00    -0.353 OA
HETATM   32  C19 UNL     1       4.732   0.676  -3.258  1.00  0.00     0.210 C 
ENDBRANCH  28  31
BRANCH  29  33
HETATM   33  O3  UNL     1       4.731  -1.891  -0.080  1.00  0.00    -0.353 OA
HETATM   34  C21 UNL     1       4.950  -2.848   0.921  1.00  0.00     0.210 C 
ENDBRANCH  29  33
ENDBRANCH  19  25
ENDBRANCH   4   7
ENDBRANCH   1   4
TORSDOF 7
