REMARK  9 active torsions:
REMARK  status: ('A' for Active; 'I' for Inactive)
REMARK    1  A    between atoms: C3_3  and  O1_4 
REMARK    2  A    between atoms: O1_4  and  C4_5 
REMARK    3  A    between atoms: C7_8  and  C8_9 
REMARK    4  A    between atoms: C8_9  and  C9_10 
REMARK    5  A    between atoms: C11_15  and  N2_16 
REMARK    6  A    between atoms: N2_16  and  C12_19 
REMARK    7  A    between atoms: C12_19  and  C13_20 
REMARK    8  A    between atoms: C13_20  and  O3_21 
REMARK    9  A    between atoms: C27_36  and  O4_37 
ROOT
HETATM    1  C1  UNL     1       7.523   3.190  -0.091  1.00  0.00     0.014 C 
HETATM    2  C2  UNL     1       7.754   2.252   0.621  1.00  0.00    -0.091 C 
HETATM    3  C3  UNL     1       8.036   1.135   1.502  1.00  0.00     0.268 C 
ENDROOT
BRANCH   3   4
HETATM    4  O1  UNL     1       6.921   0.595   2.142  1.00  0.00    -0.340 OA
BRANCH   4   5
HETATM    5  C4  UNL     1       5.821   0.015   1.549  1.00  0.00     0.070 A 
HETATM    6  C5  UNL     1       4.769  -0.476   2.330  1.00  0.00     0.037 A 
HETATM    7  C6  UNL     1       3.659  -1.061   1.781  1.00  0.00     0.010 A 
HETATM    8  C7  UNL     1       3.525  -1.195   0.410  1.00  0.00    -0.056 A 
HETATM    9  C28 UNL     1       4.550  -0.718  -0.365  1.00  0.00     0.010 A 
HETATM   10  C29 UNL     1       5.689  -0.118   0.193  1.00  0.00     0.037 A 
BRANCH   8  11
HETATM   11  C8  UNL     1       2.380  -1.826  -0.233  1.00  0.00     0.066 C 
BRANCH  11  12
HETATM   12  C9  UNL     1       1.190  -0.936  -0.486  1.00  0.00     0.117 C 
HETATM   13  N1  UNL     1       1.472   0.185  -1.342  1.00  0.00    -0.352 N 
HETATM   14  C10 UNL     1       0.653   1.239  -1.725  1.00  0.00     0.248 C 
ATOM     15  H1  UNL     1       2.417   0.209  -1.726  1.00  0.00     0.163 HD
HETATM   16  O2  UNL     1       0.582   1.481  -2.988  1.00  0.00    -0.271 OA
HETATM   17  C11 UNL     1      -0.177   2.164  -0.937  1.00  0.00     0.277 C 
HETATM   18  C14 UNL     1      -0.696   1.662   0.367  1.00  0.00     0.043 C 
HETATM   19  C15 UNL     1      -1.744   2.655   0.858  1.00  0.00     0.002 C 
HETATM   20  C16 UNL     1      -2.852   1.926   1.612  1.00  0.00     0.000 C 
HETATM   21  C17 UNL     1      -4.046   1.651   0.749  1.00  0.00     0.000 C 
HETATM   22  C18 UNL     1      -4.156   0.194   0.356  1.00  0.00     0.000 C 
HETATM   23  C19 UNL     1      -5.583  -0.311   0.425  1.00  0.00     0.000 C 
HETATM   24  C20 UNL     1      -5.626  -1.809   0.593  1.00  0.00     0.000 C 
HETATM   25  C21 UNL     1      -4.728  -2.507  -0.412  1.00  0.00     0.000 C 
HETATM   26  C22 UNL     1      -4.611  -3.969  -0.047  1.00  0.00     0.000 C 
HETATM   27  C23 UNL     1      -3.239  -4.249   0.572  1.00  0.00     0.000 C 
HETATM   28  C24 UNL     1      -2.234  -4.202  -0.549  1.00  0.00     0.000 C 
HETATM   29  C25 UNL     1      -0.823  -3.986  -0.064  1.00  0.00     0.002 C 
HETATM   30  C26 UNL     1      -0.504  -2.542   0.195  1.00  0.00     0.034 C 
HETATM   31  C27 UNL     1       0.100  -1.840  -0.998  1.00  0.00     0.141 C 
BRANCH  17  32
HETATM   32  N2  UNL     1       0.482   3.426  -0.667  1.00  0.00    -0.060 N 
ATOM     33  H22 UNL     1      -0.067   3.988  -0.016  1.00  0.00     0.278 HD
ATOM     34  H21 UNL     1       1.319   3.283  -0.102  1.00  0.00     0.278 HD
BRANCH  32  35
HETATM   35  C12 UNL     1       0.791   4.178  -1.856  1.00  0.00     0.259 C 
BRANCH  35  36
HETATM   36  C13 UNL     1       1.473   5.466  -1.374  1.00  0.00     0.191 C 
BRANCH  36  37
HETATM   37  O3  UNL     1       0.635   6.187  -0.548  1.00  0.00    -0.399 OA
ATOM     38  H3  UNL     1       1.057   6.984  -0.250  1.00  0.00     0.209 HD
ENDBRANCH  36  37
ENDBRANCH  35  36
ENDBRANCH  32  35
ENDBRANCH  17  32
BRANCH  31  39
HETATM   39  O4  UNL     1       0.573  -2.730  -1.942  1.00  0.00    -0.394 OA
ATOM     40  H4  UNL     1      -0.115  -3.300  -2.265  1.00  0.00     0.210 HD
ENDBRANCH  31  39
ENDBRANCH  11  12
ENDBRANCH   8  11
ENDBRANCH   4   5
ENDBRANCH   3   4
TORSDOF 9
