REMARK  13 active torsions:
REMARK  status: ('A' for Active; 'I' for Inactive)
REMARK    1  A    between atoms: C2_2  and  C3_3 
REMARK    2  A    between atoms: C2_2  and  C12_13 
REMARK    3  A    between atoms: C5_5  and  O1_6 
REMARK    4  A    between atoms: O1_6  and  C6_7 
REMARK    5  A    between atoms: C19_20  and  C20_21 
REMARK    6  A    between atoms: C20_21  and  O2_22 
REMARK    7  A    between atoms: C20_21  and  C21_24 
REMARK    8  A    between atoms: C21_24  and  O3_26 
REMARK    9  A    between atoms: C21_24  and  C23_28 
REMARK   10  A    between atoms: C23_28  and  C24_29 
REMARK   11  A    between atoms: C24_29  and  O4_30 
REMARK   12  A    between atoms: C25_32  and  O5_33 
REMARK   13  A    between atoms: C28_38  and  O6_39 
ROOT
HETATM    1  C12 UNL     1       1.926  -0.639   1.552  1.00  0.00     0.023 C 
HETATM    2  C13 UNL     1       1.277  -0.869   2.943  1.00  0.00     0.010 C 
HETATM    3  C14 UNL     1      -0.185  -1.109   2.623  1.00  0.00     0.006 C 
HETATM    4  C15 UNL     1      -0.348  -0.160   1.496  1.00  0.00    -0.001 C 
HETATM    5  C16 UNL     1      -1.677  -0.191   0.788  1.00  0.00    -0.003 C 
HETATM    6  C17 UNL     1      -2.734  -0.039   1.827  1.00  0.00     0.006 C 
HETATM    7  C18 UNL     1      -3.982   0.665   1.461  1.00  0.00     0.018 C 
HETATM    8  C19 UNL     1      -4.119   1.165   0.046  1.00  0.00     0.049 C 
HETATM    9  C25 UNL     1      -4.952   2.407  -0.066  1.00  0.00     0.135 C 
HETATM   10  C26 UNL     1      -4.181   3.481  -0.787  1.00  0.00     0.073 C 
HETATM   11  C27 UNL     1      -2.850   2.879  -1.175  1.00  0.00     0.208 C 
HETATM   12  F1  UNL     1      -1.938   3.931  -0.942  1.00  0.00    -0.246 F 
HETATM   13  C28 UNL     1      -2.736   1.805  -0.170  1.00  0.00     0.105 C 
HETATM   14  C29 UNL     1      -1.638   0.823  -0.303  1.00  0.00     0.028 C 
HETATM   15  C30 UNL     1      -0.320   1.562  -0.321  1.00  0.00     0.009 C 
HETATM   16  C31 UNL     1       0.896   0.691  -0.346  1.00  0.00     0.011 C 
HETATM   17  C32 UNL     1       0.819  -0.512   0.590  1.00  0.00    -0.033 C 
HETATM   18  C33 UNL     1       0.554  -1.705  -0.270  1.00  0.00     0.016 C 
ENDROOT
BRANCH   1  19
HETATM   19  C2  UNL     1       2.956  -1.666   1.415  1.00  0.00    -0.073 C 
HETATM   20  C1  UNL     1       2.524  -3.112   1.452  1.00  0.00     0.044 C 
BRANCH  19  21
HETATM   21  C3  UNL     1       4.107  -1.434   0.514  1.00  0.00    -0.057 C 
HETATM   22  C4  UNL     1       4.479  -0.431  -0.239  1.00  0.00     0.012 C 
HETATM   23  C5  UNL     1       5.769  -0.712  -0.981  1.00  0.00     0.146 C 
HETATM   24  C10 UNL     1       5.775  -2.208  -1.014  1.00  0.00     0.040 C 
HETATM   25  C11 UNL     1       5.162  -2.520   0.333  1.00  0.00     0.041 C 
BRANCH  23  26
HETATM   26  O1  UNL     1       6.782  -0.220  -0.159  1.00  0.00    -0.372 OA
BRANCH  26  27
HETATM   27  C6  UNL     1       7.534   0.773  -0.764  1.00  0.00     0.051 C 
HETATM   28  C7  UNL     1       8.586   1.210   0.234  1.00  0.00     0.045 C 
HETATM   29  C8  UNL     1       6.730   1.976  -1.149  1.00  0.00     0.045 C 
HETATM   30  C9  UNL     1       8.263   0.278  -1.994  1.00  0.00     0.045 C 
ENDBRANCH  26  27
ENDBRANCH  23  26
ENDBRANCH  19  21
ENDBRANCH   1  19
BRANCH  13  31
HETATM   31  O6  UNL     1      -2.577   2.578   1.030  1.00  0.00    -0.386 OA
ATOM     32  H6  UNL     1      -1.723   2.973   0.897  1.00  0.00     0.210 HD
ENDBRANCH  13  31
BRANCH   8  33
HETATM   33  C20 UNL     1      -4.463   0.095  -0.900  1.00  0.00     0.170 C 
BRANCH  33  34
HETATM   34  O2  UNL     1      -4.623   0.567  -2.222  1.00  0.00    -0.391 OA
ATOM     35  H2  UNL     1      -4.845  -0.125  -2.834  1.00  0.00     0.210 HD
ENDBRANCH  33  34
BRANCH  33  36
HETATM   36  C21 UNL     1      -5.427  -0.957  -0.604  1.00  0.00     0.100 C 
HETATM   37  C22 UNL     1      -5.179  -2.186  -1.558  1.00  0.00     0.053 C 
BRANCH  36  38
HETATM   38  O3  UNL     1      -5.274  -1.614   0.654  1.00  0.00    -0.383 OA
ATOM     39  H3  UNL     1      -5.902  -2.300   0.847  1.00  0.00     0.211 HD
ENDBRANCH  36  38
BRANCH  36  40
HETATM   40  C23 UNL     1      -6.889  -0.729  -0.672  1.00  0.00     0.036 C 
BRANCH  40  41
HETATM   41  C24 UNL     1      -7.602  -0.352  -1.880  1.00  0.00     0.130 C 
BRANCH  41  42
HETATM   42  O4  UNL     1      -7.389   0.784  -2.557  1.00  0.00    -0.373 OA
ATOM     43  H4  UNL     1      -7.855   1.031  -3.347  1.00  0.00     0.216 HD
ENDBRANCH  41  42
ENDBRANCH  40  41
ENDBRANCH  36  40
ENDBRANCH  33  36
ENDBRANCH   8  33
BRANCH   9  44
HETATM   44  O5  UNL     1      -5.358   2.842   1.213  1.00  0.00    -0.395 OA
ATOM     45  H5  UNL     1      -5.886   3.629   1.142  1.00  0.00     0.210 HD
ENDBRANCH   9  44
TORSDOF 13
