REMARK  8 active torsions:
REMARK  status: ('A' for Active; 'I' for Inactive)
REMARK    1  A    between atoms: O1_2  and  C2_3 
REMARK    2  A    between atoms: C4_5  and  N1_6 
REMARK    3  A    between atoms: C12_15  and  N3_16 
REMARK    4  A    between atoms: C14_21  and  N5_22 
REMARK    5  A    between atoms: N5_22  and  C15_24 
REMARK    6  A    between atoms: C15_24  and  C16_25 
REMARK    7  A    between atoms: C16_25  and  N6_26 
REMARK    8  A    between atoms: N6_26  and  C17_29 
ROOT
HETATM    1  N3  UNL     1       1.168  -1.406  -0.033  1.00  0.00    -0.339 N 
ATOM      2  H3  UNL     1       1.088  -2.063  -0.809  1.00  0.00     0.167 HD
HETATM    3  C13 UNL     1       0.083  -1.279   0.575  1.00  0.00     0.140 A 
HETATM    4  N4  UNL     1      -0.970  -2.019   0.102  1.00  0.00    -0.175 N 
ATOM      5  H4  UNL     1      -0.811  -2.621  -0.706  1.00  0.00     0.186 HD
HETATM    6  C14 UNL     1      -2.193  -1.995   0.641  1.00  0.00     0.679 A 
HETATM    7  N7  UNL     1      -2.458  -1.221   1.708  1.00  0.00    -0.201 N 
ATOM      8  H7  UNL     1      -3.392  -1.206   2.118  1.00  0.00     0.183 HD
HETATM    9  C23 UNL     1      -1.473  -0.467   2.227  1.00  0.00     0.129 A 
HETATM   10  C24 UNL     1      -0.192  -0.493   1.659  1.00  0.00     0.071 A 
HETATM   11 BR1  UNL     1       1.205   0.571   2.384  1.00  0.00    -0.046 Br
ENDROOT
BRANCH   1  12
HETATM   12  C12 UNL     1       2.430  -0.900   0.066  1.00  0.00     0.067 A 
HETATM   13  C2  UNL     1       2.799   0.242  -0.614  1.00  0.00     0.097 A 
HETATM   14  C3  UNL     1       4.065   0.779  -0.551  1.00  0.00     0.068 A 
HETATM   15  C4  UNL     1       5.016   0.149   0.228  1.00  0.00     0.033 A 
HETATM   16  C10 UNL     1       4.661  -0.992   0.912  1.00  0.00     0.032 A 
HETATM   17  C11 UNL     1       3.397  -1.511   0.837  1.00  0.00     0.035 A 
BRANCH  13  18
HETATM   18  O1  UNL     1       1.882   0.933  -1.424  1.00  0.00    -0.354 OA
HETATM   19  C1  UNL     1       2.198   2.089  -2.132  1.00  0.00     0.210 C 
ENDBRANCH  13  18
BRANCH  15  20
HETATM   20  N1  UNL     1       6.344   0.627   0.346  1.00  0.00    -0.377 N 
HETATM   21  C5  UNL     1       6.723   1.758  -0.469  1.00  0.00     0.153 C 
HETATM   22  C6  UNL     1       8.179   2.067  -0.450  1.00  0.00     0.291 C 
HETATM   23  N2  UNL     1       9.021   0.984   0.014  1.00  0.00     0.087 N 
HETATM   24  C7  UNL     1       9.063  -0.145  -0.865  1.00  0.00     0.310 C 
HETATM   25  C8  UNL     1       8.583   0.637   1.345  1.00  0.00     0.291 C 
HETATM   26  C9  UNL     1       7.233  -0.035   1.269  1.00  0.00     0.153 C 
ENDBRANCH  15  20
ENDBRANCH   1  12
BRANCH   6  27
HETATM   27  N5  UNL     1      -3.170  -2.706   0.171  1.00  0.00    -0.224 N 
ATOM     28  H5  UNL     1      -2.969  -3.294  -0.638  1.00  0.00     0.177 HD
BRANCH  27  29
HETATM   29  C15 UNL     1      -4.497  -2.741   0.681  1.00  0.00     0.165 C 
BRANCH  29  30
HETATM   30  C16 UNL     1      -5.365  -1.636   0.108  1.00  0.00     0.253 C 
BRANCH  30  31
HETATM   31  N6  UNL     1      -6.690  -1.729   0.664  1.00  0.00    -0.069 N 
ATOM     32  H62 UNL     1      -7.086  -2.655   0.503  1.00  0.00     0.277 HD
ATOM     33  H61 UNL     1      -6.655  -1.736   1.683  1.00  0.00     0.277 HD
BRANCH  31  34
HETATM   34  C17 UNL     1      -7.576  -0.707   0.192  1.00  0.00     0.186 C 
HETATM   35  C18 UNL     1      -7.119   0.683   0.585  1.00  0.00     0.033 C 
HETATM   36  C19 UNL     1      -8.248   1.628   0.170  1.00  0.00     0.002 C 
HETATM   37  C20 UNL     1      -8.241   1.750  -1.340  1.00  0.00     0.000 C 
HETATM   38  C21 UNL     1      -7.517   0.594  -1.949  1.00  0.00     0.002 C 
HETATM   39  C22 UNL     1      -7.824  -0.733  -1.287  1.00  0.00     0.033 C 
ENDBRANCH  31  34
ENDBRANCH  30  31
ENDBRANCH  29  30
ENDBRANCH  27  29
ENDBRANCH   6  27
TORSDOF 8
