REMARK  11 active torsions:
REMARK  status: ('A' for Active; 'I' for Inactive)
REMARK    1  A    between atoms: S1_2  and  N1_4 
REMARK    2  A    between atoms: S1_2  and  C7_14 
REMARK    3  A    between atoms: N1_4  and  C1_6 
REMARK    4  A    between atoms: C1_6  and  C2_7 
REMARK    5  A    between atoms: C2_7  and  N2_8 
REMARK    6  A    between atoms: C12_19  and  N3_20 
REMARK    7  A    between atoms: N3_20  and  C13_22 
REMARK    8  A    between atoms: C14_25  and  N5_26 
REMARK    9  A    between atoms: N5_26  and  C15_28 
REMARK   10  A    between atoms: C25_40  and  N7_41 
REMARK   11  A    between atoms: N7_41  and  C26_43 
ROOT
HETATM    1  C13 UNL     1      -0.557  -0.292   0.725  1.00  0.00     0.711 A 
HETATM    2  N4  UNL     1      -1.133   0.749   1.321  1.00  0.00    -0.021 N 
ATOM      3  H4  UNL     1      -0.564   1.415   1.844  1.00  0.00     0.203 HD
HETATM    4  C14 UNL     1      -2.456   0.925   1.237  1.00  0.00     0.711 A 
HETATM    5  N6  UNL     1      -3.215   0.054   0.554  1.00  0.00    -0.021 N 
ATOM      6  H6  UNL     1      -4.224   0.187   0.491  1.00  0.00     0.203 HD
HETATM    7  C25 UNL     1      -2.625  -1.001  -0.049  1.00  0.00     0.707 A 
HETATM    8  N8  UNL     1      -1.296  -1.170   0.039  1.00  0.00    -0.021 N 
ATOM      9  H8  UNL     1      -0.851  -1.967  -0.417  1.00  0.00     0.203 HD
ENDROOT
BRANCH   1  10
HETATM   10  N3  UNL     1       0.727  -0.501   0.777  1.00  0.00    -0.189 N 
ATOM     11  H3  UNL     1       1.291   0.170   1.298  1.00  0.00     0.184 HD
BRANCH  10  12
HETATM   12  C12 UNL     1       1.393  -1.572   0.175  1.00  0.00     0.072 A 
HETATM   13  C7  UNL     1       2.083  -1.492  -1.012  1.00  0.00     0.106 A 
HETATM   14  C8  UNL     1       2.702  -2.610  -1.523  1.00  0.00     0.027 A 
HETATM   15  C9  UNL     1       2.671  -3.834  -0.900  1.00  0.00     0.002 A 
HETATM   16  C10 UNL     1       1.972  -3.902   0.298  1.00  0.00     0.002 A 
HETATM   17  C11 UNL     1       1.340  -2.803   0.839  1.00  0.00     0.031 A 
BRANCH  13  18
HETATM   18  S1  UNL     1       2.195   0.002  -1.866  1.00  0.00     0.261 S 
HETATM   19  O1  UNL     1       2.929  -0.190  -3.188  1.00  0.00    -0.200 OA
HETATM   20  O2  UNL     1       0.824   0.481  -2.248  1.00  0.00    -0.200 OA
BRANCH  18  21
HETATM   21  N1  UNL     1       2.974   1.238  -0.955  1.00  0.00    -0.314 N 
ATOM     22  H1  UNL     1       2.528   2.113  -0.680  1.00  0.00     0.172 HD
BRANCH  21  23
HETATM   23  C1  UNL     1       4.341   0.885  -0.626  1.00  0.00     0.162 C 
BRANCH  23  24
HETATM   24  C2  UNL     1       5.040   1.939   0.163  1.00  0.00     0.292 C 
BRANCH  24  25
HETATM   25  N2  UNL     1       6.387   1.627   0.504  1.00  0.00     0.094 N 
HETATM   26  C3  UNL     1       7.220   1.611  -0.653  1.00  0.00     0.298 C 
HETATM   27  C4  UNL     1       7.620   0.274  -1.168  1.00  0.00     0.198 C 
HETATM   28  O3  UNL     1       7.457  -0.782  -0.303  1.00  0.00    -0.388 OA
HETATM   29  C5  UNL     1       7.736  -0.369   0.996  1.00  0.00     0.198 C 
HETATM   30  C6  UNL     1       6.587   0.537   1.394  1.00  0.00     0.298 C 
ENDBRANCH  24  25
ENDBRANCH  23  24
ENDBRANCH  21  23
ENDBRANCH  18  21
ENDBRANCH  13  18
ENDBRANCH  10  12
ENDBRANCH   1  10
BRANCH   4  31
HETATM   31  N5  UNL     1      -3.016   1.940   1.819  1.00  0.00    -0.191 N 
ATOM     32  H5  UNL     1      -2.449   2.608   2.341  1.00  0.00     0.184 HD
BRANCH  31  33
HETATM   33  C15 UNL     1      -4.404   2.115   1.727  1.00  0.00     0.050 A 
HETATM   34  C16 UNL     1      -5.240   1.697   2.757  1.00  0.00     0.031 A 
HETATM   35  C17 UNL     1      -6.602   1.878   2.647  1.00  0.00     0.014 A 
HETATM   36  C18 UNL     1      -7.117   2.473   1.513  1.00  0.00    -0.026 A 
HETATM   37  C19 UNL     1      -8.477   2.655   1.399  1.00  0.00     0.012 A 
HETATM   38  C23 UNL     1      -6.264   2.885   0.493  1.00  0.00    -0.024 A 
HETATM   39  C20 UNL     1      -8.965   3.254   0.253  1.00  0.00     0.001 A 
HETATM   40  C21 UNL     1      -8.122   3.664  -0.762  1.00  0.00     0.001 A 
HETATM   41  C22 UNL     1      -6.757   3.485  -0.655  1.00  0.00     0.012 A 
HETATM   42  C24 UNL     1      -4.914   2.708   0.596  1.00  0.00     0.042 A 
ENDBRANCH  31  33
ENDBRANCH   4  31
BRANCH   7  43
HETATM   43  N7  UNL     1      -3.355  -1.847  -0.717  1.00  0.00    -0.220 N 
ATOM     44  H7  UNL     1      -4.365  -1.723  -0.790  1.00  0.00     0.178 HD
BRANCH  43  45
HETATM   45  C26 UNL     1      -2.697  -2.968  -1.353  1.00  0.00     0.099 A 
HETATM   46  C27 UNL     1      -3.567  -4.068  -1.920  1.00  0.00     0.028 A 
HETATM   47  C28 UNL     1      -2.684  -4.295  -0.706  1.00  0.00     0.028 A 
ENDBRANCH  43  45
ENDBRANCH   7  43
TORSDOF 11
