REMARK  9 active torsions:
REMARK  status: ('A' for Active; 'I' for Inactive)
REMARK    1  A    between atoms: C3_4  and  C4_5 
REMARK    2  A    between atoms: C4_5  and  N1_6 
REMARK    3  A    between atoms: N1_6  and  C5_8 
REMARK    4  A    between atoms: C6_11  and  N3_12 
REMARK    5  A    between atoms: N3_12  and  C7_14 
REMARK    6  A    between atoms: C10_17  and  O2_18 
REMARK    7  A    between atoms: O2_18  and  C11_19 
REMARK    8  A    between atoms: C11_19  and  C12_20 
REMARK    9  A    between atoms: C23_31  and  C24_32 
ROOT
HETATM    1  C5  UNL     1      -3.335   1.720  -0.472  1.00  0.00     0.680 A 
HETATM    2  N2  UNL     1      -2.021   1.905  -0.524  1.00  0.00    -0.176 N 
ATOM      3  H2  UNL     1      -1.673   2.856  -0.645  1.00  0.00     0.186 HD
HETATM    4  C6  UNL     1      -1.098   0.880  -0.423  1.00  0.00     0.134 A 
HETATM    5  C20 UNL     1      -1.637  -0.395  -0.259  1.00  0.00     0.036 A 
HETATM    6  C21 UNL     1      -0.850  -1.521  -0.144  1.00  0.00     0.018 A 
HETATM    7  C22 UNL     1      -1.404  -2.793   0.018  1.00  0.00     0.013 A 
HETATM    8  C23 UNL     1      -2.769  -2.966   0.070  1.00  0.00    -0.022 A 
HETATM    9  C29 UNL     1      -3.564  -1.853  -0.044  1.00  0.00     0.043 A 
HETATM   10  C30 UNL     1      -3.013  -0.581  -0.206  1.00  0.00     0.064 A 
HETATM   11  N5  UNL     1      -3.808   0.497  -0.316  1.00  0.00    -0.191 N 
ATOM     12  H5  UNL     1      -4.819   0.365  -0.277  1.00  0.00     0.184 HD
ENDROOT
BRANCH   4  13
HETATM   13  N3  UNL     1       0.080   1.115  -0.480  1.00  0.00    -0.341 N 
ATOM     14  H3  UNL     1       0.086   2.127  -0.603  1.00  0.00     0.167 HD
BRANCH  13  15
HETATM   15  C7  UNL     1       1.387   0.832  -0.477  1.00  0.00     0.033 A 
HETATM   16  C8  UNL     1       2.185   0.793   0.688  1.00  0.00     0.032 A 
HETATM   17  C9  UNL     1       3.521   0.505   0.660  1.00  0.00     0.039 A 
HETATM   18  C10 UNL     1       4.142   0.238  -0.541  1.00  0.00     0.069 A 
HETATM   19  C18 UNL     1       3.376   0.272  -1.688  1.00  0.00     0.039 A 
HETATM   20  C19 UNL     1       2.046   0.557  -1.684  1.00  0.00     0.032 A 
BRANCH  18  21
HETATM   21  O2  UNL     1       5.492  -0.059  -0.620  1.00  0.00    -0.347 OA
BRANCH  21  22
HETATM   22  C11 UNL     1       6.256  -0.088   0.575  1.00  0.00     0.214 C 
BRANCH  22  23
HETATM   23  C12 UNL     1       7.673  -0.422   0.303  1.00  0.00    -0.034 A 
HETATM   24  C13 UNL     1       8.086  -0.653  -0.987  1.00  0.00     0.009 A 
HETATM   25  C14 UNL     1       9.414  -0.969  -1.265  1.00  0.00     0.001 A 
HETATM   26  C15 UNL     1      10.300  -1.042  -0.210  1.00  0.00     0.000 A 
HETATM   27  C16 UNL     1       9.916  -0.816   1.094  1.00  0.00     0.001 A 
HETATM   28  C17 UNL     1       8.587  -0.505   1.330  1.00  0.00     0.009 A 
ENDBRANCH  22  23
ENDBRANCH  21  22
ENDBRANCH  18  21
ENDBRANCH  13  15
ENDBRANCH   4  13
BRANCH   1  29
HETATM   29  N1  UNL     1      -4.085   2.770  -0.579  1.00  0.00    -0.224 N 
ATOM     30  H1  UNL     1      -3.616   3.668  -0.696  1.00  0.00     0.177 HD
BRANCH  29  31
HETATM   31  C4  UNL     1      -5.506   2.779  -0.548  1.00  0.00     0.161 C 
BRANCH  31  32
HETATM   32  C3  UNL     1      -5.933   4.137   0.019  1.00  0.00     0.126 C 
HETATM   33  C2  UNL     1      -5.407   5.258  -0.880  1.00  0.00     0.128 C 
HETATM   34  C1  UNL     1      -5.352   6.392   0.068  1.00  0.00     0.234 C 
HETATM   35  O1  UNL     1      -5.335   7.602  -0.212  1.00  0.00    -0.272 OA
HETATM   36  N7  UNL     1      -5.322   5.819   1.365  1.00  0.00    -0.274 N 
HETATM   37  N6  UNL     1      -5.227   4.417   1.255  1.00  0.00    -0.132 NA
ATOM     38  H7  UNL     1      -5.363   6.340   2.241  1.00  0.00     0.185 HD
ENDBRANCH  31  32
ENDBRANCH  29  31
ENDBRANCH   1  29
BRANCH   8  39
HETATM   39  C24 UNL     1      -3.321  -4.310   0.240  1.00  0.00    -0.011 A 
HETATM   40  C25 UNL     1      -2.635  -5.259   0.966  1.00  0.00     0.015 A 
HETATM   41  C26 UNL     1      -3.119  -6.543   1.152  1.00  0.00     0.018 A 
HETATM   42  C27 UNL     1      -4.326  -6.869   0.588  1.00  0.00     0.087 A 
HETATM   43  N4  UNL     1      -5.010  -5.959  -0.124  1.00  0.00    -0.374 N 
HETATM   44  C28 UNL     1      -4.528  -4.700  -0.302  1.00  0.00     0.099 A 
ATOM     45  H4  UNL     1      -5.906  -6.216  -0.538  1.00  0.00     0.164 HD
ENDBRANCH   8  39
TORSDOF 9
