REMARK  4 active torsions:
REMARK  status: ('A' for Active; 'I' for Inactive)
REMARK    1  A    between atoms: C10_11  and  C11_12 
REMARK    2  A    between atoms: C11_12  and  N1_13 
REMARK       I    between atoms: N1_13  and  C12_15 
REMARK    3  A    between atoms: C12_15  and  C13_17 
REMARK    4  A    between atoms: C15_21  and  C16_22 
ROOT
HETATM    1  N1  UNL     1       0.630  -0.703   0.542  1.00  0.00    -0.359 N 
ATOM      2  H1  UNL     1       0.532  -0.050   1.319  1.00  0.00     0.162 HD
HETATM    3  C12 UNL     1       1.895  -1.258   0.223  1.00  0.00     0.233 C 
HETATM    4  O1  UNL     1       2.026  -2.075  -0.748  1.00  0.00    -0.273 OA
ENDROOT
BRANCH   1   5
HETATM    5  C11 UNL     1      -0.498  -1.071  -0.237  1.00  0.00     0.135 C 
BRANCH   5   6
HETATM    6  C10 UNL     1      -1.806  -0.465   0.118  1.00  0.00     0.013 C 
HETATM    7  C2  UNL     1      -1.878   1.020   0.036  1.00  0.00     0.112 C 
HETATM    8  C1  UNL     1      -1.418   1.516  -1.322  1.00  0.00     0.053 C 
HETATM    9  F1  UNL     1      -1.133   1.657   0.979  1.00  0.00    -0.242 F 
HETATM   10  C3  UNL     1      -3.305   1.490   0.221  1.00  0.00     0.026 C 
HETATM   11  C4  UNL     1      -3.688   1.108   1.651  1.00  0.00     0.012 C 
HETATM   12  C8  UNL     1      -4.261   0.924  -0.776  1.00  0.00     0.012 C 
HETATM   13  C5  UNL     1      -3.671  -0.396   1.740  1.00  0.00    -0.013 C 
HETATM   14  C6  UNL     1      -4.661  -0.953   0.749  1.00  0.00     0.009 C 
HETATM   15  C19 UNL     1      -2.274  -0.882   1.509  1.00  0.00     0.019 C 
HETATM   16  C7  UNL     1      -4.214  -0.585  -0.629  1.00  0.00    -0.013 C 
HETATM   17  C9  UNL     1      -2.828  -1.087  -0.844  1.00  0.00     0.019 C 
ENDBRANCH   5   6
ENDBRANCH   1   5
BRANCH   3  18
HETATM   18  C13 UNL     1       3.067  -0.890   1.015  1.00  0.00     0.203 C 
HETATM   19  C14 UNL     1       3.311   0.584   0.974  1.00  0.00     0.237 C 
HETATM   20  O2  UNL     1       2.854   1.571   1.561  1.00  0.00    -0.272 OA
HETATM   21  N2  UNL     1       4.322   0.445  -0.046  1.00  0.00    -0.321 N 
HETATM   22  C15 UNL     1       5.225   0.725  -1.113  1.00  0.00     0.198 C 
HETATM   23  C18 UNL     1       4.411  -0.945   0.390  1.00  0.00     0.172 C 
HETATM   24  C17 UNL     1       4.997  -0.280  -2.223  1.00  0.00     0.112 C 
HETATM   25  S1  UNL     1       4.532  -1.760  -1.235  1.00  0.00    -0.140 SA
BRANCH  22  26
HETATM   26  C16 UNL     1       6.622   0.799  -0.667  1.00  0.00     0.197 C 
HETATM   27  O3  UNL     1       7.571   1.018  -1.452  1.00  0.00    -0.646 OA
HETATM   28  O4  UNL     1       6.908   0.619   0.672  1.00  0.00    -0.646 OA
ENDBRANCH  22  26
ENDBRANCH   3  18
TORSDOF 4
