REMARK  1 active torsions:
REMARK  status: ('A' for Active; 'I' for Inactive)
REMARK    1  A    between atoms: C5_6  and  C6_7 
ROOT
HETATM    1  C1  UNL     1      -2.342   1.690  -0.513  1.00  0.00     0.309 C 
HETATM    2  N1  UNL     1      -1.829   0.754   0.500  1.00  0.00     0.084 N 
HETATM    3  C2  UNL     1      -2.449  -0.507   0.384  1.00  0.00     0.272 C 
HETATM    4  C3  UNL     1      -1.662  -1.710   0.704  1.00  0.00     0.031 C 
HETATM    5  C4  UNL     1      -0.186  -1.587   0.584  1.00  0.00     0.010 C 
HETATM    6  C5  UNL     1       0.122  -0.390  -0.257  1.00  0.00     0.045 C 
HETATM    7  C9  UNL     1      -0.416   0.803   0.458  1.00  0.00     0.278 C 
ENDROOT
BRANCH   6   8
HETATM    8  C6  UNL     1       1.581  -0.268  -0.606  1.00  0.00     0.193 C 
HETATM    9  C7  UNL     1       2.524  -0.150   0.565  1.00  0.00     0.061 C 
HETATM   10  C8  UNL     1       3.288   0.768  -0.380  1.00  0.00     0.235 C 
HETATM   11  N2  UNL     1       1.996   1.068  -1.003  1.00  0.00    -0.070 N 
ATOM     12  H22 UNL     1       1.934   1.376  -1.973  1.00  0.00     0.277 HD
ATOM     13  H21 UNL     1       1.457   1.892  -0.736  1.00  0.00     0.277 HD
ENDBRANCH   6   8
TORSDOF 1
