REMARK  2 active torsions:
REMARK  status: ('A' for Active; 'I' for Inactive)
REMARK    1  A    between atoms: C3_3  and  C4_4 
REMARK    2  A    between atoms: C9_10  and  O1_11 
ROOT
HETATM    1  C1  UNL     1       3.589  -0.590  -0.132  1.00  0.00     0.012 C 
HETATM    2  C2  UNL     1       2.604  -0.228   0.466  1.00  0.00    -0.117 C 
HETATM    3  C3  UNL     1       1.405   0.227   1.173  1.00  0.00     0.107 C 
ENDROOT
BRANCH   3   4
HETATM    4  C4  UNL     1       0.261   0.146   0.260  1.00  0.00     0.027 C 
HETATM    5  C5  UNL     1      -0.035  -1.236  -0.271  1.00  0.00     0.045 C 
HETATM    6  C6  UNL     1      -1.493  -1.072  -0.713  1.00  0.00     0.277 C 
HETATM    7  N1  UNL     1      -1.907   0.256  -0.260  1.00  0.00     0.117 N 
HETATM    8  C7  UNL     1      -1.271   1.295  -1.080  1.00  0.00     0.277 C 
HETATM    9  C9  UNL     1      -1.083   0.425   0.955  1.00  0.00     0.366 C 
HETATM   10  C8  UNL     1       0.234   1.092  -0.883  1.00  0.00     0.045 C 
BRANCH   9  11
HETATM   11  O1  UNL     1      -1.310  -0.577   1.870  1.00  0.00    -0.367 OA
ATOM     12  H1  UNL     1      -2.140  -0.405   2.299  1.00  0.00     0.212 HD
ENDBRANCH   9  11
ENDBRANCH   3   4
TORSDOF 2
