REMARK  7 active torsions:
REMARK  status: ('A' for Active; 'I' for Inactive)
REMARK    1  A    between atoms: C1_2  and  C2_4 
REMARK    2  A    between atoms: C5_7  and  C6_8 
REMARK    3  A    between atoms: C6_8  and  C7_9 
REMARK    4  A    between atoms: C7_9  and  C8_10 
REMARK    5  A    between atoms: C10_14  and  C11_15 
REMARK    6  A    between atoms: C11_15  and  C12_16 
REMARK    7  A    between atoms: C12_16  and  N3_17 
ROOT
HETATM    1  C8  UNL     1      -0.979   0.859   0.867  1.00  0.00     0.026 A 
HETATM    2  C9  UNL     1      -0.695   0.885  -0.469  1.00  0.00     0.114 A 
HETATM    3  N2  UNL     1      -1.603   0.144  -1.124  1.00  0.00    -0.354 N 
ATOM      4  H2  UNL     1      -1.650  -0.023  -2.129  1.00  0.00     0.166 HD
HETATM    5  C10 UNL     1      -2.446  -0.337  -0.175  1.00  0.00     0.085 A 
HETATM    6  N5  UNL     1      -2.054   0.109   1.045  1.00  0.00    -0.348 N 
ATOM      7  H5  UNL     1      -2.506  -0.096   1.936  1.00  0.00     0.167 HD
ENDROOT
BRANCH   1   8
HETATM    8  C7  UNL     1      -0.205   1.557   1.918  1.00  0.00     0.063 C 
BRANCH   8   9
HETATM    9  C6  UNL     1       0.899   0.716   2.483  1.00  0.00     0.044 C 
BRANCH   9  10
HETATM   10  C5  UNL     1       1.908   0.272   1.527  1.00  0.00    -0.058 A 
HETATM   11  C4  UNL     1       3.058   0.968   1.211  1.00  0.00     0.008 A 
HETATM   12  C3  UNL     1       3.983   0.513   0.306  1.00  0.00     0.017 A 
HETATM   13  C2  UNL     1       3.783  -0.692  -0.336  1.00  0.00     0.029 A 
HETATM   14  C15 UNL     1       2.659  -1.396  -0.043  1.00  0.00     0.017 A 
HETATM   15  C14 UNL     1       1.718  -0.932   0.879  1.00  0.00     0.008 A 
BRANCH  13  16
HETATM   16  C1  UNL     1       4.787  -1.150  -1.296  1.00  0.00     0.264 C 
HETATM   17  N1  UNL     1       5.940  -0.390  -1.572  1.00  0.00    -0.057 NA
HETATM   18  O1  UNL     1       4.628  -2.245  -1.894  1.00  0.00    -0.271 OA
ENDBRANCH  13  16
ENDBRANCH   9  10
ENDBRANCH   8   9
ENDBRANCH   1   8
BRANCH   5  19
HETATM   19  C11 UNL     1      -3.624  -1.210  -0.368  1.00  0.00     0.143 C 
BRANCH  19  20
HETATM   20  C12 UNL     1      -4.837  -0.309  -0.586  1.00  0.00     0.234 A 
HETATM   21  C13 UNL     1      -4.765   1.083  -0.109  1.00  0.00     0.119 A 
HETATM   22  N4  UNL     1      -4.557   0.859  -1.338  1.00  0.00    -0.362 N 
ATOM     23  H4  UNL     1      -4.337   1.253  -2.252  1.00  0.00     0.161 HD
BRANCH  20  24
HETATM   24  N3  UNL     1      -6.122  -0.940  -0.800  1.00  0.00    -0.047 N 
ATOM     25  H33 UNL     1      -6.048  -1.595  -1.579  1.00  0.00     0.277 HD
ATOM     26  H32 UNL     1      -6.314  -1.578  -0.028  1.00  0.00     0.277 HD
ATOM     27  H31 UNL     1      -6.932  -0.338  -0.946  1.00  0.00     0.277 HD
ENDBRANCH  20  24
ENDBRANCH  19  20
ENDBRANCH   5  19
TORSDOF 7
