REMARK  9 active torsions:
REMARK  status: ('A' for Active; 'I' for Inactive)
REMARK    1  A    between atoms: C2_2  and  O1_3 
REMARK    2  A    between atoms: O1_3  and  C3_4 
REMARK    3  A    between atoms: C3_4  and  O2_5 
REMARK    4  A    between atoms: C3_4  and  N1_7 
REMARK    5  A    between atoms: N1_7  and  C4_8 
REMARK    6  A    between atoms: C5_10  and  C6_11 
REMARK    7  A    between atoms: C6_11  and  O4_12 
REMARK    8  A    between atoms: O4_12  and  C7_13 
REMARK    9  A    between atoms: C9_17  and  O7_18 
ROOT
HETATM    1  C4  UNL     1       1.753   0.635   0.053  1.00  0.00     0.363 C 
HETATM    2  O3  UNL     1       0.879   0.577  -1.104  1.00  0.00    -0.318 OA
HETATM    3  C5  UNL     1      -0.212  -0.058  -0.541  1.00  0.00     0.291 C 
HETATM    4  O6  UNL     1      -0.283   0.301   0.829  1.00  0.00    -0.324 OA
HETATM    5  C9  UNL     1       0.657   1.293   0.967  1.00  0.00     0.324 C 
ENDROOT
BRANCH   1   6
HETATM    6  N1  UNL     1       1.959  -0.688   0.424  1.00  0.00    -0.365 NA
BRANCH   6   7
HETATM    7  C3  UNL     1       2.157  -1.952   0.779  1.00  0.00     0.343 C 
BRANCH   7   8
HETATM    8  O1  UNL     1       1.168  -2.938   0.991  1.00  0.00    -0.276 OA
BRANCH   8   9
HETATM    9  C2  UNL     1       1.354  -4.221   1.328  1.00  0.00     0.137 C 
HETATM   10  C1  UNL     1       1.381  -5.153   0.370  1.00  0.00     0.038 C 
ENDBRANCH   8   9
ENDBRANCH   7   8
BRANCH   7  11
HETATM   11  O2  UNL     1       3.344  -2.499   0.991  1.00  0.00    -0.315 OA
ATOM     12  H2  UNL     1       4.009  -1.836   0.848  1.00  0.00     0.222 HD
ENDBRANCH   7  11
ENDBRANCH   6   7
ENDBRANCH   1   6
BRANCH   5  13
HETATM   13  O7  UNL     1       1.183   1.543   2.164  1.00  0.00    -0.361 OA
HETATM   14  C10 UNL     1       1.146   2.933   2.415  1.00  0.00     0.205 C 
ENDBRANCH   5  13
BRANCH   3  15
HETATM   15  C6  UNL     1      -1.501   0.078  -1.236  1.00  0.00     0.239 C 
BRANCH  15  16
HETATM   16  O4  UNL     1      -2.006   1.388  -1.400  1.00  0.00    -0.317 OA
BRANCH  16  17
HETATM   17  C7  UNL     1      -3.298   1.398  -2.015  1.00  0.00     0.254 C 
HETATM   18  C8  UNL     1      -3.952   2.682  -2.298  1.00  0.00     0.126 C 
HETATM   19  O5  UNL     1      -3.813   0.323  -2.289  1.00  0.00    -0.266 OA
ENDBRANCH  16  17
ENDBRANCH  15  16
ENDBRANCH   3  15
TORSDOF 9
