REMARK  6 active torsions:
REMARK  status: ('A' for Active; 'I' for Inactive)
REMARK    1  A    between atoms: C2_3  and  C3_4 
REMARK    2  A    between atoms: C2_3  and  C7_12 
REMARK    3  A    between atoms: C3_4  and  C4_5 
REMARK    4  A    between atoms: C7_12  and  N4_13 
REMARK    5  A    between atoms: C7_12  and  C19_27 
REMARK       I    between atoms: N4_13  and  C8_15 
REMARK    6  A    between atoms: C8_15  and  C9_17 
ROOT
HETATM    1  N1  UNL     1      -1.398  -2.623  -1.929  1.00  0.00    -0.197 NA
HETATM    2  C1  UNL     1      -1.839  -1.756  -1.277  1.00  0.00     0.066 C 
HETATM    3  C2  UNL     1      -2.369  -0.676  -0.449  1.00  0.00     0.125 C 
ENDROOT
BRANCH   3   4
HETATM    4  C3  UNL     1      -3.787  -0.410  -0.840  1.00  0.00     0.080 C 
BRANCH   4   5
HETATM    5  C4  UNL     1      -4.635  -1.616  -0.652  1.00  0.00     0.026 A 
HETATM    6  C5  UNL     1      -5.328  -1.944   0.514  1.00  0.00     0.114 A 
HETATM    7  N2  UNL     1      -5.984  -3.102   0.314  1.00  0.00    -0.360 N 
HETATM    8  C6  UNL     1      -5.727  -3.516  -0.940  1.00  0.00     0.180 A 
ATOM      9  H2  UNL     1      -6.573  -3.582   0.994  1.00  0.00     0.166 HD
HETATM   10  N3  UNL     1      -4.917  -2.613  -1.503  1.00  0.00    -0.355 N 
ATOM     11  H3  UNL     1      -4.560  -2.675  -2.456  1.00  0.00     0.166 HD
ENDBRANCH   4   5
ENDBRANCH   3   4
BRANCH   3  12
HETATM   12  C7  UNL     1      -1.492   0.552  -0.510  1.00  0.00     0.135 C 
BRANCH  12  13
HETATM   13  N4  UNL     1      -0.155   0.269  -0.046  1.00  0.00    -0.350 N 
HETATM   14  C8  UNL     1       0.973   0.328  -0.907  1.00  0.00     0.227 C 
HETATM   15  O1  UNL     1       0.790   0.643  -2.134  1.00  0.00    -0.273 OA
ATOM     16  H4  UNL     1      -0.016   0.018   0.933  1.00  0.00     0.163 HD
BRANCH  14  17
HETATM   17  C9  UNL     1       2.347   0.042  -0.451  1.00  0.00     0.042 C 
HETATM   18  C10 UNL     1       3.304   0.187  -1.584  1.00  0.00     0.024 C 
HETATM   19  C11 UNL     1       4.707  -0.057  -1.105  1.00  0.00    -0.013 C 
HETATM   20  C12 UNL     1       4.799  -1.492  -0.650  1.00  0.00     0.009 C 
HETATM   21  C16 UNL     1       5.086   0.849   0.036  1.00  0.00     0.009 C 
HETATM   22  C13 UNL     1       3.809  -1.690   0.465  1.00  0.00    -0.013 C 
HETATM   23  C14 UNL     1       4.157  -0.788   1.629  1.00  0.00     0.009 C 
HETATM   24  C18 UNL     1       2.401  -1.389   0.037  1.00  0.00     0.024 C 
HETATM   25  C15 UNL     1       4.091   0.660   1.170  1.00  0.00    -0.013 C 
HETATM   26  C17 UNL     1       2.728   1.010   0.648  1.00  0.00     0.024 C 
ENDBRANCH  14  17
ENDBRANCH  12  13
BRANCH  12  27
HETATM   27  C19 UNL     1      -2.083   1.710   0.177  1.00  0.00    -0.034 A 
HETATM   28  C20 UNL     1      -1.968   1.824   1.534  1.00  0.00     0.012 A 
HETATM   29  C21 UNL     1      -2.516   2.898   2.177  1.00  0.00     0.043 A 
HETATM   30  C22 UNL     1      -3.187   3.877   1.496  1.00  0.00     0.116 A 
HETATM   31  F1  UNL     1      -3.733   4.947   2.136  1.00  0.00    -0.206 F 
HETATM   32  C23 UNL     1      -3.323   3.793   0.119  1.00  0.00     0.043 A 
HETATM   33  C24 UNL     1      -2.758   2.692  -0.518  1.00  0.00     0.012 A 
ENDBRANCH  12  27
ENDBRANCH   3  12
TORSDOF 6
