REMARK  4 active torsions:
REMARK  status: ('A' for Active; 'I' for Inactive)
REMARK    1  A    between atoms: O1_2  and  C2_3 
REMARK    2  A    between atoms: C2_3  and  C3_4 
REMARK    3  A    between atoms: C3_4  and  N1_5 
REMARK    4  A    between atoms: N1_5  and  C4_8 
ROOT
HETATM    1  C4  UNL     1      -1.030   0.160  -0.198  1.00  0.00     0.217 C 
HETATM    2  C5  UNL     1      -1.393  -1.332  -0.239  1.00  0.00     0.062 C 
HETATM    3  C6  UNL     1      -2.884  -1.220   0.077  1.00  0.00     0.235 C 
HETATM    4  N2  UNL     1      -2.838  -0.380   1.256  1.00  0.00    -0.069 N 
ATOM      5  H21 UNL     1      -2.577  -0.864   2.115  1.00  0.00     0.277 HD
ATOM      6  H22 UNL     1      -3.748  -0.063   1.590  1.00  0.00     0.277 HD
HETATM    7  C7  UNL     1      -1.937   0.677   0.860  1.00  0.00     0.212 C 
HETATM    8  C8  UNL     1      -2.749   1.872   0.415  1.00  0.00     0.042 C 
ENDROOT
BRANCH   1   9
HETATM    9  N1  UNL     1       0.379   0.203   0.120  1.00  0.00    -0.067 N 
ATOM     10  H12 UNL     1       0.567  -0.205   1.036  1.00  0.00     0.277 HD
ATOM     11  H11 UNL     1       0.691   1.157   0.304  1.00  0.00     0.277 HD
BRANCH   9  12
HETATM   12  C3  UNL     1       1.175  -0.423  -0.911  1.00  0.00     0.258 C 
BRANCH  12  13
HETATM   13  C2  UNL     1       2.645  -0.431  -0.630  1.00  0.00     0.194 C 
BRANCH  13  14
HETATM   14  O1  UNL     1       3.187   0.826  -0.485  1.00  0.00    -0.394 OA
HETATM   15  C1  UNL     1       4.568   0.734  -0.231  1.00  0.00     0.201 C 
ENDBRANCH  13  14
ENDBRANCH  12  13
ENDBRANCH   9  12
ENDBRANCH   1   9
TORSDOF 4
