REMARK  3 active torsions:
REMARK  status: ('A' for Active; 'I' for Inactive)
REMARK    1  A    between atoms: C2_4  and  N2_5 
REMARK    2  A    between atoms: C2_4  and  S1_8 
REMARK    3  A    between atoms: S1_8  and  N3_9 
ROOT
HETATM    1  C1  UNL     1       2.252   0.762  -0.216  1.00  0.00     0.148 C 
HETATM    2  N1  UNL     1       1.047   0.850   0.623  1.00  0.00    -0.374 N 
ATOM      3  H1  UNL     1       1.085   1.436   1.457  1.00  0.00     0.161 HD
HETATM    4  C2  UNL     1      -0.085   0.214   0.361  1.00  0.00     0.155 C 
ENDROOT
BRANCH   4   5
HETATM    5  N2  UNL     1      -0.328  -0.633  -0.728  1.00  0.00    -0.374 N 
HETATM    6  C3  UNL     1      -1.595  -1.302  -0.962  1.00  0.00     0.148 C 
ATOM      7  H2  UNL     1       0.428  -0.789  -1.394  1.00  0.00     0.161 HD
ENDBRANCH   4   5
BRANCH   4   8
HETATM    8  S1  UNL     1      -1.522   0.388   1.449  1.00  0.00     0.015 SA
BRANCH   8   9
HETATM    9  N3  UNL     1      -2.836  -0.069   1.551  1.00  0.00    -0.367 N 
ATOM     10  H32 UNL     1      -3.029  -0.689   0.765  1.00  0.00     0.164 HD
ATOM     11  H31 UNL     1      -3.645   0.029   2.164  1.00  0.00     0.164 HD
ENDBRANCH   8   9
ENDBRANCH   4   8
TORSDOF 3
