REMARK  6 active torsions:
REMARK  status: ('A' for Active; 'I' for Inactive)
REMARK    1  A    between atoms: C2_2  and  C3_3 
REMARK    2  A    between atoms: C13_17  and  C15_19 
REMARK    3  A    between atoms: C15_19  and  C16_20 
REMARK    4  A    between atoms: C16_20  and  C17_21 
REMARK    5  A    between atoms: C23_30  and  C25_32 
REMARK    6  A    between atoms: C25_32  and  O8_33 
ROOT
HETATM    1  C3  UNL     1      -3.040   0.486   0.339  1.00  0.00     0.125 C 
HETATM    2  C4  UNL     1      -3.469   1.845   0.964  1.00  0.00     0.052 C 
HETATM    3  O1  UNL     1      -3.395  -0.478   1.185  1.00  0.00    -0.336 OA
HETATM    4  C5  UNL     1      -2.577  -1.429   1.617  1.00  0.00     0.198 C 
HETATM    5  C6  UNL     1      -2.578  -2.801   1.005  1.00  0.00     0.072 C 
HETATM    6  C7  UNL     1      -2.693  -3.454   2.391  1.00  0.00     0.011 C 
HETATM    7  C8  UNL     1      -3.158  -2.096   2.879  1.00  0.00     0.072 C 
HETATM    8  O2  UNL     1      -1.279  -1.039   1.923  1.00  0.00    -0.197 OA
HETATM    9  O3  UNL     1      -1.407   0.251   2.260  1.00  0.00    -0.191 OA
HETATM   10  C9  UNL     1      -0.771   0.903   1.179  1.00  0.00     0.260 C 
HETATM   11  C10 UNL     1      -0.513   2.336   1.465  1.00  0.00     0.080 C 
HETATM   12  C11 UNL     1       0.981   2.499   1.328  1.00  0.00     0.038 C 
HETATM   13  C12 UNL     1       1.437   1.171   0.833  1.00  0.00     0.136 C 
HETATM   14  O4  UNL     1       0.464   0.232   1.131  1.00  0.00    -0.342 OA
HETATM   15  C13 UNL     1       1.765   1.048  -0.603  1.00  0.00     0.015 C 
HETATM   16  C14 UNL     1       2.679   2.146  -1.102  1.00  0.00     0.020 C 
HETATM   17  C21 UNL     1       0.629   0.747  -1.529  1.00  0.00     0.207 C 
HETATM   18  O5  UNL     1       0.082  -0.470  -1.108  1.00  0.00    -0.228 OA
HETATM   19  O6  UNL     1      -1.105  -0.471  -0.674  1.00  0.00    -0.191 OA
HETATM   20  C22 UNL     1      -1.594   0.627  -0.060  1.00  0.00     0.289 C 
HETATM   21  O7  UNL     1      -1.484   1.713  -0.904  1.00  0.00    -0.330 OA
HETATM   22  C23 UNL     1      -0.442   1.667  -1.820  1.00  0.00     0.112 C 
HETATM   23  C24 UNL     1      -0.087   3.103  -2.159  1.00  0.00     0.051 C 
ENDROOT
BRANCH  15  24
HETATM   24  C15 UNL     1       2.575  -0.233  -0.739  1.00  0.00     0.018 C 
BRANCH  24  25
HETATM   25  C16 UNL     1       3.846  -0.321  -0.008  1.00  0.00     0.028 C 
BRANCH  25  26
HETATM   26  C17 UNL     1       4.437  -1.650  -0.312  1.00  0.00    -0.025 C 
HETATM   27  C18 UNL     1       4.666  -2.517   0.647  1.00  0.00    -0.091 C 
HETATM   28  C19 UNL     1       4.325  -2.149   2.047  1.00  0.00     0.042 C 
HETATM   29  C20 UNL     1       5.267  -3.873   0.345  1.00  0.00     0.042 C 
ENDBRANCH  25  26
ENDBRANCH  24  25
ENDBRANCH  15  24
BRANCH  22  30
HETATM   30  C25 UNL     1      -0.996   1.212  -3.205  1.00  0.00     0.204 C 
BRANCH  30  31
HETATM   31  O8  UNL     1      -1.958   2.067  -3.672  1.00  0.00    -0.398 OA
ATOM     32  H8  UNL     1      -2.295   1.790  -4.516  1.00  0.00     0.209 HD
ENDBRANCH  30  31
ENDBRANCH  22  30
BRANCH   1  33
HETATM   33  C2  UNL     1      -4.002   0.415  -0.828  1.00  0.00     0.039 C 
HETATM   34  C1  UNL     1      -3.922  -0.799  -1.672  1.00  0.00     0.008 C 
ENDBRANCH   1  33
TORSDOF 6
