REMARK  4 active torsions:
REMARK  status: ('A' for Active; 'I' for Inactive)
REMARK    1  A    between atoms: C2_2  and  C3_3 
REMARK    2  A    between atoms: C2_2  and  C5_8 
REMARK    3  A    between atoms: C3_3  and  N1_4 
REMARK    4  A    between atoms: N1_4  and  C4_6 
ROOT
HETATM    1  C5  UNL     1      -1.253  -0.055  -0.224  1.00  0.00     0.034 A 
HETATM    2  C6  UNL     1      -1.766   0.535   0.907  1.00  0.00     0.114 A 
HETATM    3  N2  UNL     1      -3.098   0.777   0.720  1.00  0.00    -0.360 N 
ATOM      4  H2  UNL     1      -3.738   1.206   1.388  1.00  0.00     0.166 HD
HETATM    5  C7  UNL     1      -3.404   0.336  -0.526  1.00  0.00     0.180 A 
HETATM    6  N3  UNL     1      -2.270  -0.166  -1.083  1.00  0.00    -0.354 N 
ATOM      7  H3  UNL     1      -2.205  -0.568  -2.018  1.00  0.00     0.166 HD
ENDROOT
BRANCH   1   8
HETATM    8  C2  UNL     1       0.190  -0.484  -0.425  1.00  0.00     0.071 C 
HETATM    9  C1  UNL     1       0.495  -1.593   0.498  1.00  0.00     0.022 C 
BRANCH   8  10
HETATM   10  C3  UNL     1       1.006   0.738  -0.426  1.00  0.00     0.073 C 
BRANCH  10  11
HETATM   11  N1  UNL     1       2.383   0.702  -0.723  1.00  0.00    -0.347 N 
ATOM     12  H1  UNL     1       2.660   1.201  -1.568  1.00  0.00     0.167 HD
BRANCH  11  13
HETATM   13  C4  UNL     1       3.429   0.079  -0.025  1.00  0.00     0.352 C 
HETATM   14  O1  UNL     1       3.323  -0.570   1.028  1.00  0.00    -0.283 OA
ENDBRANCH  11  13
ENDBRANCH  10  11
ENDBRANCH   8  10
ENDBRANCH   1   8
TORSDOF 4
