REMARK  2 active torsions:
REMARK  status: ('A' for Active; 'I' for Inactive)
REMARK    1  A    between atoms: N8_35  and  C16_36 
REMARK    2  A    between atoms: C16_36  and  C17_37 
ROOT
HETATM    1  O1  UNL     1      -4.105  -2.742  -1.013  1.00  0.00    -0.245 OA
HETATM    2  C1  UNL     1      -3.186  -1.848  -0.923  1.00  0.00     0.337 C 
HETATM    3  N1  UNL     1      -1.989  -2.110  -1.638  1.00  0.00    -0.256 N 
ATOM      4  H1  UNL     1      -2.079  -2.542  -2.558  1.00  0.00     0.191 HD
HETATM    5  N2  UNL     1      -0.710  -1.829  -1.192  1.00  0.00    -0.331 N 
ATOM      6  H2  UNL     1      -0.170  -1.035  -1.536  1.00  0.00     0.180 HD
HETATM    7  C2  UNL     1      -0.204  -2.736  -0.214  1.00  0.00     0.158 C 
HETATM    8  C3  UNL     1       0.381  -3.993  -0.816  1.00  0.00     0.135 C 
HETATM    9  N3  UNL     1       1.684  -3.800  -1.368  1.00  0.00    -0.420 N 
ATOM     10  H3  UNL     1       1.837  -3.594  -2.355  1.00  0.00     0.153 HD
HETATM   11  C4  UNL     1       2.758  -3.918  -0.429  1.00  0.00     0.115 C 
HETATM   12  C5  UNL     1       3.941  -3.140  -0.994  1.00  0.00     0.046 C 
HETATM   13  C6  UNL     1       4.913  -2.721   0.061  1.00  0.00     0.234 C 
HETATM   14  N4  UNL     1       5.675  -1.586  -0.475  1.00  0.00    -0.073 N 
ATOM     15  H41 UNL     1       5.307  -1.292  -1.380  1.00  0.00     0.277 HD
ATOM     16  H42 UNL     1       6.610  -1.875  -0.764  1.00  0.00     0.277 HD
HETATM   17  C7  UNL     1       5.736  -0.487   0.436  1.00  0.00     0.259 C 
HETATM   18  C8  UNL     1       5.798   0.857  -0.258  1.00  0.00     0.259 C 
HETATM   19  N5  UNL     1       4.948   1.844   0.369  1.00  0.00    -0.072 N 
ATOM     20  H51 UNL     1       5.486   2.596   0.801  1.00  0.00     0.277 HD
ATOM     21  H52 UNL     1       4.497   1.484   1.210  1.00  0.00     0.277 HD
HETATM   22  C9  UNL     1       3.995   2.340  -0.586  1.00  0.00     0.259 C 
HETATM   23  C10 UNL     1       3.348   3.621  -0.075  1.00  0.00     0.259 C 
HETATM   24  N6  UNL     1       2.036   3.779  -0.680  1.00  0.00    -0.072 N 
ATOM     25  H61 UNL     1       1.685   2.902  -1.066  1.00  0.00     0.277 HD
ATOM     26  H62 UNL     1       2.077   4.317  -1.546  1.00  0.00     0.277 HD
HETATM   27  C11 UNL     1       1.118   4.356   0.272  1.00  0.00     0.259 C 
HETATM   28  C12 UNL     1      -0.275   3.754   0.120  1.00  0.00     0.259 C 
HETATM   29  N7  UNL     1      -0.252   2.329   0.402  1.00  0.00    -0.073 N 
ATOM     30  H71 UNL     1       0.653   2.010   0.748  1.00  0.00     0.277 HD
ATOM     31  H72 UNL     1      -0.284   1.759  -0.443  1.00  0.00     0.277 HD
HETATM   32  C13 UNL     1      -1.339   2.036   1.319  1.00  0.00     0.234 C 
HETATM   33  C14 UNL     1      -1.782   0.590   1.211  1.00  0.00     0.047 C 
HETATM   34  C15 UNL     1      -2.547   0.459  -0.091  1.00  0.00     0.129 C 
HETATM   35  N8  UNL     1      -3.402  -0.679  -0.140  1.00  0.00    -0.329 N 
ENDROOT
BRANCH  35  36
HETATM   36  C16 UNL     1      -4.606  -0.669   0.672  1.00  0.00     0.166 C 
BRANCH  36  37
HETATM   37  C17 UNL     1      -5.767  -0.123  -0.015  1.00  0.00    -0.040 A 
HETATM   38  C18 UNL     1      -5.673   0.323  -1.305  1.00  0.00     0.009 A 
HETATM   39  C19 UNL     1      -6.771   0.851  -1.986  1.00  0.00     0.001 A 
HETATM   40  C20 UNL     1      -7.981   0.920  -1.327  1.00  0.00     0.000 A 
HETATM   41  C21 UNL     1      -8.103   0.478  -0.027  1.00  0.00     0.001 A 
HETATM   42  C22 UNL     1      -6.977  -0.044   0.617  1.00  0.00     0.009 A 
ENDBRANCH  36  37
ENDBRANCH  35  36
TORSDOF 2
