REMARK  5 active torsions:
REMARK  status: ('A' for Active; 'I' for Inactive)
REMARK    1  A    between atoms: C3_3  and  N1_4 
REMARK    2  A    between atoms: C11_21  and  N6_22 
REMARK    3  A    between atoms: N6_22  and  C12_24 
REMARK    4  A    between atoms: C16_33  and  N9_34 
REMARK       I    between atoms: N9_34  and  C17_36 
REMARK       I    between atoms: C17_36  and  N10_38 
REMARK    5  A    between atoms: N10_38  and  C18_40 
ROOT
HETATM    1  C1  UNL     1       0.613  -1.968   0.262  1.00  0.00     0.056 C 
HETATM    2  C2  UNL     1       0.029  -0.655  -0.004  1.00  0.00     0.029 A 
HETATM    3  C3  UNL     1       0.807   0.462   0.004  1.00  0.00     0.147 A 
HETATM    4  N5  UNL     1       0.260   1.692  -0.232  1.00  0.00    -0.175 N 
ATOM      5  H5  UNL     1       0.842   2.530  -0.225  1.00  0.00     0.186 HD
HETATM    6  C11 UNL     1      -1.044   1.776  -0.470  1.00  0.00     0.681 A 
HETATM    7  N8  UNL     1      -1.813   0.672  -0.478  1.00  0.00    -0.176 N 
ATOM      8  H8  UNL     1      -2.810   0.782  -0.664  1.00  0.00     0.186 HD
HETATM    9  C16 UNL     1      -1.345  -0.565  -0.255  1.00  0.00     0.134 A 
ENDROOT
BRANCH   3  10
HETATM   10  N1  UNL     1       2.213   0.491   0.235  1.00  0.00    -0.275 N 
HETATM   11  C4  UNL     1       2.650   0.402   1.577  1.00  0.00     0.195 C 
HETATM   12  C5  UNL     1       4.044  -0.017   1.891  1.00  0.00     0.082 C 
HETATM   13  N2  UNL     1       4.421  -1.325   1.641  1.00  0.00    -0.379 N 
HETATM   14  C6  UNL     1       5.675  -1.759   1.285  1.00  0.00     0.087 C 
ATOM     15  H2  UNL     1       3.696  -2.037   1.730  1.00  0.00     0.164 HD
HETATM   16  C7  UNL     1       6.231  -1.748  -0.057  1.00  0.00     0.276 C 
HETATM   17  N3  UNL     1       5.420  -2.221  -1.167  1.00  0.00    -0.071 N 
HETATM   18  C8  UNL     1       4.387  -1.308  -1.323  1.00  0.00     0.234 C 
ATOM     19  H32 UNL     1       5.956  -2.372  -2.021  1.00  0.00     0.277 HD
ATOM     20  H31 UNL     1       5.095  -3.180  -1.048  1.00  0.00     0.277 HD
HETATM   21  C9  UNL     1       3.665  -1.035  -2.600  1.00  0.00     0.048 C 
HETATM   22  C10 UNL     1       2.623   0.016  -2.109  1.00  0.00     0.141 C 
HETATM   23  N4  UNL     1       2.971   0.638  -0.897  1.00  0.00    -0.332 N 
ATOM     24  H4  UNL     1       3.811   1.215  -0.859  1.00  0.00     0.180 HD
ENDBRANCH   3  10
BRANCH   9  25
HETATM   25  N9  UNL     1      -2.012  -1.639  -0.248  1.00  0.00    -0.294 N 
HETATM   26  C17 UNL     1      -3.375  -1.844  -0.464  1.00  0.00     0.322 C 
HETATM   27  O1  UNL     1      -4.005  -1.411  -1.465  1.00  0.00    -0.247 OA
HETATM   28  N10 UNL     1      -4.126  -2.583   0.486  1.00  0.00    -0.335 N 
ATOM     29  H10 UNL     1      -3.659  -2.952   1.314  1.00  0.00     0.165 HD
ATOM     30  H9  UNL     1      -1.472  -2.483  -0.055  1.00  0.00     0.172 HD
BRANCH  28  31
HETATM   31  C18 UNL     1      -5.543  -2.824   0.303  1.00  0.00     0.023 C 
HETATM   32  C19 UNL     1      -6.065  -3.624   1.453  1.00  0.00     0.037 C 
HETATM   33  C20 UNL     1      -5.724  -3.637  -0.984  1.00  0.00     0.037 C 
HETATM   34  C21 UNL     1      -6.345  -1.574   0.161  1.00  0.00     0.037 C 
ENDBRANCH  28  31
ENDBRANCH   9  25
BRANCH   6  35
HETATM   35  N6  UNL     1      -1.650   2.892  -0.697  1.00  0.00    -0.220 N 
ATOM     36  H6  UNL     1      -2.655   2.888  -0.873  1.00  0.00     0.178 HD
BRANCH  35  37
HETATM   37  C12 UNL     1      -0.946   4.130  -0.707  1.00  0.00     0.126 C 
HETATM   38  C13 UNL     1      -0.532   4.639   0.644  1.00  0.00     0.055 C 
HETATM   39  C14 UNL     1      -1.562   5.664   0.978  1.00  0.00     0.234 C 
HETATM   40  N7  UNL     1      -2.109   6.161  -0.247  1.00  0.00    -0.073 N 
HETATM   41  C15 UNL     1      -1.824   5.199  -1.277  1.00  0.00     0.257 C 
ATOM     42  H72 UNL     1      -3.102   6.383  -0.176  1.00  0.00     0.277 HD
ATOM     43  H71 UNL     1      -1.778   7.098  -0.477  1.00  0.00     0.277 HD
ENDBRANCH  35  37
ENDBRANCH   6  35
TORSDOF 5
