REMARK  3 active torsions:
REMARK  status: ('A' for Active; 'I' for Inactive)
REMARK    1  A    between atoms: N1_1  and  C1_5 
REMARK       I    between atoms: N2_10  and  C6_11 
REMARK       I    between atoms: C6_11  and  N3_13 
REMARK    2  A    between atoms: N3_13  and  C7_15 
REMARK    3  A    between atoms: C7_15  and  C8_16 
REMARK       I    between atoms: C8_16  and  N4_18 
ROOT
HETATM    1  C8  UNL     1      -2.024   0.027  -0.384  1.00  0.00     0.237 C 
HETATM    2  O2  UNL     1      -2.501  -0.968   0.202  1.00  0.00    -0.272 OA
HETATM    3  N4  UNL     1      -0.646   0.068  -0.693  1.00  0.00    -0.348 N 
HETATM    4  C9  UNL     1      -0.092   1.208  -1.360  1.00  0.00     0.153 C 
HETATM    5  C10 UNL     1       0.507   2.210  -0.397  1.00  0.00     0.252 C 
HETATM    6  N5  UNL     1       1.453   3.056  -1.102  1.00  0.00    -0.072 N 
ATOM      7  H51 UNL     1       1.048   3.970  -1.305  1.00  0.00     0.277 HD
ATOM      8  H52 UNL     1       1.600   2.726  -2.056  1.00  0.00     0.277 HD
HETATM    9  C11 UNL     1       2.701   3.188  -0.402  1.00  0.00     0.259 C 
HETATM   10  C12 UNL     1       3.800   2.706  -1.305  1.00  0.00     0.259 C 
HETATM   11  N6  UNL     1       5.108   2.949  -0.781  1.00  0.00    -0.073 N 
ATOM     12  H61 UNL     1       5.228   3.940  -0.570  1.00  0.00     0.277 HD
ATOM     13  H62 UNL     1       5.810   2.840  -1.513  1.00  0.00     0.277 HD
HETATM   14  C13 UNL     1       5.448   2.152   0.358  1.00  0.00     0.234 C 
HETATM   15  C14 UNL     1       6.657   1.312   0.022  1.00  0.00     0.055 C 
HETATM   16  C15 UNL     1       6.252  -0.074  -0.453  1.00  0.00     0.234 C 
HETATM   17  N7  UNL     1       6.282  -0.954   0.683  1.00  0.00    -0.073 N 
ATOM     18  H71 UNL     1       5.484  -0.777   1.293  1.00  0.00     0.277 HD
ATOM     19  H72 UNL     1       7.042  -0.698   1.313  1.00  0.00     0.277 HD
HETATM   20  C16 UNL     1       6.357  -2.340   0.348  1.00  0.00     0.259 C 
HETATM   21  C17 UNL     1       5.470  -3.229   1.151  1.00  0.00     0.259 C 
HETATM   22  N8  UNL     1       4.674  -2.553   2.132  1.00  0.00    -0.072 N 
ATOM     23  H81 UNL     1       4.768  -1.538   2.085  1.00  0.00     0.277 HD
ATOM     24  H82 UNL     1       5.026  -2.680   3.081  1.00  0.00     0.277 HD
HETATM   25  C18 UNL     1       3.298  -2.997   1.979  1.00  0.00     0.259 C 
HETATM   26  C19 UNL     1       2.576  -2.219   0.897  1.00  0.00     0.259 C 
HETATM   27  N9  UNL     1       1.914  -1.050   1.378  1.00  0.00    -0.072 N 
ATOM     28  H91 UNL     1       2.339  -0.211   0.983  1.00  0.00     0.277 HD
ATOM     29  H92 UNL     1       2.123  -0.902   2.365  1.00  0.00     0.277 HD
HETATM   30  C20 UNL     1       0.500  -1.046   1.159  1.00  0.00     0.252 C 
HETATM   31  C21 UNL     1       0.196  -1.066  -0.320  1.00  0.00     0.153 C 
ENDROOT
BRANCH   1  32
HETATM   32  C7  UNL     1      -2.893   1.155  -0.754  1.00  0.00     0.227 C 
BRANCH  32  33
HETATM   33  N3  UNL     1      -4.267   0.982  -0.396  1.00  0.00    -0.334 N 
HETATM   34  C6  UNL     1      -5.063  -0.063  -0.927  1.00  0.00     0.320 C 
HETATM   35  N2  UNL     1      -6.445  -0.219  -0.543  1.00  0.00    -0.306 N 
HETATM   36  O1  UNL     1      -4.526  -0.854  -1.746  1.00  0.00    -0.247 OA
HETATM   37  C1  UNL     1      -6.985   0.721   0.394  1.00  0.00     0.287 C 
HETATM   38  C5  UNL     1      -7.169  -1.304  -1.130  1.00  0.00     0.130 C 
HETATM   39  C2  UNL     1      -8.308   0.245   0.946  1.00  0.00     0.054 C 
HETATM   40  C3  UNL     1      -8.189  -1.250   1.157  1.00  0.00     0.005 C 
HETATM   41  C4  UNL     1      -8.211  -1.890  -0.213  1.00  0.00     0.020 C 
ATOM     42  H3  UNL     1      -4.689   1.634   0.265  1.00  0.00     0.164 HD
BRANCH  37  43
HETATM   43  N1  UNL     1      -7.221   2.026  -0.193  1.00  0.00    -0.058 N 
ATOM     44  H13 UNL     1      -7.969   2.026  -0.886  1.00  0.00     0.276 HD
ATOM     45  H12 UNL     1      -7.647   2.688   0.456  1.00  0.00     0.276 HD
ATOM     46  H11 UNL     1      -6.328   2.347  -0.566  1.00  0.00     0.276 HD
ENDBRANCH  37  43
ENDBRANCH  32  33
ENDBRANCH   1  32
TORSDOF 3
