REMARK  8 active torsions:
REMARK  status: ('A' for Active; 'I' for Inactive)
REMARK    1  A    between atoms: C1_2  and  N2_4 
REMARK    2  A    between atoms: N2_4  and  C2_6 
REMARK    3  A    between atoms: C4_10  and  C5_11 
REMARK    4  A    between atoms: C6_14  and  S2_15 
REMARK    5  A    between atoms: S2_15  and  C7_16 
REMARK    6  A    between atoms: C9_19  and  N4_20 
REMARK    7  A    between atoms: N4_20  and  C10_22 
REMARK    8  A    between atoms: C10_22  and  N5_24 
ROOT
HETATM    1  S2  UNL     1      -0.750   1.530  -0.765  1.00  0.00    -0.105 SA
ENDROOT
BRANCH   1   2
HETATM    2  C6  UNL     1      -2.470   1.246  -0.573  1.00  0.00     0.023 C 
HETATM    3  C4  UNL     1      -3.087   0.532  -1.519  1.00  0.00     0.129 C 
HETATM    4  N3  UNL     1      -4.462   0.234  -1.481  1.00  0.00    -0.292 N 
HETATM    5  C3  UNL     1      -5.769   0.099  -2.085  1.00  0.00     0.251 C 
HETATM    6  C15 UNL     1      -5.079  -0.181  -0.235  1.00  0.00     0.187 C 
HETATM    7  C2  UNL     1      -6.295   0.521  -0.750  1.00  0.00     0.210 C 
HETATM    8  O1  UNL     1      -6.121  -0.232  -3.220  1.00  0.00    -0.271 OA
HETATM    9  S6  UNL     1      -4.312   0.567   1.216  1.00  0.00    -0.135 SA
HETATM   10  C14 UNL     1      -3.154   1.804   0.596  1.00  0.00     0.124 C 
BRANCH   3  11
HETATM   11  C5  UNL     1      -2.313   0.037  -2.666  1.00  0.00     0.228 C 
HETATM   12  O2  UNL     1      -2.782  -0.633  -3.602  1.00  0.00    -0.643 OA
HETATM   13  O3  UNL     1      -0.950   0.327  -2.732  1.00  0.00    -0.643 OA
ENDBRANCH   3  11
BRANCH   7  14
HETATM   14  N2  UNL     1      -7.595   0.080  -0.396  1.00  0.00    -0.353 N 
ATOM     15  H2  UNL     1      -8.220   0.812  -0.058  1.00  0.00     0.162 HD
BRANCH  14  16
HETATM   16  C1  UNL     1      -8.154  -1.197  -0.437  1.00  0.00     0.181 C 
HETATM   17  N1  UNL     1      -9.488  -1.430  -0.022  1.00  0.00    -0.070 NA
HETATM   18  S1  UNL     1      -7.315  -2.470  -0.985  1.00  0.00    -0.044 SA
ENDBRANCH  14  16
ENDBRANCH   7  14
ENDBRANCH   1   2
BRANCH   1  19
HETATM   19  C7  UNL     1       0.052   2.417   0.548  1.00  0.00     0.176 C 
HETATM   20  S3  UNL     1       0.086   1.404   2.049  1.00  0.00    -0.140 SA
HETATM   21  C8  UNL     1       1.765   0.716   2.127  1.00  0.00     0.112 C 
HETATM   22  C9  UNL     1       2.350   0.822   0.755  1.00  0.00     0.157 C 
HETATM   23  S5  UNL     1       1.839   2.492   0.172  1.00  0.00    -0.117 SA
BRANCH  22  24
HETATM   24  N4  UNL     1       3.754   0.670   0.682  1.00  0.00    -0.352 N 
ATOM     25  H4  UNL     1       4.308   1.482   0.409  1.00  0.00     0.163 HD
BRANCH  24  26
HETATM   26  C10 UNL     1       4.435  -0.524   0.961  1.00  0.00     0.189 C 
HETATM   27  S4  UNL     1       3.612  -1.860   1.375  1.00  0.00    -0.039 SA
BRANCH  26  28
HETATM   28  N5  UNL     1       5.855  -0.599   0.873  1.00  0.00    -0.263 N 
HETATM   29  C11 UNL     1       6.517  -1.833   1.165  1.00  0.00     0.178 C 
HETATM   30  C12 UNL     1       7.936  -1.896   0.693  1.00  0.00     0.200 C 
HETATM   31  O4  UNL     1       8.245  -0.880  -0.223  1.00  0.00    -0.322 OA
HETATM   32  C13 UNL     1       7.780   0.408  -0.035  1.00  0.00     0.246 C 
HETATM   33  N6  UNL     1       8.510   1.574  -0.395  1.00  0.00    -0.055 NA
HETATM   34  N7  UNL     1       6.602   0.520   0.507  1.00  0.00    -0.263 N 
ATOM     35  H7  UNL     1       6.215   1.450   0.668  1.00  0.00     0.190 HD
ENDBRANCH  26  28
ENDBRANCH  24  26
ENDBRANCH  22  24
ENDBRANCH   1  19
TORSDOF 8
