REMARK  7 active torsions:
REMARK  status: ('A' for Active; 'I' for Inactive)
REMARK    1  A    between atoms: C3_9  and  C4_10 
REMARK       I    between atoms: C4_10  and  N4_12 
REMARK    2  A    between atoms: N4_12  and  C5_14 
REMARK    3  A    between atoms: C8_23  and  N8_24 
REMARK    4  A    between atoms: N8_24  and  C9_25 
REMARK    5  A    between atoms: C12_28  and  S2_29 
REMARK    6  A    between atoms: S2_29  and  N9_32 
REMARK       I    between atoms: N9_32  and  C13_34 
REMARK       I    between atoms: C13_34  and  N10_36 
REMARK    7  A    between atoms: N10_36  and  C14_38 
ROOT
HETATM    1  N1  UNL     1      11.598   2.909  -0.848  1.00  0.00    -0.191 NA
HETATM    2  C1  UNL     1      11.179   2.030  -0.222  1.00  0.00     0.111 C 
HETATM    3  C2  UNL     1      10.674   0.911   0.559  1.00  0.00     0.136 A 
HETATM    4  S1  UNL     1      11.456  -0.072   1.713  1.00  0.00     0.015 SA
HETATM    5  N2  UNL     1      10.160  -1.077   2.095  1.00  0.00    -0.268 N 
ATOM      6  H2  UNL     1      10.136  -1.850   2.760  1.00  0.00     0.195 HD
HETATM    7  N3  UNL     1       9.199  -0.634   1.343  1.00  0.00    -0.288 N 
ATOM      8  H3  UNL     1       8.279  -1.074   1.377  1.00  0.00     0.188 HD
HETATM    9  C3  UNL     1       9.411   0.370   0.548  1.00  0.00     0.146 A 
ENDROOT
BRANCH   9  10
HETATM   10  C4  UNL     1       8.352   0.927  -0.334  1.00  0.00     0.277 C 
HETATM   11  O1  UNL     1       8.587   1.903  -1.098  1.00  0.00    -0.266 OA
HETATM   12  N4  UNL     1       7.041   0.414  -0.376  1.00  0.00    -0.305 N 
ATOM     13  H4  UNL     1       6.317   1.009   0.028  1.00  0.00     0.170 HD
BRANCH  12  14
HETATM   14  C5  UNL     1       6.647  -0.688  -0.850  1.00  0.00     0.140 A 
HETATM   15  N5  UNL     1       7.439  -1.594  -1.418  1.00  0.00    -0.337 N 
HETATM   16  C6  UNL     1       6.888  -2.733  -1.884  1.00  0.00     0.183 A 
ATOM     17  H5  UNL     1       8.442  -1.430  -1.499  1.00  0.00     0.168 HD
HETATM   18  N6  UNL     1       5.582  -3.013  -1.814  1.00  0.00    -0.336 N 
HETATM   19  C7  UNL     1       4.728  -2.116  -1.241  1.00  0.00     0.140 A 
ATOM     20  H6  UNL     1       5.226  -3.893  -2.187  1.00  0.00     0.168 HD
HETATM   21  N7  UNL     1       3.421  -2.099  -1.029  1.00  0.00    -0.300 N 
HETATM   22  C20 UNL     1       5.273  -0.947  -0.759  1.00  0.00     0.125 A 
HETATM   23  C8  UNL     1       3.070  -0.931  -0.407  1.00  0.00     0.261 A 
ATOM     24  H7  UNL     1       2.774  -2.843  -1.290  1.00  0.00     0.171 HD
HETATM   25  N12 UNL     1       4.251  -0.257  -0.264  1.00  0.00    -0.310 N 
ATOM     26  H12 UNL     1       4.337   0.662   0.169  1.00  0.00     0.170 HD
BRANCH  23  27
HETATM   27  N8  UNL     1       2.015  -0.518  -0.046  1.00  0.00    -0.371 NA
BRANCH  27  28
HETATM   28  C9  UNL     1       0.840  -0.113   0.330  1.00  0.00     0.111 A 
HETATM   29  C10 UNL     1       0.262   1.059  -0.208  1.00  0.00     0.046 A 
HETATM   30  C11 UNL     1      -0.975   1.513   0.161  1.00  0.00     0.028 A 
HETATM   31  C12 UNL     1      -1.701   0.825   1.085  1.00  0.00     0.080 A 
HETATM   32  C18 UNL     1      -1.203  -0.327   1.655  1.00  0.00     0.028 A 
HETATM   33  C19 UNL     1       0.030  -0.769   1.279  1.00  0.00     0.046 A 
BRANCH  31  34
HETATM   34  S2  UNL     1      -3.288   1.350   1.593  1.00  0.00     0.266 S 
HETATM   35  O2  UNL     1      -3.413   2.846   1.448  1.00  0.00    -0.200 OA
HETATM   36  O3  UNL     1      -3.572   0.945   3.013  1.00  0.00    -0.200 OA
BRANCH  34  37
HETATM   37  N9  UNL     1      -4.448   0.615   0.539  1.00  0.00    -0.232 N 
HETATM   38  C13 UNL     1      -5.829   0.898   0.623  1.00  0.00     0.330 C 
HETATM   39  O4  UNL     1      -6.249   1.701   1.478  1.00  0.00    -0.246 OA
HETATM   40  N10 UNL     1      -6.732   0.273  -0.261  1.00  0.00    -0.336 N 
ATOM     41  H10 UNL     1      -6.395  -0.385  -0.964  1.00  0.00     0.164 HD
ATOM     42  H9  UNL     1      -4.123  -0.045  -0.167  1.00  0.00     0.183 HD
BRANCH  40  43
HETATM   43  C14 UNL     1      -8.143   0.576  -0.159  1.00  0.00     0.113 C 
HETATM   44  C15 UNL     1      -8.961  -0.696   0.089  1.00  0.00     0.054 C 
HETATM   45  C16 UNL     1     -10.322  -0.270  -0.398  1.00  0.00     0.234 C 
HETATM   46  N11 UNL     1     -10.133   0.849  -1.297  1.00  0.00    -0.073 N 
HETATM   47  C17 UNL     1      -8.711   1.005  -1.492  1.00  0.00     0.257 C 
ATOM     48 2H11 UNL     1     -10.648   0.750  -2.172  1.00  0.00     0.277 HD
ATOM     49 1H11 UNL     1     -10.588   1.703  -0.973  1.00  0.00     0.277 HD
ENDBRANCH  40  43
ENDBRANCH  34  37
ENDBRANCH  31  34
ENDBRANCH  27  28
ENDBRANCH  23  27
ENDBRANCH  12  14
ENDBRANCH   9  10
TORSDOF 7
