REMARK  10 active torsions:
REMARK  status: ('A' for Active; 'I' for Inactive)
REMARK    1  A    between atoms: C3_3  and  N1_4 
REMARK       I    between atoms: N1_4  and  C4_6 
REMARK       I    between atoms: C4_6  and  N3_11 
REMARK    2  A    between atoms: N2_7  and  O1_9 
REMARK    3  A    between atoms: N3_11  and  C5_13 
REMARK    4  A    between atoms: C5_13  and  C6_14 
REMARK    5  A    between atoms: C8_21  and  N7_22 
REMARK    6  A    between atoms: C10_32  and  N11_33 
REMARK    7  A    between atoms: N12_36  and  C13_37 
REMARK    8  A    between atoms: C13_37  and  O2_38 
REMARK    9  A    between atoms: C13_37  and  N13_40 
REMARK   10  A    between atoms: N14_43  and  C16_44 
ROOT
HETATM    1  C1  UNL     1      -2.247  -1.353  -1.342  1.00  0.00     0.056 C 
HETATM    2  C2  UNL     1      -2.209  -0.256  -0.342  1.00  0.00     0.027 A 
HETATM    3  C3  UNL     1      -3.378   0.281   0.148  1.00  0.00     0.131 A 
HETATM    4  N9  UNL     1      -3.291   1.263   1.052  1.00  0.00    -0.338 N 
ATOM      5  H9  UNL     1      -4.146   1.675   1.427  1.00  0.00     0.168 HD
HETATM    6  C9  UNL     1      -2.091   1.721   1.479  1.00  0.00     0.183 A 
HETATM    7  N10 UNL     1      -0.953   1.170   0.977  1.00  0.00    -0.338 N 
ATOM      8  H10 UNL     1      -0.053   1.521   1.303  1.00  0.00     0.168 HD
HETATM    9  C10 UNL     1      -0.970   0.183   0.070  1.00  0.00     0.114 A 
ENDROOT
BRANCH   3  10
HETATM   10  N1  UNL     1      -4.636  -0.190  -0.274  1.00  0.00    -0.174 N 
HETATM   11  C4  UNL     1      -5.817   0.365   0.272  1.00  0.00     0.699 C 
HETATM   12  N2  UNL     1      -6.433  -0.182   1.256  1.00  0.00    -0.099 N 
HETATM   13  N3  UNL     1      -6.333   1.555  -0.280  1.00  0.00    -0.217 N 
ATOM     14  H2  UNL     1      -7.278   0.277   1.596  1.00  0.00     0.213 HD
ATOM     15  H3  UNL     1      -5.998   2.461   0.047  1.00  0.00     0.178 HD
ATOM     16  H1  UNL     1      -4.696  -0.931  -0.973  1.00  0.00     0.186 HD
BRANCH  12  17
HETATM   17  O1  UNL     1      -6.045  -1.333   1.885  1.00  0.00    -0.276 OA
ATOM     18  H1  UNL     1      -6.501  -1.738   2.613  1.00  0.00     0.245 HD
ENDBRANCH  12  17
BRANCH  13  19
HETATM   19  C5  UNL     1      -7.342   1.479  -1.314  1.00  0.00     0.215 C 
BRANCH  19  20
HETATM   20  C6  UNL     1      -8.509   0.752  -0.771  1.00  0.00     0.118 A 
HETATM   21  N4  UNL     1      -9.503   1.350  -0.102  1.00  0.00    -0.318 N 
HETATM   22  C7  UNL     1     -10.573   0.657   0.382  1.00  0.00     0.208 A 
ATOM     23  H4  UNL     1      -9.458   2.358   0.051  1.00  0.00     0.169 HD
HETATM   24  N5  UNL     1     -11.629   1.285   1.088  1.00  0.00    -0.063 NA
HETATM   25  N6  UNL     1     -10.584  -0.688   0.151  1.00  0.00    -0.164 N 
HETATM   26  C8  UNL     1      -9.605  -1.319  -0.514  1.00  0.00     0.679 A 
ATOM     27  H6  UNL     1     -11.370  -1.237   0.499  1.00  0.00     0.187 HD
HETATM   28  N8  UNL     1      -8.573  -0.582  -0.969  1.00  0.00    -0.179 N 
ATOM     29  H8  UNL     1      -7.819  -1.045  -1.477  1.00  0.00     0.185 HD
BRANCH  26  30
HETATM   30  N7  UNL     1      -9.688  -2.588  -0.688  1.00  0.00    -0.234 N 
ATOM     31  H72 UNL     1     -10.469  -3.146  -0.344  1.00  0.00     0.174 HD
ATOM     32  H71 UNL     1      -8.943  -3.068  -1.194  1.00  0.00     0.174 HD
ENDBRANCH  26  30
ENDBRANCH  19  20
ENDBRANCH  13  19
ENDBRANCH   3  10
BRANCH   9  33
HETATM   33  N11 UNL     1       0.216  -0.364  -0.433  1.00  0.00    -0.363 N 
HETATM   34  C11 UNL     1       1.071   0.144  -1.452  1.00  0.00     0.144 C 
HETATM   35  C12 UNL     1       2.504   0.133  -0.973  1.00  0.00     0.147 C 
HETATM   36  N12 UNL     1       2.760  -0.421   0.313  1.00  0.00    -0.340 N 
HETATM   37  C21 UNL     1       1.865  -1.410   0.944  1.00  0.00     0.101 C 
HETATM   38  C22 UNL     1       1.408  -0.974   2.316  1.00  0.00     0.034 C 
HETATM   39  C23 UNL     1       0.653  -1.662   0.128  1.00  0.00     0.149 C 
BRANCH  36  40
HETATM   40  C13 UNL     1       3.904  -0.081   1.042  1.00  0.00     0.217 C 
BRANCH  40  41
HETATM   41  O2  UNL     1       3.916  -0.651   2.240  1.00  0.00    -0.332 OA
ATOM     42  H2  UNL     1       4.693  -0.420   2.735  1.00  0.00     0.220 HD
ENDBRANCH  40  41
BRANCH  40  43
HETATM   43  N13 UNL     1       5.012   0.696   0.822  1.00  0.00    -0.344 N 
HETATM   44  C14 UNL     1       5.357   1.368  -0.386  1.00  0.00     0.145 C 
HETATM   45  C15 UNL     1       6.822   1.769  -0.436  1.00  0.00     0.137 C 
HETATM   46  N14 UNL     1       7.701   0.831   0.188  1.00  0.00    -0.406 N 
HETATM   47  C19 UNL     1       7.296   0.415   1.493  1.00  0.00     0.137 C 
HETATM   48  C20 UNL     1       5.974   0.928   1.926  1.00  0.00     0.145 C 
BRANCH  46  49
HETATM   49  C16 UNL     1       8.296  -0.136  -0.653  1.00  0.00     0.071 C 
HETATM   50  C17 UNL     1       8.495  -1.485  -0.016  1.00  0.00     0.031 C 
HETATM   51  C18 UNL     1       9.564   0.369  -1.316  1.00  0.00     0.031 C 
ENDBRANCH  46  49
ENDBRANCH  40  43
ENDBRANCH  36  40
ENDBRANCH   9  33
TORSDOF 10
