REMARK  6 active torsions:
REMARK  status: ('A' for Active; 'I' for Inactive)
REMARK    1  A    between atoms: C1_2  and  C2_3 
REMARK       I    between atoms: C1_2  and  N4_24 
REMARK    2  A    between atoms: C2_3  and  N1_4 
REMARK    3  A    between atoms: C4_6  and  C5_7 
REMARK       I    between atoms: C5_7  and  N2_9 
REMARK    4  A    between atoms: N2_9  and  C6_11 
REMARK    5  A    between atoms: C12_17  and  N3_18 
REMARK    6  A    between atoms: N4_24  and  C18_26 
ROOT
HETATM    1  N1  UNL     1       0.770   1.084   0.512  1.00  0.00    -0.383 N 
HETATM    2  C3  UNL     1      -0.075  -0.029   0.717  1.00  0.00     0.136 C 
HETATM    3  C4  UNL     1      -1.088  -0.248  -0.383  1.00  0.00     0.098 C 
HETATM    4  C11 UNL     1      -1.567   1.102  -0.945  1.00  0.00     0.053 C 
HETATM    5  C12 UNL     1      -1.399   2.115   0.142  1.00  0.00     0.241 C 
HETATM    6  C17 UNL     1       0.125   2.326   0.280  1.00  0.00     0.158 C 
ENDROOT
BRANCH   1   7
HETATM    7  C2  UNL     1       2.099   1.046   0.933  1.00  0.00     0.160 C 
BRANCH   7   8
HETATM    8  C1  UNL     1       2.968   0.112   0.186  1.00  0.00     0.256 C 
HETATM    9  O1  UNL     1       2.419  -0.533  -0.768  1.00  0.00    -0.267 OA
HETATM   10  N4  UNL     1       4.327  -0.113   0.441  1.00  0.00    -0.352 N 
ATOM     11  H4  UNL     1       4.773   0.397   1.203  1.00  0.00     0.163 HD
BRANCH  10  12
HETATM   12  C18 UNL     1       5.120  -1.038  -0.332  1.00  0.00     0.084 C 
HETATM   13  C19 UNL     1       6.308  -0.388  -0.942  1.00  0.00     0.025 C 
HETATM   14  C20 UNL     1       7.469  -1.387  -0.893  1.00  0.00     0.002 C 
HETATM   15  C21 UNL     1       7.824  -1.526   0.591  1.00  0.00     0.000 C 
HETATM   16  C22 UNL     1       6.664  -2.177   1.313  1.00  0.00     0.002 C 
HETATM   17  C23 UNL     1       5.440  -2.285   0.464  1.00  0.00     0.025 C 
ENDBRANCH  10  12
ENDBRANCH   7   8
ENDBRANCH   1   7
BRANCH   3  18
HETATM   18  C5  UNL     1      -2.278  -0.876   0.244  1.00  0.00     0.223 C 
HETATM   19  O2  UNL     1      -2.458  -0.897   1.489  1.00  0.00    -0.273 OA
HETATM   20  N2  UNL     1      -3.286  -1.492  -0.560  1.00  0.00    -0.356 N 
ATOM     21  H2  UNL     1      -3.167  -1.497  -1.573  1.00  0.00     0.162 HD
BRANCH  20  22
HETATM   22  C6  UNL     1      -4.463  -2.106  -0.002  1.00  0.00     0.084 C 
HETATM   23  C7  UNL     1      -5.751  -1.672  -0.608  1.00  0.00     0.025 C 
HETATM   24  C8  UNL     1      -6.174  -2.766  -1.569  1.00  0.00     0.002 C 
HETATM   25  C9  UNL     1      -5.235  -3.919  -1.394  1.00  0.00     0.002 C 
HETATM   26  C10 UNL     1      -4.421  -3.617  -0.179  1.00  0.00     0.025 C 
ENDBRANCH  20  22
ENDBRANCH   3  18
BRANCH   5  27
HETATM   27  N3  UNL     1      -1.973   3.395  -0.085  1.00  0.00     0.094 N 
HETATM   28  C13 UNL     1      -3.391   3.405  -0.233  1.00  0.00     0.273 C 
HETATM   29  C14 UNL     1      -3.977   3.932   1.070  1.00  0.00     0.032 C 
HETATM   30  C15 UNL     1      -2.917   4.960   1.453  1.00  0.00     0.032 C 
HETATM   31  C16 UNL     1      -1.655   4.222   1.076  1.00  0.00     0.273 C 
ENDBRANCH   5  27
TORSDOF 6
