REMARK  6 active torsions:
REMARK  status: ('A' for Active; 'I' for Inactive)
REMARK       I    between atoms: C1_2  and  N2_4 
REMARK    1  A    between atoms: N2_4  and  C2_6 
REMARK    2  A    between atoms: C5_9  and  C6_10 
REMARK    3  A    between atoms: C6_10  and  C7_11 
REMARK    4  A    between atoms: C7_11  and  S1_12 
REMARK    5  A    between atoms: S1_12  and  N3_15 
REMARK    6  A    between atoms: C10_18  and  N4_19 
ROOT
HETATM    1  S1  UNL     1       0.147  -0.765   0.990  1.00  0.00     0.211 S 
HETATM    2  O2  UNL     1      -0.093  -2.243   0.882  1.00  0.00    -0.211 OA
HETATM    3  O3  UNL     1       0.644  -0.435   2.362  1.00  0.00    -0.211 OA
ENDROOT
BRANCH   1   4
HETATM    4  C7  UNL     1       1.375  -0.300  -0.211  1.00  0.00     0.158 C 
BRANCH   4   5
HETATM    5  C6  UNL     1       2.640  -1.034   0.136  1.00  0.00     0.021 C 
BRANCH   5   6
HETATM    6  C5  UNL     1       3.729  -0.705  -0.837  1.00  0.00    -0.013 C 
HETATM    7  C4  UNL     1       4.084   0.737  -0.886  1.00  0.00     0.007 C 
HETATM    8  C3  UNL     1       4.541   1.161   0.495  1.00  0.00     0.026 C 
HETATM    9  C2  UNL     1       5.730   0.356   0.960  1.00  0.00     0.085 C 
HETATM   10  C19 UNL     1       5.527  -1.120   0.841  1.00  0.00     0.026 C 
HETATM   11  C18 UNL     1       4.924  -1.566  -0.458  1.00  0.00     0.007 C 
BRANCH   9  12
HETATM   12  N2  UNL     1       6.927   0.804   0.252  1.00  0.00    -0.341 N 
HETATM   13  C1  UNL     1       8.011   1.401   0.903  1.00  0.00     0.329 C 
HETATM   14  N1  UNL     1       9.146   1.819   0.180  1.00  0.00    -0.040 NA
HETATM   15  O1  UNL     1       7.977   1.569   2.141  1.00  0.00    -0.251 OA
ATOM     16  H2  UNL     1       6.974   0.676  -0.759  1.00  0.00     0.164 HD
ENDBRANCH   9  12
ENDBRANCH   5   6
ENDBRANCH   4   5
ENDBRANCH   1   4
BRANCH   1  17
HETATM   17  N3  UNL     1      -1.356   0.030   0.673  1.00  0.00    -0.210 NA
HETATM   18  C8  UNL     1      -1.793  -0.403  -0.630  1.00  0.00     0.109 C 
HETATM   19  C9  UNL     1      -3.293  -0.154  -0.827  1.00  0.00     0.040 C 
HETATM   20  C10 UNL     1      -4.090  -0.972   0.159  1.00  0.00     0.081 C 
HETATM   21  C16 UNL     1      -3.383  -1.133   1.471  1.00  0.00     0.040 C 
HETATM   22  C17 UNL     1      -2.300  -0.139   1.714  1.00  0.00     0.109 C 
BRANCH  20  23
HETATM   23  N4  UNL     1      -5.430  -0.513   0.327  1.00  0.00    -0.408 N 
HETATM   24  C11 UNL     1      -5.567   0.805   0.854  1.00  0.00     0.117 C 
HETATM   25  C12 UNL     1      -7.060   1.158   0.790  1.00  0.00     0.019 C 
HETATM   26  C13 UNL     1      -7.432   1.344  -0.647  1.00  0.00     0.003 C 
HETATM   27  C14 UNL     1      -6.713   0.387  -1.572  1.00  0.00     0.019 C 
HETATM   28  C15 UNL     1      -6.292  -0.818  -0.774  1.00  0.00     0.117 C 
ENDBRANCH  20  23
ENDBRANCH   1  17
TORSDOF 6
