REMARK  2 active torsions:
REMARK  status: ('A' for Active; 'I' for Inactive)
REMARK    1  A    between atoms: C2_3  and  C3_4 
REMARK    2  A    between atoms: C3_4  and  C4_5 
ROOT
HETATM    1  C1  UNL     1       0.794  -2.166  -1.171  1.00  0.00     0.157 C 
HETATM    2  N1  UNL     1       0.523  -0.837  -0.612  1.00  0.00    -0.343 N 
HETATM    3  C2  UNL     1       1.446   0.006  -0.127  1.00  0.00     0.084 A 
HETATM    4  N2  UNL     1       0.773   1.099   0.280  1.00  0.00    -0.346 N 
ATOM      5  H2  UNL     1       1.196   1.927   0.699  1.00  0.00     0.167 HD
HETATM    6  C5  UNL     1      -0.535   0.935   0.051  1.00  0.00     0.052 A 
HETATM    7  C6  UNL     1      -0.703  -0.294  -0.515  1.00  0.00     0.036 A 
HETATM    8  C7  UNL     1      -2.064  -0.767  -0.888  1.00  0.00     0.059 C 
HETATM    9  C8  UNL     1      -3.089  -0.378   0.119  1.00  0.00     0.008 C 
HETATM   10  C9  UNL     1      -2.766   0.823   0.936  1.00  0.00     0.027 C 
HETATM   11  C10 UNL     1      -1.771   1.753   0.269  1.00  0.00     0.134 C 
HETATM   12 CL2  UNL     1      -1.430   3.057   1.428  1.00  0.00    -0.118 Cl
ENDROOT
BRANCH   3  13
HETATM   13  C3  UNL     1       2.884  -0.298  -0.094  1.00  0.00     0.091 C 
BRANCH  13  14
HETATM   14  C4  UNL     1       3.723   0.780   0.497  1.00  0.00     0.122 C 
HETATM   15 CL1  UNL     1       3.337   1.179   2.163  1.00  0.00    -0.130 Cl
ENDBRANCH  13  14
ENDBRANCH   3  13
TORSDOF 2
