REMARK  2 active torsions:
REMARK  status: ('A' for Active; 'I' for Inactive)
REMARK    1  A    between atoms: N2_7  and  C5_8 
REMARK    2  A    between atoms: C5_8  and  C7_10 
ROOT
HETATM    1  C5  UNL     1      -0.493  -0.031  -0.955  1.00  0.00     0.090 C 
HETATM    2  C6  UNL     1      -0.679  -1.395  -1.567  1.00  0.00     0.033 C 
ENDROOT
BRANCH   1   3
HETATM    3  N2  UNL     1      -1.514   0.335  -0.040  1.00  0.00    -0.341 N 
HETATM    4  C2  UNL     1      -2.846   0.056  -0.173  1.00  0.00     0.024 A 
HETATM    5  C1  UNL     1      -3.534  -0.664  -1.257  1.00  0.00     0.070 C 
HETATM    6  C3  UNL     1      -3.443   0.599   0.942  1.00  0.00     0.113 A 
HETATM    7  N1  UNL     1      -2.543   1.185   1.731  1.00  0.00    -0.360 N 
HETATM    8  C4  UNL     1      -1.350   1.008   1.098  1.00  0.00     0.183 A 
ATOM      9  H1  UNL     1      -2.711   1.662   2.617  1.00  0.00     0.166 HD
ENDBRANCH   1   3
BRANCH   1  10
HETATM   10  C7  UNL     1       0.922   0.021  -0.421  1.00  0.00     0.009 C 
HETATM   11  C8  UNL     1       1.166  -0.871   0.758  1.00  0.00     0.012 C 
HETATM   12  C9  UNL     1       2.671  -1.163   0.781  1.00  0.00     0.079 C 
HETATM   13  C10 UNL     1       3.401   0.120   0.573  1.00  0.00     0.243 C 
HETATM   14  F1  UNL     1       4.451   0.170   1.469  1.00  0.00    -0.206 F 
HETATM   15  F2  UNL     1       3.946   0.170  -0.689  1.00  0.00    -0.206 F 
HETATM   16  C11 UNL     1       2.563   1.349   0.794  1.00  0.00     0.079 C 
HETATM   17  C12 UNL     1       1.511   1.389  -0.325  1.00  0.00     0.012 C 
ENDBRANCH   1  10
TORSDOF 2
