REMARK  2 active torsions:
REMARK  status: ('A' for Active; 'I' for Inactive)
REMARK    1  A    between atoms: C4_4  and  C5_5 
REMARK    2  A    between atoms: C5_5  and  C6_6 
ROOT
HETATM    1  C6  UNL     1       1.528   0.216  -0.068  1.00  0.00    -0.024 A 
HETATM    2  C7  UNL     1       1.810  -1.008   0.458  1.00  0.00     0.096 A 
HETATM    3  N1  UNL     1       3.158  -1.134   0.605  1.00  0.00    -0.373 N 
ATOM      4  H1  UNL     1       3.644  -1.950   0.978  1.00  0.00     0.164 HD
HETATM    5  C8  UNL     1       3.740  -0.001   0.176  1.00  0.00     0.107 A 
HETATM    6  C9  UNL     1       2.751   0.858  -0.249  1.00  0.00     0.034 A 
HETATM    7 BR1  UNL     1       3.081   2.592  -0.945  1.00  0.00    -0.049 Br
ENDROOT
BRANCH   1   8
HETATM    8  C5  UNL     1       0.245   0.859  -0.425  1.00  0.00     0.046 C 
BRANCH   8   9
HETATM    9  C4  UNL     1      -0.937  -0.037  -0.135  1.00  0.00    -0.006 A 
HETATM   10  C2  UNL     1      -2.313   0.448  -0.433  1.00  0.00    -0.014 A 
HETATM   11  C1  UNL     1      -3.453  -0.039   0.427  1.00  0.00     0.010 C 
HETATM   12  C3  UNL     1      -1.684  -0.534  -1.347  1.00  0.00     0.010 A 
ENDBRANCH   8   9
ENDBRANCH   1   8
TORSDOF 2
