REMARK  5 active torsions:
REMARK  status: ('A' for Active; 'I' for Inactive)
REMARK    1  A    between atoms: N3_6  and  N4_8 
REMARK    2  A    between atoms: N4_8  and  C4_10 
REMARK    3  A    between atoms: C8_14  and  N5_15 
REMARK    4  A    between atoms: N5_15  and  N6_17 
REMARK    5  A    between atoms: N6_17  and  N7_18 
ROOT
HETATM    1  N1  UNL     1       3.358   2.763   0.644  1.00  0.00    -0.189 NA
HETATM    2  C1  UNL     1       3.406   1.608   0.421  1.00  0.00     0.130 C 
HETATM    3  C2  UNL     1       3.467   0.211   0.125  1.00  0.00     0.209 C 
HETATM    4  C3  UNL     1       4.618  -0.384  -0.488  1.00  0.00     0.130 C 
HETATM    5  N2  UNL     1       5.564  -0.872  -0.988  1.00  0.00    -0.189 NA
HETATM    6  N3  UNL     1       2.471  -0.537   0.411  1.00  0.00    -0.282 N 
ATOM      7  H3  UNL     1       2.506  -1.535   0.203  1.00  0.00     0.188 HD
ENDROOT
BRANCH   6   8
HETATM    8  N4  UNL     1       1.337   0.013   1.007  1.00  0.00    -0.299 N 
ATOM      9  H4  UNL     1       1.450   0.647   1.798  1.00  0.00     0.187 HD
BRANCH   8  10
HETATM   10  C4  UNL     1       0.021  -0.289   0.539  1.00  0.00     0.050 A 
HETATM   11  C5  UNL     1      -0.392  -1.583   0.444  1.00  0.00     0.031 A 
HETATM   12  C6  UNL     1      -1.662  -1.884  -0.012  1.00  0.00     0.005 A 
HETATM   13  C7  UNL     1      -2.530  -0.865  -0.379  1.00  0.00     0.032 A 
HETATM   14  C8  UNL     1      -2.126   0.448  -0.288  1.00  0.00     0.065 A 
HETATM   15  C9  UNL     1      -0.863   0.722   0.167  1.00  0.00     0.062 A 
BRANCH  14  16
HETATM   16  N5  UNL     1      -2.997   1.509  -0.656  1.00  0.00    -0.217 N 
ATOM     17  H5  UNL     1      -2.684   2.180  -1.358  1.00  0.00     0.203 HD
BRANCH  16  18
HETATM   18  N6  UNL     1      -4.114   1.650  -0.161  1.00  0.00    -0.243 NA
BRANCH  18  19
HETATM   19  N7  UNL     1      -5.278   1.434   0.189  1.00  0.00    -0.260 N 
ATOM     20  H72 UNL     1      -5.331   0.500  -0.217  1.00  0.00     0.193 HD
ATOM     21  H71 UNL     1      -6.204   1.551   0.600  1.00  0.00     0.193 HD
ENDBRANCH  18  19
ENDBRANCH  16  18
ENDBRANCH  14  16
ENDBRANCH   8  10
ENDBRANCH   6   8
TORSDOF 5
