REMARK  3 active torsions:
REMARK  status: ('A' for Active; 'I' for Inactive)
REMARK    1  A    between atoms: C1_2  and  N1_3 
REMARK    2  A    between atoms: C1_2  and  N3_13 
REMARK    3  A    between atoms: N1_3  and  N2_5 
ROOT
HETATM    1  N1  UNL     1      -0.330  -0.398   0.296  1.00  0.00    -0.276 N 
ATOM      2  H1  UNL     1      -0.244  -0.061  -0.663  1.00  0.00     0.189 HD
ENDROOT
BRANCH   1   3
HETATM    3  C1  UNL     1      -1.575  -0.285   0.967  1.00  0.00     0.188 C 
HETATM    4  S1  UNL     1      -1.643  -0.848   2.511  1.00  0.00    -0.039 SA
BRANCH   3   5
HETATM    5  N3  UNL     1      -2.716   0.285   0.344  1.00  0.00    -0.357 N 
HETATM    6  C8  UNL     1      -2.838   0.822  -0.984  1.00  0.00     0.125 C 
HETATM    7  C9  UNL     1      -4.338   0.813  -1.296  1.00  0.00     0.021 C 
HETATM    8  C10 UNL     1      -4.930  -0.011  -0.164  1.00  0.00     0.021 C 
HETATM    9  C11 UNL     1      -4.004   0.423   0.982  1.00  0.00     0.125 C 
ENDBRANCH   3   5
ENDBRANCH   1   3
BRANCH   1  10
HETATM   10  N2  UNL     1       0.771  -0.959   0.922  1.00  0.00    -0.307 N 
HETATM   11  C2  UNL     1       1.950  -0.725   0.464  1.00  0.00     0.004 C 
HETATM   12  C3  UNL     1       3.066  -1.371   1.205  1.00  0.00     0.054 C 
HETATM   13  C7  UNL     1       2.116   0.126  -0.708  1.00  0.00     0.054 C 
HETATM   14  C4  UNL     1       4.379  -1.123   0.507  1.00  0.00     0.006 C 
HETATM   15  C5  UNL     1       4.413   0.380   0.200  1.00  0.00     0.001 C 
HETATM   16  C6  UNL     1       3.501   0.605  -0.961  1.00  0.00     0.006 C 
ATOM     17  H2  UNL     1       0.648  -1.554   1.741  1.00  0.00     0.186 HD
ENDBRANCH   1  10
TORSDOF 3
