REMARK  2 active torsions:
REMARK  status: ('A' for Active; 'I' for Inactive)
REMARK    1  A    between atoms: C4_5  and  N1_6 
REMARK    2  A    between atoms: N1_6  and  C5_8 
ROOT
HETATM    1  C5  UNL     1      -0.518   0.090  -0.052  1.00  0.00     0.091 C 
HETATM    2  C6  UNL     1      -1.358  -0.292  -1.186  1.00  0.00     0.026 C 
HETATM    3  C7  UNL     1      -2.776   0.191  -1.191  1.00  0.00     0.002 C 
HETATM    4  C8  UNL     1      -3.254   0.808   0.074  1.00  0.00     0.001 C 
HETATM    5  C9  UNL     1      -2.717  -0.080   1.193  1.00  0.00     0.018 C 
HETATM    6  C10 UNL     1      -1.245   0.275   1.270  1.00  0.00     0.080 C 
HETATM    7 BR1  UNL     1      -0.527  -0.936   2.641  1.00  0.00    -0.089 Br
ENDROOT
BRANCH   1   8
HETATM    8  N1  UNL     1       0.473  -0.968   0.213  1.00  0.00    -0.409 N 
ATOM      9  H1  UNL     1       0.232  -1.959   0.208  1.00  0.00     0.154 HD
BRANCH   8  10
HETATM   10  C4  UNL     1       1.785  -0.506   0.475  1.00  0.00     0.119 A 
HETATM   11  C2  UNL     1       2.711   0.096  -0.483  1.00  0.00     0.121 A 
HETATM   12  C1  UNL     1       3.783   1.065  -0.013  1.00  0.00     0.054 C 
HETATM   13  F1  UNL     1       2.459   0.178  -1.849  1.00  0.00    -0.241 F 
HETATM   14  C3  UNL     1       2.967  -1.305   0.024  1.00  0.00     0.073 A 
ENDBRANCH   8  10
ENDBRANCH   1   8
TORSDOF 2
