REMARK  2 active torsions:
REMARK  status: ('A' for Active; 'I' for Inactive)
REMARK    1  A    between atoms: C3_3  and  N1_4 
REMARK       I    between atoms: N1_4  and  C4_6 
REMARK    2  A    between atoms: C4_6  and  C5_8 
ROOT
HETATM    1  C1  UNL     1       4.764   0.987   0.894  1.00  0.00     0.014 C 
HETATM    2  C2  UNL     1       4.367   0.007   0.315  1.00  0.00    -0.098 C 
HETATM    3  C3  UNL     1       3.898  -1.212  -0.388  1.00  0.00     0.216 C 
ENDROOT
BRANCH   3   4
HETATM    4  N1  UNL     1       2.515  -1.040  -0.738  1.00  0.00    -0.348 N 
HETATM    5  C4  UNL     1       1.483  -0.819   0.204  1.00  0.00     0.258 C 
HETATM    6  O1  UNL     1       1.775  -0.767   1.413  1.00  0.00    -0.270 OA
ATOM      7  H1  UNL     1       2.262  -1.080  -1.725  1.00  0.00     0.163 HD
BRANCH   5   8
HETATM    8  C5  UNL     1       0.083  -0.651  -0.240  1.00  0.00     0.188 C 
HETATM    9  F1  UNL     1      -0.240  -1.847  -0.908  1.00  0.00    -0.232 F 
HETATM   10  C6  UNL     1      -0.035   0.427  -1.301  1.00  0.00     0.060 C 
HETATM   11  C7  UNL     1      -1.478   0.886  -1.274  1.00  0.00     0.008 C 
HETATM   12  C8  UNL     1      -1.583   1.746  -0.005  1.00  0.00     0.011 C 
HETATM   13  C12 UNL     1      -2.434  -0.269  -1.059  1.00  0.00     0.091 C 
HETATM   14  C9  UNL     1      -1.432   0.822   1.155  1.00  0.00    -0.006 C 
HETATM   15  C10 UNL     1      -2.800   0.134   1.338  1.00  0.00     0.011 C 
HETATM   16  C13 UNL     1      -0.891  -0.513   0.864  1.00  0.00     0.045 C 
HETATM   17  C11 UNL     1      -2.276  -0.873   0.302  1.00  0.00     0.013 C 
HETATM   18 CL1  UNL     1      -4.090   0.430  -1.171  1.00  0.00    -0.124 Cl
ENDBRANCH   5   8
ENDBRANCH   3   4
TORSDOF 2
