REMARK  8 active torsions:
REMARK  status: ('A' for Active; 'I' for Inactive)
REMARK    1  A    between atoms: N1_3  and  S1_5 
REMARK    2  A    between atoms: S1_5  and  N2_6 
REMARK    3  A    between atoms: S1_5  and  C3_10 
REMARK    4  A    between atoms: C3_10  and  C4_11 
REMARK    5  A    between atoms: C4_11  and  C5_12 
REMARK    6  A    between atoms: C5_12  and  C6_13 
REMARK    7  A    between atoms: C6_13  and  C7_14 
REMARK    8  A    between atoms: C7_14  and  N3_15 
ROOT
HETATM    1  C1  UNL     1      -6.394  -0.355   1.456  1.00  0.00     0.037 C 
HETATM    2  C2  UNL     1      -5.422   0.001   0.832  1.00  0.00     0.008 C 
HETATM    3  N1  UNL     1      -4.303   0.436   0.110  1.00  0.00    -0.260 N 
ATOM      4  H1  UNL     1      -4.017   1.415   0.109  1.00  0.00     0.187 HD
ENDROOT
BRANCH   3   5
HETATM    5  S1  UNL     1      -3.511  -0.650  -0.696  1.00  0.00     0.111 S 
HETATM    6  O1  UNL     1      -3.620  -1.935   0.064  1.00  0.00    -0.228 OA
BRANCH   5   7
HETATM    7  N2  UNL     1      -4.286  -0.776  -2.246  1.00  0.00    -0.344 N 
ATOM      8  H22 UNL     1      -5.097  -0.241  -2.556  1.00  0.00     0.167 HD
ATOM      9  H21 UNL     1      -3.771  -1.483  -2.771  1.00  0.00     0.167 HD
ENDBRANCH   5   7
BRANCH   5  10
HETATM   10  C3  UNL     1      -1.828  -0.174  -0.962  1.00  0.00     0.140 C 
BRANCH  10  11
HETATM   11  C4  UNL     1      -1.068  -0.039   0.332  1.00  0.00     0.015 C 
BRANCH  11  12
HETATM   12  C5  UNL     1       0.346   0.367  -0.011  1.00  0.00     0.002 C 
BRANCH  12  13
HETATM   13  C6  UNL     1       1.187   0.526   1.260  1.00  0.00     0.020 C 
BRANCH  13  14
HETATM   14  C7  UNL     1       2.593   0.935   0.840  1.00  0.00     0.122 C 
BRANCH  14  15
HETATM   15  N3  UNL     1       3.181  -0.068  -0.010  1.00  0.00    -0.367 N 
HETATM   16  C8  UNL     1       4.445  -0.158  -0.209  1.00  0.00     0.196 C 
HETATM   17  N4  UNL     1       5.377   0.726   0.394  1.00  0.00    -0.067 NA
HETATM   18  N5  UNL     1       4.936  -1.174  -1.059  1.00  0.00    -0.067 NA
ATOM     19  H3  UNL     1       2.565  -0.736  -0.474  1.00  0.00     0.161 HD
ENDBRANCH  14  15
ENDBRANCH  13  14
ENDBRANCH  12  13
ENDBRANCH  11  12
ENDBRANCH  10  11
ENDBRANCH   5  10
ENDBRANCH   3   5
TORSDOF 8
