REMARK  7 active torsions:
REMARK  status: ('A' for Active; 'I' for Inactive)
REMARK    1  A    between atoms: N2_4  and  N3_6 
REMARK    2  A    between atoms: N3_6  and  C1_8 
REMARK    3  A    between atoms: C1_8  and  C2_9 
REMARK    4  A    between atoms: C2_9  and  N5_13 
REMARK    5  A    between atoms: C6_17  and  C7_18 
REMARK    6  A    between atoms: C7_18  and  N6_19 
REMARK    7  A    between atoms: N6_19  and  C8_21 
ROOT
HETATM    1  C2  UNL     1       1.052   0.418   0.426  1.00  0.00     0.092 C 
HETATM    2  N4  UNL     1       1.310   0.994   1.542  1.00  0.00    -0.388 N 
ATOM      3  H41 UNL     1       0.810   0.716   2.386  1.00  0.00     0.157 HD
ATOM      4  H42 UNL     1       2.012   1.728   1.632  1.00  0.00     0.157 HD
ENDROOT
BRANCH   1   5
HETATM    5  C1  UNL     1       1.777   0.821  -0.797  1.00  0.00     0.216 C 
BRANCH   5   6
HETATM    6  N3  UNL     1       2.864   1.713  -0.628  1.00  0.00    -0.316 N 
ATOM      7  H3  UNL     1       2.821   2.649  -1.031  1.00  0.00     0.182 HD
BRANCH   6   8
HETATM    8  N2  UNL     1       3.993   1.315   0.088  1.00  0.00    -0.253 N 
HETATM    9  N1  UNL     1       4.376   0.108   0.099  1.00  0.00    -0.331 N 
ATOM     10  H12 UNL     1       3.836  -0.575  -0.432  1.00  0.00     0.178 HD
ATOM     11  H11 UNL     1       5.202  -0.183   0.623  1.00  0.00     0.178 HD
ATOM     12  H2  UNL     1       4.521   2.011   0.614  1.00  0.00     0.207 HD
ENDBRANCH   6   8
ENDBRANCH   5   6
ENDBRANCH   1   5
BRANCH   1  13
HETATM   13  N5  UNL     1       0.078  -0.600   0.301  1.00  0.00    -0.363 N 
HETATM   14  C3  UNL     1       0.146  -1.894   1.030  1.00  0.00     0.125 C 
HETATM   15  C4  UNL     1      -0.305  -2.848  -0.061  1.00  0.00     0.022 C 
HETATM   16  C5  UNL     1      -1.435  -2.108  -0.703  1.00  0.00     0.028 C 
HETATM   17  C6  UNL     1      -1.106  -0.640  -0.508  1.00  0.00     0.103 C 
BRANCH  17  18
HETATM   18  C7  UNL     1      -2.290   0.088   0.036  1.00  0.00     0.147 C 
BRANCH  18  19
HETATM   19  N6  UNL     1      -2.000   1.485   0.189  1.00  0.00    -0.366 N 
ATOM     20  H6  UNL     1      -1.079   1.830  -0.081  1.00  0.00     0.161 HD
BRANCH  19  21
HETATM   21  C8  UNL     1      -2.964   2.413   0.710  1.00  0.00     0.348 C 
HETATM   22  O1  UNL     1      -4.095   1.971   1.040  1.00  0.00    -0.284 OA
ENDBRANCH  19  21
ENDBRANCH  18  19
ENDBRANCH  17  18
ENDBRANCH   1  13
TORSDOF 7
