REMARK  7 active torsions:
REMARK  status: ('A' for Active; 'I' for Inactive)
REMARK    1  A    between atoms: N1_2  and  C3_4 
REMARK    2  A    between atoms: N1_2  and  C4_9 
REMARK    3  A    between atoms: C3_4  and  N2_5 
REMARK    4  A    between atoms: C4_9  and  C5_10 
REMARK    5  A    between atoms: C5_10  and  N3_11 
REMARK    6  A    between atoms: N3_11  and  N4_13 
REMARK    7  A    between atoms: N5_15  and  N6_17 
ROOT
HETATM    1  N3  UNL     1       0.419   0.845   1.484  1.00  0.00    -0.319 N 
ATOM      2  H3  UNL     1       0.547   1.430   2.310  1.00  0.00     0.181 HD
ENDROOT
BRANCH   1   3
HETATM    3  C5  UNL     1      -0.745  -0.010   1.345  1.00  0.00     0.169 C 
BRANCH   3   4
HETATM    4  C4  UNL     1      -1.477   0.433   0.092  1.00  0.00     0.259 C 
BRANCH   4   5
HETATM    5  N1  UNL     1      -2.656  -0.339  -0.162  1.00  0.00    -0.050 N 
HETATM    6  C1  UNL     1      -2.677  -1.595   0.584  1.00  0.00     0.274 C 
HETATM    7  C2  UNL     1      -2.654  -0.713  -1.572  1.00  0.00     0.274 C 
BRANCH   5   8
HETATM    8  C3  UNL     1      -3.883   0.359   0.190  1.00  0.00     0.464 C 
BRANCH   8   9
HETATM    9  N2  UNL     1      -3.820   1.752  -0.126  1.00  0.00    -0.055 N 
ATOM     10  H23 UNL     1      -3.008   2.192   0.306  1.00  0.00     0.276 HD
ATOM     11  H22 UNL     1      -3.581   1.898  -1.107  1.00  0.00     0.276 HD
ATOM     12  H21 UNL     1      -4.680   2.241   0.121  1.00  0.00     0.276 HD
ENDBRANCH   8   9
ENDBRANCH   5   8
ENDBRANCH   4   5
ENDBRANCH   3   4
ENDBRANCH   1   3
BRANCH   1  13
HETATM   13  N4  UNL     1       1.359   0.841   0.450  1.00  0.00    -0.233 N 
HETATM   14  N5  UNL     1       1.742  -0.254  -0.054  1.00  0.00    -0.227 N 
ATOM     15  H5  UNL     1       1.368  -1.138   0.291  1.00  0.00     0.210 HD
ATOM     16  H4  UNL     1       1.737   1.722   0.101  1.00  0.00     0.209 HD
BRANCH  14  17
HETATM   17  N6  UNL     1       2.680  -0.243  -1.086  1.00  0.00    -0.274 N 
HETATM   18  C6  UNL     1       3.925  -0.091  -0.822  1.00  0.00     0.094 C 
HETATM   19  C7  UNL     1       4.689   0.095   0.433  1.00  0.00     0.097 C 
HETATM   20  N7  UNL     1       5.123  -0.031  -1.586  1.00  0.00    -0.378 N 
HETATM   21  C8  UNL     1       5.900   0.356  -0.410  1.00  0.00     0.128 C 
ATOM     22  H7  UNL     1       5.350  -0.194  -2.567  1.00  0.00     0.160 HD
ATOM     23  H6  UNL     1       2.375  -0.356  -2.053  1.00  0.00     0.190 HD
ENDBRANCH  14  17
ENDBRANCH   1  13
TORSDOF 7
