REMARK  2 active torsions:
REMARK  status: ('A' for Active; 'I' for Inactive)
REMARK    1  A    between atoms: C3_3  and  C4_4 
REMARK    2  A    between atoms: C4_4  and  N1_7 
ROOT
HETATM    1  N1  UNL     1      -0.493  -0.110  -0.205  1.00  0.00    -0.027 N 
HETATM    2  C6  UNL     1      -0.303  -0.884   1.012  1.00  0.00     0.277 C 
HETATM    3  C7  UNL     1      -0.441   1.273   0.137  1.00  0.00     0.247 C 
HETATM    4  C8  UNL     1       0.900   1.910   0.084  1.00  0.00     0.085 C 
HETATM    5  C9  UNL     1       2.038   0.988   0.089  1.00  0.00     0.022 A 
HETATM    6  N2  UNL     1       3.297   0.997   0.590  1.00  0.00    -0.360 N 
ATOM      7  H2  UNL     1       3.712   1.761   1.123  1.00  0.00     0.165 HD
HETATM    8  C10 UNL     1       3.913  -0.152   0.278  1.00  0.00     0.045 A 
HETATM    9  C11 UNL     1       5.309  -0.581   0.623  1.00  0.00     0.071 C 
HETATM   10  C12 UNL     1       3.031  -0.942  -0.452  1.00  0.00     0.148 A 
HETATM   11  F2  UNL     1       3.242  -2.173  -0.965  1.00  0.00    -0.203 F 
HETATM   12  C13 UNL     1       1.871  -0.230  -0.567  1.00  0.00     0.031 A 
HETATM   13  C14 UNL     1       0.532  -0.435  -1.195  1.00  0.00     0.285 C 
ENDROOT
BRANCH   1  14
HETATM   14  C4  UNL     1      -1.769  -0.477  -0.824  1.00  0.00     0.283 C 
HETATM   15  C5  UNL     1      -1.672  -1.934  -1.221  1.00  0.00     0.089 C 
HETATM   16  F1  UNL     1      -1.867   0.277  -1.984  1.00  0.00    -0.207 F 
BRANCH  14  17
HETATM   17  C3  UNL     1      -2.910  -0.216   0.056  1.00  0.00     0.042 C 
HETATM   18  C2  UNL     1      -3.690   0.844  -0.070  1.00  0.00    -0.030 C 
HETATM   19  C1  UNL     1      -4.842   1.093   0.830  1.00  0.00     0.036 C 
ENDBRANCH  14  17
ENDBRANCH   1  14
TORSDOF 2
