REMARK  2 active torsions:
REMARK  status: ('A' for Active; 'I' for Inactive)
REMARK    1  A    between atoms: C2_2  and  C3_4 
REMARK    2  A    between atoms: C6_7  and  N1_9 
ROOT
HETATM    1  C3  UNL     1       0.896   0.378  -0.254  1.00  0.00     0.051 C 
HETATM    2  C4  UNL     1       0.362   1.556   0.550  1.00  0.00     0.014 C 
HETATM    3  C5  UNL     1      -1.073   1.202   0.883  1.00  0.00     0.041 C 
HETATM    4  C6  UNL     1      -1.259  -0.178   0.318  1.00  0.00     0.137 C 
HETATM    5  C7  UNL     1      -1.714  -0.029  -1.124  1.00  0.00     0.048 C 
HETATM    6  C8  UNL     1       0.129  -0.746   0.411  1.00  0.00     0.055 C 
HETATM    7  C9  UNL     1       0.296  -2.059  -0.280  1.00  0.00     0.031 C 
HETATM    8 BR1  UNL     1       0.634  -0.865   2.251  1.00  0.00    -0.083 Br
ENDROOT
BRANCH   4   9
HETATM    9  N1  UNL     1      -2.241  -0.960   1.027  1.00  0.00    -0.069 N 
ATOM     10  H13 UNL     1      -2.019  -1.003   2.022  1.00  0.00     0.275 HD
ATOM     11  H12 UNL     1      -3.132  -0.465   1.074  1.00  0.00     0.275 HD
ATOM     12  H11 UNL     1      -2.367  -1.897   0.643  1.00  0.00     0.275 HD
ENDBRANCH   4   9
BRANCH   1  13
HETATM   13  C2  UNL     1       2.354   0.266  -0.146  1.00  0.00     0.008 C 
HETATM   14  C1  UNL     1       3.062   1.203   0.430  1.00  0.00     0.032 C 
HETATM   15 CL1  UNL     1       3.150  -1.142  -0.793  1.00  0.00    -0.089 Cl
ENDBRANCH   1  13
TORSDOF 2
