REMARK  9 active torsions:
REMARK  status: ('A' for Active; 'I' for Inactive)
REMARK    1  A    between atoms: C2_2  and  C3_3 
REMARK    2  A    between atoms: C3_3  and  O1_4 
REMARK    3  A    between atoms: C3_3  and  C4_6 
REMARK    4  A    between atoms: C3_3  and  C6_8 
REMARK    5  A    between atoms: C6_8  and  O3_10 
REMARK    6  A    between atoms: O3_10  and  C7_11 
REMARK    7  A    between atoms: C8_12  and  C9_13 
REMARK    8  A    between atoms: C12_16  and  O4_17 
REMARK    9  A    between atoms: C18_29  and  O5_30 
ROOT
HETATM    1  C7  UNL     1      -0.274   0.645   0.137  1.00  0.00     0.117 A 
HETATM    2  C8  UNL     1      -1.342   0.082   0.840  1.00  0.00     0.050 A 
HETATM    3  N1  UNL     1      -2.279   1.036   1.007  1.00  0.00    -0.342 N 
ATOM      4  H1  UNL     1      -3.168   0.901   1.489  1.00  0.00     0.167 HD
HETATM    5  C15 UNL     1      -1.877   2.188   0.450  1.00  0.00     0.120 A 
HETATM    6  N2  UNL     1      -2.179   3.466   0.202  1.00  0.00    -0.338 N 
ATOM      7  H2  UNL     1      -3.041   3.933   0.483  1.00  0.00     0.167 HD
HETATM    8  C16 UNL     1      -1.157   4.049  -0.485  1.00  0.00     0.087 A 
HETATM    9  C17 UNL     1      -0.956   5.316  -0.977  1.00  0.00     0.180 A 
HETATM   10  F1  UNL     1      -1.932   6.236  -0.781  1.00  0.00    -0.201 F 
HETATM   11  C18 UNL     1       0.215   5.660  -1.663  1.00  0.00     0.145 A 
HETATM   12  C19 UNL     1       1.196   4.709  -1.853  1.00  0.00     0.153 A 
HETATM   13  F2  UNL     1       2.312   5.083  -2.521  1.00  0.00    -0.203 F 
HETATM   14  C20 UNL     1       1.005   3.435  -1.363  1.00  0.00     0.060 A 
HETATM   15  C21 UNL     1      -0.169   3.109  -0.681  1.00  0.00     0.014 A 
HETATM   16  C22 UNL     1      -0.635   1.948  -0.090  1.00  0.00     0.057 A 
ENDROOT
BRANCH   1  17
HETATM   17  O3  UNL     1       0.874  -0.018  -0.225  1.00  0.00    -0.273 OA
BRANCH  17  18
HETATM   18  C6  UNL     1       2.019  -0.062   0.552  1.00  0.00     0.299 C 
HETATM   19  O2  UNL     1       2.004   0.531   1.639  1.00  0.00    -0.261 OA
BRANCH  18  20
HETATM   20  C3  UNL     1       3.230  -0.789   0.117  1.00  0.00     0.145 C 
BRANCH  20  21
HETATM   21  C2  UNL     1       2.993  -2.284  -0.041  1.00  0.00     0.044 C 
HETATM   22  C1  UNL     1       2.539  -2.889   1.261  1.00  0.00     0.009 C 
ENDBRANCH  20  21
BRANCH  20  23
HETATM   23  O1  UNL     1       4.213  -0.642   1.090  1.00  0.00    -0.380 OA
ATOM     24  H1  UNL     1       4.361   0.291   1.189  1.00  0.00     0.211 HD
ENDBRANCH  20  23
BRANCH  20  25
HETATM   25  C4  UNL     1       3.789  -0.191  -1.154  1.00  0.00     0.044 C 
HETATM   26  C5  UNL     1       2.885  -0.361  -2.339  1.00  0.00     0.009 C 
ENDBRANCH  20  25
ENDBRANCH  18  20
ENDBRANCH  17  18
ENDBRANCH   1  17
BRANCH   2  27
HETATM   27  C9  UNL     1      -1.378  -1.337   1.289  1.00  0.00     0.038 C 
HETATM   28  C10 UNL     1      -2.597  -1.529   2.135  1.00  0.00     0.013 C 
HETATM   29  C11 UNL     1      -3.768  -2.067   1.352  1.00  0.00     0.032 C 
HETATM   30  C12 UNL     1      -3.398  -3.454   0.932  1.00  0.00     0.118 C 
HETATM   31  C13 UNL     1      -2.177  -3.435   0.106  1.00  0.00     0.032 C 
HETATM   32  C14 UNL     1      -1.380  -2.192   0.052  1.00  0.00     0.013 C 
BRANCH  30  33
HETATM   33  O4  UNL     1      -4.480  -3.964   0.179  1.00  0.00    -0.396 OA
ATOM     34  H4  UNL     1      -4.245  -4.845  -0.088  1.00  0.00     0.210 HD
ENDBRANCH  30  33
ENDBRANCH   2  27
BRANCH  11  35
HETATM   35  O5  UNL     1       0.371   6.954  -2.143  1.00  0.00    -0.355 OA
ATOM     36  H5  UNL     1       1.166   7.187  -2.608  1.00  0.00     0.218 HD
ENDBRANCH  11  35
TORSDOF 9
