REMARK  5 active torsions:
REMARK  status: ('A' for Active; 'I' for Inactive)
REMARK    1  A    between atoms: C2_2  and  C3_3 
REMARK    2  A    between atoms: C3_3  and  N1_4 
REMARK       I    between atoms: N1_4  and  C4_6 
REMARK       I    between atoms: C4_6  and  N2_8 
REMARK    3  A    between atoms: N2_8  and  C5_10 
REMARK    4  A    between atoms: C8_13  and  O2_14 
REMARK    5  A    between atoms: C10_16  and  C11_17 
ROOT
HETATM    1  C11 UNL     1      -1.537   0.105   0.255  1.00  0.00     0.117 C 
HETATM    2  C12 UNL     1      -2.087   1.329   0.879  1.00  0.00     0.052 C 
HETATM    3  C13 UNL     1      -3.549   1.239   1.229  1.00  0.00     0.056 C 
HETATM    4  C14 UNL     1      -4.409   0.549   0.237  1.00  0.00     0.171 C 
HETATM    5  F1  UNL     1      -5.325   1.417  -0.336  1.00  0.00    -0.233 F 
HETATM    6  C15 UNL     1      -3.678  -0.097  -0.881  1.00  0.00     0.114 C 
HETATM    7  N3  UNL     1      -4.348  -0.369  -1.950  1.00  0.00    -0.386 N 
ATOM      8  H31 UNL     1      -3.845  -0.813  -2.719  1.00  0.00     0.157 HD
ATOM      9  H32 UNL     1      -5.339  -0.131  -1.982  1.00  0.00     0.157 HD
HETATM   10  N4  UNL     1      -2.318  -0.423  -0.837  1.00  0.00    -0.354 N 
ATOM     11  H4  UNL     1      -1.894  -1.013  -1.552  1.00  0.00     0.162 HD
HETATM   12  C16 UNL     1      -5.219  -0.504   0.959  1.00  0.00     0.017 C 
HETATM   13  C17 UNL     1      -6.166  -1.199  -0.026  1.00  0.00     0.023 C 
HETATM   14  C18 UNL     1      -6.088   0.100   2.032  1.00  0.00     0.023 C 
HETATM   15  C19 UNL     1      -4.357  -1.603   1.517  1.00  0.00     0.035 C 
HETATM   16  C20 UNL     1      -3.096  -1.906   1.718  1.00  0.00     0.152 C 
HETATM   17  F2  UNL     1      -2.980  -3.146   2.309  1.00  0.00    -0.199 F 
HETATM   18  S1  UNL     1      -1.446  -1.249   1.483  1.00  0.00    -0.064 SA
ENDROOT
BRANCH   1  19
HETATM   19  C10 UNL     1      -0.172   0.375  -0.261  1.00  0.00     0.016 A 
HETATM   20  C8  UNL     1      -0.052   1.260  -1.321  1.00  0.00     0.077 A 
HETATM   21  C7  UNL     1       1.189   1.565  -1.833  1.00  0.00     0.039 A 
HETATM   22  C6  UNL     1       2.315   0.964  -1.262  1.00  0.00     0.032 A 
HETATM   23  C5  UNL     1       2.255   0.079  -0.211  1.00  0.00     0.037 A 
HETATM   24  C21 UNL     1       0.948  -0.177   0.252  1.00  0.00     0.043 A 
BRANCH  20  25
HETATM   25  O2  UNL     1      -1.163   1.859  -1.896  1.00  0.00    -0.355 OA
HETATM   26  C9  UNL     1      -0.990   2.751  -2.971  1.00  0.00     0.210 C 
ENDBRANCH  20  25
BRANCH  23  27
HETATM   27  N2  UNL     1       3.342  -0.565   0.401  1.00  0.00    -0.309 N 
HETATM   28  C4  UNL     1       4.681  -0.538   0.016  1.00  0.00     0.320 C 
HETATM   29  N1  UNL     1       5.693  -1.248   0.749  1.00  0.00    -0.343 N 
HETATM   30  O1  UNL     1       5.084   0.097  -0.979  1.00  0.00    -0.247 OA
ATOM     31  H1  UNL     1       5.422  -1.788   1.571  1.00  0.00     0.164 HD
ATOM     32  H2  UNL     1       3.125  -1.121   1.229  1.00  0.00     0.170 HD
BRANCH  29  33
HETATM   33  C3  UNL     1       7.060  -1.220   0.362  1.00  0.00     0.124 C 
BRANCH  33  34
HETATM   34  C2  UNL     1       7.712   0.130   0.359  1.00  0.00     0.015 C 
HETATM   35  C1  UNL     1       9.166  -0.106  -0.081  1.00  0.00     0.006 C 
ENDBRANCH  33  34
ENDBRANCH  29  33
ENDBRANCH  23  27
ENDBRANCH   1  19
TORSDOF 5
