REMARK  7 active torsions:
REMARK  status: ('A' for Active; 'I' for Inactive)
REMARK    1  A    between atoms: C2_2  and  C4_4 
REMARK    2  A    between atoms: C13_15  and  C14_16 
REMARK    3  A    between atoms: C14_16  and  N1_17 
REMARK    4  A    between atoms: N1_17  and  C15_19 
REMARK    5  A    between atoms: C15_19  and  C16_20 
REMARK    6  A    between atoms: N2_22  and  O1_24 
REMARK    7  A    between atoms: C21_29  and  O2_30 
ROOT
HETATM    1  C14 UNL     1       0.729  -0.451  -0.733  1.00  0.00     0.094 C 
ENDROOT
BRANCH   1   2
HETATM    2  C13 UNL     1      -0.595  -0.565  -0.099  1.00  0.00     0.296 C 
HETATM    3  C12 UNL     1      -1.253   0.574   0.542  1.00  0.00     0.283 C 
HETATM    4  C6  UNL     1      -2.768   0.617   0.303  1.00  0.00     0.030 C 
HETATM    5  F1  UNL     1      -0.780   1.764  -0.029  1.00  0.00    -0.203 F 
HETATM    6  F2  UNL     1      -1.068   0.688   1.905  1.00  0.00    -0.203 F 
HETATM    7  C5  UNL     1      -3.398  -0.772   0.399  1.00  0.00     0.049 C 
HETATM    8  C7  UNL     1      -3.378   1.405   1.424  1.00  0.00     0.015 C 
HETATM    9  C11 UNL     1      -3.019   1.153  -1.060  1.00  0.00     0.015 C 
HETATM   10  C4  UNL     1      -2.523  -1.846  -0.123  1.00  0.00     0.191 C 
HETATM   11  N3  UNL     1      -1.510  -1.310  -1.002  1.00  0.00    -0.056 N 
ATOM     12  H32 UNL     1      -1.046  -2.011  -1.580  1.00  0.00     0.278 HD
ATOM     13  H31 UNL     1      -1.879  -0.754  -1.773  1.00  0.00     0.278 HD
HETATM   14  C8  UNL     1      -3.383   2.899   1.205  1.00  0.00     0.001 C 
HETATM   15  C9  UNL     1      -4.281   3.089  -0.029  1.00  0.00     0.000 C 
HETATM   16  C10 UNL     1      -3.485   2.558  -1.170  1.00  0.00     0.001 C 
BRANCH  10  17
HETATM   17  C2  UNL     1      -3.311  -2.981  -0.723  1.00  0.00     0.008 C 
HETATM   18  C1  UNL     1      -4.185  -2.588  -1.871  1.00  0.00     0.011 C 
HETATM   19  C3  UNL     1      -4.148  -3.669   0.317  1.00  0.00     0.011 C 
ENDBRANCH  10  17
ENDBRANCH   1   2
BRANCH   1  20
HETATM   20  N1  UNL     1       1.896  -0.127  -0.070  1.00  0.00    -0.399 N 
ATOM     21  H1  UNL     1       2.597  -0.861   0.030  1.00  0.00     0.158 HD
BRANCH  20  22
HETATM   22  C15 UNL     1       2.189   1.104   0.466  1.00  0.00     0.134 C 
BRANCH  22  23
HETATM   23  C16 UNL     1       3.639   1.213   0.979  1.00  0.00     0.084 C 
HETATM   24  C17 UNL     1       3.923   0.217   2.027  1.00  0.00     0.024 C 
HETATM   25  N2  UNL     1       3.067  -0.259   2.856  1.00  0.00    -0.276 N 
HETATM   26  C18 UNL     1       5.369  -0.102   1.915  1.00  0.00     0.094 C 
ATOM     27  H2  UNL     1       2.097   0.054   2.817  1.00  0.00     0.193 HD
HETATM   28  C19 UNL     1       5.626   0.180   0.459  1.00  0.00    -0.043 A 
HETATM   29  C20 UNL     1       6.714  -0.242  -0.305  1.00  0.00     0.044 A 
HETATM   30  C24 UNL     1       4.611   0.939  -0.068  1.00  0.00    -0.040 A 
HETATM   31  C21 UNL     1       6.809   0.090  -1.624  1.00  0.00     0.066 A 
HETATM   32  C22 UNL     1       5.797   0.857  -2.186  1.00  0.00     0.037 A 
HETATM   33  C23 UNL     1       4.728   1.269  -1.424  1.00  0.00     0.011 A 
BRANCH  25  34
HETATM   34  O1  UNL     1       3.442  -1.174   3.782  1.00  0.00    -0.290 OA
ATOM     35  H1  UNL     1       2.808  -1.526   4.396  1.00  0.00     0.244 HD
ENDBRANCH  25  34
BRANCH  31  36
HETATM   36  O2  UNL     1       7.869  -0.296  -2.454  1.00  0.00    -0.361 OA
ATOM     37  H2  UNL     1       7.935  -0.065  -3.373  1.00  0.00     0.217 HD
ENDBRANCH  31  36
ENDBRANCH  22  23
ENDBRANCH  20  22
ENDBRANCH   1  20
TORSDOF 7
