REMARK  2 active torsions:
REMARK  status: ('A' for Active; 'I' for Inactive)
REMARK    1  A    between atoms: C2_2  and  O1_4 
REMARK    2  A    between atoms: O1_4  and  C4_5 
ROOT
HETATM    1  C4  UNL     1      -0.076   0.025   0.021  1.00  0.00     0.334 C 
HETATM    2  N1  UNL     1      -0.867   0.675   0.991  1.00  0.00    -0.036 N 
ATOM      3  H11 UNL     1      -0.403   1.514   1.340  1.00  0.00     0.281 HD
ATOM      4  H12 UNL     1      -0.903   0.135   1.856  1.00  0.00     0.281 HD
HETATM    5  C5  UNL     1      -2.381   1.020   0.445  1.00  0.00     0.139 C 
HETATM    6  C6  UNL     1      -3.158   1.189   1.704  1.00  0.00     0.050 C 
HETATM    7  C7  UNL     1      -2.132   2.258  -0.312  1.00  0.00     0.050 C 
HETATM    8  C8  UNL     1      -2.399  -0.195  -0.144  1.00  0.00     0.008 C 
HETATM    9  C9  UNL     1      -1.931  -0.910  -0.381  1.00  0.00    -0.015 C 
HETATM   10  C10 UNL     1      -0.712  -1.488  -0.434  1.00  0.00     0.022 C 
HETATM   11  C11 UNL     1      -0.294  -2.384   0.688  1.00  0.00     0.023 C 
HETATM   12  C12 UNL     1      -0.067  -1.804  -1.733  1.00  0.00     0.023 C 
ENDROOT
BRANCH   1  13
HETATM   13  O1  UNL     1       1.189  -0.256   0.415  1.00  0.00    -0.354 OA
BRANCH  13  14
HETATM   14  C2  UNL     1       2.215   0.136  -0.398  1.00  0.00     0.116 C 
HETATM   15  C1  UNL     1       3.193  -0.922  -0.780  1.00  0.00     0.039 C 
HETATM   16  C3  UNL     1       2.996   1.185   0.428  1.00  0.00     0.039 C 
ENDBRANCH  13  14
ENDBRANCH   1  13
TORSDOF 2
