REMARK  5 active torsions:
REMARK  status: ('A' for Active; 'I' for Inactive)
REMARK    1  A    between atoms: N1_1  and  C1_5 
REMARK    2  A    between atoms: C1_5  and  C2_6 
REMARK    3  A    between atoms: C1_5  and  C4_10 
REMARK    4  A    between atoms: C2_6  and  C3_7 
REMARK       I    between atoms: C4_10  and  N2_12 
REMARK    5  A    between atoms: N2_12  and  N3_14 
ROOT
HETATM    1  C4  UNL     1      -0.711  -1.176   0.022  1.00  0.00     0.266 C 
HETATM    2  O1  UNL     1      -0.194  -1.926   0.885  1.00  0.00    -0.269 OA
HETATM    3  N2  UNL     1       0.065  -0.655  -1.079  1.00  0.00    -0.268 N 
ATOM      4  H2  UNL     1      -0.349  -0.046  -1.785  1.00  0.00     0.190 HD
ENDROOT
BRANCH   1   5
HETATM    5  C1  UNL     1      -2.147  -0.837   0.159  1.00  0.00     0.281 C 
BRANCH   5   6
HETATM    6  N1  UNL     1      -2.667  -1.482   1.328  1.00  0.00    -0.066 N 
ATOM      7  H13 UNL     1      -2.202  -1.151   2.173  1.00  0.00     0.275 HD
ATOM      8  H12 UNL     1      -3.615  -1.169   1.534  1.00  0.00     0.275 HD
ATOM      9  H11 UNL     1      -2.620  -2.498   1.252  1.00  0.00     0.275 HD
ENDBRANCH   5   6
BRANCH   5  10
HETATM   10  C2  UNL     1      -2.218   0.685   0.273  1.00  0.00     0.113 C 
BRANCH  10  11
HETATM   11  C3  UNL     1      -3.644   1.150   0.451  1.00  0.00     0.355 C 
HETATM   12  F1  UNL     1      -3.611   2.527   0.545  1.00  0.00    -0.214 F 
HETATM   13  F2  UNL     1      -4.370   0.757  -0.659  1.00  0.00    -0.214 F 
ENDBRANCH  10  11
ENDBRANCH   5  10
ENDBRANCH   1   5
BRANCH   3  14
HETATM   14  N3  UNL     1       1.406  -1.025  -1.130  1.00  0.00    -0.304 N 
HETATM   15  C5  UNL     1       2.349  -0.312  -0.630  1.00  0.00     0.035 C 
HETATM   16  C6  UNL     1       3.819  -0.522  -0.577  1.00  0.00     0.122 C 
HETATM   17  C8  UNL     1       2.557   0.964   0.098  1.00  0.00     0.122 C 
HETATM   18 BR1  UNL     1       4.261  -1.689   0.894  1.00  0.00    -0.084 Br
HETATM   19  C7  UNL     1       4.038   0.938  -0.253  1.00  0.00     0.098 C 
HETATM   20 BR2  UNL     1       4.480   1.912  -1.856  1.00  0.00    -0.088 Br
HETATM   21 BR3  UNL     1       2.249   0.833   2.007  1.00  0.00    -0.084 Br
ATOM     22  H3  UNL     1       1.651  -1.904  -1.586  1.00  0.00     0.186 HD
ENDBRANCH   3  14
TORSDOF 5
