REMARK  4 active torsions:
REMARK  status: ('A' for Active; 'I' for Inactive)
REMARK    1  A    between atoms: C3_3  and  O1_4 
REMARK    2  A    between atoms: O1_4  and  C4_5 
REMARK    3  A    between atoms: C4_5  and  N1_7 
REMARK    4  A    between atoms: N1_7  and  C5_9 
ROOT
HETATM    1  C1  UNL     1       6.834  -0.236   0.779  1.00  0.00     0.014 C 
HETATM    2  C2  UNL     1       5.655  -0.486   0.822  1.00  0.00    -0.091 C 
HETATM    3  C3  UNL     1       4.206  -0.794   0.849  1.00  0.00     0.271 C 
ENDROOT
BRANCH   3   4
HETATM    4  O1  UNL     1       3.640  -0.507  -0.426  1.00  0.00    -0.315 OA
BRANCH   4   5
HETATM    5  C4  UNL     1       2.271  -0.751  -0.550  1.00  0.00     0.211 C 
HETATM    6  S1  UNL     1       1.860  -2.200  -1.150  1.00  0.00    -0.033 SA
BRANCH   5   7
HETATM    7  N1  UNL     1       1.368   0.265  -0.150  1.00  0.00    -0.352 N 
ATOM      8  H1  UNL     1       1.776   1.127   0.211  1.00  0.00     0.163 HD
BRANCH   7   9
HETATM    9  C5  UNL     1      -0.062   0.199  -0.203  1.00  0.00     0.034 C 
HETATM   10  C6  UNL     1      -0.636   1.515   0.348  1.00  0.00     0.035 C 
HETATM   11  C7  UNL     1      -2.130   1.486   0.436  1.00  0.00    -0.012 C 
HETATM   12  C8  UNL     1      -2.684   1.361  -0.976  1.00  0.00     0.009 C 
HETATM   13  C12 UNL     1      -2.632   0.342   1.258  1.00  0.00     0.009 C 
HETATM   14  C9  UNL     1      -2.111   0.122  -1.583  1.00  0.00    -0.012 C 
HETATM   15  C10 UNL     1      -2.614  -1.068  -0.772  1.00  0.00     0.009 C 
HETATM   16  C14 UNL     1      -0.614   0.062  -1.603  1.00  0.00     0.035 C 
HETATM   17  C11 UNL     1      -2.114  -0.931   0.635  1.00  0.00    -0.012 C 
HETATM   18  C13 UNL     1      -0.601  -0.876   0.700  1.00  0.00     0.035 C 
ENDBRANCH   7   9
ENDBRANCH   5   7
ENDBRANCH   4   5
ENDBRANCH   3   4
TORSDOF 4
