REMARK  4 active torsions:
REMARK  status: ('A' for Active; 'I' for Inactive)
REMARK       I    between atoms: C1_2  and  N2_4 
REMARK       I    between atoms: N2_4  and  C2_6 
REMARK    1  A    between atoms: C2_6  and  C3_8 
REMARK    2  A    between atoms: C7_12  and  C8_13 
REMARK    3  A    between atoms: C8_13  and  O4_15 
REMARK    4  A    between atoms: O4_15  and  C9_16 
ROOT
HETATM    1  C8  UNL     1       0.684  -0.248  -0.046  1.00  0.00     0.264 C 
HETATM    2  O3  UNL     1       0.839  -0.640  -1.231  1.00  0.00    -0.265 OA
ENDROOT
BRANCH   1   3
HETATM    3  C7  UNL     1       1.879  -0.150   0.834  1.00  0.00     0.098 C 
HETATM    4  C3  UNL     1       3.115  -0.560   0.103  1.00  0.00     0.092 C 
HETATM    5  C4  UNL     1       3.990  -1.209   1.150  1.00  0.00     0.015 C 
HETATM    6  C5  UNL     1       3.162  -1.407   2.376  1.00  0.00     0.002 C 
HETATM    7  C6  UNL     1       1.742  -1.245   1.885  1.00  0.00     0.015 C 
BRANCH   4   8
HETATM    8  C2  UNL     1       3.851   0.559  -0.489  1.00  0.00     0.230 C 
HETATM    9  N2  UNL     1       5.074   0.330  -1.142  1.00  0.00    -0.281 N 
HETATM   10  C1  UNL     1       5.773   1.425  -1.710  1.00  0.00     0.335 C 
ATOM     11  H2  UNL     1       5.455  -0.614  -1.207  1.00  0.00     0.173 HD
HETATM   12  N1  UNL     1       7.026   1.241  -2.387  1.00  0.00    -0.040 NA
HETATM   13  O1  UNL     1       5.317   2.588  -1.636  1.00  0.00    -0.251 OA
HETATM   14  O2  UNL     1       3.390   1.720  -0.413  1.00  0.00    -0.273 OA
ENDBRANCH   4   8
ENDBRANCH   1   3
BRANCH   1  15
HETATM   15  O4  UNL     1      -0.592   0.066   0.359  1.00  0.00    -0.315 OA
BRANCH  15  16
HETATM   16  C9  UNL     1      -1.725  -0.029  -0.484  1.00  0.00     0.140 C 
HETATM   17  C10 UNL     1      -2.663  -1.044   0.085  1.00  0.00     0.016 C 
HETATM   18  C11 UNL     1      -3.724  -1.324  -0.981  1.00  0.00     0.012 C 
HETATM   19  C15 UNL     1      -3.394  -0.545   1.309  1.00  0.00     0.012 C 
HETATM   20  C12 UNL     1      -4.434  -0.049  -1.312  1.00  0.00    -0.013 C 
HETATM   21  C13 UNL     1      -5.180   0.394  -0.059  1.00  0.00     0.009 C 
HETATM   22  C18 UNL     1      -3.479   1.036  -1.771  1.00  0.00     0.012 C 
HETATM   23  C14 UNL     1      -4.155   0.712   0.992  1.00  0.00    -0.013 C 
HETATM   24  C16 UNL     1      -3.166   1.755   0.535  1.00  0.00     0.012 C 
HETATM   25  C17 UNL     1      -2.426   1.280  -0.681  1.00  0.00     0.016 C 
ENDBRANCH  15  16
ENDBRANCH   1  15
TORSDOF 4
