REMARK  3 active torsions:
REMARK  status: ('A' for Active; 'I' for Inactive)
REMARK    1  A    between atoms: C2_2  and  N1_3 
REMARK    2  A    between atoms: C2_2  and  N2_15 
REMARK    3  A    between atoms: N1_3  and  C3_5 
ROOT
HETATM    1  C3  UNL     1      -0.656  -0.049  -0.438  1.00  0.00     0.028 C 
HETATM    2  C4  UNL     1      -0.672  -0.481   1.007  1.00  0.00     0.035 C 
HETATM    3  C5  UNL     1      -2.074  -0.369   1.545  1.00  0.00    -0.012 C 
HETATM    4  C6  UNL     1      -2.971  -1.308   0.786  1.00  0.00     0.009 C 
HETATM    5  C7  UNL     1      -2.994  -0.914  -0.665  1.00  0.00    -0.012 C 
HETATM    6  C8  UNL     1      -3.470   0.505  -0.872  1.00  0.00     0.009 C 
HETATM    7  C9  UNL     1      -2.586   1.404  -0.058  1.00  0.00    -0.012 C 
HETATM    8  C10 UNL     1      -2.609   1.027   1.396  1.00  0.00     0.009 C 
HETATM    9  C11 UNL     1      -1.186   1.342  -0.644  1.00  0.00     0.035 C 
HETATM   10  C12 UNL     1      -1.587  -0.994  -1.187  1.00  0.00     0.035 C 
ENDROOT
BRANCH   1  11
HETATM   11  N1  UNL     1       0.650  -0.266  -0.982  1.00  0.00    -0.385 N 
ATOM     12  H1  UNL     1       0.833  -0.978  -1.689  1.00  0.00     0.156 HD
BRANCH  11  13
HETATM   13  C2  UNL     1       1.679   0.578  -0.471  1.00  0.00     0.316 C 
HETATM   14  C1  UNL     1       2.435   1.144  -1.647  1.00  0.00     0.066 C 
BRANCH  13  15
HETATM   15  N2  UNL     1       2.482  -0.146   0.455  1.00  0.00     0.135 N 
HETATM   16  C13 UNL     1       3.234  -1.229  -0.099  1.00  0.00     0.304 C 
HETATM   17  C14 UNL     1       4.350  -1.351   0.935  1.00  0.00     0.200 C 
HETATM   18  O1  UNL     1       4.529  -0.085   1.456  1.00  0.00    -0.361 OA
HETATM   19  C15 UNL     1       3.373   0.641   1.248  1.00  0.00     0.443 C 
ENDBRANCH  13  15
ENDBRANCH  11  13
ENDBRANCH   1  11
TORSDOF 3
