REMARK  12 active torsions:
REMARK  status: ('A' for Active; 'I' for Inactive)
REMARK    1  A    between atoms: O1_2  and  C2_3 
REMARK    2  A    between atoms: C5_6  and  S1_7 
REMARK    3  A    between atoms: S1_7  and  C6_10 
REMARK    4  A    between atoms: C6_10  and  C7_11 
REMARK    5  A    between atoms: C7_11  and  O4_12 
REMARK    6  A    between atoms: C7_11  and  C8_14 
REMARK    7  A    between atoms: C8_14  and  C9_15 
REMARK    8  A    between atoms: C13_20  and  O6_21 
REMARK    9  A    between atoms: C13_20  and  C14_23 
REMARK   10  A    between atoms: C15_24  and  C16_25 
REMARK   11  A    between atoms: C22_31  and  O7_32 
REMARK   12  A    between atoms: C26_39  and  C27_40 
ROOT
HETATM    1  C9  UNL     1       1.143   0.441  -0.015  1.00  0.00     0.170 C 
HETATM    2  O5  UNL     1       2.394   0.979   0.322  1.00  0.00    -0.382 OA
HETATM    3  C10 UNL     1       2.519   2.299   0.469  1.00  0.00     0.168 C 
HETATM    4  C11 UNL     1       1.377   3.109   0.949  1.00  0.00     0.030 C 
HETATM    5  C12 UNL     1       0.073   2.510   0.641  1.00  0.00     0.056 C 
HETATM    6  C13 UNL     1       0.124   0.964   0.927  1.00  0.00     0.147 C 
ENDROOT
BRANCH   6   7
HETATM    7  O6  UNL     1       0.549   0.803   2.266  1.00  0.00    -0.375 OA
ATOM      8  H6  UNL     1      -0.104   1.138   2.869  1.00  0.00     0.212 HD
ENDBRANCH   6   7
BRANCH   6   9
HETATM    9  C14 UNL     1      -1.211   0.463   0.865  1.00  0.00    -0.060 C 
HETATM   10  C15 UNL     1      -2.389   0.115   0.870  1.00  0.00    -0.063 C 
BRANCH  10  11
HETATM   11  C16 UNL     1      -3.777  -0.175   0.983  1.00  0.00     0.025 A 
HETATM   12  C17 UNL     1      -4.239  -0.230   2.312  1.00  0.00     0.022 A 
HETATM   13  C18 UNL     1      -5.589  -0.310   2.537  1.00  0.00     0.014 A 
HETATM   14  C19 UNL     1      -6.426  -0.321   1.455  1.00  0.00    -0.015 A 
HETATM   15  C20 UNL     1      -7.794  -0.289   1.738  1.00  0.00    -0.016 A 
HETATM   16  C25 UNL     1      -5.970  -0.263   0.113  1.00  0.00     0.006 A 
HETATM   17  C21 UNL     1      -8.229  -0.338   3.184  1.00  0.00     0.052 C 
HETATM   18  C22 UNL     1      -8.747  -0.192   0.774  1.00  0.00     0.096 A 
HETATM   19  C23 UNL     1      -8.307  -0.116  -0.542  1.00  0.00     0.090 A 
HETATM   20 CL1  UNL     1      -9.437   0.004  -1.850  1.00  0.00    -0.080 Cl
HETATM   21  C24 UNL     1      -6.929  -0.146  -0.839  1.00  0.00     0.070 A 
HETATM   22 CL2  UNL     1      -6.536   0.376  -2.471  1.00  0.00    -0.081 Cl
HETATM   23  C26 UNL     1      -4.605  -0.206  -0.114  1.00  0.00    -0.023 A 
BRANCH  18  24
HETATM   24  O7  UNL     1     -10.099  -0.163   0.997  1.00  0.00    -0.358 OA
ATOM     25  H7  UNL     1     -10.765  -0.095   0.323  1.00  0.00     0.217 HD
ENDBRANCH  18  24
BRANCH  23  26
HETATM   26  C27 UNL     1      -4.070  -0.338  -1.437  1.00  0.00     0.013 C 
HETATM   27  C28 UNL     1      -4.687  -1.699  -1.919  1.00  0.00     0.015 C 
HETATM   28  C29 UNL     1      -2.645  -0.614  -1.745  1.00  0.00     0.015 C 
ENDBRANCH  23  26
ENDBRANCH  10  11
ENDBRANCH   6   9
BRANCH   1  29
HETATM   29  C8  UNL     1       1.248  -1.069  -0.068  1.00  0.00     0.068 C 
BRANCH  29  30
HETATM   30  C7  UNL     1       2.260  -1.575  -1.075  1.00  0.00     0.135 C 
BRANCH  30  31
HETATM   31  C6  UNL     1       3.614  -1.052  -0.785  1.00  0.00     0.177 C 
BRANCH  31  32
HETATM   32  S1  UNL     1       4.973  -1.937  -1.535  1.00  0.00     0.177 S 
HETATM   33  O2  UNL     1       5.040  -3.346  -1.082  1.00  0.00    -0.223 OA
HETATM   34  O3  UNL     1       4.862  -1.813  -3.014  1.00  0.00    -0.223 OA
BRANCH  32  35
HETATM   35  C5  UNL     1       6.412  -1.091  -0.960  1.00  0.00     0.059 A 
HETATM   36  C4  UNL     1       6.878  -1.392   0.288  1.00  0.00     0.026 A 
HETATM   37  C3  UNL     1       8.005  -0.727   0.793  1.00  0.00     0.038 A 
HETATM   38  C2  UNL     1       8.617   0.222   0.012  1.00  0.00     0.068 A 
HETATM   39  C31 UNL     1       8.133   0.511  -1.243  1.00  0.00     0.038 A 
HETATM   40  C30 UNL     1       7.012  -0.160  -1.729  1.00  0.00     0.026 A 
BRANCH  38  41
HETATM   41  O1  UNL     1       9.719   0.859   0.542  1.00  0.00    -0.356 OA
HETATM   42  C1  UNL     1      10.410   1.826  -0.184  1.00  0.00     0.210 C 
ENDBRANCH  38  41
ENDBRANCH  32  35
ENDBRANCH  31  32
ENDBRANCH  30  31
BRANCH  30  43
HETATM   43  O4  UNL     1       1.870  -1.575  -2.381  1.00  0.00    -0.395 OA
ATOM     44  H4  UNL     1       1.001  -1.911  -2.567  1.00  0.00     0.210 HD
ENDBRANCH  30  43
ENDBRANCH  29  30
ENDBRANCH   1  29
TORSDOF 12
