REMARK  10 active torsions:
REMARK  status: ('A' for Active; 'I' for Inactive)
REMARK    1  A    between atoms: C2_3  and  C3_4 
REMARK    2  A    between atoms: C4_7  and  N3_8 
REMARK    3  A    between atoms: C5_13  and  N5_14 
REMARK    4  A    between atoms: C6_19  and  O1_20 
REMARK    5  A    between atoms: O1_20  and  C7_21 
REMARK    6  A    between atoms: C7_21  and  C8_22 
REMARK    7  A    between atoms: C8_22  and  C9_23 
REMARK    8  A    between atoms: C9_23  and  C10_24 
REMARK    9  A    between atoms: C10_24  and  C11_25 
REMARK   10  A    between atoms: C11_25  and  C12_26 
ROOT
HETATM    1  C1  UNL     1       6.186   2.045   1.059  1.00  0.00     0.176 C 
HETATM    2  N1  UNL     1       4.803   1.862   0.640  1.00  0.00    -0.180 N 
HETATM    3  C2  UNL     1       4.235   0.822   0.033  1.00  0.00     0.147 A 
HETATM    4  C6  UNL     1       2.865   1.123  -0.144  1.00  0.00     0.189 A 
HETATM    5  N7  UNL     1       2.680   2.343   0.373  1.00  0.00    -0.168 N 
ATOM      6  H7  UNL     1       1.789   2.838   0.395  1.00  0.00     0.186 HD
HETATM    7  C18 UNL     1       3.829   2.818   0.855  1.00  0.00     0.680 A 
HETATM    8  N8  UNL     1       4.009   3.953   1.416  1.00  0.00    -0.234 N 
ATOM      9  H81 UNL     1       3.290   4.659   1.575  1.00  0.00     0.174 HD
ATOM     10  H82 UNL     1       4.888   4.316   1.785  1.00  0.00     0.174 HD
ENDROOT
BRANCH   3  11
HETATM   11  C3  UNL     1       4.817  -0.435  -0.390  1.00  0.00     0.168 A 
HETATM   12  N2  UNL     1       3.964  -1.411  -0.847  1.00  0.00    -0.173 N 
HETATM   13  C4  UNL     1       4.392  -2.612  -1.238  1.00  0.00     0.692 A 
ATOM     14  H2  UNL     1       2.965  -1.209  -0.889  1.00  0.00     0.186 HD
HETATM   15  N4  UNL     1       5.693  -2.949  -1.212  1.00  0.00    -0.023 N 
HETATM   16  C5  UNL     1       6.547  -2.022  -0.773  1.00  0.00     0.692 A 
ATOM     17  H4  UNL     1       6.012  -3.870  -1.513  1.00  0.00     0.203 HD
HETATM   18  N6  UNL     1       6.097  -0.796  -0.375  1.00  0.00    -0.173 N 
ATOM     19  H6  UNL     1       6.783  -0.117  -0.047  1.00  0.00     0.186 HD
BRANCH  13  20
HETATM   20  N3  UNL     1       3.545  -3.489  -1.657  1.00  0.00    -0.234 N 
ATOM     21  H32 UNL     1       2.558  -3.233  -1.677  1.00  0.00     0.174 HD
ATOM     22  H31 UNL     1       3.872  -4.408  -1.956  1.00  0.00     0.174 HD
ENDBRANCH  13  20
BRANCH  16  23
HETATM   23  N5  UNL     1       7.800  -2.314  -0.736  1.00  0.00    -0.234 N 
ATOM     24  H52 UNL     1       8.136  -3.230  -1.033  1.00  0.00     0.174 HD
ATOM     25  H51 UNL     1       8.453  -1.606  -0.401  1.00  0.00     0.174 HD
ENDBRANCH  16  23
ENDBRANCH   3  11
BRANCH   4  26
HETATM   26  O1  UNL     1       1.976   0.269  -0.742  1.00  0.00    -0.334 OA
BRANCH  26  27
HETATM   27  C7  UNL     1       0.633   0.477  -0.921  1.00  0.00     0.177 C 
BRANCH  27  28
HETATM   28  C8  UNL     1      -0.216   0.619   0.299  1.00  0.00     0.027 C 
BRANCH  28  29
HETATM   29  C9  UNL     1      -1.674   0.842  -0.127  1.00  0.00     0.002 C 
BRANCH  29  30
HETATM   30  C10 UNL     1      -2.559   0.991   1.090  1.00  0.00     0.000 C 
BRANCH  30  31
HETATM   31  C11 UNL     1      -3.988   1.209   0.752  1.00  0.00     0.004 C 
BRANCH  31  32
HETATM   32  C12 UNL     1      -4.621   0.095  -0.043  1.00  0.00    -0.014 C 
HETATM   33  C13 UNL     1      -6.056   0.501  -0.286  1.00  0.00     0.004 C 
HETATM   34  C14 UNL     1      -6.910  -0.586  -0.840  1.00  0.00     0.000 C 
HETATM   35  C15 UNL     1      -6.892  -1.727   0.187  1.00  0.00     0.000 C 
HETATM   36  C16 UNL     1      -5.487  -2.254   0.176  1.00  0.00     0.000 C 
HETATM   37  C17 UNL     1      -4.482  -1.239   0.610  1.00  0.00     0.004 C 
ENDBRANCH  31  32
ENDBRANCH  30  31
ENDBRANCH  29  30
ENDBRANCH  28  29
ENDBRANCH  27  28
ENDBRANCH  26  27
ENDBRANCH   4  26
TORSDOF 10
