REMARK  16 active torsions:
REMARK  status: ('A' for Active; 'I' for Inactive)
REMARK    1  A    between atoms: C2_2  and  C3_3 
REMARK    2  A    between atoms: C2_2  and  C13_29 
REMARK    3  A    between atoms: C3_3  and  N1_4 
REMARK    4  A    between atoms: N1_4  and  C4_6 
REMARK    5  A    between atoms: C4_6  and  C5_7 
REMARK    6  A    between atoms: C5_7  and  C6_8 
REMARK    7  A    between atoms: C6_8  and  C7_9 
REMARK    8  A    between atoms: C7_9  and  C8_10 
REMARK    9  A    between atoms: C8_10  and  C9_11 
REMARK   10  A    between atoms: C9_11  and  N2_12 
REMARK   11  A    between atoms: N2_12  and  C10_14 
REMARK   12  A    between atoms: C11_17  and  N4_18 
REMARK   13  A    between atoms: C12_23  and  N6_24 
REMARK   14  A    between atoms: C13_29  and  O1_30 
REMARK   15  A    between atoms: O1_30  and  C14_31 
REMARK   16  A    between atoms: C20_38  and  C21_39 
ROOT
HETATM    1  C14 UNL     1      -5.483  -0.571   1.335  1.00  0.00     0.077 A 
HETATM    2  C15 UNL     1      -5.705  -0.257   2.693  1.00  0.00     0.039 A 
HETATM    3  C16 UNL     1      -6.928   0.222   3.078  1.00  0.00     0.025 A 
HETATM    4  C17 UNL     1      -7.962   0.414   2.190  1.00  0.00     0.045 A 
HETATM    5  C18 UNL     1      -9.216   0.918   2.644  1.00  0.00     0.099 C 
HETATM    6  N8  UNL     1     -10.214   1.315   3.003  1.00  0.00    -0.191 NA
HETATM    7  C19 UNL     1      -7.741   0.106   0.867  1.00  0.00     0.035 A 
HETATM    8  C20 UNL     1      -6.542  -0.377   0.414  1.00  0.00     0.005 A 
ENDROOT
BRANCH   8   9
HETATM    9  C21 UNL     1      -6.289  -0.709  -0.984  1.00  0.00     0.157 C 
HETATM   10  C22 UNL     1      -7.559  -0.404  -1.790  1.00  0.00     0.039 C 
HETATM   11  C23 UNL     1      -6.983  -0.583  -3.202  1.00  0.00     0.029 C 
HETATM   12  C24 UNL     1      -5.575  -0.057  -2.990  1.00  0.00     0.168 C 
HETATM   13  O2  UNL     1      -5.386   0.113  -1.632  1.00  0.00    -0.381 OA
ENDBRANCH   8   9
BRANCH   1  14
HETATM   14  O1  UNL     1      -4.347  -1.033   0.887  1.00  0.00    -0.350 OA
BRANCH  14  15
HETATM   15  C13 UNL     1      -3.167  -1.474   0.633  1.00  0.00     0.185 C 
BRANCH  15  16
HETATM   16  C2  UNL     1      -1.949  -0.599   0.916  1.00  0.00     0.044 C 
HETATM   17  C1  UNL     1      -1.770  -0.206   2.324  1.00  0.00     0.017 C 
BRANCH  16  18
HETATM   18  C3  UNL     1      -0.701  -1.118   0.294  1.00  0.00     0.061 C 
BRANCH  18  19
HETATM   19  N1  UNL     1       0.413  -0.288   0.181  1.00  0.00    -0.402 N 
ATOM     20  H1  UNL     1       0.701   0.014  -0.750  1.00  0.00     0.158 HD
BRANCH  19  21
HETATM   21  C4  UNL     1       1.156   0.152   1.284  1.00  0.00     0.118 C 
BRANCH  21  22
HETATM   22  C5  UNL     1       2.374   0.980   0.813  1.00  0.00     0.020 C 
BRANCH  22  23
HETATM   23  C6  UNL     1       3.168   1.456   1.995  1.00  0.00     0.002 C 
BRANCH  23  24
HETATM   24  C7  UNL     1       4.354   2.273   1.616  1.00  0.00     0.005 C 
BRANCH  24  25
HETATM   25  C8  UNL     1       5.288   1.437   0.756  1.00  0.00     0.045 C 
BRANCH  25  26
HETATM   26  C9  UNL     1       6.504   2.241   0.347  1.00  0.00     0.079 C 
BRANCH  26  27
HETATM   27  N2  UNL     1       7.390   1.593  -0.443  1.00  0.00    -0.204 N 
ATOM     28  H2  UNL     1       8.078   2.284  -0.742  1.00  0.00     0.183 HD
BRANCH  27  29
HETATM   29  C10 UNL     1       7.713   0.532  -0.948  1.00  0.00     0.710 A 
HETATM   30  N3  UNL     1       8.848   0.503  -1.751  1.00  0.00    -0.021 N 
HETATM   31  C11 UNL     1       9.304  -0.577  -2.350  1.00  0.00     0.705 A 
ATOM     32  H3  UNL     1       9.360   1.375  -1.885  1.00  0.00     0.203 HD
HETATM   33  N5  UNL     1       8.643  -1.737  -2.188  1.00  0.00    -0.022 N 
HETATM   34  C12 UNL     1       7.547  -1.797  -1.436  1.00  0.00     0.705 A 
ATOM     35  H5  UNL     1       8.986  -2.581  -2.647  1.00  0.00     0.203 HD
HETATM   36  N7  UNL     1       7.106  -0.680  -0.838  1.00  0.00    -0.021 N 
ATOM     37  H7  UNL     1       6.264  -0.744  -0.266  1.00  0.00     0.203 HD
BRANCH  31  38
HETATM   38  N4  UNL     1      10.372  -0.542  -3.092  1.00  0.00    -0.234 N 
ATOM     39  H42 UNL     1      10.873   0.338  -3.215  1.00  0.00     0.174 HD
ATOM     40  H41 UNL     1      10.725  -1.379  -3.556  1.00  0.00     0.174 HD
ENDBRANCH  31  38
BRANCH  34  41
HETATM   41  N6  UNL     1       6.891  -2.921  -1.264  1.00  0.00    -0.234 N 
ATOM     42  H62 UNL     1       7.226  -3.770  -1.719  1.00  0.00     0.174 HD
ATOM     43  H61 UNL     1       6.051  -2.967  -0.688  1.00  0.00     0.174 HD
ENDBRANCH  34  41
ENDBRANCH  27  29
ENDBRANCH  26  27
ENDBRANCH  25  26
ENDBRANCH  24  25
ENDBRANCH  23  24
ENDBRANCH  22  23
ENDBRANCH  21  22
ENDBRANCH  19  21
ENDBRANCH  18  19
ENDBRANCH  16  18
ENDBRANCH  15  16
ENDBRANCH  14  15
ENDBRANCH   1  14
TORSDOF 16
