REMARK  4 active torsions:
REMARK  status: ('A' for Active; 'I' for Inactive)
REMARK    1  A    between atoms: C2_2  and  C4_4 
REMARK    2  A    between atoms: C4_4  and  O1_11 
REMARK    3  A    between atoms: N1_5  and  N2_7 
REMARK    4  A    between atoms: O1_11  and  C7_12 
ROOT
HETATM    1  N2  UNL     1       2.297   1.668   0.159  1.00  0.00    -0.231 N 
HETATM    2  C5  UNL     1       3.212   2.266   1.126  1.00  0.00     0.191 C 
HETATM    3  C6  UNL     1       2.569   1.849  -1.204  1.00  0.00     0.200 C 
HETATM    4  N3  UNL     1       2.796   1.983  -2.336  1.00  0.00    -0.170 NA
ENDROOT
BRANCH   1   5
HETATM    5  N1  UNL     1       1.168   0.926   0.572  1.00  0.00    -0.272 N 
HETATM    6  C4  UNL     1       1.281  -0.345   0.734  1.00  0.00     0.137 C 
ATOM      7  H1  UNL     1       0.276   1.392   0.739  1.00  0.00     0.189 HD
BRANCH   6   8
HETATM    8  C2  UNL     1       2.564  -1.068   0.501  1.00  0.00     0.054 C 
HETATM    9  C1  UNL     1       2.446  -2.106  -0.561  1.00  0.00     0.018 C 
HETATM   10  C3  UNL     1       3.000  -1.755   1.781  1.00  0.00     0.018 C 
ENDBRANCH   6   8
BRANCH   6  11
HETATM   11  O1  UNL     1       0.137  -0.995   1.137  1.00  0.00    -0.332 OA
BRANCH  11  12
HETATM   12  C7  UNL     1      -1.112  -0.687   0.661  1.00  0.00     0.134 C 
HETATM   13  C8  UNL     1      -1.641   0.685   0.870  1.00  0.00     0.065 C 
HETATM   14  C9  UNL     1      -3.167   0.611   0.709  1.00  0.00     0.189 C 
HETATM   15  C10 UNL     1      -3.634   1.481  -0.466  1.00  0.00     0.035 C 
HETATM   16  N4  UNL     1      -3.564  -0.704   0.182  1.00  0.00    -0.067 N 
HETATM   17  C11 UNL     1      -2.995   0.687  -1.615  1.00  0.00     0.035 C 
HETATM   18  C12 UNL     1      -2.808  -0.716  -1.078  1.00  0.00     0.189 C 
HETATM   19  C13 UNL     1      -1.327  -1.022  -0.809  1.00  0.00     0.065 C 
ATOM     20  H42 UNL     1      -3.405  -1.498   0.803  1.00  0.00     0.278 HD
ATOM     21  H41 UNL     1      -4.568  -0.864   0.099  1.00  0.00     0.278 HD
ENDBRANCH  11  12
ENDBRANCH   6  11
ENDBRANCH   1   5
TORSDOF 4
