REMARK  4 active torsions:
REMARK  status: ('A' for Active; 'I' for Inactive)
REMARK    1  A    between atoms: C2_2  and  O1_5 
REMARK    2  A    between atoms: O1_5  and  N1_6 
REMARK    3  A    between atoms: C6_8  and  O2_9 
REMARK    4  A    between atoms: C7_11  and  O3_12 
ROOT
HETATM    1  N1  UNL     1       0.495  -0.544   0.897  1.00  0.00    -0.063 NA
HETATM    2  C5  UNL     1       1.350   0.540   1.342  1.00  0.00     0.190 C 
HETATM    3  C6  UNL     1       2.439   0.640   0.314  1.00  0.00     0.192 C 
HETATM    4  C7  UNL     1       2.115  -0.555  -0.582  1.00  0.00     0.311 C 
HETATM    5  O4  UNL     1       0.768  -0.709  -0.390  1.00  0.00    -0.243 OA
ENDROOT
BRANCH   1   6
HETATM    6  O1  UNL     1      -0.770  -0.339   1.197  1.00  0.00    -0.269 OA
BRANCH   6   7
HETATM    7  C2  UNL     1      -1.641  -0.190   0.150  1.00  0.00     0.074 C 
HETATM    8  C1  UNL     1      -1.699  -1.385  -0.770  1.00  0.00     0.047 C 
HETATM    9  C3  UNL     1      -1.457   1.100  -0.592  1.00  0.00     0.047 C 
HETATM   10  C4  UNL     1      -3.040  -0.107   0.789  1.00  0.00     0.047 C 
ENDBRANCH   6   7
ENDBRANCH   1   6
BRANCH   3  11
HETATM   11  O2  UNL     1       3.706   0.368   0.860  1.00  0.00    -0.389 OA
ATOM     12  H2  UNL     1       4.395   0.431   0.209  1.00  0.00     0.210 HD
ENDBRANCH   3  11
BRANCH   4  13
HETATM   13  O3  UNL     1       2.320  -0.227  -1.928  1.00  0.00    -0.367 OA
ATOM     14  H3  UNL     1       2.119  -0.970  -2.485  1.00  0.00     0.212 HD
ENDBRANCH   4  13
TORSDOF 4
