REMARK  4 active torsions:
REMARK  status: ('A' for Active; 'I' for Inactive)
REMARK    1  A    between atoms: O1_2  and  C2_3 
REMARK    2  A    between atoms: C2_3  and  O2_4 
REMARK    3  A    between atoms: C2_3  and  C3_6 
REMARK    4  A    between atoms: C7_12  and  O5_13 
ROOT
HETATM    1  C3  UNL     1       0.246  -0.682   0.002  1.00  0.00     0.235 C 
HETATM    2  O3  UNL     1      -0.664  -0.053  -0.850  1.00  0.00    -0.341 OA
HETATM    3  C4  UNL     1      -1.754   0.145  -0.032  1.00  0.00     0.161 C 
HETATM    4  C5  UNL     1      -2.606   1.319  -0.458  1.00  0.00     0.078 C 
HETATM    5  C6  UNL     1      -2.662  -1.078   0.026  1.00  0.00     0.078 C 
HETATM    6  O4  UNL     1      -1.318   0.376   1.258  1.00  0.00    -0.324 OA
HETATM    7  C7  UNL     1       0.079   0.155   1.248  1.00  0.00     0.294 C 
ENDROOT
BRANCH   1   8
HETATM    8  C2  UNL     1       1.634  -0.690  -0.554  1.00  0.00     0.289 C 
BRANCH   8   9
HETATM    9  O1  UNL     1       2.166   0.569  -0.788  1.00  0.00    -0.363 OA
HETATM   10  C1  UNL     1       3.392   0.766  -0.204  1.00  0.00     0.204 C 
ENDBRANCH   8   9
BRANCH   8  11
HETATM   11  O2  UNL     1       1.545  -1.383  -1.788  1.00  0.00    -0.368 OA
ATOM     12  H2  UNL     1       1.181  -2.246  -1.628  1.00  0.00     0.212 HD
ENDBRANCH   8  11
ENDBRANCH   1   8
BRANCH   7  13
HETATM   13  O5  UNL     1       0.652   1.410   1.141  1.00  0.00    -0.368 OA
ATOM     14  H5  UNL     1       0.547   1.936   1.925  1.00  0.00     0.212 HD
ENDBRANCH   7  13
TORSDOF 4
