REMARK  7 active torsions:
REMARK  status: ('A' for Active; 'I' for Inactive)
REMARK    1  A    between atoms: C2_2  and  C3_4 
REMARK    2  A    between atoms: C3_4  and  C5_7 
REMARK    3  A    between atoms: C5_7  and  C6_9 
REMARK       I    between atoms: C6_9  and  N2_11 
REMARK    4  A    between atoms: N2_11  and  C7_13 
REMARK    5  A    between atoms: C10_16  and  S1_17 
REMARK    6  A    between atoms: S1_17  and  N3_20 
REMARK    7  A    between atoms: N3_20  and  C11_22 
ROOT
HETATM    1  C3  UNL     1      -5.234   1.222  -1.099  1.00  0.00     0.241 C 
HETATM    2  C4  UNL     1      -5.258   2.251  -0.031  1.00  0.00     0.080 C 
HETATM    3  N1  UNL     1      -5.266   3.045   0.808  1.00  0.00    -0.196 NA
ENDROOT
BRANCH   1   4
HETATM    4  C2  UNL     1      -6.642   0.745  -1.231  1.00  0.00     0.148 C 
HETATM    5  C1  UNL     1      -7.388   0.121  -0.122  1.00  0.00     0.093 C 
HETATM    6  O1  UNL     1      -7.234   0.865  -2.303  1.00  0.00    -0.296 OA
ENDBRANCH   1   4
BRANCH   1   7
HETATM    7  C5  UNL     1      -4.356   0.097  -0.704  1.00  0.00     0.241 C 
HETATM    8  O2  UNL     1      -4.824  -1.058  -0.529  1.00  0.00    -0.285 OA
BRANCH   7   9
HETATM    9  C6  UNL     1      -2.911   0.349  -0.516  1.00  0.00     0.293 C 
HETATM   10  O3  UNL     1      -2.524   1.505  -0.705  1.00  0.00    -0.264 OA
HETATM   11  N2  UNL     1      -2.101  -0.725  -0.144  1.00  0.00    -0.321 N 
ATOM     12  H2  UNL     1      -2.531  -1.642  -0.022  1.00  0.00     0.169 HD
BRANCH  11  13
HETATM   13  C7  UNL     1      -0.705  -0.594   0.071  1.00  0.00     0.035 A 
HETATM   14  C8  UNL     1       0.100  -1.751   0.025  1.00  0.00     0.031 A 
HETATM   15  C9  UNL     1       1.439  -1.763   0.237  1.00  0.00     0.027 A 
HETATM   16  C10 UNL     1       2.048  -0.559   0.516  1.00  0.00     0.080 A 
HETATM   17  C14 UNL     1       1.331   0.610   0.578  1.00  0.00     0.027 A 
HETATM   18  C15 UNL     1      -0.053   0.573   0.352  1.00  0.00     0.031 A 
BRANCH  16  19
HETATM   19  S1  UNL     1       3.788  -0.584   0.789  1.00  0.00     0.264 S 
HETATM   20  O4  UNL     1       4.185  -1.827   1.493  1.00  0.00    -0.200 OA
HETATM   21  O5  UNL     1       4.090   0.618   1.661  1.00  0.00    -0.200 OA
BRANCH  19  22
HETATM   22  N3  UNL     1       4.567  -0.353  -0.708  1.00  0.00    -0.260 N 
ATOM     23  H3  UNL     1       4.022  -0.330  -1.570  1.00  0.00     0.181 HD
BRANCH  22  24
HETATM   24  C11 UNL     1       5.874  -0.204  -0.750  1.00  0.00     0.158 A 
HETATM   25  N4  UNL     1       6.722  -0.210   0.278  1.00  0.00    -0.345 N 
HETATM   26  C12 UNL     1       7.991  -0.046   0.042  1.00  0.00     0.097 A 
ATOM     27  H4  UNL     1       6.383  -0.341   1.231  1.00  0.00     0.167 HD
HETATM   28  C13 UNL     1       8.385   0.123  -1.258  1.00  0.00     0.070 A 
HETATM   29  S2  UNL     1       6.897   0.039  -2.092  1.00  0.00    -0.064 SA
ENDBRANCH  22  24
ENDBRANCH  19  22
ENDBRANCH  16  19
ENDBRANCH  11  13
ENDBRANCH   7   9
ENDBRANCH   1   7
TORSDOF 7
