REMARK  3 active torsions:
REMARK  status: ('A' for Active; 'I' for Inactive)
REMARK    1  A    between atoms: C2_3  and  N2_4 
REMARK       I    between atoms: N2_4  and  C3_6 
REMARK    2  A    between atoms: C3_6  and  C4_8 
REMARK    3  A    between atoms: C4_8  and  N3_9 
ROOT
HETATM    1  N1  UNL     1      -0.386   1.886  -2.490  1.00  0.00    -0.195 NA
HETATM    2  C1  UNL     1      -0.594   1.223  -1.571  1.00  0.00     0.091 C 
HETATM    3  C2  UNL     1      -0.887   0.382  -0.410  1.00  0.00     0.122 C 
HETATM    4  C7  UNL     1      -1.925  -0.643  -0.748  1.00  0.00     0.046 C 
HETATM    5  C8  UNL     1      -3.172  -0.557   0.097  1.00  0.00     0.004 C 
HETATM    6  C9  UNL     1      -3.695   0.851   0.080  1.00  0.00     0.000 C 
HETATM    7  C10 UNL     1      -2.692   1.793   0.680  1.00  0.00     0.004 C 
HETATM    8  C11 UNL     1      -1.301   1.309   0.701  1.00  0.00     0.046 C 
ENDROOT
BRANCH   3   9
HETATM    9  N2  UNL     1       0.284  -0.344   0.070  1.00  0.00    -0.338 N 
HETATM   10  C3  UNL     1       0.992  -1.216  -0.793  1.00  0.00     0.240 C 
HETATM   11  O1  UNL     1       0.616  -1.352  -1.996  1.00  0.00    -0.272 OA
ATOM     12  H2  UNL     1       0.595  -0.223   1.034  1.00  0.00     0.164 HD
BRANCH  10  13
HETATM   13  C4  UNL     1       2.166  -1.976  -0.311  1.00  0.00     0.272 C 
BRANCH  13  14
HETATM   14  N3  UNL     1       3.320  -1.147  -0.045  1.00  0.00    -0.226 N 
HETATM   15  N4  UNL     1       3.580  -0.574   1.122  1.00  0.00    -0.294 N 
HETATM   16  C5  UNL     1       4.714   0.131   1.085  1.00  0.00     0.127 A 
ATOM     17  H4  UNL     1       2.987  -0.661   1.947  1.00  0.00     0.187 HD
HETATM   18  C6  UNL     1       5.181  -0.022  -0.205  1.00  0.00     0.127 A 
HETATM   19  N5  UNL     1       4.300  -0.806  -0.852  1.00  0.00    -0.294 N 
ATOM     20  H5  UNL     1       4.381  -1.094  -1.827  1.00  0.00     0.187 HD
ENDBRANCH  13  14
ENDBRANCH  10  13
ENDBRANCH   3   9
TORSDOF 3
