REMARK  5 active torsions:
REMARK  status: ('A' for Active; 'I' for Inactive)
REMARK    1  A    between atoms: C1_2  and  C2_3 
REMARK    2  A    between atoms: C1_2  and  C9_11 
REMARK    3  A    between atoms: C2_3  and  N1_4 
REMARK    4  A    between atoms: C11_14  and  N2_15 
REMARK    5  A    between atoms: N2_15  and  O2_17 
ROOT
HETATM    1  C9  UNL     1       2.833  -0.404   1.040  1.00  0.00     0.089 A 
HETATM    2  C10 UNL     1       3.604  -1.298   1.762  1.00  0.00     0.086 A 
HETATM    3  S1  UNL     1       5.162  -0.616   1.628  1.00  0.00    -0.062 SA
HETATM    4  C11 UNL     1       4.765   0.745   0.680  1.00  0.00     0.169 A 
HETATM    5  N3  UNL     1       3.463   0.605   0.517  1.00  0.00    -0.332 N 
ATOM      6  H3  UNL     1       2.945   1.296  -0.026  1.00  0.00     0.168 HD
ENDROOT
BRANCH   1   7
HETATM    7  C1  UNL     1       1.376  -0.600   0.881  1.00  0.00     0.204 C 
HETATM    8  O1  UNL     1       0.835  -1.583   1.407  1.00  0.00    -0.289 OA
BRANCH   7   9
HETATM    9  C2  UNL     1       0.604   0.364   0.111  1.00  0.00     0.357 C 
BRANCH   9  10
HETATM   10  N1  UNL     1      -0.785   0.075  -0.062  1.00  0.00     0.095 N 
HETATM   11  C3  UNL     1      -1.478   1.126  -0.795  1.00  0.00     0.273 C 
HETATM   12  C4  UNL     1      -2.792   1.428  -0.151  1.00  0.00     0.030 C 
HETATM   13  C5  UNL     1      -3.888   0.479  -0.477  1.00  0.00     0.002 C 
HETATM   14  C6  UNL     1      -3.448  -0.782  -1.163  1.00  0.00     0.002 C 
HETATM   15  C7  UNL     1      -2.469  -1.581  -0.323  1.00  0.00     0.030 C 
HETATM   16  C8  UNL     1      -1.068  -1.150  -0.765  1.00  0.00     0.273 C 
ENDBRANCH   9  10
ENDBRANCH   7   9
ENDBRANCH   1   7
BRANCH   4  17
HETATM   17  N2  UNL     1       5.550   1.702   0.220  1.00  0.00    -0.247 N 
ATOM     18  H2  UNL     1       5.195   2.475  -0.343  1.00  0.00     0.196 HD
BRANCH  17  19
HETATM   19  O2  UNL     1       6.878   1.585   0.552  1.00  0.00    -0.288 OA
ATOM     20  H2  UNL     1       7.443   2.273   0.221  1.00  0.00     0.244 HD
ENDBRANCH  17  19
ENDBRANCH   4  17
TORSDOF 5
