REMARK  4 active torsions:
REMARK  status: ('A' for Active; 'I' for Inactive)
REMARK    1  A    between atoms: C1_2  and  C2_3 
REMARK       I    between atoms: C1_2  and  N5_19 
REMARK    2  A    between atoms: C2_3  and  C3_4 
REMARK    3  A    between atoms: C5_8  and  N2_9 
REMARK    4  A    between atoms: N5_19  and  C11_21 
ROOT
HETATM    1  C3  UNL     1       0.031   0.450   0.817  1.00  0.00     0.104 A 
HETATM    2  N1  UNL     1      -0.626  -0.586   1.350  1.00  0.00    -0.351 N 
ATOM      3  H1  UNL     1      -0.120  -1.240   1.947  1.00  0.00     0.166 HD
HETATM    4  C4  UNL     1      -1.950  -0.791   1.118  1.00  0.00     0.139 A 
HETATM    5  C5  UNL     1      -2.651   0.074   0.323  1.00  0.00     0.133 A 
HETATM    6  N3  UNL     1      -1.960   1.125  -0.211  1.00  0.00    -0.283 N 
ATOM      7  H3  UNL     1      -2.441   1.795  -0.811  1.00  0.00     0.188 HD
HETATM    8  N4  UNL     1      -0.681   1.278   0.043  1.00  0.00    -0.287 N 
ATOM      9  H4  UNL     1      -0.201   2.075  -0.374  1.00  0.00     0.188 HD
ENDROOT
BRANCH   1  10
HETATM   10  C2  UNL     1       1.483   0.649   1.088  1.00  0.00     0.180 C 
BRANCH  10  11
HETATM   11  C1  UNL     1       2.311  -0.042   0.085  1.00  0.00     0.225 C 
HETATM   12  O1  UNL     1       1.858  -0.712  -0.876  1.00  0.00    -0.273 OA
HETATM   13  N5  UNL     1       3.724   0.049   0.200  1.00  0.00    -0.356 N 
ATOM     14  H5  UNL     1       4.117   0.588   0.971  1.00  0.00     0.162 HD
BRANCH  13  15
HETATM   15  C11 UNL     1       4.635  -0.595  -0.737  1.00  0.00     0.084 C 
HETATM   16  C12 UNL     1       5.513   0.462  -1.406  1.00  0.00     0.025 C 
HETATM   17  C13 UNL     1       6.561   0.686  -0.314  1.00  0.00     0.002 C 
HETATM   18  C14 UNL     1       6.937  -0.743   0.016  1.00  0.00     0.002 C 
HETATM   19  C15 UNL     1       5.614  -1.454   0.025  1.00  0.00     0.025 C 
ENDBRANCH  13  15
ENDBRANCH  10  11
ENDBRANCH   1  10
BRANCH   5  20
HETATM   20  N2  UNL     1      -4.056  -0.056   0.026  1.00  0.00    -0.365 N 
HETATM   21  C6  UNL     1      -4.636   0.808  -0.984  1.00  0.00     0.124 C 
HETATM   22  C7  UNL     1      -6.028   1.276  -0.641  1.00  0.00     0.020 C 
HETATM   23  C8  UNL     1      -6.839   0.120  -0.090  1.00  0.00     0.003 C 
HETATM   24  C9  UNL     1      -6.144  -0.336   1.159  1.00  0.00     0.020 C 
HETATM   25  C10 UNL     1      -4.839  -1.022   0.727  1.00  0.00     0.124 C 
ENDBRANCH   5  20
TORSDOF 4
