REMARK  5 active torsions:
REMARK  status: ('A' for Active; 'I' for Inactive)
REMARK    1  A    between atoms: O1_2  and  C2_3 
REMARK    2  A    between atoms: C3_5  and  N1_6 
REMARK    3  A    between atoms: N1_6  and  C4_9 
REMARK    4  A    between atoms: C8_15  and  O2_16 
REMARK    5  A    between atoms: C9_18  and  O3_19 
ROOT
HETATM    1  C2  UNL     1      -2.512  -0.427   0.811  1.00  0.00     0.215 C 
HETATM    2  S1  UNL     1      -0.957  -0.649   1.711  1.00  0.00    -0.099 SA
HETATM    3  C3  UNL     1       0.168   0.014   0.413  1.00  0.00     0.283 C 
HETATM    4  C8  UNL     1      -0.777   0.460  -0.670  1.00  0.00     0.191 C 
HETATM    5  C9  UNL     1      -1.994  -0.415  -0.609  1.00  0.00     0.188 C 
ENDROOT
BRANCH   3   6
HETATM    6  N1  UNL     1       1.144  -0.931   0.047  1.00  0.00    -0.039 N 
ATOM      7  H12 UNL     1       1.615  -1.303   0.871  1.00  0.00     0.281 HD
ATOM      8  H11 UNL     1       0.709  -1.786  -0.299  1.00  0.00     0.281 HD
BRANCH   6   9
HETATM    9  C4  UNL     1       2.085  -0.430  -0.889  1.00  0.00     0.285 C 
HETATM   10  C5  UNL     1       2.951   0.693  -0.410  1.00  0.00     0.059 C 
HETATM   11  C6  UNL     1       4.144  -0.025   0.175  1.00  0.00     0.048 C 
HETATM   12  C7  UNL     1       4.147  -1.287  -0.614  1.00  0.00     0.057 C 
HETATM   13  N2  UNL     1       3.027  -1.471  -1.171  1.00  0.00    -0.376 N 
ATOM     14  H2  UNL     1       2.816  -2.277  -1.760  1.00  0.00     0.160 HD
ENDBRANCH   6   9
ENDBRANCH   3   6
BRANCH   4  15
HETATM   15  O2  UNL     1      -1.131   1.791  -0.562  1.00  0.00    -0.390 OA
ATOM     16  H2  UNL     1      -1.728   2.073  -1.246  1.00  0.00     0.210 HD
ENDBRANCH   4  15
BRANCH   1  17
HETATM   17  O1  UNL     1      -3.124   0.784   1.126  1.00  0.00    -0.378 OA
HETATM   18  C1  UNL     1      -4.440   0.539   1.548  1.00  0.00     0.203 C 
ENDBRANCH   1  17
BRANCH   5  19
HETATM   19  O3  UNL     1      -2.982   0.098  -1.426  1.00  0.00    -0.389 OA
ATOM     20  H3  UNL     1      -2.656   0.106  -2.318  1.00  0.00     0.210 HD
ENDBRANCH   5  19
TORSDOF 5
