REMARK  6 active torsions:
REMARK  status: ('A' for Active; 'I' for Inactive)
REMARK    1  A    between atoms: C2_2  and  C3_3 
REMARK    2  A    between atoms: C7_10  and  C8_11 
REMARK    3  A    between atoms: C8_11  and  N3_12 
REMARK    4  A    between atoms: N3_12  and  C9_15 
REMARK    5  A    between atoms: C13_22  and  N5_23 
REMARK    6  A    between atoms: C16_26  and  O1_27 
ROOT
HETATM    1  C9  UNL     1      -0.498  -0.225   0.154  1.00  0.00     0.222 C 
HETATM    2  C10 UNL     1       0.211  -1.070   1.230  1.00  0.00     0.062 C 
HETATM    3  C11 UNL     1      -0.186  -2.528   1.050  1.00  0.00     0.234 C 
HETATM    4  N4  UNL     1      -1.554  -2.626   1.449  1.00  0.00    -0.073 N 
ATOM      5  H41 UNL     1      -1.629  -2.883   2.433  1.00  0.00     0.277 HD
ATOM      6  H42 UNL     1      -1.998  -3.443   1.029  1.00  0.00     0.277 HD
HETATM    7  C12 UNL     1      -2.327  -1.402   1.164  1.00  0.00     0.270 C 
HETATM    8  C13 UNL     1      -1.777  -0.777  -0.121  1.00  0.00     0.278 C 
ENDROOT
BRANCH   1   9
HETATM    9  N3  UNL     1       0.524  -0.042  -0.898  1.00  0.00    -0.065 N 
ATOM     10  H32 UNL     1       0.172   0.316  -1.786  1.00  0.00     0.278 HD
ATOM     11  H31 UNL     1       0.904  -0.905  -1.288  1.00  0.00     0.278 HD
BRANCH   9  12
HETATM   12  C8  UNL     1       1.501   0.819  -0.222  1.00  0.00     0.275 C 
BRANCH  12  13
HETATM   13  C7  UNL     1       2.897   0.387  -0.139  1.00  0.00     0.015 A 
HETATM   14  C3  UNL     1       3.767   1.037   0.748  1.00  0.00     0.035 A 
HETATM   15  N1  UNL     1       4.965   0.352   0.681  1.00  0.00    -0.302 N 
HETATM   16  N2  UNL     1       4.808  -0.624  -0.162  1.00  0.00    -0.300 N 
ATOM     17  H1  UNL     1       5.816   0.572   1.198  1.00  0.00     0.186 HD
HETATM   18  C4  UNL     1       5.839  -1.614  -0.396  1.00  0.00     0.177 C 
HETATM   19  C5  UNL     1       3.548  -0.671  -0.718  1.00  0.00     0.034 A 
HETATM   20  C6  UNL     1       3.208  -1.611  -1.779  1.00  0.00     0.070 C 
BRANCH  14  21
HETATM   21  C2  UNL     1       3.493   2.234   1.536  1.00  0.00     0.055 C 
HETATM   22  C1  UNL     1       4.067   3.408   0.774  1.00  0.00     0.011 C 
ENDBRANCH  14  21
ENDBRANCH  12  13
ENDBRANCH   9  12
ENDBRANCH   1   9
BRANCH   8  23
HETATM   23  N5  UNL     1      -2.717   0.130  -0.753  1.00  0.00     0.097 N 
HETATM   24  C14 UNL     1      -2.938   1.333  -0.079  1.00  0.00     0.275 C 
HETATM   25  C15 UNL     1      -4.153   1.490   0.792  1.00  0.00     0.062 C 
HETATM   26  C16 UNL     1      -5.331   1.226  -0.158  1.00  0.00     0.121 C 
HETATM   27  C17 UNL     1      -5.168  -0.245  -0.493  1.00  0.00     0.062 C 
HETATM   28  C18 UNL     1      -3.888  -0.578  -1.142  1.00  0.00     0.275 C 
BRANCH  26  29
HETATM   29  O1  UNL     1      -6.525   1.481   0.459  1.00  0.00    -0.395 OA
ATOM     30  H1  UNL     1      -7.253   1.318  -0.128  1.00  0.00     0.210 HD
ENDBRANCH  26  29
ENDBRANCH   8  23
TORSDOF 6
