REMARK  6 active torsions:
REMARK  status: ('A' for Active; 'I' for Inactive)
REMARK    1  A    between atoms: C3_5  and  C4_6 
REMARK    2  A    between atoms: C3_5  and  N4_17 
REMARK    3  A    between atoms: C4_6  and  C5_8 
REMARK    4  A    between atoms: C5_8  and  N3_9 
REMARK    5  A    between atoms: C5_8  and  C8_14 
REMARK       I    between atoms: N3_9  and  C6_11 
REMARK       I    between atoms: N5_20  and  C13_21 
REMARK    6  A    between atoms: C15_27  and  C16_28 
ROOT
HETATM    1  C1  UNL     1       0.081  -4.095  -1.859  1.00  0.00     0.037 C 
HETATM    2  C2  UNL     1      -0.380  -3.047  -1.493  1.00  0.00     0.001 C 
HETATM    3  N1  UNL     1      -0.927  -1.872  -1.086  1.00  0.00    -0.300 N 
ATOM      4  H1  UNL     1      -1.938  -1.816  -1.206  1.00  0.00     0.177 HD
HETATM    5  C3  UNL     1      -0.404  -0.832  -0.583  1.00  0.00     0.138 C 
ENDROOT
BRANCH   5   6
HETATM    6  C4  UNL     1      -1.096   0.390  -0.176  1.00  0.00     0.117 C 
HETATM    7  N2  UNL     1      -0.988   1.387  -1.248  1.00  0.00    -0.096 NA
BRANCH   6   8
HETATM    8  C5  UNL     1      -2.399   0.369   0.479  1.00  0.00     0.064 C 
BRANCH   8   9
HETATM    9  N3  UNL     1      -2.864   1.742   0.763  1.00  0.00    -0.326 N 
HETATM   10  C6  UNL     1      -2.978   2.296   2.036  1.00  0.00     0.218 C 
HETATM   11  C7  UNL     1      -3.454   3.684   2.215  1.00  0.00     0.117 C 
HETATM   12  O1  UNL     1      -2.673   1.613   3.044  1.00  0.00    -0.274 OA
ATOM     13  H3  UNL     1      -3.121   2.328  -0.032  1.00  0.00     0.169 HD
ENDBRANCH   8   9
BRANCH   8  14
HETATM   14  C8  UNL     1      -3.509  -0.496   0.031  1.00  0.00    -0.059 C 
HETATM   15  C9  UNL     1      -3.956  -0.342  -1.388  1.00  0.00     0.045 C 
HETATM   16  C10 UNL     1      -3.543  -1.870   0.590  1.00  0.00     0.045 C 
ENDBRANCH   8  14
ENDBRANCH   6   8
ENDBRANCH   5   6
BRANCH   5  17
HETATM   17  N4  UNL     1       1.054  -0.890  -0.457  1.00  0.00    -0.347 N 
HETATM   18  C11 UNL     1       1.662  -1.601   0.639  1.00  0.00     0.145 C 
HETATM   19  C12 UNL     1       2.962  -1.021   1.079  1.00  0.00     0.145 C 
HETATM   20  N5  UNL     1       3.401   0.163   0.433  1.00  0.00    -0.352 N 
HETATM   21  C13 UNL     1       4.668   0.752   0.804  1.00  0.00     0.184 C 
HETATM   22  C14 UNL     1       2.675   0.847  -0.585  1.00  0.00     0.162 C 
HETATM   23  N6  UNL     1       5.727   0.625   0.086  1.00  0.00    -0.374 N 
HETATM   24  N7  UNL     1       4.758   1.503   2.006  1.00  0.00    -0.064 NA
ATOM     25  H62 UNL     1       5.662   0.086  -0.777  1.00  0.00     0.158 HD
ATOM     26  H61 UNL     1       6.621   1.041   0.348  1.00  0.00     0.158 HD
HETATM   27  C15 UNL     1       1.924  -0.236  -1.388  1.00  0.00     0.205 C 
BRANCH  27  28
HETATM   28  C16 UNL     1       2.970  -1.082  -1.977  1.00  0.00     0.198 C 
HETATM   29  O2  UNL     1       3.201  -2.271  -1.744  1.00  0.00    -0.646 OA
HETATM   30  O3  UNL     1       3.807  -0.458  -2.922  1.00  0.00    -0.646 OA
ENDBRANCH  27  28
ENDBRANCH   5  17
TORSDOF 6
