REMARK  4 active torsions:
REMARK  status: ('A' for Active; 'I' for Inactive)
REMARK    1  A    between atoms: N1_1  and  C1_5 
REMARK    2  A    between atoms: C4_8  and  N2_9 
REMARK    3  A    between atoms: N3_13  and  C5_14 
REMARK    4  A    between atoms: C16_32  and  N6_33 
ROOT
HETATM    1  C5  UNL     1      -1.821   0.334   0.080  1.00  0.00     0.149 C 
HETATM    2  C6  UNL     1      -1.916   1.293  -1.097  1.00  0.00     0.033 C 
HETATM    3  C7  UNL     1      -2.274   2.699  -0.702  1.00  0.00     0.002 C 
HETATM    4  C8  UNL     1      -1.309   3.396   0.189  1.00  0.00     0.000 C 
HETATM    5  C9  UNL     1      -0.380   4.358  -0.456  1.00  0.00     0.006 C 
HETATM    6  C10 UNL     1       0.771   3.819  -1.214  1.00  0.00     0.080 C 
HETATM    7  C11 UNL     1       2.007   3.508  -0.411  1.00  0.00     0.252 C 
HETATM    8  F1  UNL     1       1.830   2.814   0.729  1.00  0.00    -0.206 F 
HETATM    9  F2  UNL     1       2.531   4.753  -0.024  1.00  0.00    -0.206 F 
HETATM   10  C12 UNL     1       3.027   2.856  -1.273  1.00  0.00     0.159 C 
HETATM   11  S1  UNL     1       2.993   1.102  -1.448  1.00  0.00    -0.104 SA
HETATM   12  C13 UNL     1       1.846   0.199  -0.472  1.00  0.00     0.099 A 
HETATM   13  N4  UNL     1       0.541   0.472  -0.488  1.00  0.00    -0.337 N 
ATOM     14  H4  UNL     1       0.241   1.230  -1.101  1.00  0.00     0.168 HD
HETATM   15  C14 UNL     1      -0.413  -0.140   0.212  1.00  0.00     0.105 A 
HETATM   16  N5  UNL     1      -0.019  -1.136   1.014  1.00  0.00    -0.352 N 
ATOM     17  H5  UNL     1      -0.709  -1.639   1.572  1.00  0.00     0.166 HD
HETATM   18  C15 UNL     1       1.293  -1.484   1.092  1.00  0.00     0.121 A 
HETATM   19  C16 UNL     1       2.273  -0.833   0.355  1.00  0.00     0.080 A 
ENDROOT
BRANCH   1  20
HETATM   20  N3  UNL     1      -2.800  -0.689   0.061  1.00  0.00    -0.373 N 
HETATM   21  C4  UNL     1      -2.788  -1.620  -1.005  1.00  0.00     0.280 C 
HETATM   22  C3  UNL     1      -3.062  -3.002  -0.430  1.00  0.00     0.056 C 
HETATM   23  C2  UNL     1      -4.379  -3.013   0.334  1.00  0.00     0.038 C 
HETATM   24  C1  UNL     1      -4.483  -1.857   1.284  1.00  0.00     0.201 C 
HETATM   25  C21 UNL     1      -3.094  -1.218   1.363  1.00  0.00     0.152 C 
BRANCH  21  26
HETATM   26  N2  UNL     1      -3.873  -1.329  -1.922  1.00  0.00    -0.059 N 
ATOM     27  H23 UNL     1      -3.999  -2.045  -2.637  1.00  0.00     0.276 HD
ATOM     28  H22 UNL     1      -4.795  -1.412  -1.494  1.00  0.00     0.276 HD
ATOM     29  H21 UNL     1      -3.689  -0.403  -2.307  1.00  0.00     0.276 HD
ENDBRANCH  21  26
BRANCH  24  30
HETATM   30  N1  UNL     1      -4.917  -2.242   2.618  1.00  0.00    -0.073 N 
ATOM     31  H13 UNL     1      -5.797  -2.757   2.577  1.00  0.00     0.274 HD
ATOM     32  H12 UNL     1      -4.312  -2.970   2.999  1.00  0.00     0.274 HD
ATOM     33  H11 UNL     1      -4.988  -1.456   3.264  1.00  0.00     0.274 HD
ENDBRANCH  24  30
ENDBRANCH   1  20
BRANCH  19  34
HETATM   34  N6  UNL     1       3.645  -1.222   0.461  1.00  0.00    -0.373 N 
HETATM   35  C17 UNL     1       4.684  -0.359   0.957  1.00  0.00     0.149 C 
HETATM   36  C18 UNL     1       5.905  -1.263   1.213  1.00  0.00     0.187 C 
HETATM   37  O1  UNL     1       6.306  -1.732  -0.029  1.00  0.00    -0.388 OA
HETATM   38  C19 UNL     1       5.399  -2.634  -0.512  1.00  0.00     0.187 C 
HETATM   39  C20 UNL     1       4.025  -2.559   0.056  1.00  0.00     0.149 C 
ENDBRANCH  19  34
TORSDOF 4
