REMARK  9 active torsions:
REMARK  status: ('A' for Active; 'I' for Inactive)
REMARK    1  A    between atoms: C3_3  and  N1_4 
REMARK    2  A    between atoms: N1_4  and  C5_6 
REMARK    3  A    between atoms: C5_6  and  C6_7 
REMARK    4  A    between atoms: C6_7  and  N2_8 
REMARK       I    between atoms: N2_8  and  C8_10 
REMARK    5  A    between atoms: C8_10  and  O2_12 
REMARK    6  A    between atoms: O2_12  and  C9_13 
REMARK    7  A    between atoms: C26_31  and  O4_32 
REMARK    8  A    between atoms: C30_37  and  O5_39 
REMARK    9  A    between atoms: C34_43  and  O6_45 
ROOT
HETATM    1  C1  UNL     1       7.304  -2.307  -1.665  1.00  0.00     0.013 C 
HETATM    2  C2  UNL     1       7.239  -1.584  -0.713  1.00  0.00    -0.087 C 
HETATM    3  C3  UNL     1       7.155  -0.673   0.444  1.00  0.00     0.364 C 
ENDROOT
BRANCH   3   4
HETATM    4  N1  UNL     1       5.942   0.178   0.262  1.00  0.00     0.096 N 
HETATM    5  C4  UNL     1       6.327   1.001  -0.902  1.00  0.00     0.311 C 
BRANCH   4   6
HETATM    6  C5  UNL     1       5.878   0.979   1.440  1.00  0.00     0.293 C 
BRANCH   6   7
HETATM    7  C6  UNL     1       4.672   1.825   1.634  1.00  0.00     0.157 C 
BRANCH   7   8
HETATM    8  N2  UNL     1       3.431   1.158   1.762  1.00  0.00    -0.331 N 
HETATM    9  C7  UNL     1       3.030   0.729   3.112  1.00  0.00     0.155 C 
HETATM   10  C8  UNL     1       2.562   0.878   0.699  1.00  0.00     0.362 C 
HETATM   11  O1  UNL     1       2.833   1.235  -0.458  1.00  0.00    -0.238 OA
BRANCH  10  12
HETATM   12  O2  UNL     1       1.368   0.200   0.861  1.00  0.00    -0.298 OA
BRANCH  12  13
HETATM   13  C9  UNL     1       0.443  -0.095  -0.217  1.00  0.00     0.141 C 
HETATM   14  C10 UNL     1       0.596  -1.514  -0.456  1.00  0.00     0.065 C 
HETATM   15  C11 UNL     1       0.045  -2.555   0.407  1.00  0.00     0.136 C 
HETATM   16  O3  UNL     1      -1.148  -2.402   1.006  1.00  0.00    -0.366 OA
HETATM   17  C29 UNL     1      -0.605  -3.656  -0.454  1.00  0.00     0.090 C 
HETATM   18  C12 UNL     1      -1.895  -3.087   0.063  1.00  0.00     0.118 C 
HETATM   19  C13 UNL     1      -2.603  -2.272  -0.919  1.00  0.00     0.011 C 
HETATM   20  C34 UNL     1      -2.694  -4.263   0.577  1.00  0.00     0.089 C 
HETATM   21  C14 UNL     1      -2.282  -0.904  -1.289  1.00  0.00    -0.018 C 
HETATM   22  C15 UNL     1      -2.120   0.203  -0.344  1.00  0.00    -0.020 C 
HETATM   23  C16 UNL     1      -3.110  -0.031   0.800  1.00  0.00     0.020 C 
HETATM   24  C17 UNL     1      -2.763   1.448  -1.022  1.00  0.00     0.019 C 
HETATM   25  C28 UNL     1      -0.781   0.651   0.081  1.00  0.00     0.035 C 
HETATM   26  C18 UNL     1      -2.775   2.526   0.026  1.00  0.00    -0.002 C 
HETATM   27  C19 UNL     1      -3.883   3.535  -0.172  1.00  0.00     0.006 C 
HETATM   28  C25 UNL     1      -1.407   3.132  -0.172  1.00  0.00    -0.003 A 
HETATM   29  C20 UNL     1      -3.338   4.868   0.297  1.00  0.00     0.009 C 
HETATM   30  C21 UNL     1      -2.409   5.339  -0.802  1.00  0.00    -0.047 C 
HETATM   31  C22 UNL     1      -3.277   5.724  -1.982  1.00  0.00     0.015 C 
HETATM   32  C23 UNL     1      -1.638   6.571  -0.392  1.00  0.00     0.015 C 
HETATM   33  C24 UNL     1      -1.510   4.218  -1.240  1.00  0.00     0.021 C 
HETATM   34  C26 UNL     1      -0.329   3.126   0.798  1.00  0.00     0.133 A 
HETATM   35  C27 UNL     1      -0.431   2.105  -0.311  1.00  0.00     0.034 A 
HETATM   36  C33 UNL     1      -2.514  -5.413  -0.430  1.00  0.00     0.044 C 
HETATM   37  C35 UNL     1      -4.161  -4.077   0.687  1.00  0.00     0.049 C 
HETATM   38  C32 UNL     1      -1.215  -6.067  -0.012  1.00  0.00     0.041 C 
HETATM   39  C30 UNL     1      -0.174  -4.985  -0.049  1.00  0.00     0.063 C 
HETATM   40  C31 UNL     1       0.874  -5.469  -1.072  1.00  0.00     0.046 C 
BRANCH  34  41
HETATM   41  O4  UNL     1      -0.501   2.718   2.114  1.00  0.00    -0.394 OA
ATOM     42  H4  UNL     1       0.205   2.714   2.749  1.00  0.00     0.210 HD
ENDBRANCH  34  41
BRANCH  20  43
HETATM   43  O6  UNL     1      -2.246  -4.670   1.842  1.00  0.00    -0.387 OA
ATOM     44  H6  UNL     1      -2.748  -5.409   2.165  1.00  0.00     0.210 HD
ENDBRANCH  20  43
BRANCH  39  45
HETATM   45  O5  UNL     1       0.533  -5.022   1.178  1.00  0.00    -0.390 OA
ATOM     46  H5  UNL     1       0.814  -5.890   1.442  1.00  0.00     0.210 HD
ENDBRANCH  39  45
ENDBRANCH  12  13
ENDBRANCH  10  12
ENDBRANCH   7   8
ENDBRANCH   6   7
ENDBRANCH   4   6
ENDBRANCH   3   4
TORSDOF 9
