REMARK  3 active torsions:
REMARK  status: ('A' for Active; 'I' for Inactive)
REMARK    1  A    between atoms: C2_2  and  C3_3 
REMARK    2  A    between atoms: N5_20  and  C12_21 
REMARK    3  A    between atoms: C12_21  and  C13_22 
ROOT
HETATM    1  C3  UNL     1       3.836  -0.148   0.502  1.00  0.00     0.081 A 
HETATM    2  N1  UNL     1       3.402   1.090   0.148  1.00  0.00    -0.344 N 
ATOM      3  H1  UNL     1       4.018   1.893   0.278  1.00  0.00     0.167 HD
HETATM    4  C4  UNL     1       2.172   1.277  -0.372  1.00  0.00     0.072 A 
HETATM    5  C5  UNL     1       1.366   2.271  -0.841  1.00  0.00     0.035 A 
HETATM    6  C6  UNL     1       1.753   3.698  -0.896  1.00  0.00     0.070 C 
HETATM    7  N2  UNL     1       0.183   1.728  -1.236  1.00  0.00    -0.342 N 
ATOM      8  H2  UNL     1      -0.598   2.255  -1.627  1.00  0.00     0.167 HD
HETATM    9  C7  UNL     1       0.190   0.380  -1.035  1.00  0.00     0.137 A 
HETATM   10  C8  UNL     1       1.434   0.137  -0.501  1.00  0.00     0.067 A 
HETATM   11  C9  UNL     1       1.842  -1.126  -0.153  1.00  0.00     0.073 A 
HETATM   12  N3  UNL     1       3.088  -1.271   0.367  1.00  0.00    -0.343 N 
ATOM     13  H3  UNL     1       3.446  -2.185   0.644  1.00  0.00     0.167 HD
HETATM   14  C10 UNL     1       0.953  -2.157  -0.359  1.00  0.00     0.050 A 
HETATM   15  C11 UNL     1       1.363  -3.521   0.004  1.00  0.00     0.072 C 
HETATM   16  N4  UNL     1      -0.266  -1.851  -0.893  1.00  0.00    -0.299 N 
ATOM     17  H4  UNL     1      -0.920  -2.619  -1.044  1.00  0.00     0.187 HD
HETATM   18  N5  UNL     1      -0.659  -0.645  -1.226  1.00  0.00    -0.275 N 
ENDROOT
BRANCH  18  19
HETATM   19  C12 UNL     1      -1.954  -0.418  -1.774  1.00  0.00     0.155 C 
BRANCH  19  20
HETATM   20  C13 UNL     1      -3.054  -0.159  -0.802  1.00  0.00     0.005 C 
HETATM   21  C14 UNL     1      -2.864   1.045   0.077  1.00  0.00     0.006 C 
HETATM   22  C15 UNL     1      -4.038   1.119   1.025  1.00  0.00     0.000 C 
HETATM   23  C16 UNL     1      -5.197   0.269   0.575  1.00  0.00     0.000 C 
HETATM   24  C17 UNL     1      -4.817  -1.197   0.491  1.00  0.00     0.000 C 
HETATM   25  C18 UNL     1      -3.362  -1.350   0.077  1.00  0.00     0.006 C 
ENDBRANCH  19  20
ENDBRANCH  18  19
BRANCH   1  26
HETATM   26  C2  UNL     1       5.194  -0.298   1.067  1.00  0.00     0.072 C 
HETATM   27  C1  UNL     1       5.885   1.040   1.148  1.00  0.00     0.013 C 
ENDBRANCH   1  26
TORSDOF 3
