REMARK  4 active torsions:
REMARK  status: ('A' for Active; 'I' for Inactive)
REMARK    1  A    between atoms: C7_10  and  N2_11 
REMARK    2  A    between atoms: N3_14  and  C10_15 
REMARK    3  A    between atoms: C10_15  and  C11_16 
REMARK    4  A    between atoms: C11_16  and  C12_17 
ROOT
HETATM    1  C1  UNL     1      -3.558  -1.598   0.024  1.00  0.00     0.033 C 
HETATM    2  C2  UNL     1      -3.592  -0.212  -0.580  1.00  0.00     0.105 C 
HETATM    3  C3  UNL     1      -4.965   0.081  -1.073  1.00  0.00     0.036 C 
HETATM    4  C4  UNL     1      -5.990   0.232   0.034  1.00  0.00     0.083 C 
HETATM    5  S1  UNL     1      -5.518   1.789   0.878  1.00  0.00    -0.110 SA
HETATM    6  C5  UNL     1      -3.716   1.704   0.994  1.00  0.00     0.105 A 
HETATM    7  C6  UNL     1      -2.825   2.470   1.721  1.00  0.00     0.143 A 
HETATM    8  N1  UNL     1      -1.607   1.982   1.451  1.00  0.00    -0.199 N 
ATOM      9  H1  UNL     1      -0.729   2.333   1.834  1.00  0.00     0.183 HD
HETATM   10  C7  UNL     1      -1.730   0.957   0.595  1.00  0.00     0.684 A 
HETATM   11  N4  UNL     1      -3.036   0.783   0.310  1.00  0.00    -0.172 N 
ENDROOT
BRANCH  10  12
HETATM   12  N2  UNL     1      -0.612   0.211   0.102  1.00  0.00    -0.208 N 
HETATM   13  C8  UNL     1      -0.008  -0.876   0.830  1.00  0.00     0.186 C 
HETATM   14  C9  UNL     1       1.499  -0.815   0.801  1.00  0.00     0.088 C 
HETATM   15  N3  UNL     1       2.049  -0.453  -0.435  1.00  0.00    -0.351 N 
HETATM   16  C15 UNL     1       1.432   0.546  -1.195  1.00  0.00     0.088 C 
HETATM   17  C16 UNL     1      -0.064   0.550  -1.186  1.00  0.00     0.186 C 
BRANCH  15  18
HETATM   18  C10 UNL     1       3.070  -1.240  -1.000  1.00  0.00     0.068 C 
BRANCH  18  19
HETATM   19  C11 UNL     1       4.379  -1.161  -0.217  1.00  0.00     0.049 C 
BRANCH  19  20
HETATM   20  C12 UNL     1       4.893   0.257  -0.167  1.00  0.00    -0.010 A 
HETATM   21  C13 UNL     1       6.169   0.419   0.584  1.00  0.00     0.005 A 
HETATM   22  C14 UNL     1       4.845   1.005   1.100  1.00  0.00     0.005 A 
ENDBRANCH  19  20
ENDBRANCH  18  19
ENDBRANCH  15  18
ENDBRANCH  10  12
TORSDOF 4
