REMARK  14 active torsions:
REMARK  status: ('A' for Active; 'I' for Inactive)
REMARK    1  A    between atoms: C2_5  and  C3_6 
REMARK       I    between atoms: C3_6  and  N2_8 
REMARK    2  A    between atoms: N2_8  and  C4_10 
REMARK    3  A    between atoms: C4_10  and  C5_11 
REMARK    4  A    between atoms: N3_13  and  C7_14 
REMARK    5  A    between atoms: C8_16  and  C9_17 
REMARK    6  A    between atoms: C10_20  and  O5_21 
REMARK    7  A    between atoms: O5_21  and  C11_22 
REMARK    8  A    between atoms: N5_24  and  N6_26 
REMARK    9  A    between atoms: C13_35  and  N9_36 
REMARK   10  A    between atoms: C14_40  and  N10_41 
REMARK   11  A    between atoms: C16_46  and  N11_47 
REMARK   12  A    between atoms: C17_51  and  C18_52 
REMARK   13  A    between atoms: C18_52  and  O7_53 
REMARK   14  A    between atoms: C18_52  and  O8_55 
ROOT
HETATM    1  C3  UNL     1      -1.603   0.533   0.191  1.00  0.00     0.229 C 
HETATM    2  O1  UNL     1      -1.159   1.285  -0.699  1.00  0.00    -0.273 OA
HETATM    3  N2  UNL     1      -0.851   0.261   1.374  1.00  0.00    -0.355 N 
ATOM      4  H2  UNL     1      -1.215  -0.354   2.102  1.00  0.00     0.162 HD
ENDROOT
BRANCH   1   5
HETATM    5  C2  UNL     1      -2.939  -0.106   0.048  1.00  0.00     0.156 C 
HETATM    6  C1  UNL     1      -3.873   0.412   1.124  1.00  0.00     0.006 C 
HETATM    7  N1  UNL     1      -3.297   1.191   1.910  1.00  0.00    -0.404 N 
HETATM    8  C17 UNL     1      -5.282   0.103   1.324  1.00  0.00     0.117 C 
ATOM      9  H12 UNL     1      -2.310   1.407   1.770  1.00  0.00     0.155 HD
ATOM     10  H11 UNL     1      -3.925   1.540   2.634  1.00  0.00     0.155 HD
HETATM   11  C16 UNL     1      -5.842  -0.676   0.140  1.00  0.00     0.199 C 
HETATM   12  C15 UNL     1      -5.993   0.186  -1.068  1.00  0.00     0.068 C 
HETATM   13  C14 UNL     1      -4.716   0.933  -1.408  1.00  0.00     0.217 C 
HETATM   14  C13 UNL     1      -3.531  -0.006  -1.319  1.00  0.00     0.232 C 
BRANCH   8  15
HETATM   15  C18 UNL     1      -6.192   1.230   1.653  1.00  0.00     0.265 C 
BRANCH  15  16
HETATM   16  O7  UNL     1      -7.528   0.800   1.806  1.00  0.00    -0.371 OA
ATOM     17  H7  UNL     1      -8.110   1.521   2.016  1.00  0.00     0.212 HD
ENDBRANCH  15  16
BRANCH  15  18
HETATM   18  O8  UNL     1      -5.867   1.806   2.883  1.00  0.00    -0.371 OA
ATOM     19  H8  UNL     1      -6.449   2.527   3.093  1.00  0.00     0.212 HD
ENDBRANCH  15  18
ENDBRANCH   8  15
BRANCH  11  20
HETATM   20  N11 UNL     1      -7.117  -1.223   0.519  1.00  0.00    -0.074 N 
ATOM     21 3H11 UNL     1      -7.819  -0.496   0.654  1.00  0.00     0.274 HD
ATOM     22 2H11 UNL     1      -7.563  -1.720  -0.252  1.00  0.00     0.274 HD
ATOM     23 1H11 UNL     1      -7.014  -1.812   1.345  1.00  0.00     0.274 HD
ENDBRANCH  11  20
BRANCH  13  24
HETATM   24  N10 UNL     1      -4.834   1.327  -2.820  1.00  0.00    -0.073 N 
ATOM     25 3H10 UNL     1      -3.975   1.724  -3.201  1.00  0.00     0.274 HD
ATOM     26 2H10 UNL     1      -4.900   0.533  -3.456  1.00  0.00     0.274 HD
ATOM     27 1H10 UNL     1      -5.632   1.959  -2.880  1.00  0.00     0.274 HD
ENDBRANCH  13  24
BRANCH  14  28
HETATM   28  N9  UNL     1      -2.565   0.274  -2.371  1.00  0.00    -0.072 N 
ATOM     29  H93 UNL     1      -2.032   1.116  -2.151  1.00  0.00     0.274 HD
ATOM     30  H92 UNL     1      -1.814  -0.416  -2.358  1.00  0.00     0.274 HD
ATOM     31  H91 UNL     1      -2.969   0.342  -3.305  1.00  0.00     0.274 HD
ENDBRANCH  14  28
ENDBRANCH   1   5
BRANCH   3  32
HETATM   32  C4  UNL     1       0.443   0.887   1.504  1.00  0.00     0.182 C 
BRANCH  32  33
HETATM   33  C5  UNL     1       1.487   0.244   0.672  1.00  0.00     0.062 A 
HETATM   34  C6  UNL     1       2.358  -0.780   1.012  1.00  0.00     0.143 A 
HETATM   35  N3  UNL     1       3.149  -1.073  -0.036  1.00  0.00    -0.251 N 
HETATM   36  N7  UNL     1       2.789  -0.260  -1.002  1.00  0.00    -0.238 N 
HETATM   37  N8  UNL     1       1.791   0.542  -0.604  1.00  0.00    -0.287 N 
ATOM     38  H7  UNL     1       3.212  -0.241  -1.930  1.00  0.00     0.208 HD
ATOM     39  H8  UNL     1       1.339   1.258  -1.173  1.00  0.00     0.188 HD
BRANCH  35  40
HETATM   40  C7  UNL     1       4.184  -2.098  -0.037  1.00  0.00     0.319 C 
HETATM   41  O2  UNL     1       5.143  -1.858  -1.032  1.00  0.00    -0.339 OA
HETATM   42  C8  UNL     1       6.366  -2.227  -0.446  1.00  0.00     0.262 C 
HETATM   43  C10 UNL     1       6.252  -1.457   0.852  1.00  0.00     0.245 C 
HETATM   44  C12 UNL     1       4.896  -2.041   1.275  1.00  0.00     0.209 C 
HETATM   45  O6  UNL     1       4.507  -2.362   2.347  1.00  0.00    -0.290 OA
BRANCH  42  46
HETATM   46  C9  UNL     1       7.505  -1.961  -1.282  1.00  0.00     0.206 C 
HETATM   47  O3  UNL     1       8.665  -2.290  -0.922  1.00  0.00    -0.646 OA
HETATM   48  O4  UNL     1       7.371  -1.336  -2.512  1.00  0.00    -0.646 OA
ENDBRANCH  42  46
BRANCH  43  49
HETATM   49  O5  UNL     1       6.000  -0.100   0.743  1.00  0.00    -0.307 OA
BRANCH  49  50
HETATM   50  C11 UNL     1       6.849   0.778   0.129  1.00  0.00     0.246 C 
HETATM   51  N4  UNL     1       6.489   1.678  -0.925  1.00  0.00    -0.055 NA
HETATM   52  N5  UNL     1       8.063   0.772   0.557  1.00  0.00    -0.274 N 
ATOM     53  H5  UNL     1       8.343   0.141   1.308  1.00  0.00     0.189 HD
BRANCH  52  54
HETATM   54  N6  UNL     1       8.989   1.638  -0.018  1.00  0.00    -0.342 N 
ATOM     55  H62 UNL     1       8.693   2.263  -0.768  1.00  0.00     0.176 HD
ATOM     56  H61 UNL     1       9.951   1.633   0.321  1.00  0.00     0.176 HD
ENDBRANCH  52  54
ENDBRANCH  49  50
ENDBRANCH  43  49
ENDBRANCH  35  40
ENDBRANCH  32  33
ENDBRANCH   3  32
TORSDOF 14
