REMARK  8 active torsions:
REMARK  status: ('A' for Active; 'I' for Inactive)
REMARK    1  A    between atoms: N1_2  and  C2_4 
REMARK    2  A    between atoms: C2_4  and  O1_5 
REMARK    3  A    between atoms: C2_4  and  C3_7 
REMARK    4  A    between atoms: C10_16  and  C11_17 
REMARK    5  A    between atoms: C14_20  and  C15_21 
REMARK    6  A    between atoms: C15_21  and  N2_22 
REMARK    7  A    between atoms: C16_24  and  O3_25 
REMARK    8  A    between atoms: C16_24  and  N3_27 
ROOT
HETATM    1  C11 UNL     1       0.975   0.285  -0.482  1.00  0.00    -0.033 A 
HETATM    2  C12 UNL     1       1.185  -0.450   0.650  1.00  0.00     0.012 A 
HETATM    3  C13 UNL     1       2.441  -0.988   0.945  1.00  0.00     0.012 A 
HETATM    4  C14 UNL     1       3.485  -0.790   0.110  1.00  0.00    -0.007 A 
HETATM    5  C19 UNL     1       3.311  -0.040  -1.064  1.00  0.00     0.076 A 
HETATM    6  O4  UNL     1       4.294   0.149  -1.856  1.00  0.00    -0.355 OA
HETATM    7  C20 UNL     1       5.237   0.368  -2.680  1.00  0.00     0.210 C 
HETATM    8  C21 UNL     1       2.042   0.484  -1.330  1.00  0.00     0.048 A 
ENDROOT
BRANCH   4   9
HETATM    9  C15 UNL     1       4.822  -1.334   0.378  1.00  0.00     0.164 C 
BRANCH   9  10
HETATM   10  N2  UNL     1       4.944  -2.087   1.585  1.00  0.00    -0.352 N 
HETATM   11  C16 UNL     1       5.971  -1.958   2.390  1.00  0.00     0.214 C 
ATOM     12  H2  UNL     1       4.207  -2.748   1.830  1.00  0.00     0.163 HD
BRANCH  11  13
HETATM   13  O3  UNL     1       6.036  -2.716   3.549  1.00  0.00    -0.333 OA
ATOM     14  H3  UNL     1       6.780  -2.623   4.132  1.00  0.00     0.220 HD
ENDBRANCH  11  13
BRANCH  11  15
HETATM   15  N3  UNL     1       7.030  -1.064   2.119  1.00  0.00    -0.356 N 
HETATM   16  C17 UNL     1       7.155   0.178   2.835  1.00  0.00     0.152 C 
HETATM   17  C18 UNL     1       7.998  -1.400   1.109  1.00  0.00     0.152 C 
ENDBRANCH  11  15
ENDBRANCH   9  10
ENDBRANCH   4   9
BRANCH   1  18
HETATM   18  C10 UNL     1      -0.323   0.831  -0.800  1.00  0.00     0.024 C 
HETATM   19  C9  UNL     1      -1.478   0.205  -0.824  1.00  0.00     0.011 C 
HETATM   20  C8  UNL     1      -2.693   0.986  -1.178  1.00  0.00     0.193 C 
HETATM   21  C22 UNL     1      -1.656  -1.237  -0.552  1.00  0.00     0.165 C 
HETATM   22  C5  UNL     1      -4.017   0.559  -0.661  1.00  0.00     0.056 A 
HETATM   23  O2  UNL     1      -2.518   1.963  -1.897  1.00  0.00    -0.287 OA
HETATM   24  C4  UNL     1      -3.973  -0.556   0.116  1.00  0.00     0.087 A 
HETATM   25  C6  UNL     1      -5.234   1.154  -0.833  1.00  0.00    -0.024 A 
HETATM   26  S1  UNL     1      -5.574  -0.780   0.602  1.00  0.00    -0.067 SA
HETATM   27  N4  UNL     1      -2.773  -1.319   0.385  1.00  0.00    -0.374 N 
HETATM   28  C3  UNL     1      -6.306   0.586  -0.212  1.00  0.00     0.064 A 
HETATM   29  C23 UNL     1      -2.755  -2.117   1.574  1.00  0.00     0.150 C 
HETATM   30  C7  UNL     1      -5.450   2.401  -1.695  1.00  0.00     0.050 C 
BRANCH  28  31
HETATM   31  C2  UNL     1      -7.730   0.907  -0.147  1.00  0.00     0.153 C 
BRANCH  31  32
HETATM   32  N1  UNL     1      -8.380   1.985  -0.741  1.00  0.00    -0.374 N 
HETATM   33  C1  UNL     1      -9.866   2.069  -0.511  1.00  0.00     0.148 C 
ATOM     34  H1  UNL     1      -7.880   2.677  -1.299  1.00  0.00     0.161 HD
ENDBRANCH  31  32
BRANCH  31  35
HETATM   35  O1  UNL     1      -8.435   0.061   0.559  1.00  0.00    -0.345 OA
ATOM     36  H1  UNL     1      -7.991  -0.675   0.964  1.00  0.00     0.219 HD
ENDBRANCH  31  35
ENDBRANCH  28  31
ENDBRANCH   1  18
TORSDOF 8
