REMARK  11 active torsions:
REMARK  status: ('A' for Active; 'I' for Inactive)
REMARK    1  A    between atoms: C1_2  and  C2_4 
REMARK    2  A    between atoms: C2_4  and  C3_5 
REMARK    3  A    between atoms: C3_5  and  C4_6 
REMARK    4  A    between atoms: C4_6  and  C5_7 
REMARK    5  A    between atoms: C5_7  and  C6_8 
REMARK    6  A    between atoms: C6_8  and  C7_9 
REMARK    7  A    between atoms: C7_9  and  C8_10 
REMARK    8  A    between atoms: C9_11  and  C10_12 
REMARK    9  A    between atoms: C10_12  and  C11_13 
REMARK   10  A    between atoms: C11_13  and  C12_14 
REMARK   11  A    between atoms: C17_19  and  O3_20 
ROOT
HETATM    1  C8  UNL     1       0.715  -1.514  -0.303  1.00  0.00    -0.031 C 
HETATM    2  C9  UNL     1      -0.307  -1.511  -1.093  1.00  0.00    -0.031 C 
ENDROOT
BRANCH   2   3
HETATM    3  C10 UNL     1      -1.499  -0.654  -0.902  1.00  0.00     0.027 C 
BRANCH   3   4
HETATM    4  C11 UNL     1      -2.757  -1.474  -0.736  1.00  0.00     0.011 C 
BRANCH   4   5
HETATM    5  C12 UNL     1      -3.990  -0.681  -0.541  1.00  0.00     0.015 C 
HETATM    6  C13 UNL     1      -4.330   0.258  -1.659  1.00  0.00     0.007 C 
HETATM    7  C14 UNL     1      -5.784   0.696  -1.420  1.00  0.00     0.001 C 
HETATM    8  C15 UNL     1      -5.750   1.527  -0.155  1.00  0.00     0.002 C 
HETATM    9  C16 UNL     1      -5.287   0.755   1.048  1.00  0.00     0.032 C 
HETATM   10  C17 UNL     1      -4.003  -0.002   0.795  1.00  0.00     0.122 C 
BRANCH  10  11
HETATM   11  O3  UNL     1      -3.922  -0.997   1.776  1.00  0.00    -0.395 OA
ATOM     12  H3  UNL     1      -3.930  -0.567   2.623  1.00  0.00     0.210 HD
ENDBRANCH  10  11
ENDBRANCH   4   5
ENDBRANCH   3   4
ENDBRANCH   2   3
BRANCH   1  13
HETATM   13  C7  UNL     1       0.898  -0.712   0.884  1.00  0.00     0.027 C 
BRANCH  13  14
HETATM   14  C6  UNL     1       2.121   0.195   0.812  1.00  0.00     0.004 C 
BRANCH  14  15
HETATM   15  C5  UNL     1       3.384  -0.620   0.633  1.00  0.00     0.000 C 
BRANCH  15  16
HETATM   16  C4  UNL     1       4.539   0.389   0.576  1.00  0.00     0.001 C 
BRANCH  16  17
HETATM   17  C3  UNL     1       5.855  -0.309   0.400  1.00  0.00     0.010 C 
BRANCH  17  18
HETATM   18  C2  UNL     1       6.950   0.731   0.358  1.00  0.00     0.113 C 
BRANCH  18  19
HETATM   19  C1  UNL     1       6.822   1.703  -0.729  1.00  0.00     0.172 C 
HETATM   20  O1  UNL     1       6.082   2.717  -0.589  1.00  0.00    -0.648 OA
HETATM   21  O2  UNL     1       7.481   1.587  -1.951  1.00  0.00    -0.648 OA
ENDBRANCH  18  19
ENDBRANCH  17  18
ENDBRANCH  16  17
ENDBRANCH  15  16
ENDBRANCH  14  15
ENDBRANCH  13  14
ENDBRANCH   1  13
TORSDOF 11
