REMARK  6 active torsions:
REMARK  status: ('A' for Active; 'I' for Inactive)
REMARK    1  A    between atoms: C2_2  and  S1_3 
REMARK    2  A    between atoms: S1_3  and  C3_4 
REMARK    3  A    between atoms: C7_8  and  C8_9 
REMARK       I    between atoms: C8_9  and  N1_11 
REMARK    4  A    between atoms: N1_11  and  C9_13 
REMARK    5  A    between atoms: C19_26  and  C20_27 
REMARK    6  A    between atoms: C20_27  and  O2_28 
ROOT
HETATM    1  C3  UNL     1      -2.522   1.138   0.019  1.00  0.00     0.054 C 
HETATM    2  C4  UNL     1      -1.331   0.610  -0.705  1.00  0.00     0.025 C 
HETATM    3  C5  UNL     1      -0.409  -0.246   0.129  1.00  0.00     0.018 C 
HETATM    4  C6  UNL     1       0.627  -0.808  -0.765  1.00  0.00    -0.009 C 
HETATM    5  C7  UNL     1       0.966  -2.075  -0.859  1.00  0.00     0.007 C 
HETATM    6  C14 UNL     1       0.306  -3.150  -0.035  1.00  0.00     0.044 C 
HETATM    7  C15 UNL     1      -1.125  -2.642   0.154  1.00  0.00     0.014 C 
HETATM    8  C16 UNL     1      -1.094  -1.319   0.880  1.00  0.00    -0.036 C 
HETATM    9  C17 UNL     1      -0.383  -1.508   2.222  1.00  0.00     0.016 C 
HETATM   10  C18 UNL     1      -2.533  -0.968   1.226  1.00  0.00     0.017 C 
HETATM   11  C19 UNL     1      -2.564   0.538   1.394  1.00  0.00     0.024 C 
ENDROOT
BRANCH   5  12
HETATM   12  C8  UNL     1       2.025  -2.428  -1.813  1.00  0.00     0.252 C 
HETATM   13  O1  UNL     1       2.364  -3.643  -1.916  1.00  0.00    -0.268 OA
HETATM   14  N1  UNL     1       2.669  -1.455  -2.610  1.00  0.00    -0.311 N 
ATOM     15  H1  UNL     1       2.248  -1.165  -3.493  1.00  0.00     0.170 HD
BRANCH  14  16
HETATM   16  C9  UNL     1       3.775  -0.934  -2.235  1.00  0.00     0.121 A 
HETATM   17  S2  UNL     1       4.688  -1.216  -0.843  1.00  0.00    -0.063 SA
HETATM   18  C10 UNL     1       6.126  -0.225  -0.832  1.00  0.00     0.032 A 
HETATM   19  C11 UNL     1       7.179  -0.049   0.012  1.00  0.00     0.028 A 
HETATM   20  C13 UNL     1       6.118   0.519  -1.970  1.00  0.00     0.065 A 
HETATM   21  C12 UNL     1       8.130   0.860  -0.364  1.00  0.00     0.052 A 
HETATM   22  S3  UNL     1       7.551   1.437  -1.853  1.00  0.00    -0.093 SA
HETATM   23  S4  UNL     1       4.749   0.234  -2.982  1.00  0.00    -0.056 SA
ENDBRANCH  14  16
ENDBRANCH   5  12
BRANCH   1  24
HETATM   24  S1  UNL     1      -2.552   2.951   0.070  1.00  0.00    -0.164 SA
BRANCH  24  25
HETATM   25  C2  UNL     1      -2.782   3.576  -1.616  1.00  0.00     0.070 C 
HETATM   26  C1  UNL     1      -4.176   3.162  -2.069  1.00  0.00     0.016 C 
ENDBRANCH  24  25
ENDBRANCH   1  24
BRANCH  11  27
HETATM   27  C20 UNL     1      -3.760   0.981   2.201  1.00  0.00     0.169 C 
BRANCH  27  28
HETATM   28  O2  UNL     1      -3.703   2.357   2.328  1.00  0.00    -0.400 OA
ATOM     29  H2  UNL     1      -4.456   2.636   2.836  1.00  0.00     0.209 HD
ENDBRANCH  27  28
ENDBRANCH  11  27
TORSDOF 6
