REMARK  7 active torsions:
REMARK  status: ('A' for Active; 'I' for Inactive)
REMARK    1  A    between atoms: N1_1  and  C1_4 
REMARK    2  A    between atoms: C3_10  and  N4_11 
REMARK    3  A    between atoms: C7_15  and  C8_16 
REMARK    4  A    between atoms: C8_16  and  N5_17 
REMARK    5  A    between atoms: N5_17  and  C9_19 
REMARK    6  A    between atoms: C15_27  and  C16_28 
REMARK    7  A    between atoms: C16_28  and  O1_29 
ROOT
HETATM    1  C1  UNL     1      -7.044   0.173  -1.968  1.00  0.00     0.706 A 
HETATM    2  N2  UNL     1      -5.764   0.428  -2.312  1.00  0.00    -0.019 N 
ATOM      3  H2  UNL     1      -5.460   0.726  -3.239  1.00  0.00     0.203 HD
HETATM    4  C2  UNL     1      -4.941   0.234  -1.259  1.00  0.00     0.719 A 
HETATM    5  N3  UNL     1      -3.610   0.360  -1.128  1.00  0.00    -0.174 N 
ATOM      6  H3  UNL     1      -3.053   0.655  -1.930  1.00  0.00     0.186 HD
HETATM    7  C3  UNL     1      -2.989   0.100   0.063  1.00  0.00     0.129 A 
HETATM    8  C15 UNL     1      -3.789  -0.290   1.100  1.00  0.00     0.028 A 
HETATM    9  C17 UNL     1      -5.179  -0.417   0.950  1.00  0.00     0.148 A 
HETATM   10  N7  UNL     1      -5.734  -0.148  -0.247  1.00  0.00    -0.082 N 
HETATM   11  N8  UNL     1      -7.008  -0.185  -0.674  1.00  0.00    -0.111 N 
ATOM     12  H8  UNL     1      -7.816  -0.443  -0.107  1.00  0.00     0.207 HD
ENDROOT
BRANCH   7  13
HETATM   13  N4  UNL     1      -1.588   0.245   0.203  1.00  0.00    -0.366 N 
HETATM   14  C4  UNL     1      -0.970   1.299   0.979  1.00  0.00     0.124 C 
HETATM   15  C5  UNL     1      -0.171   2.178   0.037  1.00  0.00     0.020 C 
HETATM   16  C6  UNL     1       0.421   1.469  -1.127  1.00  0.00     0.009 C 
HETATM   17  C7  UNL     1       0.555  -0.011  -0.941  1.00  0.00     0.021 C 
HETATM   18  C14 UNL     1      -0.662  -0.699  -0.439  1.00  0.00     0.130 C 
BRANCH  17  19
HETATM   19  C8  UNL     1       1.824  -0.378  -0.180  1.00  0.00     0.120 C 
BRANCH  19  20
HETATM   20  N5  UNL     1       2.943   0.080  -0.914  1.00  0.00    -0.415 N 
ATOM     21  H5  UNL     1       2.836   0.561  -1.807  1.00  0.00     0.153 HD
BRANCH  20  22
HETATM   22  C9  UNL     1       4.222  -0.161  -0.349  1.00  0.00     0.093 C 
HETATM   23  C10 UNL     1       4.446   0.540   0.972  1.00  0.00     0.028 C 
HETATM   24  C11 UNL     1       5.966   0.585   1.152  1.00  0.00     0.021 C 
HETATM   25  C12 UNL     1       6.622  -0.601   0.486  1.00  0.00     0.114 C 
HETATM   26  N6  UNL     1       5.805  -1.766   0.463  1.00  0.00    -0.419 N 
HETATM   27  C13 UNL     1       4.508  -1.631  -0.112  1.00  0.00     0.138 C 
ATOM     28  H6  UNL     1       6.132  -2.655   0.840  1.00  0.00     0.153 HD
ENDBRANCH  20  22
ENDBRANCH  19  20
ENDBRANCH  17  19
ENDBRANCH   7  13
BRANCH   8  29
HETATM   29  C16 UNL     1      -3.202  -0.611   2.421  1.00  0.00     0.208 C 
BRANCH  29  30
HETATM   30  O1  UNL     1      -4.226  -0.997   3.321  1.00  0.00    -0.396 OA
ATOM     31  H1  UNL     1      -3.849  -1.203   4.169  1.00  0.00     0.209 HD
ENDBRANCH  29  30
ENDBRANCH   8  29
BRANCH   1  32
HETATM   32  N1  UNL     1      -8.103   0.257  -2.730  1.00  0.00    -0.233 N 
ATOM     33  H12 UNL     1      -8.130   0.529  -3.713  1.00  0.00     0.174 HD
ATOM     34  H11 UNL     1      -9.070   0.064  -2.470  1.00  0.00     0.174 HD
ENDBRANCH   1  32
TORSDOF 7
