REMARK  6 active torsions:
REMARK  status: ('A' for Active; 'I' for Inactive)
REMARK    1  A    between atoms: N1_2  and  C2_4 
REMARK    2  A    between atoms: C3_7  and  S1_8 
REMARK    3  A    between atoms: S1_8  and  C4_9 
REMARK    4  A    between atoms: C4_9  and  C5_10 
REMARK    5  A    between atoms: C6_11  and  C7_12 
REMARK    6  A    between atoms: C11_25  and  N7_26 
ROOT
HETATM    1  C2  UNL     1      -2.513   0.809  -1.950  1.00  0.00     0.694 A 
HETATM    2  N2  UNL     1      -1.188   0.918  -1.801  1.00  0.00    -0.169 N 
ATOM      3  H2  UNL     1      -0.601   1.075  -2.620  1.00  0.00     0.186 HD
HETATM    4  C3  UNL     1      -0.620   0.824  -0.586  1.00  0.00     0.175 A 
HETATM    5  N6  UNL     1      -1.404   0.615   0.509  1.00  0.00    -0.169 N 
ATOM      6  H6  UNL     1      -0.978   0.542   1.433  1.00  0.00     0.186 HD
HETATM    7  C11 UNL     1      -2.734   0.505   0.375  1.00  0.00     0.697 A 
HETATM    8  N9  UNL     1      -3.259   0.603  -0.841  1.00  0.00    -0.022 N 
ATOM      9  H9  UNL     1      -4.270   0.519  -0.943  1.00  0.00     0.203 HD
ENDROOT
BRANCH   4  10
HETATM   10  S1  UNL     1       1.155   0.978  -0.470  1.00  0.00    -0.081 SA
BRANCH  10  11
HETATM   11  C4  UNL     1       1.857  -0.694  -0.655  1.00  0.00     0.176 C 
BRANCH  11  12
HETATM   12  C5  UNL     1       3.315  -0.603  -0.564  1.00  0.00    -0.088 C 
HETATM   13  C6  UNL     1       4.517  -0.538  -0.470  1.00  0.00    -0.029 C 
BRANCH  13  14
HETATM   14  C7  UNL     1       5.950  -0.476  -0.338  1.00  0.00     0.162 A 
HETATM   15  N3  UNL     1       6.593   0.546   0.238  1.00  0.00    -0.322 N 
HETATM   16  C8  UNL     1       7.940   0.603   0.362  1.00  0.00     0.101 A 
ATOM     17  H3  UNL     1       6.040   1.322   0.602  1.00  0.00     0.169 HD
HETATM   18  N4  UNL     1       8.524   1.608   0.924  1.00  0.00    -0.385 N 
HETATM   19  C9  UNL     1       8.705  -0.436  -0.125  1.00  0.00     0.065 A 
ATOM     20  H42 UNL     1       7.958   2.376   1.284  1.00  0.00     0.157 HD
ATOM     21  H41 UNL     1       9.539   1.651   1.017  1.00  0.00     0.157 HD
HETATM   22  C10 UNL     1       8.033  -1.486  -0.716  1.00  0.00     0.094 A 
HETATM   23  N5  UNL     1       6.685  -1.503  -0.820  1.00  0.00    -0.345 N 
ATOM     24  H5  UNL     1       6.220  -2.295  -1.264  1.00  0.00     0.167 HD
ENDBRANCH  13  14
ENDBRANCH  11  12
ENDBRANCH  10  11
ENDBRANCH   4  10
BRANCH   1  25
HETATM   25  N1  UNL     1      -3.029   0.902  -3.113  1.00  0.00    -0.230 N 
HETATM   26  C1  UNL     1      -2.173   1.123  -4.256  1.00  0.00     0.165 C 
ATOM     27  H1  UNL     1      -4.038   0.821  -3.235  1.00  0.00     0.177 HD
ENDBRANCH   1  25
BRANCH   7  28
HETATM   28  N7  UNL     1      -3.545   0.290   1.504  1.00  0.00    -0.214 N 
HETATM   29  C12 UNL     1      -4.140   1.327   2.309  1.00  0.00     0.168 C 
HETATM   30  C13 UNL     1      -5.507   0.810   2.747  1.00  0.00     0.252 C 
HETATM   31  N8  UNL     1      -6.060  -0.095   1.756  1.00  0.00    -0.072 N 
HETATM   32  C14 UNL     1      -5.302  -1.314   1.624  1.00  0.00     0.252 C 
ATOM     33  H82 UNL     1      -7.041  -0.295   1.952  1.00  0.00     0.277 HD
ATOM     34  H81 UNL     1      -6.162   0.370   0.854  1.00  0.00     0.277 HD
HETATM   35  C15 UNL     1      -3.824  -1.091   1.919  1.00  0.00     0.168 C 
ENDBRANCH   7  28
TORSDOF 6
