REMARK  9 active torsions:
REMARK  status: ('A' for Active; 'I' for Inactive)
REMARK    1  A    between atoms: N1_1  and  C1_4 
REMARK    2  A    between atoms: C2_9  and  C3_10 
REMARK    3  A    between atoms: C3_10  and  C4_11 
REMARK    4  A    between atoms: C4_11  and  C5_12 
REMARK    5  A    between atoms: C5_12  and  C6_13 
REMARK    6  A    between atoms: C6_13  and  N4_14 
REMARK    7  A    between atoms: N4_14  and  C7_17 
REMARK    8  A    between atoms: C7_17  and  C8_18 
REMARK    9  A    between atoms: C8_18  and  N5_19 
ROOT
HETATM    1  N4  UNL     1      -0.713  -0.523   0.682  1.00  0.00    -0.074 N 
ATOM      2  H41 UNL     1      -0.993  -1.286   0.066  1.00  0.00     0.277 HD
ATOM      3  H42 UNL     1      -1.294   0.220   0.294  1.00  0.00     0.277 HD
ENDROOT
BRANCH   1   4
HETATM    4  C6  UNL     1       0.702  -0.218   0.532  1.00  0.00     0.232 C 
BRANCH   4   5
HETATM    5  C5  UNL     1       1.577  -1.400   0.781  1.00  0.00     0.028 C 
BRANCH   5   6
HETATM    6  C4  UNL     1       3.028  -1.028   0.620  1.00  0.00     0.009 C 
BRANCH   6   7
HETATM    7  C3  UNL     1       3.378  -0.510  -0.748  1.00  0.00     0.078 C 
BRANCH   7   8
HETATM    8  C2  UNL     1       4.844  -0.197  -0.746  1.00  0.00     0.112 A 
HETATM    9  N3  UNL     1       5.722  -0.346   0.261  1.00  0.00    -0.274 N 
HETATM   10  N2  UNL     1       6.917   0.043  -0.147  1.00  0.00    -0.131 N 
ATOM     11  H3  UNL     1       5.501  -0.702   1.191  1.00  0.00     0.189 HD
HETATM   12  C1  UNL     1       6.848   0.454  -1.423  1.00  0.00     0.691 A 
ATOM     13  H2  UNL     1       7.764   0.033   0.422  1.00  0.00     0.205 HD
HETATM   14  N9  UNL     1       5.544   0.296  -1.780  1.00  0.00    -0.178 N 
ATOM     15  H9  UNL     1       5.156   0.519  -2.697  1.00  0.00     0.185 HD
BRANCH  12  16
HETATM   16  N1  UNL     1       7.812   0.908  -2.167  1.00  0.00    -0.233 N 
ATOM     17  H12 UNL     1       8.789   1.026  -1.899  1.00  0.00     0.174 HD
ATOM     18  H11 UNL     1       7.760   1.220  -3.137  1.00  0.00     0.174 HD
ENDBRANCH  12  16
ENDBRANCH   7   8
ENDBRANCH   6   7
ENDBRANCH   5   6
ENDBRANCH   4   5
ENDBRANCH   1   4
BRANCH   1  19
HETATM   19  C7  UNL     1      -1.067  -0.801   2.050  1.00  0.00     0.252 C 
BRANCH  19  20
HETATM   20  C8  UNL     1      -2.518  -1.176   2.121  1.00  0.00     0.159 C 
BRANCH  20  21
HETATM   21  N5  UNL     1      -3.424  -0.161   1.638  1.00  0.00    -0.326 N 
HETATM   22  C9  UNL     1      -3.955   0.863   2.353  1.00  0.00     0.185 A 
HETATM   23  N6  UNL     1      -4.748   1.615   1.578  1.00  0.00    -0.348 N 
HETATM   24  C10 UNL     1      -4.747   1.091   0.347  1.00  0.00     0.102 A 
ATOM     25  H6  UNL     1      -5.263   2.444   1.875  1.00  0.00     0.167 HD
HETATM   26  C11 UNL     1      -5.404   1.481  -0.820  1.00  0.00     0.080 A 
HETATM   27  C14 UNL     1      -3.923  -0.012   0.390  1.00  0.00     0.138 A 
HETATM   28  N7  UNL     1      -6.228   2.617  -0.791  1.00  0.00    -0.100 NA
HETATM   29  C12 UNL     1      -5.174   0.691  -1.924  1.00  0.00     0.071 A 
HETATM   30  C13 UNL     1      -4.344  -0.414  -1.862  1.00  0.00     0.106 A 
HETATM   31 CL1  UNL     1      -4.107  -1.372  -3.332  1.00  0.00    -0.064 Cl
HETATM   32  N8  UNL     1      -3.731  -0.753  -0.718  1.00  0.00    -0.331 N 
ATOM     33  H8  UNL     1      -3.121  -1.570  -0.687  1.00  0.00     0.168 HD
ENDBRANCH  20  21
ENDBRANCH  19  20
ENDBRANCH   1  19
TORSDOF 9
