REMARK  9 active torsions:
REMARK  status: ('A' for Active; 'I' for Inactive)
REMARK    1  A    between atoms: N1_1  and  C1_4 
REMARK    2  A    between atoms: C2_9  and  C3_10 
REMARK    3  A    between atoms: C3_10  and  C4_11 
REMARK    4  A    between atoms: C4_11  and  C5_12 
REMARK    5  A    between atoms: C5_12  and  N4_13 
REMARK    6  A    between atoms: N4_13  and  C6_15 
REMARK    7  A    between atoms: C7_16  and  C8_17 
REMARK    8  A    between atoms: C8_17  and  N5_18 
REMARK    9  A    between atoms: C12_26  and  N6_27 
ROOT
HETATM    1  N4  UNL     1      -0.719  -0.082   0.065  1.00  0.00    -0.387 N 
ATOM      2  H4  UNL     1      -0.355  -0.862  -0.482  1.00  0.00     0.159 HD
ENDROOT
BRANCH   1   3
HETATM    3  C5  UNL     1       0.065   1.100   0.221  1.00  0.00     0.120 C 
BRANCH   3   4
HETATM    4  C4  UNL     1       1.398   1.035  -0.476  1.00  0.00     0.027 C 
BRANCH   4   5
HETATM    5  C3  UNL     1       2.251  -0.102   0.035  1.00  0.00     0.080 C 
BRANCH   5   6
HETATM    6  C2  UNL     1       3.550  -0.128  -0.677  1.00  0.00     0.112 A 
HETATM    7  N3  UNL     1       3.820  -0.808  -1.827  1.00  0.00    -0.274 N 
HETATM    8  N2  UNL     1       5.081  -0.601  -2.170  1.00  0.00    -0.131 N 
ATOM      9  H3  UNL     1       3.155  -1.385  -2.342  1.00  0.00     0.189 HD
HETATM   10  C1  UNL     1       5.662   0.209  -1.268  1.00  0.00     0.691 A 
ATOM     11  H2  UNL     1       5.541  -0.995  -2.991  1.00  0.00     0.205 HD
HETATM   12  N7  UNL     1       4.706   0.486  -0.363  1.00  0.00    -0.178 N 
ATOM     13  H7  UNL     1       4.840   1.083   0.453  1.00  0.00     0.185 HD
BRANCH  10  14
HETATM   14  N1  UNL     1       6.903   0.632  -1.281  1.00  0.00    -0.233 N 
ATOM     15  H12 UNL     1       7.628   0.422  -1.967  1.00  0.00     0.174 HD
ATOM     16  H11 UNL     1       7.344   1.247  -0.597  1.00  0.00     0.174 HD
ENDBRANCH  10  14
ENDBRANCH   5   6
ENDBRANCH   4   5
ENDBRANCH   3   4
ENDBRANCH   1   3
BRANCH   1  17
HETATM   17  C6  UNL     1      -1.987  -0.179   0.658  1.00  0.00     0.071 A 
HETATM   18  C7  UNL     1      -3.102   0.198  -0.031  1.00  0.00    -0.004 A 
HETATM   19  C9  UNL     1      -4.365   0.102   0.565  1.00  0.00     0.013 A 
HETATM   20  C10 UNL     1      -4.503  -0.371   1.845  1.00  0.00     0.027 A 
HETATM   21  C11 UNL     1      -3.369  -0.757   2.555  1.00  0.00     0.069 A 
HETATM   22 CL1  UNL     1      -3.483  -1.368   4.193  1.00  0.00    -0.082 Cl
HETATM   23  C12 UNL     1      -2.142  -0.649   1.937  1.00  0.00     0.151 A 
BRANCH  18  24
HETATM   24  C8  UNL     1      -3.027   0.706  -1.396  1.00  0.00     0.270 C 
BRANCH  24  25
HETATM   25  N5  UNL     1      -4.357   1.042  -1.930  1.00  0.00    -0.075 N 
ATOM     26  H53 UNL     1      -4.994   0.248  -1.864  1.00  0.00     0.274 HD
ATOM     27  H52 UNL     1      -4.849   1.694  -1.318  1.00  0.00     0.274 HD
ATOM     28  H51 UNL     1      -4.305   1.397  -2.885  1.00  0.00     0.274 HD
ENDBRANCH  24  25
ENDBRANCH  18  24
BRANCH  23  29
HETATM   29  N6  UNL     1      -0.993  -1.044   2.667  1.00  0.00    -0.112 N 
HETATM   30  O1  UNL     1      -0.402  -2.102   2.390  1.00  0.00    -0.532 OA
HETATM   31  O2  UNL     1      -0.486  -0.296   3.695  1.00  0.00    -0.532 OA
ENDBRANCH  23  29
ENDBRANCH   1  17
TORSDOF 9
