REMARK  11 active torsions:
REMARK  status: ('A' for Active; 'I' for Inactive)
REMARK    1  A    between atoms: C2_2  and  C3_3 
REMARK    2  A    between atoms: C3_3  and  C5_5 
REMARK    3  A    between atoms: C7_10  and  C8_11 
REMARK    4  A    between atoms: C8_11  and  C9_12 
REMARK    5  A    between atoms: C20_25  and  O3_27 
REMARK    6  A    between atoms: N4_33  and  C25_34 
REMARK    7  A    between atoms: C25_34  and  C26_35 
REMARK    8  A    between atoms: C27_36  and  C28_37 
REMARK    9  A    between atoms: C28_37  and  N5_38 
REMARK   10  A    between atoms: N6_41  and  C31_42 
REMARK   11  A    between atoms: C31_42  and  C32_43 
ROOT
HETATM    1  C5  UNL     1      -0.088   0.896  -1.387  1.00  0.00     0.108 C 
HETATM    2  N1  UNL     1      -0.635   2.161  -0.816  1.00  0.00    -0.313 N 
ATOM      3  H1  UNL     1      -0.198   3.014  -1.165  1.00  0.00     0.170 HD
HETATM    4  C6  UNL     1      -1.658   2.362   0.127  1.00  0.00     0.227 C 
HETATM    5  O1  UNL     1      -1.697   3.468   0.670  1.00  0.00    -0.273 OA
HETATM    6  C7  UNL     1      -2.673   1.377   0.519  1.00  0.00     0.081 C 
HETATM    7  C15 UNL     1      -1.895   0.258   1.123  1.00  0.00     0.045 C 
HETATM    8  C16 UNL     1      -1.141  -0.653   0.242  1.00  0.00     0.041 C 
HETATM    9  C17 UNL     1      -0.600  -1.668   1.272  1.00  0.00     0.068 C 
HETATM   10  C18 UNL     1      -1.668  -2.357   2.064  1.00  0.00     0.317 C 
HETATM   11  N2  UNL     1      -2.714  -2.935   1.302  1.00  0.00     0.051 N 
HETATM   12  O2  UNL     1      -3.763  -3.174   2.157  1.00  0.00    -0.062 OA
HETATM   13  C19 UNL     1      -2.366  -4.221   0.729  1.00  0.00     0.385 C 
HETATM   14  C20 UNL     1      -3.382  -4.366  -0.365  1.00  0.00     0.289 C 
HETATM   15  C21 UNL     1      -4.435  -5.344   0.091  1.00  0.00     0.084 C 
HETATM   16  N3  UNL     1      -3.883  -3.061  -0.650  1.00  0.00     0.161 N 
HETATM   17  C22 UNL     1      -5.308  -2.924  -0.595  1.00  0.00     0.317 C 
HETATM   18  C23 UNL     1      -3.207  -2.129   0.257  1.00  0.00     0.493 C 
HETATM   19  C24 UNL     1      -2.141  -1.450  -0.590  1.00  0.00     0.106 C 
HETATM   20  N4  UNL     1      -0.072  -0.184  -0.548  1.00  0.00    -0.354 N 
ENDROOT
BRANCH  20  21
HETATM   21  C25 UNL     1       1.274  -0.504  -0.077  1.00  0.00     0.152 C 
BRANCH  21  22
HETATM   22  C26 UNL     1       2.201  -1.043  -1.063  1.00  0.00    -0.009 C 
HETATM   23  C27 UNL     1       3.371  -0.635  -1.479  1.00  0.00    -0.002 C 
BRANCH  23  24
HETATM   24  C28 UNL     1       4.034   0.565  -0.972  1.00  0.00     0.265 C 
BRANCH  24  25
HETATM   25  N5  UNL     1       5.312   0.301  -0.371  1.00  0.00    -0.059 N 
HETATM   26  C29 UNL     1       6.043   1.555  -0.312  1.00  0.00     0.266 C 
HETATM   27  C30 UNL     1       7.250   1.437   0.603  1.00  0.00     0.266 C 
HETATM   28  N6  UNL     1       7.618   0.039   0.624  1.00  0.00    -0.053 N 
HETATM   29  C33 UNL     1       7.548  -0.476  -0.711  1.00  0.00     0.266 C 
HETATM   30  C35 UNL     1       6.574  -0.616   1.444  1.00  0.00     0.266 C 
HETATM   31  C34 UNL     1       6.080  -0.731  -1.051  1.00  0.00     0.266 C 
HETATM   32  C36 UNL     1       5.209  -0.159   1.018  1.00  0.00     0.266 C 
BRANCH  28  33
HETATM   33  C31 UNL     1       8.857  -0.127   1.287  1.00  0.00     0.350 C 
BRANCH  33  34
HETATM   34  C32 UNL     1      10.028   0.375   0.562  1.00  0.00     0.199 C 
HETATM   35  O4  UNL     1      10.000   0.940  -0.549  1.00  0.00    -0.647 OA
HETATM   36  O5  UNL     1      11.330   0.239   1.112  1.00  0.00    -0.647 OA
ENDBRANCH  33  34
ENDBRANCH  28  33
ENDBRANCH  24  25
ENDBRANCH  23  24
ENDBRANCH  21  22
ENDBRANCH  20  21
BRANCH   1  37
HETATM   37  C3  UNL     1      -0.442   0.956  -2.808  1.00  0.00    -0.040 C 
HETATM   38  C4  UNL     1      -1.866   1.426  -3.118  1.00  0.00     0.047 C 
BRANCH  37  39
HETATM   39  C2  UNL     1      -0.126  -0.106  -3.774  1.00  0.00     0.033 C 
HETATM   40  C1  UNL     1      -0.218   0.427  -5.220  1.00  0.00     0.010 C 
ENDBRANCH  37  39
ENDBRANCH   1  37
BRANCH   6  41
HETATM   41  C8  UNL     1      -3.680   1.847   1.530  1.00  0.00     0.018 C 
BRANCH  41  42
HETATM   42  C9  UNL     1      -4.523   2.997   1.137  1.00  0.00    -0.014 C 
HETATM   43  C10 UNL     1      -5.461   3.281   2.322  1.00  0.00     0.005 C 
HETATM   44  C11 UNL     1      -6.915   3.178   1.914  1.00  0.00     0.000 C 
HETATM   45  C12 UNL     1      -7.250   4.096   0.774  1.00  0.00     0.000 C 
HETATM   46  C13 UNL     1      -6.218   3.996  -0.300  1.00  0.00     0.000 C 
HETATM   47  C14 UNL     1      -5.417   2.712  -0.053  1.00  0.00     0.005 C 
ENDBRANCH  41  42
ENDBRANCH   6  41
BRANCH  14  48
HETATM   48  O3  UNL     1      -2.736  -4.944  -1.465  1.00  0.00    -0.361 OA
ATOM     49  H3  UNL     1      -3.379  -5.036  -2.158  1.00  0.00     0.212 HD
ENDBRANCH  14  48
TORSDOF 11
