REMARK  7 active torsions:
REMARK  status: ('A' for Active; 'I' for Inactive)
REMARK    1  A    between atoms: C2_2  and  O1_3 
REMARK    2  A    between atoms: O1_3  and  C3_4 
REMARK    3  A    between atoms: C3_4  and  C4_6 
REMARK    4  A    between atoms: C6_8  and  O3_10 
REMARK    5  A    between atoms: C8_12  and  N1_13 
REMARK       I    between atoms: N1_13  and  C9_15 
REMARK    6  A    between atoms: C14_21  and  O5_22 
REMARK    7  A    between atoms: C16_24  and  O6_25 
ROOT
HETATM    1  C4  UNL     1       0.775   0.160  -0.111  1.00  0.00     0.084 C 
HETATM    2  C5  UNL     1       0.092  -0.079  -1.443  1.00  0.00     0.062 C 
HETATM    3  C6  UNL     1      -1.351  -0.428  -1.150  1.00  0.00     0.076 C 
HETATM    4  C7  UNL     1      -2.291   0.391  -2.020  1.00  0.00     0.048 C 
HETATM    5  C8  UNL     1      -1.507  -0.018   0.278  1.00  0.00     0.123 C 
HETATM    6  C11 UNL     1      -0.151  -0.353   0.917  1.00  0.00     0.032 C 
HETATM    7  C12 UNL     1      -0.045  -1.756   1.336  1.00  0.00     0.011 C 
HETATM    8  C13 UNL     1       1.206  -2.489   1.057  1.00  0.00     0.035 C 
HETATM    9  C14 UNL     1       2.080  -1.968  -0.029  1.00  0.00     0.150 C 
HETATM   10  C16 UNL     1       2.135  -0.479  -0.144  1.00  0.00     0.166 C 
ENDROOT
BRANCH   1  11
HETATM   11  C3  UNL     1       1.003   1.616   0.075  1.00  0.00     0.270 C 
HETATM   12  O2  UNL     1       0.498   2.167   1.082  1.00  0.00    -0.264 OA
BRANCH  11  13
HETATM   13  O1  UNL     1       1.737   2.397  -0.795  1.00  0.00    -0.321 OA
BRANCH  13  14
HETATM   14  C2  UNL     1       1.934   3.780  -0.585  1.00  0.00     0.174 C 
HETATM   15  C1  UNL     1       0.652   4.557  -0.544  1.00  0.00     0.034 C 
ENDBRANCH  13  14
ENDBRANCH  11  13
ENDBRANCH   1  11
BRANCH  10  16
HETATM   16  O6  UNL     1       2.976   0.084   0.832  1.00  0.00    -0.392 OA
ATOM     17  H6  UNL     1       3.836  -0.320   0.811  1.00  0.00     0.210 HD
ENDBRANCH  10  16
BRANCH   3  18
HETATM   18  O3  UNL     1      -1.570  -1.756  -1.412  1.00  0.00    -0.388 OA
ATOM     19  H3  UNL     1      -2.476  -1.975  -1.228  1.00  0.00     0.210 HD
ENDBRANCH   3  18
BRANCH   5  20
HETATM   20  N1  UNL     1      -2.619  -0.560   0.960  1.00  0.00    -0.353 N 
HETATM   21  C9  UNL     1      -3.591   0.304   1.525  1.00  0.00     0.214 C 
HETATM   22  C10 UNL     1      -4.784  -0.185   2.254  1.00  0.00     0.117 C 
HETATM   23  O4  UNL     1      -3.478   1.573   1.428  1.00  0.00    -0.274 OA
ATOM     24  H1  UNL     1      -2.723  -1.571   1.046  1.00  0.00     0.163 HD
ENDBRANCH   5  20
BRANCH   9  25
HETATM   25  O5  UNL     1       3.399  -2.398   0.142  1.00  0.00    -0.388 OA
HETATM   26  C15 UNL     1       3.863  -3.148  -0.925  1.00  0.00     0.202 C 
ENDBRANCH   9  25
TORSDOF 7
