REMARK  8 active torsions:
REMARK  status: ('A' for Active; 'I' for Inactive)
REMARK    1  A    between atoms: C2_2  and  C3_3 
REMARK    2  A    between atoms: C4_4  and  O1_5 
REMARK    3  A    between atoms: C5_7  and  O2_8 
REMARK    4  A    between atoms: C6_10  and  O3_11 
REMARK    5  A    between atoms: C11_17  and  O4_18 
REMARK    6  A    between atoms: O4_18  and  C12_19 
REMARK    7  A    between atoms: C12_19  and  C13_21 
REMARK    8  A    between atoms: C16_24  and  O6_25 
ROOT
HETATM    1  C3  UNL     1      -1.545   1.074  -0.311  1.00  0.00     0.046 C 
HETATM    2  C4  UNL     1      -1.837   1.364   1.146  1.00  0.00     0.157 C 
HETATM    3  C5  UNL     1      -2.984   0.560   1.636  1.00  0.00     0.176 C 
HETATM    4  C6  UNL     1      -2.916  -0.854   1.219  1.00  0.00     0.158 C 
HETATM    5  C7  UNL     1      -1.695  -1.297   0.485  1.00  0.00     0.052 C 
HETATM    6  C8  UNL     1      -0.574  -1.668   1.367  1.00  0.00    -0.078 C 
HETATM    7  C9  UNL     1      -0.902  -2.558   2.530  1.00  0.00     0.043 C 
HETATM    8  C10 UNL     1       0.661  -1.273   1.192  1.00  0.00     0.011 C 
HETATM    9  C11 UNL     1       1.020  -0.409   0.076  1.00  0.00     0.184 C 
HETATM   10  C16 UNL     1       0.089  -0.544  -1.108  1.00  0.00     0.159 C 
HETATM   11  C18 UNL     1      -1.335  -0.356  -0.634  1.00  0.00     0.038 C 
ENDROOT
BRANCH   9  12
HETATM   12  O4  UNL     1       2.372  -0.463  -0.301  1.00  0.00    -0.306 OA
BRANCH  12  13
HETATM   13  C12 UNL     1       3.273   0.553  -0.224  1.00  0.00     0.283 C 
HETATM   14  O5  UNL     1       2.877   1.658   0.227  1.00  0.00    -0.260 OA
BRANCH  13  15
HETATM   15  C13 UNL     1       4.652   0.389  -0.642  1.00  0.00     0.078 C 
HETATM   16  C14 UNL     1       5.501   1.394  -0.554  1.00  0.00    -0.025 C 
HETATM   17  C15 UNL     1       6.935   1.236  -0.985  1.00  0.00     0.036 C 
ENDBRANCH  13  15
ENDBRANCH  12  13
ENDBRANCH   9  12
BRANCH  10  18
HETATM   18  O6  UNL     1       0.317  -1.618  -1.885  1.00  0.00    -0.387 OA
HETATM   19  C17 UNL     1       0.737  -1.416  -3.168  1.00  0.00     0.202 C 
ENDBRANCH  10  18
BRANCH   1  20
HETATM   20  C2  UNL     1      -2.570   1.793  -1.090  1.00  0.00    -0.029 C 
HETATM   21  C1  UNL     1      -3.329   1.334  -2.040  1.00  0.00     0.007 C 
ENDBRANCH   1  20
BRANCH   4  22
HETATM   22  O3  UNL     1      -4.050  -1.210   0.459  1.00  0.00    -0.392 OA
ATOM     23  H3  UNL     1      -4.006  -2.120   0.191  1.00  0.00     0.210 HD
ENDBRANCH   4  22
BRANCH   2  24
HETATM   24  O1  UNL     1      -2.251   2.720   1.178  1.00  0.00    -0.392 OA
ATOM     25  H1  UNL     1      -2.434   2.902   2.092  1.00  0.00     0.210 HD
ENDBRANCH   2  24
BRANCH   3  26
HETATM   26  O2  UNL     1      -4.171   1.136   1.135  1.00  0.00    -0.390 OA
ATOM     27  H2  UNL     1      -4.905   0.621   1.449  1.00  0.00     0.210 HD
ENDBRANCH   3  26
TORSDOF 8
