REMARK  5 active torsions:
REMARK  status: ('A' for Active; 'I' for Inactive)
REMARK    1  A    between atoms: C2_2  and  C3_3 
REMARK    2  A    between atoms: C3_3  and  C5_5 
REMARK    3  A    between atoms: C5_5  and  C6_6 
REMARK    4  A    between atoms: C6_6  and  C7_7 
REMARK       I    between atoms: C7_7  and  N1_9 
REMARK    5  A    between atoms: N1_9  and  C8_11 
ROOT
HETATM    1  C8  UNL     1      -0.772   1.151   0.845  1.00  0.00     0.131 A 
HETATM    2  N2  UNL     1      -0.866   2.191   0.035  1.00  0.00    -0.284 N 
ATOM      3  H2  UNL     1      -0.228   2.375  -0.740  1.00  0.00     0.188 HD
HETATM    4  N3  UNL     1      -1.890   2.962   0.355  1.00  0.00    -0.295 N 
ATOM      5  H3  UNL     1      -2.155   3.818  -0.132  1.00  0.00     0.187 HD
HETATM    6  C9  UNL     1      -2.534   2.443   1.428  1.00  0.00     0.103 A 
HETATM    7  C10 UNL     1      -1.840   1.298   1.750  1.00  0.00     0.019 A 
HETATM    8  C11 UNL     1      -2.492   0.680   2.930  1.00  0.00     0.053 C 
HETATM    9  C12 UNL     1      -3.898   1.230   2.876  1.00  0.00     0.090 C 
HETATM   10  C13 UNL     1      -3.649   2.599   2.353  1.00  0.00     0.178 C 
HETATM   11  O2  UNL     1      -4.225   3.682   2.605  1.00  0.00    -0.291 OA
ENDROOT
BRANCH   1  12
HETATM   12  N1  UNL     1       0.000   0.155   0.938  1.00  0.00    -0.312 N 
HETATM   13  C7  UNL     1       1.096  -0.120   0.078  1.00  0.00     0.223 C 
HETATM   14  O1  UNL     1       2.241   0.016   0.518  1.00  0.00    -0.273 OA
ATOM     15  H1  UNL     1      -0.179  -0.506   1.694  1.00  0.00     0.170 HD
BRANCH  13  16
HETATM   16  C6  UNL     1       0.849  -0.558  -1.306  1.00  0.00     0.108 C 
BRANCH  16  17
HETATM   17  C5  UNL     1       2.047  -0.746  -2.151  1.00  0.00     0.047 C 
BRANCH  17  18
HETATM   18  C3  UNL     1       3.032  -1.745  -1.782  1.00  0.00    -0.068 C 
HETATM   19  C4  UNL     1       4.230  -1.370  -1.359  1.00  0.00     0.019 C 
BRANCH  18  20
HETATM   20  C2  UNL     1       2.809  -3.165  -1.872  1.00  0.00    -0.004 C 
HETATM   21  C1  UNL     1       1.671  -3.652  -2.301  1.00  0.00     0.012 C 
ENDBRANCH  18  20
ENDBRANCH  17  18
ENDBRANCH  16  17
ENDBRANCH  13  16
ENDBRANCH   1  12
TORSDOF 5
