REMARK  13 active torsions:
REMARK  status: ('A' for Active; 'I' for Inactive)
REMARK    1  A    between atoms: C2_2  and  N1_3 
REMARK    2  A    between atoms: N1_3  and  C4_5 
REMARK    3  A    between atoms: N1_3  and  C6_7 
REMARK    4  A    between atoms: C6_7  and  C7_8 
REMARK    5  A    between atoms: C7_8  and  N2_9 
REMARK    6  A    between atoms: N2_9  and  O1_10 
REMARK    7  A    between atoms: N2_9  and  C8_12 
REMARK    8  A    between atoms: C8_12  and  C9_13 
REMARK    9  A    between atoms: C9_13  and  C10_14 
REMARK   10  A    between atoms: C10_14  and  O2_15 
REMARK   11  A    between atoms: O2_15  and  C11_16 
REMARK   12  A    between atoms: C14_19  and  N3_20 
REMARK   13  A    between atoms: N3_20  and  C15_22 
ROOT
HETATM    1  C11 UNL     1      -0.650  -1.059  -0.141  1.00  0.00     0.091 A 
HETATM    2  C12 UNL     1      -1.949  -0.665  -0.276  1.00  0.00     0.054 A 
HETATM    3  C13 UNL     1      -2.946  -1.590  -0.374  1.00  0.00     0.021 A 
HETATM    4  C14 UNL     1      -4.264  -1.090  -0.507  1.00  0.00     0.053 A 
HETATM    5  C23 UNL     1      -5.249  -2.050  -0.603  1.00  0.00    -0.012 A 
HETATM    6  C24 UNL     1      -6.682  -1.702  -0.745  1.00  0.00     0.052 C 
HETATM    7  C25 UNL     1      -4.920  -3.392  -0.567  1.00  0.00     0.014 A 
HETATM    8  C26 UNL     1      -6.009  -4.414  -0.694  1.00  0.00     0.068 C 
HETATM    9  N5  UNL     1      -3.661  -3.823  -0.438  1.00  0.00    -0.359 N 
ATOM     10  H5  UNL     1      -3.459  -4.822  -0.414  1.00  0.00     0.166 HD
HETATM   11  C27 UNL     1      -2.666  -2.928  -0.341  1.00  0.00     0.046 A 
HETATM   12  C28 UNL     1      -1.342  -3.382  -0.203  1.00  0.00     0.057 A 
HETATM   13  C29 UNL     1      -0.365  -2.420  -0.106  1.00  0.00     0.069 A 
HETATM   14 CL1  UNL     1       1.299  -2.975   0.064  1.00  0.00    -0.081 Cl
ENDROOT
BRANCH   1  15
HETATM   15  O2  UNL     1       0.407  -0.209  -0.036  1.00  0.00    -0.349 OA
BRANCH  15  16
HETATM   16  C10 UNL     1       0.374   1.206  -0.068  1.00  0.00     0.181 C 
BRANCH  16  17
HETATM   17  C9  UNL     1       1.837   1.693   0.120  1.00  0.00     0.073 C 
BRANCH  17  18
HETATM   18  C8  UNL     1       2.243   1.227   1.460  1.00  0.00     0.092 C 
BRANCH  18  19
HETATM   19  N2  UNL     1       3.525   1.453   1.947  1.00  0.00    -0.274 N 
BRANCH  19  20
HETATM   20  C7  UNL     1       4.723   0.793   1.593  1.00  0.00     0.182 C 
BRANCH  20  21
HETATM   21  C6  UNL     1       5.191   1.049   0.217  1.00  0.00     0.259 C 
BRANCH  21  22
HETATM   22  N1  UNL     1       6.449   0.364  -0.085  1.00  0.00    -0.070 N 
HETATM   23  C3  UNL     1       7.133  -0.124   1.069  1.00  0.00     0.272 C 
BRANCH  22  24
HETATM   24  C2  UNL     1       6.170  -0.765  -0.953  1.00  0.00     0.232 C 
HETATM   25  C1  UNL     1       7.232  -1.817  -0.950  1.00  0.00     0.035 C 
ENDBRANCH  22  24
BRANCH  22  26
HETATM   26  C4  UNL     1       7.311   1.332  -0.742  1.00  0.00     0.232 C 
HETATM   27  C5  UNL     1       8.305   1.958   0.223  1.00  0.00     0.035 C 
ENDBRANCH  22  26
ENDBRANCH  21  22
ENDBRANCH  20  21
ENDBRANCH  19  20
BRANCH  19  28
HETATM   28  O1  UNL     1       3.631   2.339   2.791  1.00  0.00    -0.288 OA
ATOM     29  H1  UNL     1       2.825   2.783   3.029  1.00  0.00     0.244 HD
ENDBRANCH  19  28
ENDBRANCH  18  19
ENDBRANCH  17  18
ENDBRANCH  16  17
ENDBRANCH  15  16
ENDBRANCH   1  15
BRANCH   4  30
HETATM   30  N3  UNL     1      -4.424   0.125  -0.518  1.00  0.00    -0.353 N 
ATOM     31  H3  UNL     1      -3.509   0.566  -0.422  1.00  0.00     0.166 HD
BRANCH  30  32
HETATM   32  C15 UNL     1      -5.356   1.104  -0.609  1.00  0.00     0.060 A 
HETATM   33  C16 UNL     1      -5.857   1.543  -1.843  1.00  0.00     0.032 A 
HETATM   34  C17 UNL     1      -6.782   2.530  -1.980  1.00  0.00     0.003 A 
HETATM   35  C18 UNL     1      -7.280   3.158  -0.880  1.00  0.00     0.014 A 
HETATM   36  C19 UNL     1      -6.823   2.765   0.367  1.00  0.00    -0.006 A 
HETATM   37  C20 UNL     1      -7.173   3.245   1.617  1.00  0.00     0.030 A 
HETATM   38  C22 UNL     1      -5.888   1.767   0.499  1.00  0.00     0.069 A 
HETATM   39  C21 UNL     1      -6.429   2.516   2.513  1.00  0.00     0.089 A 
HETATM   40  N4  UNL     1      -5.660   1.628   1.809  1.00  0.00    -0.363 N 
ATOM     41  H4  UNL     1      -5.010   0.960   2.223  1.00  0.00     0.165 HD
ENDBRANCH  30  32
ENDBRANCH   4  30
TORSDOF 13
