REMARK  12 active torsions:
REMARK  status: ('A' for Active; 'I' for Inactive)
REMARK    1  A    between atoms: C2_2  and  C5_5 
REMARK    2  A    between atoms: C8_9  and  C9_10 
REMARK    3  A    between atoms: C9_10  and  N1_11 
REMARK    4  A    between atoms: N2_16  and  C11_17 
REMARK    5  A    between atoms: C11_17  and  C12_18 
REMARK    6  A    between atoms: C12_18  and  C13_19 
REMARK    7  A    between atoms: C13_19  and  C14_20 
REMARK    8  A    between atoms: C14_20  and  C15_21 
REMARK    9  A    between atoms: C15_21  and  C16_22 
REMARK   10  A    between atoms: C16_22  and  C17_23 
REMARK   11  A    between atoms: C17_23  and  C18_24 
REMARK   12  A    between atoms: C18_24  and  N3_25 
ROOT
HETATM    1  C12 UNL     1      -0.941   0.403  -0.378  1.00  0.00     0.045 C 
ENDROOT
BRANCH   1   2
HETATM    2  C11 UNL     1      -1.970  -0.035  -1.411  1.00  0.00     0.069 C 
BRANCH   2   3
HETATM    3  N2  UNL     1      -3.325   0.166  -1.128  1.00  0.00    -0.337 N 
HETATM    4  C5  UNL     1      -4.148  -0.731  -0.582  1.00  0.00     0.040 A 
HETATM    5  C6  UNL     1      -5.503  -0.357  -0.307  1.00  0.00     0.035 A 
HETATM    6 BR1  UNL     1      -6.758  -1.556   0.493  1.00  0.00    -0.049 Br
HETATM    7  C7  UNL     1      -5.959   0.897  -0.597  1.00  0.00     0.031 A 
HETATM    8  C8  UNL     1      -5.116   1.811  -1.157  1.00  0.00    -0.016 A 
HETATM    9  C10 UNL     1      -3.834   1.412  -1.401  1.00  0.00     0.105 A 
BRANCH   4  10
HETATM   10  C2  UNL     1      -3.866  -2.103  -0.255  1.00  0.00    -0.007 C 
HETATM   11  C1  UNL     1      -4.147  -2.272   1.262  1.00  0.00     0.021 C 
HETATM   12  C3  UNL     1      -2.516  -2.715  -0.402  1.00  0.00     0.021 C 
HETATM   13  C4  UNL     1      -4.895  -3.064  -0.932  1.00  0.00     0.021 C 
ENDBRANCH   4  10
BRANCH   8  14
HETATM   14  C9  UNL     1      -5.565   3.198  -1.496  1.00  0.00     0.269 C 
BRANCH  14  15
HETATM   15  N1  UNL     1      -5.319   4.027  -0.321  1.00  0.00    -0.075 N 
ATOM     16  H13 UNL     1      -5.755   3.661   0.526  1.00  0.00     0.274 HD
ATOM     17  H12 UNL     1      -4.352   3.987   0.002  1.00  0.00     0.274 HD
ATOM     18  H11 UNL     1      -5.625   4.972  -0.552  1.00  0.00     0.274 HD
ENDBRANCH  14  15
ENDBRANCH   8  14
ENDBRANCH   2   3
ENDBRANCH   1   2
BRANCH   1  19
HETATM   19  C13 UNL     1      -0.946   1.826  -0.051  1.00  0.00     0.005 C 
BRANCH  19  20
HETATM   20  C14 UNL     1      -0.036   2.254   1.022  1.00  0.00     0.000 C 
BRANCH  20  21
HETATM   21  C15 UNL     1       1.408   2.083   1.016  1.00  0.00     0.000 C 
BRANCH  21  22
HETATM   22  C16 UNL     1       1.984   0.732   1.074  1.00  0.00     0.002 C 
BRANCH  22  23
HETATM   23  C17 UNL     1       3.517   0.755   1.087  1.00  0.00     0.022 C 
BRANCH  23  24
HETATM   24  C18 UNL     1       3.964  -0.691   1.147  1.00  0.00     0.149 C 
BRANCH  24  25
HETATM   25  N3  UNL     1       5.397  -0.797   1.164  1.00  0.00    -0.289 N 
HETATM   26  N4  UNL     1       6.115  -0.807   2.278  1.00  0.00    -0.263 N 
HETATM   27  C19 UNL     1       7.404  -0.916   1.936  1.00  0.00     0.272 A 
ATOM     28  H4  UNL     1       5.750  -0.743   3.228  1.00  0.00     0.190 HD
HETATM   29  O1  UNL     1       8.380  -0.959   2.705  1.00  0.00    -0.266 OA
HETATM   30  C20 UNL     1       7.474  -0.974   0.569  1.00  0.00     0.061 A 
HETATM   31  C21 UNL     1       8.496  -1.085  -0.346  1.00  0.00     0.019 A 
HETATM   32  C25 UNL     1       6.173  -0.896   0.082  1.00  0.00     0.066 A 
HETATM   33  C22 UNL     1       8.270  -1.121  -1.700  1.00  0.00     0.001 A 
HETATM   34  C23 UNL     1       6.967  -1.042  -2.158  1.00  0.00     0.002 A 
HETATM   35  C24 UNL     1       5.901  -0.928  -1.277  1.00  0.00     0.032 A 
ENDBRANCH  24  25
ENDBRANCH  23  24
ENDBRANCH  22  23
ENDBRANCH  21  22
ENDBRANCH  20  21
ENDBRANCH  19  20
ENDBRANCH   1  19
TORSDOF 12
