REMARK  11 active torsions:
REMARK  status: ('A' for Active; 'I' for Inactive)
REMARK       I    between atoms: C1_2  and  N1_3 
REMARK    1  A    between atoms: C1_2  and  C18_25 
REMARK    2  A    between atoms: N1_3  and  C2_5 
REMARK    3  A    between atoms: C2_5  and  C3_6 
REMARK    4  A    between atoms: C2_5  and  C11_18 
REMARK    5  A    between atoms: C4_7  and  S1_8 
REMARK    6  A    between atoms: S1_8  and  C5_11 
REMARK    7  A    between atoms: C11_18  and  C12_19 
REMARK    8  A    between atoms: C21_29  and  C22_30 
REMARK    9  A    between atoms: C22_30  and  O5_31 
REMARK   10  A    between atoms: C22_30  and  C23_33 
REMARK   11  A    between atoms: C24_34  and  O6_35 
ROOT
HETATM    1  C2  UNL     1      -0.987  -1.850  -0.710  1.00  0.00     0.112 C 
ENDROOT
BRANCH   1   2
HETATM    2  N1  UNL     1       0.218  -1.108  -1.013  1.00  0.00    -0.351 N 
HETATM    3  C1  UNL     1       1.526  -1.568  -0.734  1.00  0.00     0.249 C 
HETATM    4  O1  UNL     1       1.634  -2.701  -0.185  1.00  0.00    -0.271 OA
ATOM      5  H1  UNL     1       0.118  -0.195  -1.456  1.00  0.00     0.163 HD
BRANCH   3   6
HETATM    6  C18 UNL     1       2.750  -0.786  -1.057  1.00  0.00     0.237 C 
HETATM    7  C19 UNL     1       3.686  -1.547  -1.935  1.00  0.00     0.209 C 
HETATM    8  O4  UNL     1       4.383  -0.732  -2.786  1.00  0.00    -0.386 OA
HETATM    9  C20 UNL     1       4.649   0.519  -2.274  1.00  0.00     0.202 C 
HETATM   10  C21 UNL     1       3.356   1.257  -1.976  1.00  0.00     0.175 C 
HETATM   11  O7  UNL     1       2.348   0.413  -1.597  1.00  0.00    -0.364 OA
BRANCH  10  12
HETATM   12  C22 UNL     1       3.699   2.374  -1.046  1.00  0.00     0.157 C 
BRANCH  12  13
HETATM   13  O5  UNL     1       4.041   1.866   0.226  1.00  0.00    -0.392 OA
ATOM     14  H5  UNL     1       4.259   2.577   0.818  1.00  0.00     0.210 HD
ENDBRANCH  12  13
BRANCH  12  15
HETATM   15  C23 UNL     1       2.713   3.463  -0.915  1.00  0.00     0.068 A 
HETATM   16  C24 UNL     1       1.316   3.279  -0.411  1.00  0.00     0.145 A 
HETATM   17  C25 UNL     1       2.375   4.136   0.356  1.00  0.00     0.120 A 
HETATM   18 CL1  UNL     1       2.918   3.478   1.901  1.00  0.00    -0.122 Cl
BRANCH  16  19
HETATM   19  O6  UNL     1       0.997   2.096   0.229  1.00  0.00    -0.394 OA
ATOM     20  H6  UNL     1       0.110   1.979   0.549  1.00  0.00     0.210 HD
ENDBRANCH  16  19
ENDBRANCH  12  15
ENDBRANCH  10  12
ENDBRANCH   3   6
ENDBRANCH   1   2
BRANCH   1  21
HETATM   21  C3  UNL     1      -1.897  -1.003   0.074  1.00  0.00     0.010 C 
HETATM   22  C4  UNL     1      -1.819  -0.900   1.393  1.00  0.00     0.112 C 
BRANCH  22  23
HETATM   23  S1  UNL     1      -2.933   0.128   2.300  1.00  0.00     0.196 S 
HETATM   24  O2  UNL     1      -3.872   0.781   1.347  1.00  0.00    -0.218 OA
HETATM   25  O3  UNL     1      -3.741  -0.778   3.221  1.00  0.00    -0.218 OA
BRANCH  23  26
HETATM   26  C5  UNL     1      -2.086   1.271   3.286  1.00  0.00     0.063 A 
HETATM   27  C6  UNL     1      -1.728   2.487   2.745  1.00  0.00     0.027 A 
HETATM   28  C7  UNL     1      -1.049   3.437   3.512  1.00  0.00     0.044 A 
HETATM   29  C8  UNL     1      -0.715   3.195   4.831  1.00  0.00     0.116 A 
HETATM   30  F1  UNL     1      -0.056   4.133   5.552  1.00  0.00    -0.206 F 
HETATM   31  C9  UNL     1      -1.078   1.972   5.365  1.00  0.00     0.044 A 
HETATM   32  C10 UNL     1      -1.747   1.036   4.610  1.00  0.00     0.027 A 
ENDBRANCH  23  26
ENDBRANCH  22  23
ENDBRANCH   1  21
BRANCH   1  33
HETATM   33  C11 UNL     1      -1.572  -2.270  -2.040  1.00  0.00     0.067 C 
BRANCH  33  34
HETATM   34  C12 UNL     1      -2.812  -3.040  -1.929  1.00  0.00    -0.056 A 
HETATM   35  C13 UNL     1      -4.079  -2.493  -1.932  1.00  0.00     0.007 A 
HETATM   36  C14 UNL     1      -5.197  -3.295  -1.818  1.00  0.00     0.001 A 
HETATM   37  C15 UNL     1      -5.093  -4.681  -1.696  1.00  0.00     0.000 A 
HETATM   38  C16 UNL     1      -3.835  -5.232  -1.692  1.00  0.00     0.001 A 
HETATM   39  C17 UNL     1      -2.742  -4.412  -1.807  1.00  0.00     0.007 A 
ENDBRANCH  33  34
ENDBRANCH   1  33
TORSDOF 11
