REMARK  13 active torsions:
REMARK  status: ('A' for Active; 'I' for Inactive)
REMARK    1  A    between atoms: C2_2  and  C3_3 
REMARK    2  A    between atoms: C2_2  and  C4_8 
REMARK    3  A    between atoms: C3_3  and  N1_4 
REMARK    4  A    between atoms: C4_8  and  C5_9 
REMARK    5  A    between atoms: C5_9  and  O2_11 
REMARK    6  A    between atoms: O2_11  and  C6_12 
REMARK    7  A    between atoms: C12_18  and  O3_19 
REMARK    8  A    between atoms: O3_19  and  C13_20 
REMARK    9  A    between atoms: C13_20  and  C14_22 
REMARK   10  A    between atoms: C15_23  and  C16_24 
REMARK   11  A    between atoms: C24_33  and  O5_34 
REMARK   12  A    between atoms: C25_36  and  O6_37 
REMARK   13  A    between atoms: C26_39  and  O7_40 
ROOT
HETATM    1  C6  UNL     1      -2.741  -0.385  -0.651  1.00  0.00     0.085 C 
HETATM    2  C7  UNL     1      -1.645  -0.149   0.021  1.00  0.00     0.018 C 
HETATM    3  C8  UNL     1      -0.568   0.740  -0.437  1.00  0.00     0.062 C 
HETATM    4  C9  UNL     1       0.727  -0.001  -0.685  1.00  0.00    -0.007 C 
HETATM    5  C10 UNL     1       1.062  -0.698   0.641  1.00  0.00     0.018 C 
HETATM    6  C11 UNL     1       0.667  -1.032  -1.749  1.00  0.00     0.018 C 
HETATM    7  C12 UNL     1       1.807   1.038  -0.884  1.00  0.00     0.163 C 
HETATM    8  C22 UNL     1       1.466   1.909  -2.016  1.00  0.00     0.005 C 
HETATM    9  C23 UNL     1       0.208   2.181  -2.266  1.00  0.00     0.012 C 
HETATM   10  C24 UNL     1      -0.969   1.689  -1.504  1.00  0.00     0.112 C 
HETATM   11  C25 UNL     1      -1.960   1.152  -2.483  1.00  0.00     0.192 C 
HETATM   12  C26 UNL     1      -2.983   0.237  -1.949  1.00  0.00     0.207 C 
ENDROOT
BRANCH   7  13
HETATM   13  O3  UNL     1       3.088   0.469  -0.963  1.00  0.00    -0.308 OA
BRANCH  13  14
HETATM   14  C13 UNL     1       4.098   0.677  -0.052  1.00  0.00     0.283 C 
HETATM   15  O4  UNL     1       3.839   1.438   0.923  1.00  0.00    -0.260 OA
BRANCH  14  16
HETATM   16  C14 UNL     1       5.433   0.060  -0.168  1.00  0.00     0.083 C 
HETATM   17  C15 UNL     1       6.335   0.310   0.741  1.00  0.00     0.017 C 
BRANCH  17  18
HETATM   18  C16 UNL     1       7.674  -0.261   0.695  1.00  0.00    -0.036 A 
HETATM   19  C17 UNL     1       8.610   0.024   1.677  1.00  0.00     0.014 A 
HETATM   20  C18 UNL     1       9.880  -0.465   1.711  1.00  0.00     0.043 A 
HETATM   21  C19 UNL     1      10.262  -1.317   0.674  1.00  0.00     0.116 A 
HETATM   22  F1  UNL     1      11.526  -1.808   0.701  1.00  0.00    -0.206 F 
HETATM   23  C20 UNL     1       9.369  -1.624  -0.316  1.00  0.00     0.043 A 
HETATM   24  C21 UNL     1       8.087  -1.105  -0.311  1.00  0.00     0.014 A 
ENDBRANCH  17  18
ENDBRANCH  14  16
ENDBRANCH  13  14
ENDBRANCH   7  13
BRANCH  10  25
HETATM   25  O5  UNL     1      -1.547   2.850  -0.931  1.00  0.00    -0.382 OA
ATOM     26  H5  UNL     1      -1.804   3.458  -1.614  1.00  0.00     0.211 HD
ENDBRANCH  10  25
BRANCH   1  27
HETATM   27  O2  UNL     1      -3.727  -1.266  -0.119  1.00  0.00    -0.281 OA
BRANCH  27  28
HETATM   28  C5  UNL     1      -4.700  -0.641   0.678  1.00  0.00     0.264 C 
HETATM   29  O1  UNL     1      -4.616   0.583   0.842  1.00  0.00    -0.265 OA
BRANCH  28  30
HETATM   30  C4  UNL     1      -5.793  -1.401   1.308  1.00  0.00     0.117 C 
BRANCH  30  31
HETATM   31  C2  UNL     1      -6.675  -0.443   2.065  1.00  0.00     0.016 C 
HETATM   32  C1  UNL     1      -7.238   0.559   1.088  1.00  0.00     0.012 C 
BRANCH  31  33
HETATM   33  C3  UNL     1      -7.774  -1.167   2.819  1.00  0.00     0.234 C 
BRANCH  33  34
HETATM   34  N1  UNL     1      -8.558  -0.213   3.548  1.00  0.00    -0.079 N 
ATOM     35  H13 UNL     1      -7.987   0.368   4.162  1.00  0.00     0.274 HD
ATOM     36  H12 UNL     1      -8.924   0.526   2.947  1.00  0.00     0.274 HD
ATOM     37  H11 UNL     1      -9.297  -0.700   4.055  1.00  0.00     0.274 HD
ENDBRANCH  33  34
ENDBRANCH  31  33
ENDBRANCH  30  31
ENDBRANCH  28  30
ENDBRANCH  27  28
ENDBRANCH   1  27
BRANCH  11  38
HETATM   38  O6  UNL     1      -1.331   0.587  -3.619  1.00  0.00    -0.389 OA
ATOM     39  H6  UNL     1      -1.962   0.245  -4.242  1.00  0.00     0.210 HD
ENDBRANCH  11  38
BRANCH  12  40
HETATM   40  O7  UNL     1      -3.214  -0.830  -2.857  1.00  0.00    -0.386 OA
ATOM     41  H7  UNL     1      -3.372  -0.425  -3.702  1.00  0.00     0.210 HD
ENDBRANCH  12  40
TORSDOF 13
