REMARK  10 active torsions:
REMARK  status: ('A' for Active; 'I' for Inactive)
REMARK    1  A    between atoms: C2_2  and  C3_3 
REMARK    2  A    between atoms: C2_2  and  C4_6 
REMARK    3  A    between atoms: C4_6  and  O2_7 
REMARK    4  A    between atoms: C4_6  and  C5_9 
REMARK    5  A    between atoms: C5_9  and  C6_10 
REMARK    6  A    between atoms: C6_10  and  C7_11 
REMARK    7  A    between atoms: C12_17  and  O4_18 
REMARK    8  A    between atoms: O4_18  and  C13_19 
REMARK    9  A    between atoms: C13_19  and  C14_21 
REMARK   10  A    between atoms: C21_31  and  O9_32 
ROOT
HETATM    1  C7  UNL     1      -3.082  -0.106   0.571  1.00  0.00     0.064 C 
HETATM    2  C8  UNL     1      -3.019  -0.763   1.889  1.00  0.00     0.132 C 
HETATM    3  O3  UNL     1      -3.774  -0.654   2.821  1.00  0.00    -0.298 OA
HETATM    4  C9  UNL     1      -1.803  -1.664   1.957  1.00  0.00     0.084 C 
HETATM    5  C10 UNL     1      -0.989  -1.115   0.810  1.00  0.00     0.004 C 
HETATM    6  C11 UNL     1       0.042  -2.021   0.265  1.00  0.00     0.038 C 
HETATM    7  C12 UNL     1       0.548  -1.681  -1.090  1.00  0.00     0.132 C 
HETATM    8  C23 UNL     1      -0.322  -0.902  -1.980  1.00  0.00     0.033 C 
HETATM    9  C24 UNL     1      -1.505  -0.239  -1.386  1.00  0.00     0.013 C 
HETATM   10  C25 UNL     1      -2.104  -0.955  -0.232  1.00  0.00    -0.029 C 
HETATM   11  C26 UNL     1      -2.774  -2.237  -0.560  1.00  0.00     0.016 C 
ENDROOT
BRANCH   7  12
HETATM   12  O4  UNL     1       1.765  -0.957  -0.914  1.00  0.00    -0.316 OA
BRANCH  12  13
HETATM   13  C13 UNL     1       3.004  -1.407  -1.299  1.00  0.00     0.265 C 
HETATM   14  O5  UNL     1       3.075  -2.538  -1.848  1.00  0.00    -0.265 OA
BRANCH  13  15
HETATM   15  C14 UNL     1       4.237  -0.578  -1.075  1.00  0.00     0.114 C 
HETATM   16  C15 UNL     1       5.418  -1.342  -1.605  1.00  0.00     0.186 C 
HETATM   17  O6  UNL     1       6.273  -1.735  -0.571  1.00  0.00    -0.350 OA
HETATM   18  C16 UNL     1       6.834  -0.631   0.034  1.00  0.00     0.220 C 
HETATM   19  C17 UNL     1       7.933  -1.128   0.957  1.00  0.00     0.085 C 
HETATM   20  O7  UNL     1       7.287   0.326  -0.842  1.00  0.00    -0.315 OA
HETATM   21  C21 UNL     1       5.756   0.097   0.794  1.00  0.00     0.223 C 
HETATM   22  C18 UNL     1       7.077   1.570  -0.249  1.00  0.00     0.164 C 
HETATM   23  C19 UNL     1       6.686   2.533  -1.350  1.00  0.00     0.078 C 
HETATM   24  C20 UNL     1       8.291   2.101   0.441  1.00  0.00     0.078 C 
HETATM   25  O8  UNL     1       5.984   1.438   0.589  1.00  0.00    -0.314 OA
HETATM   26  C22 UNL     1       4.373  -0.330   0.404  1.00  0.00     0.091 C 
BRANCH  21  27
HETATM   27  O9  UNL     1       5.967  -0.154   2.161  1.00  0.00    -0.361 OA
ATOM     28  H9  UNL     1       5.287   0.305   2.640  1.00  0.00     0.213 HD
ENDBRANCH  21  27
ENDBRANCH  13  15
ENDBRANCH  12  13
ENDBRANCH   7  12
BRANCH   1  29
HETATM   29  C6  UNL     1      -4.411  -0.055  -0.085  1.00  0.00     0.015 C 
BRANCH  29  30
HETATM   30  C5  UNL     1      -5.433   0.682   0.701  1.00  0.00     0.033 C 
BRANCH  30  31
HETATM   31  C4  UNL     1      -6.785   0.722  -0.032  1.00  0.00     0.130 C 
BRANCH  31  32
HETATM   32  C2  UNL     1      -7.798   1.481   0.801  1.00  0.00     0.099 C 
HETATM   33  C1  UNL     1      -7.281   2.859   1.106  1.00  0.00     0.022 C 
BRANCH  32  34
HETATM   34  C3  UNL     1      -9.087   1.632   0.093  1.00  0.00     0.237 C 
HETATM   35  N1  UNL     1     -10.143   2.306   0.763  1.00  0.00    -0.062 NA
HETATM   36  O1  UNL     1      -9.314   1.203  -1.066  1.00  0.00    -0.276 OA
ENDBRANCH  32  34
ENDBRANCH  31  32
BRANCH  31  37
HETATM   37  O2  UNL     1      -7.241  -0.558  -0.327  1.00  0.00    -0.395 OA
ATOM     38  H2  UNL     1      -6.606  -1.034  -0.849  1.00  0.00     0.210 HD
ENDBRANCH  31  37
ENDBRANCH  30  31
ENDBRANCH  29  30
ENDBRANCH   1  29
TORSDOF 10
