REMARK  3 active torsions:
REMARK  status: ('A' for Active; 'I' for Inactive)
REMARK    1  A    between atoms: N1_2  and  C3_4 
REMARK    2  A    between atoms: C3_4  and  C4_5 
REMARK    3  A    between atoms: C4_5  and  N2_6 
ROOT
HETATM    1  N2  UNL     1      -3.271   0.118   0.186  1.00  0.00    -0.387 N 
HETATM    2  C5  UNL     1      -3.430   1.212  -0.690  1.00  0.00     0.149 C 
HETATM    3  C6  UNL     1      -2.239   1.548  -1.515  1.00  0.00    -0.011 C 
HETATM    4  C7  UNL     1      -1.866   2.784  -1.801  1.00  0.00    -0.029 C 
HETATM    5  C8  UNL     1      -2.554   4.006  -1.359  1.00  0.00     0.027 C 
HETATM    6  C9  UNL     1      -1.886   4.692  -0.213  1.00  0.00     0.005 C 
HETATM    7  C10 UNL     1      -0.497   4.193   0.104  1.00  0.00     0.028 C 
HETATM    8  C11 UNL     1       0.566   4.765  -0.797  1.00  0.00     0.232 C 
HETATM    9  N3  UNL     1       1.716   3.884  -0.682  1.00  0.00    -0.073 N 
ATOM     10  H31 UNL     1       1.747   3.218  -1.454  1.00  0.00     0.277 HD
ATOM     11  H32 UNL     1       1.602   3.231   0.093  1.00  0.00     0.277 HD
HETATM   12  C12 UNL     1       2.954   4.606  -0.572  1.00  0.00     0.258 C 
HETATM   13  C13 UNL     1       3.843   3.810   0.389  1.00  0.00     0.195 C 
HETATM   14  O1  UNL     1       4.481   2.779  -0.337  1.00  0.00    -0.389 OA
HETATM   15  C14 UNL     1       4.252   1.541   0.214  1.00  0.00     0.167 C 
HETATM   16  C15 UNL     1       5.532   1.050   0.870  1.00  0.00     0.028 C 
HETATM   17  C16 UNL     1       5.355  -0.288   1.534  1.00  0.00     0.032 C 
HETATM   18  C17 UNL     1       5.901  -1.415   0.686  1.00  0.00     0.272 C 
HETATM   19  N4  UNL     1       4.904  -1.926  -0.222  1.00  0.00     0.084 N 
HETATM   20  C18 UNL     1       5.582  -2.809  -1.153  1.00  0.00     0.309 C 
HETATM   21  C19 UNL     1       3.860  -2.660   0.489  1.00  0.00     0.273 C 
HETATM   22  C20 UNL     1       3.169  -3.528  -0.522  1.00  0.00     0.057 C 
HETATM   23  C21 UNL     1       2.055  -4.352   0.053  1.00  0.00     0.234 C 
HETATM   24  N5  UNL     1       0.864  -3.610   0.339  1.00  0.00    -0.073 N 
ATOM     25  H51 UNL     1       0.726  -2.826  -0.299  1.00  0.00     0.277 HD
ATOM     26  H52 UNL     1       0.933  -3.073   1.204  1.00  0.00     0.277 HD
HETATM   27  C22 UNL     1      -0.262  -4.539   0.341  1.00  0.00     0.259 C 
HETATM   28  C23 UNL     1      -1.340  -4.099  -0.623  1.00  0.00     0.260 C 
HETATM   29  N6  UNL     1      -2.179  -3.049  -0.093  1.00  0.00    -0.069 N 
ATOM     30  H61 UNL     1      -2.087  -2.980   0.920  1.00  0.00     0.277 HD
ATOM     31  H62 UNL     1      -3.166  -3.302  -0.149  1.00  0.00     0.277 HD
HETATM   32  C24 UNL     1      -1.925  -1.751  -0.740  1.00  0.00     0.276 C 
HETATM   33  C25 UNL     1      -2.085  -0.615   0.226  1.00  0.00     0.085 C 
ENDROOT
BRANCH   1  34
HETATM   34  C4  UNL     1      -4.470  -0.600   0.390  1.00  0.00     0.152 C 
BRANCH  34  35
HETATM   35  C3  UNL     1      -5.423   0.273   1.209  1.00  0.00     0.291 C 
BRANCH  35  36
HETATM   36  N1  UNL     1      -6.701  -0.375   1.434  1.00  0.00     0.081 N 
HETATM   37  C1  UNL     1      -7.461  -0.461   0.186  1.00  0.00     0.309 C 
HETATM   38  C2  UNL     1      -6.497  -1.733   1.950  1.00  0.00     0.309 C 
ENDBRANCH  35  36
ENDBRANCH  34  35
ENDBRANCH   1  34
TORSDOF 3
