REMARK  9 active torsions:
REMARK  status: ('A' for Active; 'I' for Inactive)
REMARK    1  A    between atoms: N1_1  and  C1_5 
REMARK    2  A    between atoms: C3_7  and  O1_8 
REMARK    3  A    between atoms: C4_10  and  O2_11 
REMARK    4  A    between atoms: C5_13  and  O3_14 
REMARK    5  A    between atoms: O3_14  and  C6_15 
REMARK    6  A    between atoms: C6_15  and  C7_17 
REMARK    7  A    between atoms: C9_19  and  C10_20 
REMARK    8  A    between atoms: C10_20  and  C11_21 
REMARK    9  A    between atoms: C10_20  and  C16_29 
REMARK       I    between atoms: C11_21  and  N2_23 
ROOT
HETATM    1  C7  UNL     1       1.437  -0.281   0.092  1.00  0.00     0.014 C 
HETATM    2  C8  UNL     1       0.316  -0.491  -0.565  1.00  0.00    -0.008 C 
HETATM    3  C9  UNL     1      -0.839  -0.245   0.360  1.00  0.00     0.022 C 
HETATM    4  C24 UNL     1      -0.220   0.754   1.277  1.00  0.00     0.014 C 
HETATM    5  C25 UNL     1       1.194   0.147   1.503  1.00  0.00     0.045 C 
ENDROOT
BRANCH   3   6
HETATM    6  C10 UNL     1      -2.108  -0.007  -0.280  1.00  0.00     0.090 C 
BRANCH   6   7
HETATM    7  C11 UNL     1      -2.371  -1.241  -1.130  1.00  0.00     0.225 C 
HETATM    8  O5  UNL     1      -2.039  -1.143  -2.351  1.00  0.00    -0.273 OA
HETATM    9  N2  UNL     1      -2.927  -2.428  -0.667  1.00  0.00    -0.348 N 
HETATM   10  C12 UNL     1      -3.340  -2.618   0.698  1.00  0.00     0.152 C 
HETATM   11  C15 UNL     1      -3.111  -3.543  -1.569  1.00  0.00     0.152 C 
HETATM   12  C13 UNL     1      -4.231  -3.863   0.689  1.00  0.00     0.187 C 
HETATM   13  O6  UNL     1      -3.569  -4.997   0.295  1.00  0.00    -0.388 OA
HETATM   14  C14 UNL     1      -2.762  -4.827  -0.817  1.00  0.00     0.187 C 
ENDBRANCH   6   7
BRANCH   6  15
HETATM   15  C16 UNL     1      -2.544   1.172  -1.002  1.00  0.00     0.004 C 
HETATM   16  C17 UNL     1      -3.968   0.893  -1.622  1.00  0.00     0.006 C 
HETATM   17  C18 UNL     1      -4.274   2.327  -2.166  1.00  0.00     0.005 C 
HETATM   18  C19 UNL     1      -4.138   2.947  -0.851  1.00  0.00    -0.010 C 
HETATM   19  C20 UNL     1      -3.935   4.393  -0.681  1.00  0.00     0.005 C 
HETATM   20  C23 UNL     1      -2.689   2.499  -0.488  1.00  0.00    -0.006 C 
HETATM   21  C21 UNL     1      -3.357   4.370   0.753  1.00  0.00     0.001 C 
HETATM   22  C22 UNL     1      -2.769   2.934   0.911  1.00  0.00     0.005 C 
ENDBRANCH   6  15
ENDBRANCH   3   6
BRANCH   1  23
HETATM   23  C6  UNL     1       2.794  -0.421  -0.472  1.00  0.00     0.289 C 
HETATM   24  O4  UNL     1       2.934  -0.772  -1.685  1.00  0.00    -0.260 OA
BRANCH  23  25
HETATM   25  O3  UNL     1       3.927  -0.190   0.255  1.00  0.00    -0.307 OA
BRANCH  25  26
HETATM   26  C5  UNL     1       5.211  -0.331  -0.312  1.00  0.00     0.194 C 
HETATM   27  C1  UNL     1       5.986  -1.352   0.476  1.00  0.00     0.218 C 
HETATM   28  C2  UNL     1       7.423  -0.974   0.178  1.00  0.00     0.070 C 
HETATM   29  C3  UNL     1       7.447   0.498  -0.108  1.00  0.00     0.151 C 
HETATM   30  C4  UNL     1       6.009   0.953  -0.251  1.00  0.00     0.178 C 
BRANCH  27  31
HETATM   31  N1  UNL     1       5.719  -1.275   1.904  1.00  0.00    -0.072 N 
ATOM     32  H13 UNL     1       6.377  -1.838   2.442  1.00  0.00     0.274 HD
ATOM     33  H12 UNL     1       5.955  -0.358   2.284  1.00  0.00     0.274 HD
ATOM     34  H11 UNL     1       4.752  -1.529   2.105  1.00  0.00     0.274 HD
ENDBRANCH  27  31
BRANCH  29  35
HETATM   35  O1  UNL     1       8.109   1.153   0.918  1.00  0.00    -0.393 OA
ATOM     36  H1  UNL     1       8.124   2.085   0.737  1.00  0.00     0.210 HD
ENDBRANCH  29  35
BRANCH  30  37
HETATM   37  O2  UNL     1       5.632   1.768   0.787  1.00  0.00    -0.390 OA
ATOM     38  H2  UNL     1       4.730   2.053   0.697  1.00  0.00     0.210 HD
ENDBRANCH  30  37
ENDBRANCH  25  26
ENDBRANCH  23  25
ENDBRANCH   1  23
TORSDOF 9
