REMARK  8 active torsions:
REMARK  status: ('A' for Active; 'I' for Inactive)
REMARK    1  A    between atoms: O1_2  and  C2_3 
REMARK    2  A    between atoms: C7_8  and  C8_9 
REMARK    3  A    between atoms: C8_9  and  C9_10 
REMARK    4  A    between atoms: C9_10  and  N1_11 
REMARK    5  A    between atoms: N1_11  and  C10_13 
REMARK    6  A    between atoms: C11_16  and  O2_17 
REMARK    7  A    between atoms: O2_17  and  C12_18 
REMARK    8  A    between atoms: C18_29  and  N4_30 
ROOT
HETATM    1  C10 UNL     1       1.783  -2.376   1.127  1.00  0.00     0.695 A 
HETATM    2  N2  UNL     1       2.000  -1.300   0.364  1.00  0.00    -0.154 N 
ATOM      3  H2  UNL     1       1.216  -0.801  -0.055  1.00  0.00     0.188 HD
HETATM    4  C11 UNL     1       3.278  -0.875   0.150  1.00  0.00     0.258 A 
HETATM    5  N3  UNL     1       4.300  -1.542   0.707  1.00  0.00    -0.154 N 
ATOM      6  H3  UNL     1       5.253  -1.218   0.542  1.00  0.00     0.188 HD
HETATM    7  C18 UNL     1       4.103  -2.623   1.475  1.00  0.00     0.693 A 
HETATM    8  N5  UNL     1       2.838  -3.024   1.673  1.00  0.00    -0.022 N 
ATOM      9  H5  UNL     1       2.666  -3.844   2.254  1.00  0.00     0.203 HD
ENDROOT
BRANCH   1  10
HETATM   10  N1  UNL     1       0.611  -2.829   1.369  1.00  0.00    -0.225 N 
ATOM     11  H1  UNL     1       0.533  -3.656   1.961  1.00  0.00     0.177 HD
BRANCH  10  12
HETATM   12  C9  UNL     1      -0.605  -2.248   0.860  1.00  0.00     0.142 C 
BRANCH  12  13
HETATM   13  C8  UNL     1      -1.038  -1.042   1.661  1.00  0.00     0.060 C 
BRANCH  13  14
HETATM   14  C7  UNL     1      -2.291  -0.470   1.109  1.00  0.00    -0.038 A 
HETATM   15  C6  UNL     1      -3.577  -0.790   1.451  1.00  0.00     0.038 A 
HETATM   16  C5  UNL     1      -4.469  -0.024   0.698  1.00  0.00     0.039 A 
HETATM   17  C4  UNL     1      -5.843   0.071   0.627  1.00  0.00     0.033 A 
HETATM   18  N6  UNL     1      -3.685   0.744  -0.084  1.00  0.00    -0.330 N 
HETATM   19  C3  UNL     1      -6.426   0.958  -0.252  1.00  0.00     0.040 A 
HETATM   20  C2  UNL     1      -5.627   1.757  -1.065  1.00  0.00     0.084 A 
HETATM   21  C20 UNL     1      -4.262   1.610  -0.941  1.00  0.00     0.133 A 
HETATM   22  C19 UNL     1      -2.387   0.499   0.140  1.00  0.00     0.104 A 
BRANCH  20  23
HETATM   23  O1  UNL     1      -6.117   2.665  -1.966  1.00  0.00    -0.355 OA
HETATM   24  C1  UNL     1      -7.468   2.928  -2.207  1.00  0.00     0.210 C 
ENDBRANCH  20  23
ENDBRANCH  13  14
ENDBRANCH  12  13
ENDBRANCH  10  12
ENDBRANCH   1  10
BRANCH   4  25
HETATM   25  O2  UNL     1       3.464   0.229  -0.636  1.00  0.00    -0.275 OA
BRANCH  25  26
HETATM   26  C12 UNL     1       4.698   0.749  -0.922  1.00  0.00     0.124 A 
HETATM   27  C13 UNL     1       5.397   0.310  -2.040  1.00  0.00     0.069 A 
HETATM   28 CL1  UNL     1       4.643  -0.917  -3.049  1.00  0.00    -0.081 Cl
HETATM   29  C14 UNL     1       6.637   0.819  -2.344  1.00  0.00     0.028 A 
HETATM   30  C15 UNL     1       7.205   1.782  -1.535  1.00  0.00     0.027 A 
HETATM   31  C16 UNL     1       6.511   2.218  -0.425  1.00  0.00     0.058 A 
HETATM   32 CL2  UNL     1       7.280   3.441   0.567  1.00  0.00    -0.082 Cl
HETATM   33  C17 UNL     1       5.254   1.709  -0.106  1.00  0.00     0.091 A 
HETATM   34 CL3  UNL     1       4.435   2.310   1.316  1.00  0.00    -0.079 Cl
ENDBRANCH  25  26
ENDBRANCH   4  25
BRANCH   7  35
HETATM   35  N4  UNL     1       5.109  -3.266   2.015  1.00  0.00    -0.234 N 
ATOM     36  H42 UNL     1       6.071  -2.961   1.864  1.00  0.00     0.174 HD
ATOM     37  H41 UNL     1       4.959  -4.088   2.599  1.00  0.00     0.174 HD
ENDBRANCH   7  35
TORSDOF 8
