REMARK  8 active torsions:
REMARK  status: ('A' for Active; 'I' for Inactive)
REMARK    1  A    between atoms: C1_2  and  C2_3 
REMARK       I    between atoms: C1_2  and  N1_10 
REMARK    2  A    between atoms: C2_3  and  O2_4 
REMARK    3  A    between atoms: O2_4  and  C3_5 
REMARK    4  A    between atoms: C3_5  and  C4_7 
REMARK    5  A    between atoms: N1_10  and  N2_12 
REMARK    6  A    between atoms: N2_12  and  C7_14 
REMARK    7  A    between atoms: C7_14  and  N3_16 
REMARK    8  A    between atoms: N3_16  and  C8_18 
ROOT
HETATM    1  O1  UNL     1       2.410   0.496   0.347  1.00  0.00    -0.269 OA
HETATM    2  C1  UNL     1       2.032  -0.698   0.292  1.00  0.00     0.260 C 
HETATM    3  N1  UNL     1       0.650  -1.008   0.248  1.00  0.00    -0.266 N 
ATOM      4  H1  UNL     1       0.345  -1.980   0.202  1.00  0.00     0.190 HD
ENDROOT
BRANCH   3   5
HETATM    5  N2  UNL     1      -0.295   0.024   0.268  1.00  0.00    -0.274 N 
ATOM      6  H2  UNL     1       0.027   0.988   0.185  1.00  0.00     0.189 HD
BRANCH   5   7
HETATM    7  C7  UNL     1      -1.691  -0.225   0.400  1.00  0.00     0.186 C 
HETATM    8  S1  UNL     1      -2.173  -1.776   0.541  1.00  0.00    -0.040 SA
BRANCH   7   9
HETATM    9  N3  UNL     1      -2.581   0.874   0.412  1.00  0.00    -0.361 N 
ATOM     10  H3  UNL     1      -2.211   1.821   0.330  1.00  0.00     0.162 HD
BRANCH   9  11
HETATM   11  C8  UNL     1      -3.983   0.678   0.536  1.00  0.00     0.083 C 
HETATM   12  C9  UNL     1      -4.653  -0.027  -0.614  1.00  0.00     0.025 C 
HETATM   13  C10 UNL     1      -6.130   0.158  -0.229  1.00  0.00     0.002 C 
HETATM   14  C11 UNL     1      -6.176   1.535   0.328  1.00  0.00     0.002 C 
HETATM   15  C12 UNL     1      -4.756   1.987   0.564  1.00  0.00     0.025 C 
ENDBRANCH   9  11
ENDBRANCH   7   9
ENDBRANCH   5   7
ENDBRANCH   3   5
BRANCH   2  16
HETATM   16  C2  UNL     1       3.040  -1.776   0.273  1.00  0.00     0.283 C 
BRANCH  16  17
HETATM   17  O2  UNL     1       4.363  -1.338   0.287  1.00  0.00    -0.312 OA
BRANCH  17  18
HETATM   18  C3  UNL     1       4.936  -0.564  -0.707  1.00  0.00     0.263 C 
HETATM   19  O3  UNL     1       4.262  -0.223  -1.692  1.00  0.00    -0.265 OA
BRANCH  18  20
HETATM   20  C4  UNL     1       6.366  -0.152  -0.572  1.00  0.00     0.085 A 
HETATM   21  C5  UNL     1       6.690   0.278   0.859  1.00  0.00     0.015 A 
HETATM   22  C6  UNL     1       7.290  -0.959   0.250  1.00  0.00     0.015 A 
ENDBRANCH  18  20
ENDBRANCH  17  18
ENDBRANCH  16  17
ENDBRANCH   2  16
TORSDOF 8
