REMARK  3 active torsions:
REMARK  status: ('A' for Active; 'I' for Inactive)
REMARK    1  A    between atoms: C2_2  and  C3_3 
REMARK    2  A    between atoms: C3_3  and  C4_4 
REMARK    3  A    between atoms: C15_19  and  C16_20 
ROOT
HETATM    1  C3  UNL     1      -0.544  -0.373   0.345  1.00  0.00     0.017 C 
HETATM    2  C7  UNL     1       0.704   0.259  -0.138  1.00  0.00     0.011 A 
HETATM    3  C8  UNL     1       0.767   1.328  -1.008  1.00  0.00     0.110 A 
HETATM    4  N1  UNL     1       2.045   1.659  -1.277  1.00  0.00    -0.342 N 
ATOM      5  H1  UNL     1       2.346   2.413  -1.894  1.00  0.00     0.167 HD
HETATM    6  C9  UNL     1       2.860   0.830  -0.597  1.00  0.00     0.044 A 
HETATM    7  C10 UNL     1       4.230   0.772  -0.541  1.00  0.00     0.030 A 
HETATM    8  C11 UNL     1       4.824  -0.186   0.250  1.00  0.00     0.002 A 
HETATM    9  C12 UNL     1       4.046  -1.073   0.973  1.00  0.00     0.001 A 
HETATM   10  C13 UNL     1       2.673  -0.986   0.893  1.00  0.00     0.014 A 
HETATM   11  C14 UNL     1       2.039  -0.047   0.117  1.00  0.00     0.002 A 
HETATM   12  N2  UNL     1      -0.505   1.850  -1.410  1.00  0.00    -0.362 N 
ATOM     13  H2  UNL     1      -0.662   2.237  -2.341  1.00  0.00     0.161 HD
HETATM   14  C15 UNL     1      -1.555   1.794  -0.413  1.00  0.00     0.195 C 
HETATM   15  C17 UNL     1      -1.780   0.402   0.003  1.00  0.00     0.030 C 
HETATM   16  C18 UNL     1      -2.852   0.254   1.073  1.00  0.00     0.014 C 
ENDROOT
BRANCH   1  17
HETATM   17  C2  UNL     1      -0.456  -0.606   1.836  1.00  0.00    -0.022 C 
HETATM   18  C1  UNL     1      -0.017   0.329   2.660  1.00  0.00     0.008 C 
ENDBRANCH   1  17
BRANCH   1  19
HETATM   19  C4  UNL     1      -0.574  -1.755  -0.288  1.00  0.00    -0.005 C 
HETATM   20  C5  UNL     1      -1.716  -2.594   0.135  1.00  0.00     0.011 C 
HETATM   21  C6  UNL     1      -0.579  -1.696  -1.798  1.00  0.00     0.011 C 
ENDBRANCH   1  19
BRANCH  14  22
HETATM   22  C16 UNL     1      -2.732   2.499  -0.996  1.00  0.00     0.407 C 
HETATM   23  F1  UNL     1      -3.829   2.555  -0.207  1.00  0.00    -0.169 F 
HETATM   24  F2  UNL     1      -2.344   3.809  -1.282  1.00  0.00    -0.169 F 
HETATM   25  F3  UNL     1      -3.103   1.944  -2.207  1.00  0.00    -0.169 F 
ENDBRANCH  14  22
TORSDOF 3
