REMARK  4 active torsions:
REMARK  status: ('A' for Active; 'I' for Inactive)
REMARK    1  A    between atoms: C3_3  and  C4_4 
REMARK    2  A    between atoms: C4_4  and  O1_5 
REMARK    3  A    between atoms: C6_8  and  C7_9 
REMARK    4  A    between atoms: C10_17  and  C11_18 
ROOT
HETATM    1  C1  UNL     1      -0.421   1.977  -0.419  1.00  0.00     0.050 C 
HETATM    2  C2  UNL     1      -1.318   0.827  -0.222  1.00  0.00    -0.041 A 
HETATM    3  C3  UNL     1      -2.697   1.073  -0.265  1.00  0.00    -0.027 A 
HETATM    4  C5  UNL     1      -3.520  -0.008  -0.099  1.00  0.00     0.028 A 
HETATM    5  C6  UNL     1      -3.045  -1.279   0.100  1.00  0.00     0.076 A 
HETATM    6  C8  UNL     1      -1.679  -1.527   0.143  1.00  0.00     0.058 A 
HETATM    7  N1  UNL     1      -0.959  -2.649   0.310  1.00  0.00    -0.364 N 
ATOM      8  H1  UNL     1      -1.326  -3.590   0.452  1.00  0.00     0.165 HD
HETATM    9  C9  UNL     1       0.326  -2.300   0.255  1.00  0.00     0.096 A 
HETATM   10  C10 UNL     1       0.455  -0.914   0.048  1.00  0.00    -0.025 A 
HETATM   11  C17 UNL     1      -0.835  -0.443  -0.022  1.00  0.00     0.006 A 
ENDROOT
BRANCH  10  12
HETATM   12  C11 UNL     1       1.723  -0.220  -0.013  1.00  0.00     0.021 C 
HETATM   13  C12 UNL     1       2.806  -1.307  -0.290  1.00  0.00     0.009 C 
HETATM   14  C13 UNL     1       4.171  -0.634  -0.290  1.00  0.00     0.001 C 
HETATM   15  C14 UNL     1       4.107   0.849  -0.131  1.00  0.00     0.000 C 
HETATM   16  C15 UNL     1       3.309   1.248   1.070  1.00  0.00     0.001 C 
HETATM   17  C16 UNL     1       2.216   0.258   1.382  1.00  0.00     0.009 C 
ENDBRANCH  10  12
BRANCH   3  18
HETATM   18  C4  UNL     1      -3.226   2.451  -0.495  1.00  0.00     0.203 C 
BRANCH  18  19
HETATM   19  O1  UNL     1      -4.623   2.447  -0.478  1.00  0.00    -0.396 OA
ATOM     20  H1  UNL     1      -4.959   3.323  -0.624  1.00  0.00     0.209 HD
ENDBRANCH  18  19
ENDBRANCH   3  18
BRANCH   5  21
HETATM   21  C7  UNL     1      -3.981  -2.412   0.273  1.00  0.00     0.419 C 
HETATM   22  F1  UNL     1      -3.842  -3.055   1.480  1.00  0.00    -0.166 F 
HETATM   23  F2  UNL     1      -3.790  -3.294  -0.793  1.00  0.00    -0.166 F 
HETATM   24  F3  UNL     1      -5.292  -1.990   0.180  1.00  0.00    -0.166 F 
ENDBRANCH   5  21
TORSDOF 4
