REMARK  14 active torsions:
REMARK  status: ('A' for Active; 'I' for Inactive)
REMARK       I    between atoms: C2_2  and  N1_4 
REMARK    1  A    between atoms: N1_4  and  C3_6 
REMARK    2  A    between atoms: C3_6  and  C4_7 
REMARK    3  A    between atoms: C4_7  and  O2_8 
REMARK    4  A    between atoms: C4_7  and  C5_10 
REMARK    5  A    between atoms: C5_10  and  N2_11 
REMARK    6  A    between atoms: C5_10  and  C14_39 
REMARK    7  A    between atoms: N2_11  and  C6_14 
REMARK    8  A    between atoms: C6_14  and  O3_15 
REMARK    9  A    between atoms: C6_14  and  C7_17 
REMARK   10  A    between atoms: C8_19  and  O5_20 
REMARK   11  A    between atoms: C11_30  and  N5_31 
REMARK   12  A    between atoms: N5_31  and  N6_32 
REMARK   13  A    between atoms: C12_35  and  C13_36 
REMARK   14  A    between atoms: C14_39  and  O8_41 
ROOT
HETATM    1  C7  UNL     1       0.526  -0.045   0.302  1.00  0.00     0.273 C 
HETATM    2  O4  UNL     1       1.858  -0.449   0.106  1.00  0.00    -0.332 OA
HETATM    3  C8  UNL     1       2.783   0.459   0.537  1.00  0.00     0.225 C 
HETATM    4  C9  UNL     1       2.451   1.901   0.373  1.00  0.00     0.352 C 
HETATM    5  N3  UNL     1       1.271   2.163  -0.426  1.00  0.00    -0.327 N 
ATOM      6  H3  UNL     1       1.099   3.087  -0.823  1.00  0.00     0.164 HD
HETATM    7  C10 UNL     1       0.348   1.077  -0.643  1.00  0.00     0.253 C 
HETATM    8  O6  UNL     1      -0.469   1.187  -1.565  1.00  0.00    -0.270 OA
HETATM    9  N4  UNL     1       3.639   2.581  -0.140  1.00  0.00    -0.028 N 
ATOM     10  H41 UNL     1       3.843   3.463   0.330  1.00  0.00     0.281 HD
ATOM     11  H42 UNL     1       3.519   2.970  -1.075  1.00  0.00     0.281 HD
HETATM   12  C11 UNL     1       4.721   1.595  -0.044  1.00  0.00     0.318 C 
HETATM   13  C12 UNL     1       4.005   0.334  -0.387  1.00  0.00     0.189 C 
ENDROOT
BRANCH   1  14
HETATM   14  C6  UNL     1      -0.389  -1.200   0.141  1.00  0.00     0.358 C 
BRANCH  14  15
HETATM   15  N2  UNL     1      -1.780  -0.835   0.369  1.00  0.00    -0.037 N 
ATOM     16  H22 UNL     1      -1.954   0.117   0.047  1.00  0.00     0.281 HD
ATOM     17  H21 UNL     1      -1.957  -0.718   1.367  1.00  0.00     0.281 HD
BRANCH  15  18
HETATM   18  C5  UNL     1      -2.726  -1.730  -0.199  1.00  0.00     0.247 C 
BRANCH  18  19
HETATM   19  C4  UNL     1      -4.109  -1.433   0.308  1.00  0.00     0.169 C 
BRANCH  19  20
HETATM   20  C3  UNL     1      -4.757  -0.192  -0.206  1.00  0.00     0.156 C 
BRANCH  20  21
HETATM   21  N1  UNL     1      -4.334   1.039   0.364  1.00  0.00    -0.359 N 
HETATM   22  C2  UNL     1      -4.906   2.242  -0.115  1.00  0.00     0.213 C 
HETATM   23  C1  UNL     1      -4.526   3.579   0.421  1.00  0.00     0.117 C 
HETATM   24  O1  UNL     1      -5.770   2.239  -1.021  1.00  0.00    -0.274 OA
ATOM     25  H1  UNL     1      -3.632   1.055   1.104  1.00  0.00     0.162 HD
ENDBRANCH  20  21
ENDBRANCH  19  20
BRANCH  19  26
HETATM   26  O2  UNL     1      -4.258  -1.543   1.684  1.00  0.00    -0.392 OA
ATOM     27  H2  UNL     1      -3.845  -2.334   2.011  1.00  0.00     0.210 HD
ENDBRANCH  19  26
ENDBRANCH  18  19
BRANCH  18  28
HETATM   28  C14 UNL     1      -2.474  -3.193   0.136  1.00  0.00     0.147 C 
HETATM   29  C15 UNL     1      -3.540  -4.042  -0.464  1.00  0.00     0.041 C 
BRANCH  28  30
HETATM   30  O8  UNL     1      -2.566  -3.298   1.529  1.00  0.00    -0.394 OA
ATOM     31  H8  UNL     1      -2.409  -4.211   1.738  1.00  0.00     0.210 HD
ENDBRANCH  28  30
ENDBRANCH  18  28
ENDBRANCH  15  18
ENDBRANCH  14  15
BRANCH  14  32
HETATM   32  O3  UNL     1      -0.042  -2.116   1.140  1.00  0.00    -0.367 OA
ATOM     33  H3  UNL     1       0.866  -2.354   0.991  1.00  0.00     0.212 HD
ENDBRANCH  14  32
ENDBRANCH   1  14
BRANCH   3  34
HETATM   34  O5  UNL     1       3.131   0.161   1.854  1.00  0.00    -0.362 OA
ATOM     35  H5  UNL     1       3.774   0.792   2.154  1.00  0.00     0.213 HD
ENDBRANCH   3  34
BRANCH  13  36
HETATM   36  C13 UNL     1       4.723  -0.904  -0.147  1.00  0.00     0.244 C 
HETATM   37  N7  UNL     1       5.882  -1.224  -0.888  1.00  0.00    -0.062 NA
HETATM   38  O7  UNL     1       4.326  -1.706   0.721  1.00  0.00    -0.276 OA
ENDBRANCH  13  36
BRANCH  12  39
HETATM   39  N5  UNL     1       5.826   1.908  -0.892  1.00  0.00    -0.114 NA
BRANCH  39  40
HETATM   40  N6  UNL     1       6.406   3.140  -0.568  1.00  0.00    -0.346 N 
ATOM     41  H62 UNL     1       6.067   3.734   0.189  1.00  0.00     0.172 HD
ATOM     42  H61 UNL     1       7.195   3.364  -1.174  1.00  0.00     0.172 HD
ENDBRANCH  39  40
ENDBRANCH  12  39
TORSDOF 14
