REMARK  12 active torsions:
REMARK  status: ('A' for Active; 'I' for Inactive)
REMARK    1  A    between atoms: N1_1  and  C1_4 
REMARK    2  A    between atoms: C2_7  and  N3_8 
REMARK    3  A    between atoms: N4_10  and  C3_12 
REMARK    4  A    between atoms: C3_12  and  O1_13 
REMARK    5  A    between atoms: N5_15  and  O2_17 
REMARK    6  A    between atoms: N7_25  and  N8_26 
REMARK    7  A    between atoms: N9_31  and  C8_32 
REMARK    8  A    between atoms: C8_32  and  O5_33 
REMARK    9  A    between atoms: O5_33  and  C9_34 
REMARK   10  A    between atoms: C9_34  and  C10_35 
REMARK   11  A    between atoms: C10_35  and  O6_36 
REMARK   12  A    between atoms: O6_36  and  S1_37 
ROOT
HETATM    1  C1  UNL     1      -2.927  -0.307   1.058  1.00  0.00     0.134 A 
HETATM    2  N2  UNL     1      -2.901   0.929   0.532  1.00  0.00    -0.174 N 
ATOM      3  H2  UNL     1      -3.654   1.578   0.762  1.00  0.00     0.186 HD
HETATM    4  C2  UNL     1      -1.926   1.337  -0.280  1.00  0.00     0.700 A 
HETATM    5  N6  UNL     1      -0.903   0.503  -0.612  1.00  0.00    -0.174 N 
ATOM      6  H6  UNL     1      -0.160   0.822  -1.234  1.00  0.00     0.186 HD
HETATM    7  C4  UNL     1      -0.882  -0.731  -0.118  1.00  0.00     0.148 A 
HETATM    8  C5  UNL     1      -1.894  -1.160   0.727  1.00  0.00     0.123 A 
HETATM    9  C6  UNL     1      -1.882  -2.438   1.246  1.00  0.00     0.288 A 
HETATM   10  O3  UNL     1      -2.768  -2.880   2.014  1.00  0.00    -0.265 OA
HETATM   11  N7  UNL     1      -0.853  -3.217   0.890  1.00  0.00    -0.174 N 
HETATM   12  C7  UNL     1       0.116  -2.780   0.069  1.00  0.00     0.353 A 
HETATM   13  O4  UNL     1       1.043  -3.616  -0.197  1.00  0.00    -0.244 OA
HETATM   14  N9  UNL     1       0.140  -1.535  -0.461  1.00  0.00    -0.260 N 
ENDROOT
BRANCH   4  15
HETATM   15  N3  UNL     1      -1.881   2.646  -0.849  1.00  0.00    -0.129 N 
HETATM   16  N4  UNL     1      -2.892   3.354  -1.107  1.00  0.00    -0.249 N 
ATOM     17  H4  UNL     1      -2.746   4.278  -1.514  1.00  0.00     0.191 HD
ATOM     18  H3  UNL     1      -0.963   3.037  -1.062  1.00  0.00     0.205 HD
BRANCH  16  19
HETATM   19  C3  UNL     1      -4.216   2.931  -0.861  1.00  0.00     0.256 C 
HETATM   20  N5  UNL     1      -4.831   3.386   0.188  1.00  0.00    -0.232 N 
ATOM     21  H5  UNL     1      -4.348   4.035   0.809  1.00  0.00     0.198 HD
BRANCH  19  22
HETATM   22  O1  UNL     1      -4.807   2.047  -1.751  1.00  0.00    -0.330 OA
ATOM     23  H1  UNL     1      -5.698   1.762  -1.585  1.00  0.00     0.221 HD
ENDBRANCH  19  22
BRANCH  20  24
HETATM   24  O2  UNL     1      -6.127   3.008   0.480  1.00  0.00    -0.287 OA
ATOM     25  H2  UNL     1      -6.577   3.341   1.248  1.00  0.00     0.244 HD
ENDBRANCH  20  24
ENDBRANCH  16  19
ENDBRANCH   4  15
BRANCH   1  26
HETATM   26  N1  UNL     1      -3.872  -0.717   1.851  1.00  0.00    -0.384 N 
ATOM     27  H12 UNL     1      -4.636  -0.086   2.096  1.00  0.00     0.157 HD
ATOM     28  H11 UNL     1      -3.892  -1.655   2.250  1.00  0.00     0.157 HD
ENDBRANCH   1  26
BRANCH  14  29
HETATM   29  C8  UNL     1       1.215  -1.178  -1.318  1.00  0.00     0.305 C 
BRANCH  29  30
HETATM   30  O5  UNL     1       2.243  -0.629  -0.531  1.00  0.00    -0.369 OA
BRANCH  30  31
HETATM   31  C9  UNL     1       3.336  -0.252  -1.295  1.00  0.00     0.197 C 
BRANCH  31  32
HETATM   32  C10 UNL     1       4.367   0.319  -0.344  1.00  0.00     0.219 C 
BRANCH  32  33
HETATM   33  O6  UNL     1       3.805   1.432   0.320  1.00  0.00    -0.255 OA
BRANCH  33  34
HETATM   34  S1  UNL     1       5.012   2.002   1.352  1.00  0.00     0.251 S 
HETATM   35  O7  UNL     1       4.644   3.394   1.789  1.00  0.00    -0.572 OA
HETATM   36  O8  UNL     1       5.086   1.110   2.552  1.00  0.00    -0.572 OA
HETATM   37  O9  UNL     1       6.450   1.998   0.479  1.00  0.00    -0.572 OA
ENDBRANCH  33  34
ENDBRANCH  32  33
ENDBRANCH  31  32
ENDBRANCH  30  31
ENDBRANCH  29  30
ENDBRANCH  14  29
BRANCH  11  38
HETATM   38  N8  UNL     1      -0.833  -4.531   1.418  1.00  0.00    -0.332 N 
ATOM     39  H82 UNL     1      -1.569  -4.863   2.041  1.00  0.00     0.177 HD
ATOM     40  H81 UNL     1      -0.049  -5.124   1.147  1.00  0.00     0.177 HD
ENDBRANCH  11  38
TORSDOF 12
