REMARK  10 active torsions:
REMARK  status: ('A' for Active; 'I' for Inactive)
REMARK    1  A    between atoms: C2_3  and  O1_4 
REMARK    2  A    between atoms: C5_8  and  O2_9 
REMARK    3  A    between atoms: C6_11  and  N2_12 
REMARK    4  A    between atoms: N2_12  and  C7_15 
REMARK    5  A    between atoms: C7_15  and  C8_16 
REMARK    6  A    between atoms: C8_16  and  C9_17 
REMARK    7  A    between atoms: C9_17  and  N3_18 
REMARK    8  A    between atoms: C10_23  and  N6_24 
REMARK    9  A    between atoms: N6_24  and  N7_26 
REMARK   10  A    between atoms: C13_36  and  C14_37 
ROOT
HETATM    1  C1  UNL     1      -4.247  -3.015   1.876  1.00  0.00     0.160 C 
HETATM    2  N1  UNL     1      -3.343  -1.977   1.393  1.00  0.00    -0.312 N 
HETATM    3  C2  UNL     1      -3.696  -0.946   0.570  1.00  0.00     0.157 A 
HETATM    4  C3  UNL     1      -2.577  -0.214   0.360  1.00  0.00     0.057 A 
HETATM    5  C4  UNL     1      -1.537  -0.786   1.052  1.00  0.00     0.042 A 
HETATM    6  C5  UNL     1      -2.051  -1.897   1.693  1.00  0.00     0.153 A 
HETATM    7  C6  UNL     1      -0.168  -0.285   1.106  1.00  0.00     0.243 A 
HETATM    8  C11 UNL     1       0.095   0.915   0.311  1.00  0.00     0.187 A 
HETATM    9  N9  UNL     1      -1.038   1.494  -0.325  1.00  0.00    -0.288 N 
HETATM   10  N10 UNL     1      -1.013   2.640  -1.010  1.00  0.00    -0.308 N 
ATOM     11  H10 UNL     1      -0.188   3.227  -1.133  1.00  0.00     0.186 HD
HETATM   12  C12 UNL     1      -2.190   2.902  -1.498  1.00  0.00     0.125 A 
HETATM   13  C13 UNL     1      -3.092   1.855  -1.118  1.00  0.00     0.057 A 
HETATM   14  C15 UNL     1      -2.313   1.021  -0.391  1.00  0.00     0.081 A 
ENDROOT
BRANCH   7  15
HETATM   15  N2  UNL     1       0.736  -1.347   0.723  1.00  0.00    -0.065 N 
ATOM     16  H22 UNL     1       0.473  -2.240   1.140  1.00  0.00     0.278 HD
ATOM     17  H21 UNL     1       0.630  -1.602  -0.259  1.00  0.00     0.278 HD
BRANCH  15  18
HETATM   18  C7  UNL     1       2.087  -0.987   1.039  1.00  0.00     0.235 C 
BRANCH  18  19
HETATM   19  C8  UNL     1       3.070  -2.057   0.649  1.00  0.00     0.051 C 
BRANCH  19  20
HETATM   20  C9  UNL     1       4.452  -1.611   1.035  1.00  0.00     0.173 C 
BRANCH  20  21
HETATM   21  N3  UNL     1       4.894  -0.396   0.423  1.00  0.00    -0.205 N 
HETATM   22  N4  UNL     1       4.736   0.823   0.893  1.00  0.00    -0.211 N 
HETATM   23  N5  UNL     1       5.264   1.722   0.089  1.00  0.00    -0.114 N 
ATOM     24  H4  UNL     1       4.264   1.044   1.770  1.00  0.00     0.210 HD
HETATM   25  C10 UNL     1       5.783   1.029  -0.944  1.00  0.00     0.728 A 
ATOM     26  H5  UNL     1       5.278   2.733   0.221  1.00  0.00     0.207 HD
HETATM   27  N8  UNL     1       5.551  -0.281  -0.731  1.00  0.00    -0.112 N 
ATOM     28  H8  UNL     1       5.829  -1.048  -1.344  1.00  0.00     0.207 HD
BRANCH  25  29
HETATM   29  N6  UNL     1       6.398   1.505  -1.962  1.00  0.00    -0.136 N 
ATOM     30  H6  UNL     1       6.752   0.885  -2.690  1.00  0.00     0.205 HD
BRANCH  29  31
HETATM   31  N7  UNL     1       6.577   2.888  -2.059  1.00  0.00    -0.331 N 
ATOM     32  H72 UNL     1       6.217   3.495  -1.322  1.00  0.00     0.177 HD
ATOM     33  H71 UNL     1       7.067   3.267  -2.870  1.00  0.00     0.177 HD
ENDBRANCH  29  31
ENDBRANCH  25  29
ENDBRANCH  20  21
ENDBRANCH  19  20
ENDBRANCH  18  19
ENDBRANCH  15  18
ENDBRANCH   7  15
BRANCH   6  34
HETATM   34  O2  UNL     1      -1.355  -2.790   2.514  1.00  0.00    -0.345 OA
ATOM     35  H2  UNL     1      -0.431  -2.733   2.728  1.00  0.00     0.219 HD
ENDBRANCH   6  34
BRANCH   3  36
HETATM   36  O1  UNL     1      -4.957  -0.815   0.136  1.00  0.00    -0.345 OA
ATOM     37  H1  UNL     1      -5.203  -0.098  -0.437  1.00  0.00     0.219 HD
ENDBRANCH   3  36
BRANCH  13  38
HETATM   38  C14 UNL     1      -4.476   1.872  -1.514  1.00  0.00     0.151 A 
HETATM   39  N11 UNL     1      -5.439   1.060  -1.867  1.00  0.00    -0.268 N 
HETATM   40  N12 UNL     1      -6.560   1.682  -2.085  1.00  0.00    -0.227 N 
ATOM     41  H11 UNL     1      -5.323   0.051  -1.961  1.00  0.00     0.190 HD
HETATM   42  N13 UNL     1      -6.385   2.965  -1.882  1.00  0.00    -0.227 N 
ATOM     43  H12 UNL     1      -7.435   1.242  -2.369  1.00  0.00     0.210 HD
HETATM   44  N14 UNL     1      -5.134   3.114  -1.534  1.00  0.00    -0.268 N 
ATOM     45  H13 UNL     1      -7.085   3.700  -1.977  1.00  0.00     0.210 HD
ATOM     46  H14 UNL     1      -4.696   4.007  -1.308  1.00  0.00     0.190 HD
ENDBRANCH  13  38
TORSDOF 10
