REMARK  6 active torsions:
REMARK  status: ('A' for Active; 'I' for Inactive)
REMARK    1  A    between atoms: C2_2  and  C4_4 
REMARK    2  A    between atoms: C4_4  and  O2_6 
REMARK    3  A    between atoms: O2_6  and  C5_7 
REMARK    4  A    between atoms: C7_9  and  C8_10 
REMARK    5  A    between atoms: C8_10  and  O3_11 
REMARK    6  A    between atoms: C8_10  and  O4_13 
ROOT
HETATM    1  C5  UNL     1       0.072  -0.016  -0.482  1.00  0.00     0.141 C 
HETATM    2  C6  UNL     1      -0.652   1.272  -0.274  1.00  0.00     0.048 C 
HETATM    3  C7  UNL     1      -2.104   0.972  -0.419  1.00  0.00     0.016 A 
HETATM    4  C9  UNL     1      -2.629   0.029  -1.415  1.00  0.00     0.021 A 
HETATM    5  C10 UNL     1      -2.240  -0.441  -0.029  1.00  0.00     0.010 A 
HETATM    6  C11 UNL     1      -0.880  -1.064   0.044  1.00  0.00    -0.016 C 
HETATM    7  C12 UNL     1      -0.508  -1.497   1.433  1.00  0.00     0.018 C 
HETATM    8  C13 UNL     1      -0.818  -2.250  -0.906  1.00  0.00     0.018 C 
ENDROOT
BRANCH   1   9
HETATM    9  O2  UNL     1       1.275   0.025   0.256  1.00  0.00    -0.311 OA
BRANCH   9  10
HETATM   10  C4  UNL     1       2.527  -0.148  -0.334  1.00  0.00     0.288 C 
HETATM   11  O1  UNL     1       2.538  -0.345  -1.571  1.00  0.00    -0.260 OA
BRANCH  10  12
HETATM   12  C2  UNL     1       3.742  -0.099   0.462  1.00  0.00     0.004 C 
HETATM   13  C1  UNL     1       3.660   0.112   1.761  1.00  0.00     0.024 C 
HETATM   14  C3  UNL     1       5.040  -0.292  -0.236  1.00  0.00     0.054 C 
ENDBRANCH  10  12
ENDBRANCH   9  10
ENDBRANCH   1   9
BRANCH   3  15
HETATM   15  C8  UNL     1      -3.044   2.031   0.091  1.00  0.00     0.262 C 
BRANCH  15  16
HETATM   16  O3  UNL     1      -2.876   2.284   1.447  1.00  0.00    -0.371 OA
ATOM     17  H3  UNL     1      -3.469   2.952   1.769  1.00  0.00     0.212 HD
ENDBRANCH  15  16
BRANCH  15  18
HETATM   18  O4  UNL     1      -2.899   3.193  -0.640  1.00  0.00    -0.371 OA
ATOM     19  H4  UNL     1      -3.492   3.861  -0.318  1.00  0.00     0.212 HD
ENDBRANCH  15  18
ENDBRANCH   3  15
TORSDOF 6
