REMARK  4 active torsions:
REMARK  status: ('A' for Active; 'I' for Inactive)
REMARK    1  A    between atoms: O1_2  and  C2_3 
REMARK       I    between atoms: C2_3  and  N1_5 
REMARK       I    between atoms: N1_5  and  C3_6 
REMARK    2  A    between atoms: N1_5  and  C5_9 
REMARK    3  A    between atoms: C5_9  and  O4_10 
REMARK    4  A    between atoms: C5_9  and  C6_12 
ROOT
HETATM    1  C5  UNL     1       0.474  -0.948  -0.847  1.00  0.00     0.164 C 
ENDROOT
BRANCH   1   2
HETATM    2  N1  UNL     1      -0.800  -1.228  -0.287  1.00  0.00    -0.206 N 
HETATM    3  C2  UNL     1      -1.567  -0.325   0.462  1.00  0.00     0.375 C 
HETATM    4  O2  UNL     1      -2.650  -0.717   1.025  1.00  0.00    -0.237 OA
HETATM    5  C3  UNL     1      -1.412  -2.443  -0.696  1.00  0.00     0.230 C 
HETATM    6  C4  UNL     1      -2.717  -2.886  -0.221  1.00  0.00     0.118 C 
HETATM    7  O3  UNL     1      -0.816  -3.194  -1.509  1.00  0.00    -0.273 OA
BRANCH   3   8
HETATM    8  O1  UNL     1      -1.325   1.022   0.696  1.00  0.00    -0.308 OA
HETATM    9  C1  UNL     1      -2.155   1.864   1.453  1.00  0.00     0.215 C 
ENDBRANCH   3   8
ENDBRANCH   1   2
BRANCH   1  10
HETATM   10  O4  UNL     1       0.850  -1.716  -1.863  1.00  0.00    -0.345 OA
ATOM     11  H4  UNL     1       1.703  -1.529  -2.238  1.00  0.00     0.219 HD
ENDBRANCH   1  10
BRANCH   1  12
HETATM   12  C6  UNL     1       1.464   0.022  -0.524  1.00  0.00     0.015 A 
HETATM   13  C7  UNL     1       1.594   0.634   0.681  1.00  0.00     0.016 A 
HETATM   14  C8  UNL     1       2.537   1.646   0.934  1.00  0.00     0.001 A 
HETATM   15  C9  UNL     1       3.378   2.052  -0.064  1.00  0.00     0.000 A 
HETATM   16  C10 UNL     1       3.274   1.455  -1.285  1.00  0.00     0.001 A 
HETATM   17  C11 UNL     1       2.348   0.464  -1.530  1.00  0.00     0.016 A 
ENDBRANCH   1  12
TORSDOF 4
