REMARK  1 active torsions:
REMARK  status: ('A' for Active; 'I' for Inactive)
REMARK    1  A    between atoms: C7_10  and  O1_11 
ROOT
HETATM    1  N1  UNL     1       3.806  -1.621   0.429  1.00  0.00    -0.172 NA
HETATM    2  C1  UNL     1       2.785  -1.099   0.261  1.00  0.00     0.181 C 
HETATM    3  N2  UNL     1       1.547  -0.457   0.034  1.00  0.00    -0.292 N 
HETATM    4  C2  UNL     1       0.574  -1.301  -0.572  1.00  0.00     0.143 C 
HETATM    5  C3  UNL     1      -0.789  -0.722  -0.679  1.00  0.00     0.036 C 
HETATM    6  C4  UNL     1      -0.740   0.541  -1.499  1.00  0.00     0.039 C 
HETATM    7  C5  UNL     1      -0.421   1.698  -0.612  1.00  0.00     0.275 C 
HETATM    8  N3  UNL     1       0.218   1.348   0.620  1.00  0.00     0.108 N 
HETATM    9  C6  UNL     1      -0.498   0.435   1.441  1.00  0.00     0.306 C 
HETATM   10  C7  UNL     1      -1.444  -0.405   0.617  1.00  0.00     0.152 C 
HETATM   11  C8  UNL     1       1.573   0.922   0.480  1.00  0.00     0.407 C 
ENDROOT
BRANCH  10  12
HETATM   12  O1  UNL     1      -1.941  -1.491   1.300  1.00  0.00    -0.393 OA
ATOM     13  H1  UNL     1      -2.360  -1.288   2.128  1.00  0.00     0.210 HD
ENDBRANCH  10  12
TORSDOF 1
