REMARK  8 active torsions:
REMARK  status: ('A' for Active; 'I' for Inactive)
REMARK    1  A    between atoms: C2_2  and  O1_3 
REMARK    2  A    between atoms: O1_3  and  C3_4 
REMARK    3  A    between atoms: C8_9  and  O2_10 
REMARK    4  A    between atoms: O2_10  and  C9_11 
REMARK    5  A    between atoms: C9_11  and  O3_12 
REMARK    6  A    between atoms: C9_11  and  C10_14 
REMARK    7  A    between atoms: C14_19  and  C15_20 
REMARK    8  A    between atoms: C15_20  and  O6_22 
ROOT
HETATM    1  C3  UNL     1      -1.253  -1.220  -1.194  1.00  0.00     0.104 A 
HETATM    2  C4  UNL     1       0.019  -1.732  -1.227  1.00  0.00     0.079 A 
HETATM    3  C5  UNL     1       1.124  -0.967  -0.860  1.00  0.00     0.106 A 
HETATM    4  C6  UNL     1       0.991   0.341  -0.448  1.00  0.00     0.106 A 
HETATM    5  C7  UNL     1      -0.298   0.866  -0.413  1.00  0.00     0.079 A 
HETATM    6  C8  UNL     1      -1.392   0.110  -0.775  1.00  0.00     0.108 A 
HETATM    7  O4  UNL     1       2.104   1.047  -0.100  1.00  0.00    -0.330 OA
HETATM    8  C14 UNL     1       3.433   0.622  -0.301  1.00  0.00     0.262 C 
HETATM    9  C17 UNL     1       3.554  -0.875  -0.429  1.00  0.00     0.096 C 
HETATM   10  C18 UNL     1       3.994  -1.409   0.921  1.00  0.00     0.049 C 
HETATM   11  C19 UNL     1       4.664  -1.189  -1.442  1.00  0.00     0.049 C 
HETATM   12  O7  UNL     1       2.395  -1.494  -0.898  1.00  0.00    -0.335 OA
ENDROOT
BRANCH   6  13
HETATM   13  O2  UNL     1      -2.668   0.622  -0.743  1.00  0.00    -0.317 OA
BRANCH  13  14
HETATM   14  C9  UNL     1      -3.085   1.886  -0.374  1.00  0.00     0.271 C 
BRANCH  14  15
HETATM   15  O3  UNL     1      -3.742   2.489  -1.469  1.00  0.00    -0.370 OA
ATOM     16  H3  UNL     1      -4.029   3.358  -1.215  1.00  0.00     0.212 HD
ENDBRANCH  14  15
BRANCH  14  17
HETATM   17  C10 UNL     1      -4.053   1.792   0.792  1.00  0.00    -0.001 C 
HETATM   18  C11 UNL     1      -5.257   0.976   0.401  1.00  0.00     0.019 C 
HETATM   19  C12 UNL     1      -4.458   3.195   1.170  1.00  0.00     0.019 C 
HETATM   20  C13 UNL     1      -3.330   1.160   1.953  1.00  0.00     0.019 C 
ENDBRANCH  14  17
ENDBRANCH  13  14
ENDBRANCH   6  13
BRANCH   1  21
HETATM   21  O1  UNL     1      -2.381  -1.914  -1.540  1.00  0.00    -0.349 OA
BRANCH  21  22
HETATM   22  C2  UNL     1      -2.486  -3.228  -1.977  1.00  0.00     0.171 C 
HETATM   23  C1  UNL     1      -1.975  -4.243  -0.987  1.00  0.00     0.034 C 
ENDBRANCH  21  22
ENDBRANCH   1  21
BRANCH   8  24
HETATM   24  C15 UNL     1       4.247   1.167   0.818  1.00  0.00     0.291 C 
HETATM   25  O5  UNL     1       3.749   1.872   1.736  1.00  0.00    -0.262 OA
BRANCH  24  26
HETATM   26  O6  UNL     1       5.621   0.926   0.916  1.00  0.00    -0.324 OA
HETATM   27  C16 UNL     1       6.375   1.457   1.993  1.00  0.00     0.213 C 
ENDBRANCH  24  26
ENDBRANCH   8  24
TORSDOF 8
