REMARK  3 active torsions:
REMARK  status: ('A' for Active; 'I' for Inactive)
REMARK    1  A    between atoms: C13_15  and  C14_16 
REMARK    2  A    between atoms: C14_16  and  O3_17 
REMARK    3  A    between atoms: O3_17  and  O4_18 
ROOT
HETATM    1  C1  UNL     1       1.295  -1.682   1.431  1.00  0.00     0.051 C 
HETATM    2  C2  UNL     1       0.396  -1.245   0.298  1.00  0.00     0.078 C 
HETATM    3  C3  UNL     1       0.538  -2.276  -0.805  1.00  0.00     0.051 C 
HETATM    4  O1  UNL     1      -0.898  -1.217   0.805  1.00  0.00    -0.370 OA
HETATM    5  C4  UNL     1      -1.867  -0.820  -0.100  1.00  0.00     0.135 C 
HETATM    6  C5  UNL     1      -3.208  -0.980   0.587  1.00  0.00     0.110 C 
HETATM    7  C6  UNL     1      -3.924   0.292   0.193  1.00  0.00     0.129 C 
HETATM    8  O2  UNL     1      -5.079   0.423  -0.119  1.00  0.00    -0.298 OA
HETATM    9  C7  UNL     1      -2.848   1.319   0.290  1.00  0.00     0.086 C 
HETATM   10  C8  UNL     1      -1.733   0.635  -0.469  1.00  0.00     0.034 C 
HETATM   11  C9  UNL     1      -0.374   1.194  -0.145  1.00  0.00    -0.015 C 
HETATM   12  C10 UNL     1      -0.343   1.940   1.173  1.00  0.00     0.020 C 
HETATM   13  C11 UNL     1      -0.069   2.230  -1.206  1.00  0.00     0.020 C 
HETATM   14  C12 UNL     1       0.709   0.148  -0.180  1.00  0.00    -0.040 C 
HETATM   15  C13 UNL     1       1.895   0.515  -0.641  1.00  0.00     0.009 C 
ENDROOT
BRANCH  15  16
HETATM   16  C14 UNL     1       3.104  -0.305  -0.786  1.00  0.00     0.237 C 
BRANCH  16  17
HETATM   17  O3  UNL     1       4.179   0.209  -0.021  1.00  0.00    -0.240 OA
BRANCH  17  18
HETATM   18  O4  UNL     1       5.203  -0.617  -0.238  1.00  0.00    -0.250 OA
ATOM     19  H4  UNL     1       5.924  -0.272   0.275  1.00  0.00     0.253 HD
ENDBRANCH  17  18
ENDBRANCH  16  17
ENDBRANCH  15  16
TORSDOF 3
