REMARK  7 active torsions:
REMARK  status: ('A' for Active; 'I' for Inactive)
REMARK    1  A    between atoms: C1_2  and  C2_4 
REMARK    2  A    between atoms: C2_4  and  O3_5 
REMARK    3  A    between atoms: O3_5  and  N1_6 
REMARK       I    between atoms: C3_8  and  N2_9 
REMARK       I    between atoms: C3_8  and  N6_29 
REMARK    4  A    between atoms: N2_9  and  C4_11 
REMARK    5  A    between atoms: C4_11  and  C5_12 
REMARK    6  A    between atoms: C7_14  and  N3_15 
REMARK    7  A    between atoms: N6_29  and  N7_31 
ROOT
HETATM    1  C5  UNL     1      -1.654   0.044  -0.108  1.00  0.00     0.000 A 
HETATM    2  C6  UNL     1      -2.127  -1.122  -0.699  1.00  0.00     0.050 A 
HETATM    3  C7  UNL     1      -3.448  -1.443  -0.886  1.00  0.00     0.105 A 
HETATM    4  C8  UNL     1      -4.406  -0.562  -0.466  1.00  0.00     0.066 A 
HETATM    5  C9  UNL     1      -4.009   0.605   0.124  1.00  0.00     0.055 A 
HETATM    6  N4  UNL     1      -4.916   1.513   0.567  1.00  0.00    -0.307 N 
ATOM      7  H4  UNL     1      -5.909   1.312   0.446  1.00  0.00     0.170 HD
HETATM    8  C10 UNL     1      -4.561   2.662   1.156  1.00  0.00     0.327 A 
HETATM    9  O6  UNL     1      -5.470   3.470   1.548  1.00  0.00    -0.247 OA
HETATM   10  N5  UNL     1      -3.270   2.977   1.342  1.00  0.00    -0.275 N 
ATOM     11  H5  UNL     1      -3.003   3.852   1.792  1.00  0.00     0.173 HD
HETATM   12  C11 UNL     1      -2.321   2.088   0.909  1.00  0.00     0.262 A 
HETATM   13  O7  UNL     1      -1.166   2.444   1.114  1.00  0.00    -0.267 OA
HETATM   14  C12 UNL     1      -2.663   0.925   0.311  1.00  0.00     0.070 A 
ENDROOT
BRANCH   1  15
HETATM   15  C4  UNL     1      -0.243   0.324   0.023  1.00  0.00     0.118 C 
BRANCH  15  16
HETATM   16  N2  UNL     1       0.675  -0.708  -0.422  1.00  0.00    -0.198 N 
HETATM   17  C3  UNL     1       2.076  -0.465  -0.330  1.00  0.00     0.721 C 
HETATM   18  N1  UNL     1       2.812  -0.840  -1.311  1.00  0.00    -0.094 N 
HETATM   19  N6  UNL     1       2.664   0.165   0.791  1.00  0.00    -0.070 N 
ATOM     20  H1  UNL     1       2.398  -1.295  -2.125  1.00  0.00     0.213 HD
ATOM     21  H6  UNL     1       2.924  -0.375   1.616  1.00  0.00     0.212 HD
ATOM     22  H2  UNL     1       0.324  -1.591  -0.794  1.00  0.00     0.183 HD
BRANCH  18  23
HETATM   23  O3  UNL     1       4.158  -0.620  -1.249  1.00  0.00    -0.256 OA
BRANCH  23  24
HETATM   24  C2  UNL     1       5.015  -1.591  -0.665  1.00  0.00     0.314 C 
BRANCH  24  25
HETATM   25  C1  UNL     1       6.404  -1.095  -0.735  1.00  0.00     0.200 C 
HETATM   26  O1  UNL     1       6.676   0.019  -1.248  1.00  0.00    -0.646 OA
HETATM   27  O2  UNL     1       7.463  -1.851  -0.230  1.00  0.00    -0.646 OA
ENDBRANCH  24  25
ENDBRANCH  23  24
ENDBRANCH  18  23
BRANCH  19  28
HETATM   28  N7  UNL     1       2.882   1.547   0.743  1.00  0.00    -0.024 N 
HETATM   29  O8  UNL     1       2.699   2.237   1.767  1.00  0.00    -0.516 OA
HETATM   30  O9  UNL     1       3.295   2.208  -0.386  1.00  0.00    -0.516 OA
ENDBRANCH  19  28
ENDBRANCH  15  16
ENDBRANCH   1  15
BRANCH   3  31
HETATM   31  N3  UNL     1      -3.801  -2.674  -1.507  1.00  0.00    -0.116 N 
HETATM   32  O4  UNL     1      -4.986  -2.984  -1.685  1.00  0.00    -0.532 OA
HETATM   33  O5  UNL     1      -2.817  -3.523  -1.910  1.00  0.00    -0.532 OA
ENDBRANCH   3  31
TORSDOF 7
