REMARK  9 active torsions:
REMARK  status: ('A' for Active; 'I' for Inactive)
REMARK    1  A    between atoms: C2_2  and  C3_3 
REMARK    2  A    between atoms: C3_3  and  O1_4 
REMARK    3  A    between atoms: C3_3  and  C4_6 
REMARK    4  A    between atoms: C3_3  and  C6_8 
REMARK       I    between atoms: N1_10  and  C8_11 
REMARK    5  A    between atoms: C8_11  and  C9_13 
REMARK    6  A    between atoms: C9_13  and  C10_14 
REMARK    7  A    between atoms: C9_13  and  N2_23 
REMARK    8  A    between atoms: C10_14  and  C11_15 
REMARK       I    between atoms: N3_33  and  C24_34 
REMARK       I    between atoms: C24_34  and  N4_36 
REMARK    9  A    between atoms: N4_36  and  C25_38 
ROOT
HETATM    1  C6  UNL     1       0.070  -1.699  -0.146  1.00  0.00     0.048 C 
HETATM    2  C7  UNL     1       0.767  -1.048   1.082  1.00  0.00     0.134 C 
HETATM    3  N1  UNL     1       1.767  -0.070   0.615  1.00  0.00    -0.350 N 
HETATM    4  C8  UNL     1       2.897   0.148   1.386  1.00  0.00     0.251 C 
HETATM    5  O2  UNL     1       3.040  -0.482   2.481  1.00  0.00    -0.271 OA
HETATM    6  C18 UNL     1       1.399   0.564  -0.631  1.00  0.00     0.126 C 
HETATM    7  C19 UNL     1      -0.125   0.637  -0.587  1.00  0.00     0.031 C 
HETATM    8  C20 UNL     1      -0.729  -0.753  -0.892  1.00  0.00    -0.015 C 
HETATM    9  C21 UNL     1      -0.554  -0.981  -2.397  1.00  0.00     0.013 C 
HETATM   10  C22 UNL     1      -0.863   0.219  -3.216  1.00  0.00     0.021 C 
HETATM   11  C23 UNL     1      -2.277   0.615  -2.972  1.00  0.00     0.127 C 
HETATM   12  N3  UNL     1      -2.793   0.351  -1.672  1.00  0.00    -0.333 N 
HETATM   13  C24 UNL     1      -3.982   1.021  -1.280  1.00  0.00     0.318 C 
HETATM   14  O3  UNL     1      -4.509   1.815  -2.098  1.00  0.00    -0.247 OA
HETATM   15  N4  UNL     1      -4.622   0.854  -0.023  1.00  0.00    -0.335 N 
ATOM     16  H4  UNL     1      -4.224   0.216   0.666  1.00  0.00     0.165 HD
HETATM   17  C29 UNL     1      -2.178  -0.576  -0.704  1.00  0.00     0.137 C 
ENDROOT
BRANCH   4  18
HETATM   18  C9  UNL     1       3.963   1.089   1.001  1.00  0.00     0.280 C 
BRANCH  18  19
HETATM   19  C10 UNL     1       4.672   0.609  -0.265  1.00  0.00     0.081 C 
BRANCH  19  20
HETATM   20  C11 UNL     1       5.723   1.632  -0.540  1.00  0.00    -0.051 A 
HETATM   21  C12 UNL     1       5.502   2.741  -1.318  1.00  0.00     0.049 A 
HETATM   22  C13 UNL     1       6.497   3.661  -1.550  1.00  0.00     0.118 A 
HETATM   23  F1  UNL     1       6.265   4.744  -2.315  1.00  0.00    -0.206 F 
HETATM   24  C14 UNL     1       7.749   3.471  -0.991  1.00  0.00     0.061 A 
HETATM   25  C15 UNL     1       7.979   2.370  -0.214  1.00  0.00     0.014 A 
HETATM   26 BR1  UNL     1       9.687   2.077   0.569  1.00  0.00    -0.051 Br
HETATM   27  C16 UNL     1       6.961   1.446   0.012  1.00  0.00     0.026 A 
ENDBRANCH  19  20
ENDBRANCH  18  19
BRANCH  18  28
HETATM   28  N2  UNL     1       4.978   1.181   2.067  1.00  0.00    -0.066 N 
HETATM   29  C17 UNL     1       4.387   1.704   3.278  1.00  0.00     0.267 C 
ATOM     30  H22 UNL     1       5.445   0.288   2.226  1.00  0.00     0.277 HD
ATOM     31  H21 UNL     1       5.789   1.725   1.774  1.00  0.00     0.277 HD
ENDBRANCH  18  28
ENDBRANCH   4  18
BRANCH   1  32
HETATM   32  C3  UNL     1      -0.311  -3.024   0.325  1.00  0.00     0.063 C 
BRANCH  32  33
HETATM   33  C2  UNL     1      -1.009  -3.949  -0.610  1.00  0.00     0.034 C 
HETATM   34  C1  UNL     1      -1.185  -5.350   0.006  1.00  0.00     0.008 C 
ENDBRANCH  32  33
BRANCH  32  35
HETATM   35  O1  UNL     1       0.948  -3.704   0.534  1.00  0.00    -0.389 OA
ATOM     36  H1  UNL     1       1.393  -3.114   1.131  1.00  0.00     0.210 HD
ENDBRANCH  32  35
BRANCH  32  37
HETATM   37  C4  UNL     1      -0.853  -3.127   1.725  1.00  0.00     0.034 C 
HETATM   38  C5  UNL     1      -2.278  -2.815   1.946  1.00  0.00     0.008 C 
ENDBRANCH  32  37
ENDBRANCH   1  32
BRANCH  15  39
HETATM   39  C25 UNL     1      -5.835   1.582   0.289  1.00  0.00     0.023 C 
HETATM   40  C26 UNL     1      -6.333   1.249   1.669  1.00  0.00     0.037 C 
HETATM   41  C27 UNL     1      -5.585   3.074   0.231  1.00  0.00     0.037 C 
HETATM   42  C28 UNL     1      -6.941   1.274  -0.697  1.00  0.00     0.037 C 
ENDBRANCH  15  39
TORSDOF 9
