REMARK  3 active torsions:
REMARK  status: ('A' for Active; 'I' for Inactive)
REMARK    1  A    between atoms: N1_1  and  C1_5 
REMARK    2  A    between atoms: C1_5  and  C2_6 
REMARK    3  A    between atoms: C2_6  and  N2_7 
ROOT
HETATM    1  C2  UNL     1      -0.639   0.116  -0.478  1.00  0.00     0.147 C 
HETATM    2  C3  UNL     1       0.060   1.154  -1.311  1.00  0.00     0.051 C 
HETATM    3  C4  UNL     1       1.483   1.546  -0.789  1.00  0.00     0.082 C 
HETATM    4  C5  UNL     1       1.864   0.522   0.091  1.00  0.00    -0.183 C 
HETATM    5  C6  UNL     1       2.150  -0.471   1.041  1.00  0.00     0.080 C 
HETATM    6  C7  UNL     1       0.861  -1.366   1.106  1.00  0.00     0.014 C 
HETATM    7  C8  UNL     1      -0.063  -1.119  -0.047  1.00  0.00     0.041 C 
ENDROOT
BRANCH   1   8
HETATM    8  C1  UNL     1      -1.673   0.747   0.472  1.00  0.00     0.268 C 
BRANCH   8   9
HETATM    9  N1  UNL     1      -2.624  -0.288   0.915  1.00  0.00    -0.077 N 
ATOM     10  H13 UNL     1      -3.063  -0.770   0.131  1.00  0.00     0.274 HD
ATOM     11  H12 UNL     1      -2.154  -1.091   1.334  1.00  0.00     0.274 HD
ATOM     12  H11 UNL     1      -3.309   0.130   1.544  1.00  0.00     0.274 HD
ENDBRANCH   8   9
ENDBRANCH   1   8
BRANCH   1  13
HETATM   13  N2  UNL     1      -1.631  -0.356  -1.526  1.00  0.00    -0.069 N 
ATOM     14  H23 UNL     1      -2.397  -0.950  -1.209  1.00  0.00     0.275 HD
ATOM     15  H22 UNL     1      -2.262   0.342  -1.920  1.00  0.00     0.275 HD
ATOM     16  H21 UNL     1      -0.946  -0.774  -2.155  1.00  0.00     0.275 HD
ENDBRANCH   1  13
TORSDOF 3
