REMARK  11 active torsions:
REMARK  status: ('A' for Active; 'I' for Inactive)
REMARK    1  A    between atoms: C2_2  and  C3_3 
REMARK    2  A    between atoms: C5_5  and  C6_6 
REMARK    3  A    between atoms: C6_6  and  O1_7 
REMARK    4  A    between atoms: O1_7  and  C7_8 
REMARK    5  A    between atoms: C10_12  and  C11_13 
REMARK    6  A    between atoms: C11_13  and  O3_14 
REMARK    7  A    between atoms: C13_17  and  C14_18 
REMARK    8  A    between atoms: C14_18  and  C15_19 
REMARK    9  A    between atoms: C15_19  and  C16_20 
REMARK   10  A    between atoms: C15_19  and  O5_23 
REMARK   11  A    between atoms: C16_20  and  O4_21 
ROOT
HETATM    1  C7  UNL     1       1.288  -1.001  -0.041  1.00  0.00     0.163 C 
HETATM    2  C8  UNL     1       1.195  -1.408   1.423  1.00  0.00     0.204 C 
HETATM    3  O2  UNL     1      -0.087  -1.153   1.820  1.00  0.00    -0.363 OA
HETATM    4  C9  UNL     1      -1.091  -1.777   1.095  1.00  0.00     0.231 C 
HETATM    5  C10 UNL     1      -2.339  -0.950   1.366  1.00  0.00     0.059 C 
HETATM    6  C12 UNL     1      -3.470  -1.443   0.488  1.00  0.00     0.025 C 
HETATM    7  C13 UNL     1      -3.165  -1.146  -0.939  1.00  0.00     0.081 C 
HETATM    8  C18 UNL     1      -1.909  -1.935  -1.236  1.00  0.00     0.226 C 
HETATM    9  O6  UNL     1      -1.877  -2.568  -2.312  1.00  0.00    -0.273 OA
HETATM   10  N1  UNL     1      -0.864  -1.911  -0.299  1.00  0.00    -0.322 N 
HETATM   11  C19 UNL     1       0.491  -2.040  -0.793  1.00  0.00     0.162 C 
ENDROOT
BRANCH   1  12
HETATM   12  O1  UNL     1       2.579  -0.865  -0.477  1.00  0.00    -0.382 OA
BRANCH  12  13
HETATM   13  C6  UNL     1       2.939   0.357  -0.963  1.00  0.00     0.173 C 
BRANCH  13  14
HETATM   14  C5  UNL     1       4.398   0.271  -1.384  1.00  0.00     0.011 C 
HETATM   15  C4  UNL     1       5.308  -0.093  -0.210  1.00  0.00     0.015 C 
HETATM   16  C3  UNL     1       6.248   0.999  -0.681  1.00  0.00     0.008 C 
HETATM   17  C20 UNL     1       5.067   1.642  -1.382  1.00  0.00     0.015 C 
BRANCH  16  18
HETATM   18  C2  UNL     1       6.772   1.755   0.487  1.00  0.00    -0.032 C 
HETATM   19  C1  UNL     1       6.804   1.239   1.687  1.00  0.00     0.007 C 
ENDBRANCH  16  18
ENDBRANCH  13  14
ENDBRANCH  12  13
ENDBRANCH   1  12
BRANCH   5  20
HETATM   20  C11 UNL     1      -2.693  -1.157   2.823  1.00  0.00     0.173 C 
BRANCH  20  21
HETATM   21  O3  UNL     1      -1.666  -0.747   3.667  1.00  0.00    -0.400 OA
ATOM     22  H3  UNL     1      -1.888  -0.877   4.581  1.00  0.00     0.209 HD
ENDBRANCH  20  21
ENDBRANCH   5  20
BRANCH   7  23
HETATM   23  C14 UNL     1      -2.984   0.276  -1.314  1.00  0.00     0.048 C 
BRANCH  23  24
HETATM   24  C15 UNL     1      -4.162   1.123  -1.095  1.00  0.00     0.145 C 
BRANCH  24  25
HETATM   25  C16 UNL     1      -3.824   2.600  -1.537  1.00  0.00     0.196 C 
BRANCH  25  26
HETATM   26  O4  UNL     1      -3.306   2.589  -2.817  1.00  0.00    -0.398 OA
ATOM     27  H4  UNL     1      -3.103   3.478  -3.083  1.00  0.00     0.209 HD
ENDBRANCH  25  26
ENDBRANCH  24  25
BRANCH  24  28
HETATM   28  O5  UNL     1      -4.657   1.277   0.164  1.00  0.00    -0.389 OA
HETATM   29  C17 UNL     1      -6.062   1.238   0.197  1.00  0.00     0.202 C 
ENDBRANCH  24  28
ENDBRANCH  23  24
ENDBRANCH   7  23
TORSDOF 11
