REMARK  8 active torsions:
REMARK  status: ('A' for Active; 'I' for Inactive)
REMARK       I    between atoms: C1_2  and  N1_3 
REMARK    1  A    between atoms: C1_2  and  C14_23 
REMARK    2  A    between atoms: N1_3  and  C2_5 
REMARK    3  A    between atoms: N2_7  and  C4_8 
REMARK    4  A    between atoms: C4_8  and  C5_9 
REMARK    5  A    between atoms: C5_9  and  O2_10 
REMARK    6  A    between atoms: O2_10  and  C6_11 
REMARK    7  A    between atoms: C6_11  and  C7_12 
REMARK    8  A    between atoms: C7_12  and  C8_13 
ROOT
HETATM    1  C2  UNL     1       3.088   1.228  -1.287  1.00  0.00     0.113 C 
HETATM    2  C3  UNL     1       1.991   0.327  -1.666  1.00  0.00     0.133 C 
HETATM    3  N2  UNL     1       0.928   0.380  -0.720  1.00  0.00    -0.207 NA
HETATM    4  S1  UNL     1       1.195   1.809   0.253  1.00  0.00     0.213 S 
HETATM    5  O4  UNL     1      -0.014   2.684   0.265  1.00  0.00    -0.211 OA
HETATM    6  O5  UNL     1       1.675   1.434   1.607  1.00  0.00    -0.211 OA
HETATM    7  C13 UNL     1       2.480   2.524  -0.757  1.00  0.00     0.183 C 
ENDROOT
BRANCH   1   8
HETATM    8  N1  UNL     1       4.019   0.721  -0.326  1.00  0.00    -0.353 N 
HETATM    9  C1  UNL     1       5.421   0.655  -0.544  1.00  0.00     0.248 C 
HETATM   10  O1  UNL     1       5.863   1.066  -1.643  1.00  0.00    -0.271 OA
ATOM     11  H1  UNL     1       3.655   0.388   0.567  1.00  0.00     0.163 HD
BRANCH   9  12
HETATM   12  C14 UNL     1       6.359   0.132   0.453  1.00  0.00     0.277 C 
HETATM   13  C15 UNL     1       6.173  -1.365   0.678  1.00  0.00     0.044 C 
HETATM   14  C16 UNL     1       7.459  -1.715   1.401  1.00  0.00     0.030 C 
HETATM   15  C17 UNL     1       8.451  -0.687   0.922  1.00  0.00     0.233 C 
HETATM   16  N3  UNL     1       7.733   0.173  -0.007  1.00  0.00    -0.062 N 
ATOM     17  H32 UNL     1       7.852  -0.081  -0.988  1.00  0.00     0.278 HD
ATOM     18  H31 UNL     1       8.118   1.114  -0.087  1.00  0.00     0.278 HD
ENDBRANCH   9  12
ENDBRANCH   1   8
BRANCH   3  19
HETATM   19  C4  UNL     1      -0.303   0.610  -1.479  1.00  0.00     0.133 C 
BRANCH  19  20
HETATM   20  C5  UNL     1      -1.522   0.139  -0.738  1.00  0.00     0.183 C 
BRANCH  20  21
HETATM   21  O2  UNL     1      -2.614   0.396  -1.523  1.00  0.00    -0.390 OA
BRANCH  21  22
HETATM   22  C6  UNL     1      -3.842   0.020  -1.004  1.00  0.00     0.170 C 
BRANCH  22  23
HETATM   23  C7  UNL     1      -4.213   0.667   0.276  1.00  0.00     0.058 C 
BRANCH  23  24
HETATM   24  C8  UNL     1      -5.530   0.288   0.854  1.00  0.00     0.123 C 
HETATM   25  C9  UNL     1      -6.707   0.590  -0.025  1.00  0.00     0.032 C 
HETATM   26  C10 UNL     1      -8.024   0.203   0.529  1.00  0.00     0.004 C 
HETATM   27  C11 UNL     1      -7.846  -0.944   1.521  1.00  0.00     0.026 C 
HETATM   28  C12 UNL     1      -6.653  -1.728   1.012  1.00  0.00     0.168 C 
HETATM   29  O3  UNL     1      -5.523  -1.004   1.347  1.00  0.00    -0.386 OA
ENDBRANCH  23  24
ENDBRANCH  22  23
ENDBRANCH  21  22
ENDBRANCH  20  21
ENDBRANCH  19  20
ENDBRANCH   3  19
TORSDOF 8
