REMARK  8 active torsions:
REMARK  status: ('A' for Active; 'I' for Inactive)
REMARK    1  A    between atoms: O1_2  and  C2_3 
REMARK    2  A    between atoms: C2_3  and  N2_10 
REMARK    3  A    between atoms: N1_4  and  C3_6 
REMARK    4  A    between atoms: N2_10  and  N3_12 
REMARK    5  A    between atoms: N3_12  and  C7_14 
REMARK    6  A    between atoms: C7_14  and  N4_16 
REMARK    7  A    between atoms: N4_16  and  C8_18 
REMARK    8  A    between atoms: C8_18  and  C9_19 
ROOT
HETATM    1  N2  UNL     1       0.151   0.148   0.533  1.00  0.00    -0.263 N 
ATOM      2  H2  UNL     1       0.216   0.103   1.550  1.00  0.00     0.190 HD
ENDROOT
BRANCH   1   3
HETATM    3  C2  UNL     1      -0.635  -0.830  -0.122  1.00  0.00     0.234 C 
HETATM    4  N1  UNL     1      -1.866  -0.658  -0.278  1.00  0.00    -0.347 N 
ATOM      5  H1  UNL     1      -2.327  -1.428  -0.763  1.00  0.00     0.163 HD
BRANCH   3   6
HETATM    6  O1  UNL     1      -0.036  -1.985  -0.593  1.00  0.00    -0.326 OA
HETATM    7  C1  UNL     1      -0.759  -3.181  -0.853  1.00  0.00     0.213 C 
ENDBRANCH   3   6
BRANCH   4   8
HETATM    8  C3  UNL     1      -2.741   0.384   0.081  1.00  0.00     0.022 C 
HETATM    9  C4  UNL     1      -4.164  -0.193   0.088  1.00  0.00     0.037 C 
HETATM   10  C5  UNL     1      -2.458   0.866   1.486  1.00  0.00     0.037 C 
HETATM   11  C6  UNL     1      -2.765   1.553  -0.865  1.00  0.00     0.037 C 
ENDBRANCH   4   8
ENDBRANCH   1   3
BRANCH   1  12
HETATM   12  N3  UNL     1       0.845   1.173  -0.120  1.00  0.00    -0.273 N 
ATOM     13  H3  UNL     1       0.346   2.023  -0.383  1.00  0.00     0.189 HD
BRANCH  12  14
HETATM   14  C7  UNL     1       2.245   1.058  -0.429  1.00  0.00     0.186 C 
HETATM   15  S1  UNL     1       2.942   2.309  -1.198  1.00  0.00    -0.040 SA
BRANCH  14  16
HETATM   16  N4  UNL     1       2.945  -0.111  -0.072  1.00  0.00    -0.365 N 
ATOM     17  H4  UNL     1       2.437  -0.859   0.399  1.00  0.00     0.161 HD
BRANCH  16  18
HETATM   18  C8  UNL     1       4.344  -0.295  -0.343  1.00  0.00     0.133 C 
BRANCH  18  19
HETATM   19  C9  UNL     1       5.261   0.567   0.461  1.00  0.00     0.104 C 
HETATM   20 BR1  UNL     1       5.024   0.223   2.363  1.00  0.00    -0.095 Br
ENDBRANCH  18  19
ENDBRANCH  16  18
ENDBRANCH  14  16
ENDBRANCH  12  14
ENDBRANCH   1  12
TORSDOF 8
