REMARK  6 active torsions:
REMARK  status: ('A' for Active; 'I' for Inactive)
REMARK    1  A    between atoms: C1_2  and  C2_3 
REMARK       I    between atoms: C1_2  and  N1_6 
REMARK    2  A    between atoms: C2_3  and  O2_4 
REMARK    3  A    between atoms: C5_9  and  C6_10 
REMARK    4  A    between atoms: C7_13  and  C8_14 
REMARK    5  A    between atoms: N4_19  and  C11_20 
REMARK    6  A    between atoms: C14_23  and  C15_24 
ROOT
HETATM    1  C6  UNL     1      -0.093   1.620  -0.565  1.00  0.00     0.106 A 
HETATM    2  N2  UNL     1      -0.841   2.744  -0.365  1.00  0.00    -0.333 N 
ATOM      3  H2  UNL     1      -1.818   2.767  -0.073  1.00  0.00     0.168 HD
HETATM    4  C7  UNL     1      -0.074   3.809  -0.617  1.00  0.00     0.101 A 
HETATM    5  N3  UNL     1       1.117   3.321  -0.963  1.00  0.00    -0.283 N 
ATOM      6  H3  UNL     1       1.922   3.894  -1.216  1.00  0.00     0.188 HD
HETATM    7  N4  UNL     1       1.122   1.985  -0.936  1.00  0.00    -0.255 N 
ENDROOT
BRANCH   7   8
HETATM    8  C11 UNL     1       2.208   1.111  -1.243  1.00  0.00     0.207 C 
HETATM    9  C12 UNL     1       2.052   0.309  -2.480  1.00  0.00     0.055 C 
HETATM   10  C13 UNL     1       3.111  -0.779  -2.228  1.00  0.00     0.061 C 
HETATM   11  C14 UNL     1       3.093  -0.856  -0.723  1.00  0.00     0.017 C 
HETATM   12  N5  UNL     1       2.587   0.209  -0.218  1.00  0.00    -0.370 N 
ATOM     13  H5  UNL     1       2.473   0.382   0.781  1.00  0.00     0.161 HD
BRANCH  11  14
HETATM   14  C15 UNL     1       3.611  -2.035  -0.002  1.00  0.00    -0.014 A 
HETATM   15  C16 UNL     1       3.596  -2.107   1.374  1.00  0.00     0.015 A 
HETATM   16  C17 UNL     1       4.070  -3.191   2.078  1.00  0.00     0.024 A 
HETATM   17  C18 UNL     1       4.587  -4.263   1.375  1.00  0.00     0.034 A 
HETATM   18 CL1  UNL     1       5.204  -5.670   2.257  1.00  0.00    -0.084 Cl
HETATM   19  C19 UNL     1       4.621  -4.233  -0.003  1.00  0.00     0.024 A 
HETATM   20  C20 UNL     1       4.133  -3.123  -0.661  1.00  0.00     0.015 A 
ENDBRANCH  11  14
ENDBRANCH   7   8
BRANCH   1  21
HETATM   21  C5  UNL     1      -0.689   0.283  -0.358  1.00  0.00     0.058 C 
HETATM   22  C4  UNL     1      -1.219   0.169   1.054  1.00  0.00     0.032 C 
HETATM   23  C3  UNL     1      -2.685  -0.122   1.123  1.00  0.00     0.126 C 
HETATM   24  N1  UNL     1      -3.057  -1.254   0.283  1.00  0.00    -0.350 N 
HETATM   25  C1  UNL     1      -4.017  -2.206   0.653  1.00  0.00     0.243 C 
HETATM   26  C22 UNL     1      -2.367  -1.349  -0.989  1.00  0.00     0.126 C 
HETATM   27  O1  UNL     1      -4.280  -3.154  -0.131  1.00  0.00    -0.271 OA
HETATM   28  C21 UNL     1      -1.892   0.080  -1.291  1.00  0.00     0.032 C 
BRANCH  25  29
HETATM   29  C2  UNL     1      -4.758  -2.161   1.943  1.00  0.00     0.267 C 
BRANCH  29  30
HETATM   30  O2  UNL     1      -5.647  -3.221   2.056  1.00  0.00    -0.392 OA
ATOM     31  H2  UNL     1      -6.120  -3.192   2.879  1.00  0.00     0.210 HD
ENDBRANCH  29  30
ENDBRANCH  25  29
ENDBRANCH   1  21
BRANCH   4  32
HETATM   32  C8  UNL     1      -0.463   5.256  -0.531  1.00  0.00     0.055 A 
HETATM   33  C9  UNL     1      -1.864   5.603  -0.857  1.00  0.00     0.013 A 
HETATM   34  C10 UNL     1      -1.390   5.702   0.538  1.00  0.00     0.013 A 
ENDBRANCH   4  32
TORSDOF 6
