REMARK  6 active torsions:
REMARK  status: ('A' for Active; 'I' for Inactive)
REMARK    1  A    between atoms: C2_2  and  C4_4 
REMARK    2  A    between atoms: C5_6  and  N1_7 
REMARK    3  A    between atoms: N1_7  and  N2_9 
REMARK       I    between atoms: N2_9  and  C7_11 
REMARK    4  A    between atoms: C7_11  and  C8_13 
REMARK    5  A    between atoms: N3_18  and  C12_19 
REMARK    6  A    between atoms: C18_25  and  O3_26 
ROOT
HETATM    1  C4  UNL     1      -1.107   2.408  -0.435  1.00  0.00     0.041 A 
HETATM    2  S1  UNL     1       0.453   1.822  -0.090  1.00  0.00    -0.052 SA
HETATM    3  C5  UNL     1       0.068   0.172   0.030  1.00  0.00     0.168 A 
HETATM    4  N3  UNL     1      -1.252   0.131  -0.200  1.00  0.00    -0.301 N 
HETATM    5  C18 UNL     1      -1.860   1.278  -0.440  1.00  0.00     0.158 A 
ENDROOT
BRANCH   3   6
HETATM    6  N1  UNL     1       0.855  -0.837   0.286  1.00  0.00    -0.275 N 
ATOM      7  H1  UNL     1       0.509  -1.795   0.334  1.00  0.00     0.189 HD
BRANCH   6   8
HETATM    8  N2  UNL     1       2.231  -0.515   0.495  1.00  0.00    -0.259 N 
HETATM    9  C6  UNL     1       2.539   0.393   1.576  1.00  0.00     0.181 C 
HETATM   10  C7  UNL     1       3.208  -1.063  -0.317  1.00  0.00     0.273 C 
HETATM   11  O1  UNL     1       2.777  -1.860  -1.244  1.00  0.00    -0.266 OA
BRANCH  10  12
HETATM   12  C8  UNL     1       4.631  -0.871  -0.274  1.00  0.00     0.058 A 
HETATM   13  C9  UNL     1       5.561  -1.481  -1.158  1.00  0.00     0.043 A 
HETATM   14  C10 UNL     1       6.811  -1.053  -0.800  1.00  0.00     0.142 A 
HETATM   15  O2  UNL     1       6.711  -0.251   0.208  1.00  0.00    -0.334 OA
HETATM   16  C11 UNL     1       5.436  -0.120   0.545  1.00  0.00     0.158 A 
ENDBRANCH  10  12
ENDBRANCH   6   8
ENDBRANCH   3   6
BRANCH   4  17
HETATM   17  C12 UNL     1      -2.027  -1.147  -0.198  1.00  0.00     0.094 C 
HETATM   18  C13 UNL     1      -1.242  -2.303  -0.667  1.00  0.00     0.026 C 
HETATM   19  C14 UNL     1      -2.277  -3.364  -1.099  1.00  0.00     0.002 C 
HETATM   20  C15 UNL     1      -3.122  -3.637   0.121  1.00  0.00     0.000 C 
HETATM   21  C16 UNL     1      -2.676  -2.954   1.365  1.00  0.00     0.002 C 
HETATM   22  C17 UNL     1      -2.549  -1.451   1.200  1.00  0.00     0.026 C 
ENDBRANCH   4  17
BRANCH   1  23
HETATM   23  C2  UNL     1      -1.553   3.839  -0.679  1.00  0.00     0.022 C 
HETATM   24  C1  UNL     1      -0.368   4.767  -0.580  1.00  0.00     0.015 C 
HETATM   25  C3  UNL     1      -2.619   4.132   0.341  1.00  0.00     0.015 C 
ENDBRANCH   1  23
BRANCH   5  26
HETATM   26  O3  UNL     1      -3.269   1.376  -0.701  1.00  0.00    -0.345 OA
ATOM     27  H3  UNL     1      -3.796   0.585  -0.704  1.00  0.00     0.219 HD
ENDBRANCH   5  26
TORSDOF 6
