REMARK  8 active torsions:
REMARK  status: ('A' for Active; 'I' for Inactive)
REMARK    1  A    between atoms: C2_2  and  C3_3 
REMARK    2  A    between atoms: C2_2  and  N2_11 
REMARK    3  A    between atoms: C3_3  and  N1_4 
REMARK    4  A    between atoms: N1_4  and  C4_7 
REMARK    5  A    between atoms: C4_7  and  O1_9 
REMARK    6  A    between atoms: N4_18  and  N5_19 
REMARK    7  A    between atoms: C10_27  and  N8_28 
REMARK    8  A    between atoms: N8_28  and  N9_30 
ROOT
HETATM    1  N2  UNL     1       0.343  -1.231   0.267  1.00  0.00    -0.369 N 
ATOM      2  H2  UNL     1       0.119  -1.899   1.005  1.00  0.00     0.161 HD
HETATM    3  C6  UNL     1      -0.673  -0.708  -0.174  1.00  0.00     0.132 C 
HETATM    4  N3  UNL     1      -0.499   0.241  -1.208  1.00  0.00    -0.290 N 
ATOM      5  H3  UNL     1       0.230  -0.020  -1.872  1.00  0.00     0.172 HD
HETATM    6  C7  UNL     1      -1.129   1.498  -1.526  1.00  0.00     0.362 C 
HETATM    7  O2  UNL     1      -0.425   2.275  -2.200  1.00  0.00    -0.243 OA
HETATM    8  N4  UNL     1      -2.427   2.001  -1.191  1.00  0.00    -0.147 N 
HETATM    9  N6  UNL     1      -3.376   1.683  -0.215  1.00  0.00    -0.263 N 
ATOM     10  H6  UNL     1      -4.019   2.461  -0.065  1.00  0.00     0.190 HD
HETATM   11  C8  UNL     1      -3.675   0.675   0.560  1.00  0.00     0.160 C 
HETATM   12  C9  UNL     1      -4.799   0.890   1.416  1.00  0.00     0.121 C 
HETATM   13  N7  UNL     1      -5.706   1.046   2.124  1.00  0.00    -0.190 NA
HETATM   14  C10 UNL     1      -3.102  -0.653   0.761  1.00  0.00     0.114 C 
HETATM   15  C11 UNL     1      -1.903  -1.181   0.460  1.00  0.00     0.121 C 
HETATM   16  N10 UNL     1      -1.851  -2.531   0.874  1.00  0.00    -0.096 NA
ENDROOT
BRANCH  14  17
HETATM   17  N8  UNL     1      -4.025  -1.512   1.393  1.00  0.00    -0.303 N 
ATOM     18  H8  UNL     1      -3.780  -1.914   2.298  1.00  0.00     0.186 HD
BRANCH  17  19
HETATM   19  N9  UNL     1      -5.247  -1.830   0.836  1.00  0.00    -0.345 N 
ATOM     20  H92 UNL     1      -5.476  -1.419  -0.069  1.00  0.00     0.176 HD
ATOM     21  H91 UNL     1      -5.915  -2.451   1.293  1.00  0.00     0.176 HD
ENDBRANCH  17  19
ENDBRANCH  14  17
BRANCH   8  22
HETATM   22  N5  UNL     1      -2.812   3.034  -2.048  1.00  0.00    -0.320 N 
ATOM     23  H52 UNL     1      -2.120   3.266  -2.760  1.00  0.00     0.179 HD
ATOM     24  H51 UNL     1      -3.737   3.392  -1.809  1.00  0.00     0.179 HD
ENDBRANCH   8  22
BRANCH   1  25
HETATM   25  C2  UNL     1       1.722  -1.173   0.047  1.00  0.00     0.104 C 
HETATM   26  C1  UNL     1       2.050  -1.966  -1.225  1.00  0.00     0.034 C 
BRANCH  25  27
HETATM   27  C3  UNL     1       2.385   0.144  -0.016  1.00  0.00     0.259 C 
BRANCH  27  28
HETATM   28  N1  UNL     1       3.829  -0.110  -0.111  1.00  0.00    -0.048 N 
ATOM     29  H12 UNL     1       4.182  -0.561   0.733  1.00  0.00     0.280 HD
ATOM     30  H11 UNL     1       4.031  -0.849  -0.785  1.00  0.00     0.280 HD
BRANCH  28  31
HETATM   31  C4  UNL     1       4.563   1.076  -0.409  1.00  0.00     0.314 C 
HETATM   32  C5  UNL     1       4.476   2.184   0.585  1.00  0.00     0.070 C 
BRANCH  31  33
HETATM   33  O1  UNL     1       5.922   0.669  -0.493  1.00  0.00    -0.370 OA
ATOM     34  H1  UNL     1       6.411   1.459  -0.691  1.00  0.00     0.212 HD
ENDBRANCH  31  33
ENDBRANCH  28  31
ENDBRANCH  27  28
ENDBRANCH  25  27
ENDBRANCH   1  25
TORSDOF 8
