REMARK  9 active torsions:
REMARK  status: ('A' for Active; 'I' for Inactive)
REMARK    1  A    between atoms: N1_1  and  C1_4 
REMARK    2  A    between atoms: C2_7  and  N3_8 
REMARK    3  A    between atoms: C3_12  and  C4_13 
REMARK    4  A    between atoms: C6_26  and  C7_27 
REMARK    5  A    between atoms: C7_27  and  N11_28 
REMARK    6  A    between atoms: N11_28  and  C8_31 
REMARK    7  A    between atoms: C8_31  and  N12_32 
REMARK    8  A    between atoms: C8_31  and  C9_36 
REMARK    9  A    between atoms: C9_36  and  O1_37 
ROOT
HETATM    1  C1  UNL     1      -0.555  -2.086  -0.623  1.00  0.00     0.714 A 
HETATM    2  N2  UNL     1      -1.777  -2.464  -0.985  1.00  0.00    -0.019 N 
ATOM      3  H2  UNL     1      -2.026  -3.337  -1.451  1.00  0.00     0.203 HD
HETATM    4  C2  UNL     1      -2.634  -1.473  -0.620  1.00  0.00     0.713 A 
HETATM    5  N4  UNL     1      -1.948  -0.477  -0.031  1.00  0.00    -0.056 N 
HETATM    6  C3  UNL     1      -2.288   0.713   0.502  1.00  0.00     0.163 A 
HETATM    7  C5  UNL     1      -1.323   1.566   1.057  1.00  0.00     0.151 A 
HETATM    8  N9  UNL     1      -1.677   2.841   1.630  1.00  0.00    -0.080 NA
HETATM    9  N10 UNL     1      -0.062   1.153   1.035  1.00  0.00    -0.329 N 
ATOM     10  H10 UNL     1       0.668   1.747   1.429  1.00  0.00     0.168 HD
HETATM   11  C6  UNL     1       0.272  -0.045   0.498  1.00  0.00     0.150 A 
HETATM   12  N13 UNL     1      -0.644  -0.859  -0.031  1.00  0.00    -0.050 N 
ENDROOT
BRANCH  11  13
HETATM   13  C7  UNL     1       1.707  -0.403   0.526  1.00  0.00     0.313 C 
BRANCH  13  14
HETATM   14  N11 UNL     1       2.429   0.043  -0.617  1.00  0.00    -0.038 N 
ATOM     15 2H11 UNL     1       2.008  -0.307  -1.477  1.00  0.00     0.280 HD
ATOM     16 1H11 UNL     1       2.299   1.044  -0.766  1.00  0.00     0.280 HD
BRANCH  14  17
HETATM   17  C8  UNL     1       3.809  -0.289  -0.551  1.00  0.00     0.403 C 
BRANCH  17  18
HETATM   18  N12 UNL     1       4.001  -1.699  -0.379  1.00  0.00    -0.048 N 
ATOM     19 3H12 UNL     1       3.493  -2.049   0.434  1.00  0.00     0.276 HD
ATOM     20 2H12 UNL     1       3.523  -2.232  -1.105  1.00  0.00     0.276 HD
ATOM     21 1H12 UNL     1       4.992  -1.937  -0.332  1.00  0.00     0.276 HD
ENDBRANCH  17  18
BRANCH  17  22
HETATM   22  C9  UNL     1       4.543   0.381   0.618  1.00  0.00     0.226 C 
BRANCH  22  23
HETATM   23  O1  UNL     1       4.476   1.761   0.542  1.00  0.00    -0.397 OA
ATOM     24  H1  UNL     1       4.930   2.176   1.266  1.00  0.00     0.209 HD
ENDBRANCH  22  23
ENDBRANCH  17  22
ENDBRANCH  14  17
ENDBRANCH  13  14
ENDBRANCH  11  13
BRANCH   1  25
HETATM   25  N1  UNL     1       0.541  -2.781  -0.811  1.00  0.00    -0.232 N 
ATOM     26  H12 UNL     1       0.607  -3.698  -1.253  1.00  0.00     0.174 HD
ATOM     27  H11 UNL     1       1.479  -2.491  -0.533  1.00  0.00     0.174 HD
ENDBRANCH   1  25
BRANCH   6  28
HETATM   28  C4  UNL     1      -3.664   1.201   0.544  1.00  0.00     0.170 A 
HETATM   29  N5  UNL     1      -4.818   0.686   0.148  1.00  0.00    -0.267 N 
HETATM   30  N6  UNL     1      -5.779   1.536   0.411  1.00  0.00    -0.227 N 
ATOM     31  H5  UNL     1      -4.939  -0.226  -0.291  1.00  0.00     0.190 HD
HETATM   32  N7  UNL     1      -5.259   2.614   0.981  1.00  0.00    -0.227 N 
ATOM     33  H6  UNL     1      -6.768   1.392   0.210  1.00  0.00     0.210 HD
HETATM   34  N8  UNL     1      -3.967   2.432   1.072  1.00  0.00    -0.267 N 
ATOM     35  H7  UNL     1      -5.774   3.437   1.293  1.00  0.00     0.210 HD
ATOM     36  H8  UNL     1      -3.298   3.092   1.468  1.00  0.00     0.190 HD
ENDBRANCH   6  28
BRANCH   4  37
HETATM   37  N3  UNL     1      -3.898  -1.526  -0.830  1.00  0.00    -0.232 N 
ATOM     38  H32 UNL     1      -4.418  -2.281  -1.277  1.00  0.00     0.174 HD
ATOM     39  H31 UNL     1      -4.541  -0.783  -0.556  1.00  0.00     0.174 HD
ENDBRANCH   4  37
TORSDOF 9
