REMARK  15 active torsions:
REMARK  status: ('A' for Active; 'I' for Inactive)
REMARK    1  A    between atoms: N1_2  and  C4_5 
REMARK    2  A    between atoms: C4_5  and  C5_6 
REMARK    3  A    between atoms: C5_6  and  N2_7 
REMARK    4  A    between atoms: N2_7  and  C6_8 
REMARK    5  A    between atoms: N2_7  and  S1_14 
REMARK    6  A    between atoms: C6_8  and  C7_9 
REMARK    7  A    between atoms: C7_9  and  N3_10 
REMARK    8  A    between atoms: S1_14  and  C8_16 
REMARK    9  A    between atoms: C8_16  and  N4_17 
REMARK   10  A    between atoms: C8_16  and  N5_20 
REMARK   11  A    between atoms: N5_20  and  C9_22 
REMARK   12  A    between atoms: C9_22  and  C10_23 
REMARK   13  A    between atoms: C10_23  and  C11_24 
REMARK   14  A    between atoms: C11_24  and  C12_25 
REMARK   15  A    between atoms: C12_25  and  C13_26 
ROOT
HETATM    1  S1  UNL     1      -0.431  -0.627   0.748  1.00  0.00     0.162 S 
HETATM    2  O1  UNL     1       0.079   0.221   1.920  1.00  0.00    -0.233 OA
ENDROOT
BRANCH   1   3
HETATM    3  N2  UNL     1      -1.312   0.279  -0.379  1.00  0.00    -0.223 NA
BRANCH   3   4
HETATM    4  C5  UNL     1      -2.524   0.854   0.156  1.00  0.00     0.133 C 
BRANCH   4   5
HETATM    5  C4  UNL     1      -3.459  -0.194   0.704  1.00  0.00     0.251 C 
BRANCH   5   6
HETATM    6  N1  UNL     1      -4.677   0.350   1.247  1.00  0.00    -0.077 N 
HETATM    7  C1  UNL     1      -5.631  -0.735   1.450  1.00  0.00     0.271 C 
HETATM    8  C2  UNL     1      -5.283   1.367   0.447  1.00  0.00     0.271 C 
HETATM    9  C3  UNL     1      -4.359   0.928   2.549  1.00  0.00     0.271 C 
ENDBRANCH   5   6
ENDBRANCH   4   5
ENDBRANCH   3   4
BRANCH   3  10
HETATM   10  C6  UNL     1      -1.537  -0.493  -1.570  1.00  0.00     0.132 C 
BRANCH  10  11
HETATM   11  C7  UNL     1      -1.952   0.360  -2.758  1.00  0.00     0.245 C 
BRANCH  11  12
HETATM   12  N3  UNL     1      -2.143  -0.546  -3.888  1.00  0.00    -0.078 N 
ATOM     13  H33 UNL     1      -1.327  -1.128  -4.078  1.00  0.00     0.274 HD
ATOM     14  H32 UNL     1      -2.798  -1.302  -3.689  1.00  0.00     0.274 HD
ATOM     15  H31 UNL     1      -2.421   0.026  -4.685  1.00  0.00     0.274 HD
ENDBRANCH  11  12
ENDBRANCH  10  11
ENDBRANCH   3  10
ENDBRANCH   1   3
BRANCH   1  16
HETATM   16  C8  UNL     1       0.982  -0.982   0.115  1.00  0.00     0.180 C 
BRANCH  16  17
HETATM   17  N4  UNL     1       1.573  -2.146   0.549  1.00  0.00    -0.377 N 
ATOM     18  H42 UNL     1       1.165  -2.803   1.214  1.00  0.00     0.158 HD
ATOM     19  H41 UNL     1       2.480  -2.374   0.143  1.00  0.00     0.158 HD
ENDBRANCH  16  17
BRANCH  16  20
HETATM   20  N5  UNL     1       1.533  -0.093  -0.784  1.00  0.00    -0.368 N 
ATOM     21  H5  UNL     1       1.011   0.744  -1.041  1.00  0.00     0.161 HD
BRANCH  20  22
HETATM   22  C9  UNL     1       2.832  -0.322  -1.368  1.00  0.00     0.121 C 
BRANCH  22  23
HETATM   23  C10 UNL     1       3.970  -0.196  -0.365  1.00  0.00     0.020 C 
BRANCH  23  24
HETATM   24  C11 UNL     1       5.255  -0.474  -1.094  1.00  0.00     0.009 C 
BRANCH  24  25
HETATM   25  C12 UNL     1       6.496  -0.415  -0.261  1.00  0.00     0.072 C 
BRANCH  25  26
HETATM   26  C13 UNL     1       6.698   0.899   0.327  1.00  0.00     0.086 C 
HETATM   27  N6  UNL     1       7.605   1.718  -0.151  1.00  0.00    -0.391 N 
ATOM     28  H62 UNL     1       8.132   1.343  -0.940  1.00  0.00     0.157 HD
ATOM     29  H61 UNL     1       7.747   2.640   0.262  1.00  0.00     0.157 HD
HETATM   30  N7  UNL     1       5.965   1.420   1.423  1.00  0.00    -0.088 NA
ENDBRANCH  25  26
ENDBRANCH  24  25
ENDBRANCH  23  24
ENDBRANCH  22  23
ENDBRANCH  20  22
ENDBRANCH  16  20
ENDBRANCH   1  16
TORSDOF 15
