REMARK  12 active torsions:
REMARK  status: ('A' for Active; 'I' for Inactive)
REMARK    1  A    between atoms: O1_2  and  C2_3 
REMARK    2  A    between atoms: C2_3  and  C4_5 
REMARK    3  A    between atoms: C2_3  and  C9_23 
REMARK    4  A    between atoms: C4_5  and  O2_6 
REMARK    5  A    between atoms: O2_6  and  C5_7 
REMARK    6  A    between atoms: C5_7  and  C6_8 
REMARK    7  A    between atoms: C6_8  and  C7_9 
REMARK    8  A    between atoms: C7_9  and  N1_10 
REMARK       I    between atoms: N1_10  and  C8_12 
REMARK       I    between atoms: C8_12  and  N3_16 
REMARK    9  A    between atoms: N3_16  and  N4_18 
REMARK   10  A    between atoms: C9_23  and  N6_24 
REMARK   11  A    between atoms: N6_24  and  C12_27 
REMARK   12  A    between atoms: C12_27  and  C13_28 
ROOT
HETATM    1  C5  UNL     1       1.596  -0.343  -0.551  1.00  0.00     0.169 C 
ENDROOT
BRANCH   1   2
HETATM    2  O2  UNL     1       0.507  -0.083   0.239  1.00  0.00    -0.388 OA
BRANCH   2   3
HETATM    3  C4  UNL     1      -0.063   1.154   0.105  1.00  0.00     0.207 C 
BRANCH   3   4
HETATM    4  C2  UNL     1      -1.254   1.199   1.078  1.00  0.00     0.102 C 
HETATM    5  C3  UNL     1      -0.519   1.242   2.457  1.00  0.00     0.050 C 
BRANCH   4   6
HETATM    6  O1  UNL     1      -1.861   2.404   0.966  1.00  0.00    -0.381 OA
HETATM    7  C1  UNL     1      -2.749   2.776   1.936  1.00  0.00     0.202 C 
ENDBRANCH   4   6
BRANCH   4   8
HETATM    8  C9  UNL     1      -2.044  -0.026   1.146  1.00  0.00     0.276 C 
BRANCH   8   9
HETATM    9  N6  UNL     1      -2.925  -0.441   0.131  1.00  0.00    -0.064 N 
HETATM   10  C10 UNL     1      -2.553  -1.772  -0.401  1.00  0.00     0.272 C 
HETATM   11  C11 UNL     1      -4.242  -0.647   0.748  1.00  0.00     0.272 C 
BRANCH   9  12
HETATM   12  C12 UNL     1      -3.118   0.392  -1.000  1.00  0.00     0.335 C 
BRANCH  12  13
HETATM   13  C13 UNL     1      -4.163  -0.154  -1.892  1.00  0.00     0.257 C 
HETATM   14  N7  UNL     1      -4.546   0.517  -3.101  1.00  0.00    -0.061 NA
HETATM   15  O3  UNL     1      -4.766  -1.216  -1.651  1.00  0.00    -0.275 OA
ENDBRANCH  12  13
ENDBRANCH   9  12
ENDBRANCH   8   9
ENDBRANCH   4   8
ENDBRANCH   3   4
ENDBRANCH   2   3
ENDBRANCH   1   2
BRANCH   1  16
HETATM   16  C6  UNL     1       2.709   0.615  -0.281  1.00  0.00     0.046 C 
BRANCH  16  17
HETATM   17  C7  UNL     1       3.927   0.349  -1.137  1.00  0.00     0.140 C 
BRANCH  17  18
HETATM   18  N1  UNL     1       4.419  -0.998  -0.869  1.00  0.00    -0.225 N 
HETATM   19  C8  UNL     1       5.574  -1.444  -1.584  1.00  0.00     0.687 C 
HETATM   20  N2  UNL     1       5.536  -1.576  -2.872  1.00  0.00    -0.234 N 
HETATM   21  N3  UNL     1       6.794  -1.758  -0.937  1.00  0.00    -0.119 N 
ATOM     22  H22 UNL     1       4.657  -1.350  -3.338  1.00  0.00     0.174 HD
ATOM     23  H21 UNL     1       6.360  -1.894  -3.382  1.00  0.00     0.174 HD
ATOM     24  H3  UNL     1       7.686  -1.546  -1.385  1.00  0.00     0.207 HD
ATOM     25  H1  UNL     1       3.953  -1.603  -0.192  1.00  0.00     0.177 HD
BRANCH  21  26
HETATM   26  N4  UNL     1       6.761  -2.358   0.316  1.00  0.00    -0.235 N 
HETATM   27  N5  UNL     1       7.114  -3.575   0.467  1.00  0.00    -0.330 N 
ATOM     28  H52 UNL     1       7.421  -4.100  -0.352  1.00  0.00     0.178 HD
ATOM     29  H51 UNL     1       7.090  -4.015   1.387  1.00  0.00     0.178 HD
ATOM     30  H4  UNL     1       6.451  -1.819   1.125  1.00  0.00     0.208 HD
ENDBRANCH  21  26
ENDBRANCH  17  18
ENDBRANCH  16  17
ENDBRANCH   1  16
TORSDOF 12
