REMARK  12 active torsions:
REMARK  status: ('A' for Active; 'I' for Inactive)
REMARK    1  A    between atoms: N1_1  and  C1_5 
REMARK    2  A    between atoms: C1_5  and  C2_6 
REMARK    3  A    between atoms: C2_6  and  C3_7 
REMARK    4  A    between atoms: C3_7  and  C4_8 
REMARK    5  A    between atoms: C4_8  and  N2_9 
REMARK    6  A    between atoms: C5_10  and  C6_11 
REMARK    7  A    between atoms: C6_11  and  C7_12 
REMARK    8  A    between atoms: C7_12  and  C8_13 
REMARK    9  A    between atoms: C8_13  and  N3_14 
REMARK   10  A    between atoms: C11_20  and  N6_21 
REMARK   11  A    between atoms: C13_26  and  N9_27 
REMARK   12  A    between atoms: N9_27  and  C14_29 
ROOT
HETATM    1  N2  UNL     1      -0.566   0.134   0.106  1.00  0.00     0.118 N 
HETATM    2  C5  UNL     1       0.720   0.704  -0.273  1.00  0.00     0.227 C 
HETATM    3  C10 UNL     1       0.605   2.190  -0.065  1.00  0.00     0.065 C 
HETATM    4  C11 UNL     1      -0.724   2.435   0.553  1.00  0.00     0.139 C 
HETATM    5  C13 UNL     1      -1.515   1.211   0.088  1.00  0.00     0.347 C 
ENDROOT
BRANCH   1   6
HETATM    6  C4  UNL     1      -1.003  -0.885  -0.812  1.00  0.00     0.276 C 
BRANCH   6   7
HETATM    7  C3  UNL     1      -2.064  -1.727  -0.192  1.00  0.00     0.032 C 
BRANCH   7   8
HETATM    8  C2  UNL     1      -2.523  -2.842  -1.126  1.00  0.00     0.029 C 
BRANCH   8   9
HETATM    9  C1  UNL     1      -3.578  -3.613  -0.363  1.00  0.00     0.229 C 
BRANCH   9  10
HETATM   10  N1  UNL     1      -4.083  -4.699  -1.142  1.00  0.00    -0.079 N 
ATOM     11  H13 UNL     1      -4.430  -4.383  -2.048  1.00  0.00     0.274 HD
ATOM     12  H12 UNL     1      -3.333  -5.309  -1.467  1.00  0.00     0.274 HD
ATOM     13  H11 UNL     1      -4.794  -5.219  -0.628  1.00  0.00     0.274 HD
ENDBRANCH   9  10
ENDBRANCH   8   9
ENDBRANCH   7   8
ENDBRANCH   6   7
ENDBRANCH   1   6
BRANCH   2  14
HETATM   14  C6  UNL     1       1.825   0.238   0.635  1.00  0.00     0.037 C 
BRANCH  14  15
HETATM   15  C7  UNL     1       2.137  -1.203   0.643  1.00  0.00     0.022 C 
BRANCH  15  16
HETATM   16  C8  UNL     1       2.712  -1.693  -0.688  1.00  0.00     0.122 C 
BRANCH  16  17
HETATM   17  N3  UNL     1       3.968  -0.959  -0.907  1.00  0.00    -0.367 N 
HETATM   18  C9  UNL     1       5.077  -1.535  -0.622  1.00  0.00     0.196 C 
HETATM   19  N4  UNL     1       5.066  -2.849  -0.106  1.00  0.00    -0.067 NA
HETATM   20  N5  UNL     1       6.291  -0.862  -0.819  1.00  0.00    -0.067 NA
ATOM     21  H3  UNL     1       3.957  -0.009  -1.279  1.00  0.00     0.161 HD
ENDBRANCH  16  17
ENDBRANCH  15  16
ENDBRANCH  14  15
ENDBRANCH   2  14
BRANCH   5  22
HETATM   22  N9  UNL     1      -2.593   1.091   1.023  1.00  0.00    -0.337 N 
ATOM     23  H9  UNL     1      -2.428   0.644   1.925  1.00  0.00     0.164 HD
BRANCH  22  24
HETATM   24  C14 UNL     1      -3.898   1.589   0.711  1.00  0.00     0.350 C 
HETATM   25  O1  UNL     1      -4.077   2.147  -0.414  1.00  0.00    -0.284 OA
ENDBRANCH  22  24
ENDBRANCH   5  22
BRANCH   4  26
HETATM   26  N6  UNL     1      -1.371   3.602  -0.017  1.00  0.00    -0.358 N 
HETATM   27  C12 UNL     1      -0.818   4.743  -0.167  1.00  0.00     0.197 C 
HETATM   28  N7  UNL     1       0.517   4.934   0.236  1.00  0.00    -0.067 NA
HETATM   29  N8  UNL     1      -1.528   5.814  -0.738  1.00  0.00    -0.067 NA
ATOM     30  H6  UNL     1      -2.340   3.503  -0.320  1.00  0.00     0.162 HD
ENDBRANCH   4  26
TORSDOF 12
