REMARK  13 active torsions:
REMARK  status: ('A' for Active; 'I' for Inactive)
REMARK    1  A    between atoms: N1_1  and  C1_5 
REMARK    2  A    between atoms: C1_5  and  C2_6 
REMARK    3  A    between atoms: C2_6  and  O1_7 
REMARK    4  A    between atoms: O1_7  and  C3_8 
REMARK    5  A    between atoms: C3_8  and  C4_9 
REMARK    6  A    between atoms: C4_9  and  N2_10 
REMARK    7  A    between atoms: N3_13  and  C7_14 
REMARK    8  A    between atoms: C7_14  and  C8_15 
REMARK    9  A    between atoms: C8_15  and  N4_16 
REMARK       I    between atoms: N4_16  and  C9_18 
REMARK       I    between atoms: C9_18  and  N5_20 
REMARK   10  A    between atoms: N5_20  and  C10_22 
REMARK   11  A    between atoms: C10_22  and  C11_23 
REMARK   12  A    between atoms: C11_23  and  N6_24 
REMARK   13  A    between atoms: N6_24  and  N7_25 
ROOT
HETATM    1  N2  UNL     1       1.924   0.064   0.148  1.00  0.00    -0.038 N 
HETATM    2  C5  UNL     1       1.341  -0.976   0.970  1.00  0.00     0.267 C 
HETATM    3  C6  UNL     1       0.055  -0.317   1.492  1.00  0.00     0.267 C 
HETATM    4  N3  UNL     1       0.109   1.010   0.916  1.00  0.00    -0.038 N 
HETATM    5  C12 UNL     1      -0.140   0.913  -0.474  1.00  0.00     0.267 C 
HETATM    6  C13 UNL     1       1.155   0.300  -1.032  1.00  0.00     0.267 C 
HETATM    7  C14 UNL     1       1.559   1.250   0.946  1.00  0.00     0.473 C 
ENDROOT
BRANCH   4   8
HETATM    8  C7  UNL     1      -0.647   1.923   1.667  1.00  0.00     0.259 C 
BRANCH   8   9
HETATM    9  C8  UNL     1      -1.696   2.675   0.918  1.00  0.00     0.152 C 
BRANCH   9  10
HETATM   10  N4  UNL     1      -2.679   1.816   0.312  1.00  0.00    -0.342 N 
HETATM   11  C9  UNL     1      -3.535   0.924   0.998  1.00  0.00     0.316 C 
HETATM   12  O2  UNL     1      -3.450   0.862   2.250  1.00  0.00    -0.247 OA
HETATM   13  N5  UNL     1      -4.473   0.110   0.310  1.00  0.00    -0.342 N 
ATOM     14  H5  UNL     1      -4.535   0.166  -0.707  1.00  0.00     0.164 HD
ATOM     15  H4  UNL     1      -2.766   1.854  -0.704  1.00  0.00     0.164 HD
BRANCH  13  16
HETATM   16  C10 UNL     1      -5.335  -0.790   1.022  1.00  0.00     0.142 C 
BRANCH  16  17
HETATM   17  C11 UNL     1      -6.252  -1.561   0.130  1.00  0.00     0.154 C 
BRANCH  17  18
HETATM   18  N6  UNL     1      -7.102  -0.645  -0.613  1.00  0.00    -0.147 NA
BRANCH  18  19
HETATM   19  N7  UNL     1      -7.933  -1.412  -1.424  1.00  0.00    -0.348 N 
ATOM     20  H72 UNL     1      -7.934  -2.431  -1.476  1.00  0.00     0.172 HD
ATOM     21  H71 UNL     1      -8.529  -0.769  -1.945  1.00  0.00     0.172 HD
ENDBRANCH  18  19
ENDBRANCH  17  18
ENDBRANCH  16  17
ENDBRANCH  13  16
ENDBRANCH   9  10
ENDBRANCH   8   9
ENDBRANCH   4   8
BRANCH   1  22
HETATM   22  C4  UNL     1       3.339  -0.057  -0.044  1.00  0.00     0.265 C 
BRANCH  22  23
HETATM   23  C3  UNL     1       3.821   0.549  -1.324  1.00  0.00     0.195 C 
BRANCH  23  24
HETATM   24  O1  UNL     1       5.188   0.414  -1.453  1.00  0.00    -0.388 OA
BRANCH  24  25
HETATM   25  C2  UNL     1       5.654  -0.876  -1.461  1.00  0.00     0.195 C 
BRANCH  25  26
HETATM   26  C1  UNL     1       7.167  -0.921  -1.631  1.00  0.00     0.255 C 
BRANCH  26  27
HETATM   27  N1  UNL     1       7.801  -0.212  -0.535  1.00  0.00    -0.077 N 
ATOM     28  H13 UNL     1       7.453   0.742  -0.441  1.00  0.00     0.274 HD
ATOM     29  H12 UNL     1       7.505  -0.566   0.375  1.00  0.00     0.274 HD
ATOM     30  H11 UNL     1       8.814  -0.242  -0.649  1.00  0.00     0.274 HD
ENDBRANCH  26  27
ENDBRANCH  25  26
ENDBRANCH  24  25
ENDBRANCH  23  24
ENDBRANCH  22  23
ENDBRANCH   1  22
TORSDOF 13
