REMARK  12 active torsions:
REMARK  status: ('A' for Active; 'I' for Inactive)
REMARK       I    between atoms: C1_4  and  N3_6 
REMARK    1  A    between atoms: C2_8  and  C3_9 
REMARK    2  A    between atoms: C3_9  and  N5_13 
REMARK    3  A    between atoms: N5_13  and  C4_15 
REMARK    4  A    between atoms: C4_15  and  C5_16 
REMARK    5  A    between atoms: C5_16  and  N6_17 
REMARK    6  A    between atoms: C8_20  and  N7_21 
REMARK    7  A    between atoms: N7_21  and  C9_23 
REMARK    8  A    between atoms: C11_26  and  C12_27 
REMARK    9  A    between atoms: C12_27  and  N8_28 
REMARK   10  A    between atoms: N8_28  and  C13_30 
REMARK   11  A    between atoms: C13_30  and  C14_31 
REMARK   12  A    between atoms: C14_31  and  O2_32 
ROOT
HETATM    1  N6  UNL     1      -0.376   0.747   0.036  1.00  0.00    -0.055 N 
HETATM    2  C6  UNL     1       0.109   1.793   0.947  1.00  0.00     0.241 C 
HETATM    3  C7  UNL     1      -0.257   1.165   2.283  1.00  0.00     0.063 C 
HETATM    4  C8  UNL     1      -0.955  -0.055   1.764  1.00  0.00     0.088 C 
HETATM    5  C10 UNL     1       0.004  -0.509   0.699  1.00  0.00     0.271 C 
HETATM    6  C11 UNL     1      -1.683   0.537   0.568  1.00  0.00     0.237 C 
ENDROOT
BRANCH   1   7
HETATM    7  C5  UNL     1      -0.078   0.883  -1.306  1.00  0.00     0.257 C 
BRANCH   7   8
HETATM    8  C4  UNL     1       0.887  -0.147  -1.898  1.00  0.00     0.149 C 
BRANCH   8   9
HETATM    9  N5  UNL     1       2.188  -0.116  -1.292  1.00  0.00    -0.374 N 
ATOM     10  H5  UNL     1       2.392   0.572  -0.567  1.00  0.00     0.161 HD
BRANCH   9  11
HETATM   11  C3  UNL     1       3.181  -1.025  -1.690  1.00  0.00     0.110 C 
HETATM   12  N4  UNL     1       2.921  -1.876  -2.614  1.00  0.00    -0.385 N 
ATOM     13  H42 UNL     1       3.642  -2.536  -2.903  1.00  0.00     0.157 HD
ATOM     14  H41 UNL     1       1.990  -1.859  -3.030  1.00  0.00     0.157 HD
BRANCH  11  15
HETATM   15  C2  UNL     1       4.514  -1.049  -1.094  1.00  0.00     0.138 C 
HETATM   16  N3  UNL     1       5.406  -1.870  -1.455  1.00  0.00    -0.337 N 
HETATM   17  C1  UNL     1       6.684  -1.848  -0.841  1.00  0.00     0.185 C 
ATOM     18  H3  UNL     1       5.206  -2.549  -2.189  1.00  0.00     0.168 HD
HETATM   19  N1  UNL     1       7.465  -2.862  -0.891  1.00  0.00    -0.374 N 
HETATM   20  N2  UNL     1       7.116  -0.683  -0.154  1.00  0.00    -0.064 NA
ATOM     21  H12 UNL     1       8.384  -2.846  -0.449  1.00  0.00     0.158 HD
ATOM     22  H11 UNL     1       7.155  -3.699  -1.385  1.00  0.00     0.158 HD
ENDBRANCH  11  15
ENDBRANCH   9  11
ENDBRANCH   8   9
ENDBRANCH   7   8
ENDBRANCH   1   7
BRANCH   6  23
HETATM   23  C12 UNL     1      -2.686  -0.326  -0.064  1.00  0.00     0.150 C 
BRANCH  23  24
HETATM   24  N8  UNL     1      -3.127   0.020  -1.360  1.00  0.00    -0.417 N 
ATOM     25  H8  UNL     1      -2.891  -0.546  -2.175  1.00  0.00     0.153 HD
BRANCH  24  26
HETATM   26  C13 UNL     1      -3.926   1.212  -1.472  1.00  0.00     0.139 C 
BRANCH  26  27
HETATM   27  C14 UNL     1      -5.280   1.096  -0.843  1.00  0.00     0.183 C 
BRANCH  27  28
HETATM   28  O2  UNL     1      -6.000   2.300  -0.996  1.00  0.00    -0.399 OA
ATOM     29  H2  UNL     1      -6.859   2.226  -0.597  1.00  0.00     0.209 HD
ENDBRANCH  27  28
ENDBRANCH  26  27
ENDBRANCH  24  26
ENDBRANCH  23  24
ENDBRANCH   6  23
BRANCH   4  30
HETATM   30  N7  UNL     1      -1.598  -0.948   2.585  1.00  0.00    -0.355 N 
ATOM     31  H7  UNL     1      -2.597  -1.115   2.461  1.00  0.00     0.162 HD
BRANCH  30  32
HETATM   32  C9  UNL     1      -0.894  -1.643   3.605  1.00  0.00     0.349 C 
HETATM   33  O1  UNL     1       0.355  -1.462   3.791  1.00  0.00    -0.284 OA
ENDBRANCH  30  32
ENDBRANCH   4  30
TORSDOF 12
