REMARK  12 active torsions:
REMARK  status: ('A' for Active; 'I' for Inactive)
REMARK       I    between atoms: C2_2  and  N1_4 
REMARK    1  A    between atoms: N1_4  and  C3_6 
REMARK    2  A    between atoms: N2_8  and  N3_9 
REMARK    3  A    between atoms: N4_12  and  C5_13 
REMARK    4  A    between atoms: N4_12  and  C7_17 
REMARK    5  A    between atoms: C5_13  and  C6_14 
REMARK    6  A    between atoms: C6_14  and  O2_15 
REMARK    7  A    between atoms: C7_17  and  C8_18 
REMARK    8  A    between atoms: C8_18  and  C9_19 
REMARK    9  A    between atoms: C9_19  and  C10_20 
REMARK   10  A    between atoms: C10_20  and  C11_21 
REMARK   11  A    between atoms: C11_21  and  C12_22 
REMARK   12  A    between atoms: C12_22  and  N5_23 
ROOT
HETATM    1  C3  UNL     1      -3.761   0.677  -0.529  1.00  0.00     0.129 C 
HETATM    2  C4  UNL     1      -3.574   0.135   0.866  1.00  0.00     0.172 C 
HETATM    3  N2  UNL     1      -2.824  -1.052   0.588  1.00  0.00    -0.056 NA
HETATM    4  N4  UNL     1      -1.821  -0.685  -0.335  1.00  0.00     0.016 N 
HETATM    5  C14 UNL     1      -2.453   0.372  -1.158  1.00  0.00     0.287 C 
ENDROOT
BRANCH   4   6
HETATM    6  C5  UNL     1      -1.534  -1.713  -1.245  1.00  0.00     0.286 C 
BRANCH   6   7
HETATM    7  C6  UNL     1      -0.804  -2.927  -0.915  1.00  0.00     0.194 C 
BRANCH   7   8
HETATM    8  O2  UNL     1      -1.301  -3.741   0.091  1.00  0.00    -0.399 OA
ATOM      9  H2  UNL     1      -0.824  -4.534   0.307  1.00  0.00     0.209 HD
ENDBRANCH   7   8
ENDBRANCH   6   7
ENDBRANCH   4   6
BRANCH   4  10
HETATM   10  C7  UNL     1      -0.812  -0.040   0.403  1.00  0.00     0.261 C 
BRANCH  10  11
HETATM   11  C8  UNL     1       0.552  -0.640   0.449  1.00  0.00     0.030 C 
BRANCH  11  12
HETATM   12  C9  UNL     1       1.491   0.240   1.308  1.00  0.00     0.002 C 
BRANCH  12  13
HETATM   13  C10 UNL     1       2.864  -0.354   1.364  1.00  0.00     0.002 C 
BRANCH  13  14
HETATM   14  C11 UNL     1       3.540  -0.505   0.041  1.00  0.00     0.020 C 
BRANCH  14  15
HETATM   15  C12 UNL     1       4.912  -1.119   0.313  1.00  0.00     0.122 C 
BRANCH  15  16
HETATM   16  N5  UNL     1       5.664  -0.235   1.180  1.00  0.00    -0.367 N 
HETATM   17  C13 UNL     1       6.522   0.594   0.670  1.00  0.00     0.196 C 
HETATM   18  N6  UNL     1       6.741   0.654  -0.731  1.00  0.00    -0.067 NA
HETATM   19  N7  UNL     1       7.254   1.455   1.522  1.00  0.00    -0.067 NA
ATOM     20  H5  UNL     1       5.519  -0.264   2.189  1.00  0.00     0.161 HD
ENDBRANCH  15  16
ENDBRANCH  14  15
ENDBRANCH  13  14
ENDBRANCH  12  13
ENDBRANCH  11  12
ENDBRANCH  10  11
ENDBRANCH   4  10
BRANCH   3  21
HETATM   21  N3  UNL     1      -3.699  -2.008   0.124  1.00  0.00    -0.340 NA
ATOM     22  H32 UNL     1      -4.424  -2.273   0.791  1.00  0.00     0.172 HD
ATOM     23  H31 UNL     1      -3.165  -2.854  -0.074  1.00  0.00     0.172 HD
ENDBRANCH   3  21
BRANCH   1  24
HETATM   24  N1  UNL     1      -4.061   2.101  -0.510  1.00  0.00    -0.354 N 
HETATM   25  C2  UNL     1      -5.206   2.656  -1.103  1.00  0.00     0.214 C 
HETATM   26  C1  UNL     1      -5.472   4.108  -1.061  1.00  0.00     0.117 C 
HETATM   27  O1  UNL     1      -6.030   1.909  -1.686  1.00  0.00    -0.274 OA
ATOM     28  H1  UNL     1      -3.406   2.728  -0.042  1.00  0.00     0.162 HD
ENDBRANCH   1  24
TORSDOF 12
