REMARK  11 active torsions:
REMARK  status: ('A' for Active; 'I' for Inactive)
REMARK    1  A    between atoms: O1_2  and  C2_3 
REMARK    2  A    between atoms: C2_3  and  C3_4 
REMARK    3  A    between atoms: C3_4  and  C4_5 
REMARK    4  A    between atoms: C4_5  and  N1_6 
REMARK       I    between atoms: N1_6  and  C5_8 
REMARK    5  A    between atoms: C5_8  and  C6_10 
REMARK    6  A    between atoms: C9_13  and  C10_14 
REMARK    7  A    between atoms: C10_14  and  C11_16 
REMARK    8  A    between atoms: C12_17  and  O4_18 
REMARK    9  A    between atoms: C12_17  and  C13_20 
REMARK   10  A    between atoms: C13_20  and  O5_23 
REMARK   11  A    between atoms: C29_39  and  O7_40 
ROOT
HETATM    1  C6  UNL     1       1.831  -0.680  -0.412  1.00  0.00     0.096 C 
HETATM    2  C7  UNL     1       1.152  -0.827  -1.758  1.00  0.00     0.043 C 
HETATM    3  C8  UNL     1       0.021  -1.748  -1.488  1.00  0.00    -0.010 C 
HETATM    4  C9  UNL     1      -0.745  -1.517  -0.396  1.00  0.00     0.014 C 
HETATM    5  C16 UNL     1      -0.447  -0.306   0.442  1.00  0.00    -0.046 C 
HETATM    6  C17 UNL     1      -1.280   0.889   0.186  1.00  0.00    -0.015 C 
HETATM    7  C18 UNL     1      -2.123   1.152   1.414  1.00  0.00     0.020 C 
HETATM    8  C19 UNL     1      -2.228   0.794  -0.982  1.00  0.00     0.015 C 
HETATM    9  C20 UNL     1      -3.174   1.992  -1.030  1.00  0.00     0.018 C 
HETATM   10  C21 UNL     1      -2.547   3.309  -0.889  1.00  0.00     0.021 C 
HETATM   11  C22 UNL     1      -3.084   4.232   0.163  1.00  0.00     0.024 C 
HETATM   12  C23 UNL     1      -2.628   4.186  -2.138  1.00  0.00     0.135 C 
HETATM   13  O6  UNL     1      -3.394   4.054  -3.040  1.00  0.00    -0.297 OA
HETATM   14  C24 UNL     1      -1.537   5.178  -1.889  1.00  0.00     0.079 C 
HETATM   15  C25 UNL     1      -0.636   4.553  -0.795  1.00  0.00     0.013 C 
HETATM   16  C26 UNL     1      -1.061   3.143  -0.929  1.00  0.00     0.007 C 
HETATM   17  C27 UNL     1      -0.418   2.076  -0.176  1.00  0.00     0.006 C 
HETATM   18  C28 UNL     1       0.422   2.396   1.023  1.00  0.00     0.039 C 
HETATM   19  C29 UNL     1       1.433   1.272   1.108  1.00  0.00     0.132 C 
HETATM   20  C30 UNL     1       1.016  -0.084   0.699  1.00  0.00     0.019 C 
HETATM   21  C31 UNL     1       1.364  -0.989   1.923  1.00  0.00     0.023 C 
ENDROOT
BRANCH   4  22
HETATM   22  C10 UNL     1      -1.815  -2.468  -0.205  1.00  0.00     0.184 C 
HETATM   23  O3  UNL     1      -1.968  -3.379  -1.059  1.00  0.00    -0.287 OA
BRANCH  22  24
HETATM   24  C11 UNL     1      -2.743  -2.482   0.901  1.00  0.00     0.092 C 
HETATM   25  C12 UNL     1      -3.745  -3.253   1.167  1.00  0.00     0.100 C 
BRANCH  25  26
HETATM   26  O4  UNL     1      -4.408  -2.889   2.418  1.00  0.00    -0.267 OA
HETATM   27  S1  UNL     1      -3.379  -2.566   3.796  1.00  0.00     0.099 SA
ENDBRANCH  25  26
BRANCH  25  28
HETATM   28  C13 UNL     1      -4.396  -4.387   0.560  1.00  0.00     0.100 C 
HETATM   29  C14 UNL     1      -5.901  -3.987   0.446  1.00  0.00     0.053 C 
HETATM   30  C15 UNL     1      -4.391  -5.607   1.502  1.00  0.00     0.053 C 
BRANCH  28  31
HETATM   31  O5  UNL     1      -4.056  -4.844  -0.660  1.00  0.00    -0.384 OA
ATOM     32  H5  UNL     1      -4.485  -5.591  -1.060  1.00  0.00     0.211 HD
ENDBRANCH  28  31
ENDBRANCH  25  28
ENDBRANCH  22  24
ENDBRANCH   4  22
BRANCH   1  33
HETATM   33  C5  UNL     1       3.146  -0.094  -0.648  1.00  0.00     0.223 C 
HETATM   34  N1  UNL     1       4.142  -0.137   0.338  1.00  0.00    -0.361 N 
ATOM     35  H1  UNL     1       3.901  -0.594   1.218  1.00  0.00     0.162 HD
HETATM   36  O2  UNL     1       3.406   0.457  -1.732  1.00  0.00    -0.273 OA
BRANCH  34  37
HETATM   37  C4  UNL     1       5.477   0.404   0.227  1.00  0.00     0.124 C 
BRANCH  37  38
HETATM   38  C3  UNL     1       6.194  -0.295  -0.896  1.00  0.00     0.046 C 
BRANCH  38  39
HETATM   39  C2  UNL     1       7.583   0.297  -0.971  1.00  0.00     0.168 C 
BRANCH  39  40
HETATM   40  O1  UNL     1       8.300  -0.288  -1.986  1.00  0.00    -0.396 OA
HETATM   41  C1  UNL     1       8.479  -1.648  -1.879  1.00  0.00     0.201 C 
ENDBRANCH  39  40
ENDBRANCH  38  39
ENDBRANCH  37  38
ENDBRANCH  34  37
ENDBRANCH   1  33
BRANCH  19  42
HETATM   42  O7  UNL     1       1.954   1.369   2.389  1.00  0.00    -0.394 OA
ATOM     43  H7  UNL     1       2.588   0.664   2.442  1.00  0.00     0.210 HD
ENDBRANCH  19  42
TORSDOF 11
