REMARK  5 active torsions:
REMARK  status: ('A' for Active; 'I' for Inactive)
REMARK    1  A    between atoms: C4_6  and  C5_7 
REMARK    2  A    between atoms: C5_7  and  N2_8 
REMARK    3  A    between atoms: N2_8  and  C6_11 
REMARK    4  A    between atoms: C9_14  and  C10_15 
REMARK    5  A    between atoms: N5_25  and  C16_26 
ROOT
HETATM    1  C6  UNL     1       1.905  -1.259  -0.255  1.00  0.00     0.186 C 
HETATM    2  C7  UNL     1       1.121  -0.842  -1.434  1.00  0.00     0.037 C 
HETATM    3  C8  UNL     1      -0.403  -0.837  -1.216  1.00  0.00     0.040 C 
HETATM    4  C9  UNL     1      -0.586  -0.023   0.043  1.00  0.00    -0.035 C 
HETATM    5  C20 UNL     1      -0.167  -0.865   1.174  1.00  0.00     0.040 C 
HETATM    6  C21 UNL     1       1.361  -1.011   1.101  1.00  0.00     0.037 C 
ENDROOT
BRANCH   4   7
HETATM    7  C10 UNL     1      -1.765   0.824   0.115  1.00  0.00     0.112 A 
HETATM    8  N3  UNL     1      -1.676   2.170   0.369  1.00  0.00    -0.326 N 
HETATM    9  C11 UNL     1      -2.855   2.765   0.307  1.00  0.00     0.134 A 
ATOM     10  H3  UNL     1      -0.803   2.654   0.581  1.00  0.00     0.169 HD
HETATM   11  N4  UNL     1      -3.244   4.044   0.459  1.00  0.00    -0.350 N 
HETATM   12  C15 UNL     1      -3.784   1.796   0.003  1.00  0.00     0.081 A 
HETATM   13  C12 UNL     1      -4.522   4.428   0.326  1.00  0.00     0.090 A 
ATOM     14  H4  UNL     1      -2.541   4.748   0.684  1.00  0.00     0.166 HD
HETATM   15  C13 UNL     1      -5.466   3.490   0.022  1.00  0.00     0.019 A 
HETATM   16  C14 UNL     1      -5.129   2.163  -0.147  1.00  0.00     0.035 A 
HETATM   17  N5  UNL     1      -3.093   0.629  -0.103  1.00  0.00    -0.325 N 
BRANCH  17  18
HETATM   18  C16 UNL     1      -3.643  -0.660  -0.385  1.00  0.00     0.092 C 
HETATM   19  C17 UNL     1      -3.363  -1.741   0.698  1.00  0.00     0.026 C 
HETATM   20  C18 UNL     1      -4.770  -2.292   0.483  1.00  0.00     0.004 C 
HETATM   21  C19 UNL     1      -5.098  -0.862   0.014  1.00  0.00     0.026 C 
ENDBRANCH  17  18
ENDBRANCH   4   7
BRANCH   1  22
HETATM   22  N2  UNL     1       3.186  -0.491  -0.273  1.00  0.00    -0.067 N 
ATOM     23  H22 UNL     1       3.127   0.365   0.279  1.00  0.00     0.277 HD
ATOM     24  H21 UNL     1       3.367  -0.068  -1.184  1.00  0.00     0.277 HD
BRANCH  22  25
HETATM   25  C5  UNL     1       4.280  -1.345   0.159  1.00  0.00     0.272 C 
BRANCH  25  26
HETATM   26  C4  UNL     1       5.503  -0.485   0.320  1.00  0.00    -0.017 A 
HETATM   27  C3  UNL     1       6.094  -0.379   1.583  1.00  0.00     0.096 A 
HETATM   28  N1  UNL     1       7.160   0.406   1.755  1.00  0.00    -0.375 N 
HETATM   29  C2  UNL     1       7.723   1.124   0.764  1.00  0.00     0.087 A 
ATOM     30  H1  UNL     1       7.570   0.465   2.687  1.00  0.00     0.164 HD
HETATM   31  C1  UNL     1       7.163   1.034  -0.481  1.00  0.00     0.018 A 
HETATM   32  C22 UNL     1       6.052   0.231  -0.708  1.00  0.00     0.011 A 
ENDBRANCH  25  26
ENDBRANCH  22  25
ENDBRANCH   1  22
TORSDOF 5
