REMARK  12 active torsions:
REMARK  status: ('A' for Active; 'I' for Inactive)
REMARK    1  A    between atoms: C2_2  and  C5_5 
REMARK    2  A    between atoms: C5_5  and  O2_7 
REMARK    3  A    between atoms: O2_7  and  N1_8 
REMARK    4  A    between atoms: N1_8  and  C6_9 
REMARK    5  A    between atoms: C6_9  and  N2_10 
REMARK    6  A    between atoms: C6_9  and  C10_23 
REMARK       I    between atoms: N2_10  and  C7_12 
REMARK    7  A    between atoms: C7_12  and  C8_14 
REMARK    8  A    between atoms: C8_14  and  N3_15 
REMARK    9  A    between atoms: C8_14  and  C9_20 
REMARK   10  A    between atoms: C10_23  and  O7_25 
REMARK   11  A    between atoms: O7_25  and  C11_26 
REMARK   12  A    between atoms: C11_26  and  C12_27 
ROOT
HETATM    1  C6  UNL     1      -0.448   0.018   0.051  1.00  0.00     0.307 C 
ENDROOT
BRANCH   1   2
HETATM    2  N1  UNL     1       0.585   0.090  -0.975  1.00  0.00    -0.055 NA
BRANCH   2   3
HETATM    3  O2  UNL     1       1.799  -0.060  -0.398  1.00  0.00    -0.204 OA
BRANCH   3   4
HETATM    4  C5  UNL     1       3.010   0.302  -0.980  1.00  0.00     0.284 C 
HETATM    5  O1  UNL     1       3.029   0.828  -2.090  1.00  0.00    -0.263 OA
BRANCH   4   6
HETATM    6  C2  UNL     1       4.249  -0.003  -0.184  1.00  0.00     0.038 C 
HETATM    7  C1  UNL     1       4.370   0.871   1.021  1.00  0.00     0.025 C 
HETATM    8  C3  UNL     1       4.068  -1.455   0.362  1.00  0.00     0.025 C 
HETATM    9  C4  UNL     1       5.462  -0.018  -1.032  1.00  0.00     0.025 C 
ENDBRANCH   4   6
ENDBRANCH   3   4
ENDBRANCH   2   3
ENDBRANCH   1   2
BRANCH   1  10
HETATM   10  N2  UNL     1      -1.552  -0.750  -0.371  1.00  0.00    -0.329 N 
HETATM   11  C7  UNL     1      -1.571  -2.146  -0.139  1.00  0.00     0.278 C 
HETATM   12  O3  UNL     1      -0.607  -2.706   0.412  1.00  0.00    -0.269 OA
ATOM     13  H2  UNL     1      -2.336  -0.300  -0.843  1.00  0.00     0.164 HD
BRANCH  11  14
HETATM   14  C8  UNL     1      -2.762  -2.944  -0.565  1.00  0.00     0.346 C 
HETATM   15  S1  UNL     1      -3.473  -2.237  -2.022  1.00  0.00    -0.034 SA
BRANCH  14  16
HETATM   16  N3  UNL     1      -2.398  -4.327  -0.651  1.00  0.00    -0.041 N 
ATOM     17  H33 UNL     1      -1.593  -4.478  -1.259  1.00  0.00     0.277 HD
ATOM     18  H32 UNL     1      -1.990  -4.674   0.217  1.00  0.00     0.277 HD
ATOM     19  H31 UNL     1      -3.210  -4.871  -0.942  1.00  0.00     0.277 HD
ENDBRANCH  14  16
BRANCH  14  20
HETATM   20  C9  UNL     1      -3.711  -2.796   0.624  1.00  0.00     0.232 C 
HETATM   21  O4  UNL     1      -4.250  -1.726   0.906  1.00  0.00    -0.645 OA
HETATM   22  O5  UNL     1      -3.982  -3.895   1.419  1.00  0.00    -0.645 OA
ENDBRANCH  14  20
ENDBRANCH  11  14
ENDBRANCH   1  10
BRANCH   1  23
HETATM   23  C10 UNL     1      -0.783   1.414   0.397  1.00  0.00     0.300 C 
HETATM   24  O6  UNL     1      -0.566   1.895   1.544  1.00  0.00    -0.261 OA
BRANCH  23  25
HETATM   25  O7  UNL     1      -1.331   2.168  -0.588  1.00  0.00    -0.311 OA
BRANCH  25  26
HETATM   26  C11 UNL     1      -1.746   3.490  -0.583  1.00  0.00     0.258 C 
BRANCH  26  27
HETATM   27  C12 UNL     1      -2.936   3.806   0.237  1.00  0.00     0.137 A 
HETATM   28  N4  UNL     1      -4.258   3.985  -0.120  1.00  0.00    -0.272 N 
HETATM   29  N5  UNL     1      -4.585   4.219   1.108  1.00  0.00    -0.240 N 
ATOM     30  H4  UNL     1      -4.771   3.947  -1.001  1.00  0.00     0.190 HD
HETATM   31  N6  UNL     1      -3.330   4.056   1.482  1.00  0.00    -0.272 N 
ATOM     32  H5  UNL     1      -5.456   4.439   1.591  1.00  0.00     0.208 HD
ATOM     33  H6  UNL     1      -2.848   4.103   2.380  1.00  0.00     0.190 HD
ENDBRANCH  26  27
ENDBRANCH  25  26
ENDBRANCH  23  25
ENDBRANCH   1  23
TORSDOF 12
