REMARK  17 active torsions:
REMARK  status: ('A' for Active; 'I' for Inactive)
REMARK    1  A    between atoms: C2_2  and  O1_3 
REMARK    2  A    between atoms: O1_3  and  C3_4 
REMARK    3  A    between atoms: C4_9  and  N3_10 
REMARK    4  A    between atoms: C7_13  and  O2_14 
REMARK    5  A    between atoms: C8_16  and  N4_17 
REMARK    6  A    between atoms: C10_24  and  N6_25 
REMARK    7  A    between atoms: C12_27  and  C13_28 
REMARK       I    between atoms: C13_28  and  N7_30 
REMARK    8  A    between atoms: N7_30  and  C14_32 
REMARK    9  A    between atoms: C18_38  and  N9_39 
REMARK   10  A    between atoms: N9_39  and  C19_40 
REMARK   11  A    between atoms: N9_39  and  C22_47 
REMARK   12  A    between atoms: C19_40  and  C20_41 
REMARK   13  A    between atoms: C20_41  and  C21_42 
REMARK   14  A    between atoms: C21_42  and  N10_43 
REMARK   15  A    between atoms: C23_50  and  N12_51 
REMARK   16  A    between atoms: N13_54  and  N14_55 
REMARK   17  A    between atoms: C24_58  and  O4_59 
ROOT
HETATM    1  C13 UNL     1       0.345   0.786   0.683  1.00  0.00     0.275 C 
HETATM    2  O3  UNL     1       0.298   1.771   1.455  1.00  0.00    -0.266 OA
HETATM    3  N7  UNL     1      -0.789   0.090   0.260  1.00  0.00    -0.319 N 
ATOM      4  H7  UNL     1      -0.598  -0.685  -0.374  1.00  0.00     0.169 HD
ENDROOT
BRANCH   3   5
HETATM    5  C14 UNL     1      -2.156   0.278   0.562  1.00  0.00     0.066 C 
HETATM    6  C15 UNL     1      -2.531   1.276   1.331  1.00  0.00     0.122 C 
HETATM    7  N8  UNL     1      -3.858   1.636   1.758  1.00  0.00    -0.350 N 
HETATM    8  C16 UNL     1      -4.128   3.023   2.069  1.00  0.00     0.156 C 
HETATM    9  C17 UNL     1      -4.941   0.737   1.928  1.00  0.00     0.122 C 
HETATM   10  S1  UNL     1      -5.967   1.104   3.185  1.00  0.00    -0.061 SA
HETATM   11  C18 UNL     1      -5.255  -0.463   1.160  1.00  0.00     0.248 C 
HETATM   12  N15 UNL     1      -4.274  -0.932   0.253  1.00  0.00    -0.370 N 
HETATM   13  C25 UNL     1      -3.079  -0.708  -0.041  1.00  0.00     0.116 C 
ATOM     14  H15 UNL     1      -4.655  -1.673  -0.336  1.00  0.00     0.161 HD
BRANCH  11  15
HETATM   15  N9  UNL     1      -6.584  -0.416   0.524  1.00  0.00    -0.336 N 
BRANCH  15  16
HETATM   16  C19 UNL     1      -7.029  -1.637  -0.124  1.00  0.00     0.129 C 
BRANCH  16  17
HETATM   17  C20 UNL     1      -8.409  -1.471  -0.715  1.00  0.00     0.047 C 
BRANCH  17  18
HETATM   18  C21 UNL     1      -8.894  -2.738  -1.374  1.00  0.00     0.231 C 
BRANCH  18  19
HETATM   19  N10 UNL     1     -10.238  -2.521  -1.937  1.00  0.00    -0.079 N 
ATOM     20 3H10 UNL     1     -10.896  -2.175  -1.239  1.00  0.00     0.274 HD
ATOM     21 2H10 UNL     1     -10.264  -1.723  -2.572  1.00  0.00     0.274 HD
ATOM     22 1H10 UNL     1     -10.566  -3.378  -2.383  1.00  0.00     0.274 HD
ENDBRANCH  18  19
ENDBRANCH  17  18
ENDBRANCH  16  17
ENDBRANCH  15  16
BRANCH  15  23
HETATM   23  C22 UNL     1      -7.426   0.710   0.502  1.00  0.00     0.175 A 
HETATM   24  N11 UNL     1      -8.522   0.942   1.276  1.00  0.00    -0.171 N 
HETATM   25  C23 UNL     1      -9.024   2.134   0.930  1.00  0.00     0.700 A 
ATOM     26  H11 UNL     1      -8.894   0.318   1.992  1.00  0.00     0.186 HD
HETATM   27  N13 UNL     1      -8.267   2.656  -0.047  1.00  0.00    -0.067 N 
HETATM   28  C24 UNL     1      -7.283   1.812  -0.332  1.00  0.00     0.224 A 
BRANCH  25  29
HETATM   29  N12 UNL     1     -10.063   2.687   1.452  1.00  0.00    -0.233 N 
ATOM     30 2H12 UNL     1     -10.639   2.290   2.195  1.00  0.00     0.174 HD
ATOM     31 1H12 UNL     1     -10.445   3.595   1.188  1.00  0.00     0.174 HD
ENDBRANCH  25  29
BRANCH  27  32
HETATM   32  N14 UNL     1      -8.503   3.912  -0.654  1.00  0.00    -0.322 N 
ATOM     33 2H14 UNL     1      -9.259   4.561  -0.435  1.00  0.00     0.178 HD
ATOM     34 1H14 UNL     1      -7.927   4.309  -1.397  1.00  0.00     0.178 HD
ENDBRANCH  27  32
BRANCH  28  35
HETATM   35  O4  UNL     1      -6.285   1.975  -1.278  1.00  0.00    -0.342 OA
ATOM     36  H4  UNL     1      -6.187   2.728  -1.848  1.00  0.00     0.219 HD
ENDBRANCH  28  35
ENDBRANCH  15  23
ENDBRANCH  11  15
ENDBRANCH   3   5
BRANCH   1  37
HETATM   37  C12 UNL     1       1.702   0.394   0.240  1.00  0.00     0.136 A 
HETATM   38  C11 UNL     1       2.954   0.895   0.467  1.00  0.00     0.155 A 
HETATM   39  N6  UNL     1       3.515  -0.088  -0.293  1.00  0.00    -0.242 N 
HETATM   40  N16 UNL     1       2.307  -0.540  -0.492  1.00  0.00    -0.282 N 
HETATM   41  C26 UNL     1       1.781  -1.688  -1.254  1.00  0.00     0.179 C 
BRANCH  39  42
HETATM   42  C10 UNL     1       4.868  -0.353  -0.604  1.00  0.00     0.195 A 
HETATM   43  C3  UNL     1       5.260  -0.578  -1.904  1.00  0.00     0.205 A 
HETATM   44  N1  UNL     1       6.574  -0.833  -2.097  1.00  0.00    -0.262 N 
HETATM   45  N2  UNL     1       7.456  -0.869  -1.110  1.00  0.00    -0.130 N 
ATOM     46  H1  UNL     1       6.901  -1.006  -3.048  1.00  0.00     0.189 HD
HETATM   47  C4  UNL     1       7.104  -0.652   0.170  1.00  0.00     0.696 A 
ATOM     48  H2  UNL     1       8.433  -1.067  -1.327  1.00  0.00     0.205 HD
HETATM   49  N5  UNL     1       5.809  -0.398   0.395  1.00  0.00    -0.169 N 
ATOM     50  H5  UNL     1       5.507  -0.230   1.355  1.00  0.00     0.186 HD
BRANCH  43  51
HETATM   51  O1  UNL     1       4.369  -0.548  -2.969  1.00  0.00    -0.332 OA
BRANCH  51  52
HETATM   52  C2  UNL     1       4.754  -0.776  -4.309  1.00  0.00     0.173 C 
HETATM   53  C1  UNL     1       5.358  -2.129  -4.550  1.00  0.00     0.034 C 
ENDBRANCH  51  52
ENDBRANCH  43  51
BRANCH  47  54
HETATM   54  N3  UNL     1       8.038  -0.700   1.247  1.00  0.00    -0.214 N 
HETATM   55  C5  UNL     1       7.731  -0.146   2.550  1.00  0.00     0.144 C 
HETATM   56  C6  UNL     1       8.942   0.559   3.127  1.00  0.00     0.054 C 
HETATM   57  C7  UNL     1       9.998   0.838   2.088  1.00  0.00     0.151 C 
HETATM   58  C8  UNL     1      10.490  -0.433   1.430  1.00  0.00     0.230 C 
HETATM   59  C9  UNL     1       9.339  -1.326   1.083  1.00  0.00     0.176 C 
BRANCH  57  60
HETATM   60  O2  UNL     1       9.478   1.747   1.172  1.00  0.00    -0.393 OA
ATOM     61  H2  UNL     1      10.143   1.923   0.517  1.00  0.00     0.210 HD
ENDBRANCH  57  60
BRANCH  58  62
HETATM   62  N4  UNL     1      11.295  -0.084   0.273  1.00  0.00    -0.071 N 
ATOM     63  H43 UNL     1      10.797   0.523  -0.378  1.00  0.00     0.274 HD
ATOM     64  H42 UNL     1      12.057   0.552   0.507  1.00  0.00     0.274 HD
ATOM     65  H41 UNL     1      11.627  -0.941  -0.170  1.00  0.00     0.274 HD
ENDBRANCH  58  62
ENDBRANCH  47  54
ENDBRANCH  39  42
ENDBRANCH   1  37
TORSDOF 17
