REMARK  10 active torsions:
REMARK  status: ('A' for Active; 'I' for Inactive)
REMARK    1  A    between atoms: N1_1  and  N2_4 
REMARK    2  A    between atoms: N2_4  and  N3_5 
REMARK    3  A    between atoms: N3_5  and  N4_7 
REMARK    4  A    between atoms: C1_9  and  O1_10 
REMARK    5  A    between atoms: C1_9  and  C2_12 
REMARK    6  A    between atoms: C4_16  and  N6_17 
REMARK    7  A    between atoms: N6_17  and  N7_19 
REMARK    8  A    between atoms: N8_21  and  C5_23 
REMARK    9  A    between atoms: N10_26  and  N11_27 
REMARK   10  A    between atoms: C7_30  and  N12_31 
ROOT
HETATM    1  N6  UNL     1      -0.079  -0.034  -0.259  1.00  0.00    -0.270 N 
ATOM      2  H6  UNL     1      -0.612   0.611   0.325  1.00  0.00     0.190 HD
ENDROOT
BRANCH   1   3
HETATM    3  C4  UNL     1       1.217  -0.064  -0.170  1.00  0.00     0.138 A 
HETATM    4  C3  UNL     1       1.828   0.784   0.718  1.00  0.00     0.138 A 
HETATM    5  N5  UNL     1       3.165   0.804   0.861  1.00  0.00    -0.356 N 
HETATM    6  C2  UNL     1       3.952  -0.006   0.139  1.00  0.00     0.126 A 
ATOM      7  H5  UNL     1       3.588   1.447   1.531  1.00  0.00     0.165 HD
HETATM    8  C9  UNL     1       3.310  -0.857  -0.756  1.00  0.00     0.149 A 
HETATM    9  N14 UNL     1       1.974  -0.883  -0.904  1.00  0.00    -0.327 N 
HETATM   10  N15 UNL     1       4.158  -1.715  -1.520  1.00  0.00    -0.080 NA
ATOM     11  H14 UNL     1       1.543  -1.523  -1.571  1.00  0.00     0.168 HD
BRANCH   6  12
HETATM   12  C1  UNL     1       5.404  -0.016   0.262  1.00  0.00     0.187 C 
HETATM   13  N4  UNL     1       5.969   0.775   1.090  1.00  0.00    -0.252 N 
ATOM     14  H4  UNL     1       5.413   1.410   1.663  1.00  0.00     0.191 HD
BRANCH  13  15
HETATM   15  N3  UNL     1       7.357   0.755   1.197  1.00  0.00    -0.154 N 
ATOM     16  H3  UNL     1       7.782   0.386   2.048  1.00  0.00     0.225 HD
BRANCH  15  17
HETATM   17  N2  UNL     1       8.084   1.166   0.302  1.00  0.00    -0.228 NA
BRANCH  17  18
HETATM   18  N1  UNL     1       8.918   1.223  -0.611  1.00  0.00    -0.259 N 
ATOM     19  H12 UNL     1       9.146   0.229  -0.583  1.00  0.00     0.193 HD
ATOM     20  H11 UNL     1       9.524   1.565  -1.357  1.00  0.00     0.193 HD
ENDBRANCH  17  18
ENDBRANCH  15  17
ENDBRANCH  13  15
BRANCH  12  21
HETATM   21  O1  UNL     1       6.178  -0.866  -0.501  1.00  0.00    -0.343 OA
ATOM     22  H1  UNL     1       5.758  -1.454  -1.117  1.00  0.00     0.219 HD
ENDBRANCH  12  21
ENDBRANCH   6  12
ENDBRANCH   1   3
BRANCH   1  23
HETATM   23  N7  UNL     1      -0.748  -0.877  -1.148  1.00  0.00    -0.240 N 
HETATM   24  N8  UNL     1      -1.982  -0.897  -1.317  1.00  0.00    -0.278 N 
ATOM     25  H8  UNL     1      -2.346  -1.563  -1.998  1.00  0.00     0.189 HD
ATOM     26  H7  UNL     1      -0.185  -1.524  -1.700  1.00  0.00     0.208 HD
BRANCH  24  27
HETATM   27  C5  UNL     1      -2.924  -0.079  -0.649  1.00  0.00     0.162 A 
HETATM   28  C6  UNL     1      -3.867  -0.672   0.179  1.00  0.00     0.189 A 
HETATM   29  N9  UNL     1      -3.851  -2.073   0.324  1.00  0.00    -0.077 NA
HETATM   30  N10 UNL     1      -4.787   0.084   0.835  1.00  0.00    -0.076 N 
HETATM   31  C7  UNL     1      -4.811   1.412   0.706  1.00  0.00     0.701 A 
HETATM   32  N13 UNL     1      -3.904   2.007  -0.093  1.00  0.00    -0.153 N 
HETATM   33  C8  UNL     1      -2.969   1.293  -0.767  1.00  0.00     0.291 A 
ATOM     34  H13 UNL     1      -3.921   3.022  -0.194  1.00  0.00     0.187 HD
HETATM   35  O2  UNL     1      -2.128   1.857  -1.509  1.00  0.00    -0.265 OA
BRANCH  30  36
HETATM   36  N11 UNL     1      -5.750  -0.507   1.680  1.00  0.00    -0.323 N 
ATOM     37 2H11 UNL     1      -5.732  -1.522   1.779  1.00  0.00     0.178 HD
ATOM     38 1H11 UNL     1      -6.440   0.060   2.172  1.00  0.00     0.178 HD
ENDBRANCH  30  36
BRANCH  31  39
HETATM   39  N12 UNL     1      -5.711   2.103   1.353  1.00  0.00    -0.233 N 
ATOM     40 2H12 UNL     1      -6.398   1.653   1.958  1.00  0.00     0.174 HD
ATOM     41 1H12 UNL     1      -5.729   3.118   1.254  1.00  0.00     0.174 HD
ENDBRANCH  31  39
ENDBRANCH  24  27
ENDBRANCH   1  23
TORSDOF 10
