REMARK  2 active torsions:
REMARK  status: ('A' for Active; 'I' for Inactive)
REMARK    1  A    between atoms: N1_1  and  C1_4 
REMARK       I    between atoms: N4_10  and  C3_11 
REMARK       I    between atoms: C3_11  and  N5_13 
REMARK    2  A    between atoms: N5_13  and  N6_15 
ROOT
HETATM    1  C1  UNL     1       1.363   0.500   0.384  1.00  0.00     0.702 A 
HETATM    2  N2  UNL     1       2.550  -0.098   0.517  1.00  0.00    -0.185 N 
ATOM      3  H2  UNL     1       3.403   0.359   0.840  1.00  0.00     0.185 HD
HETATM    4  C2  UNL     1       2.456  -1.380   0.166  1.00  0.00     0.216 A 
HETATM    5  N3  UNL     1       1.180  -1.564  -0.188  1.00  0.00    -0.270 N 
ATOM      6  H3  UNL     1       0.784  -2.447  -0.509  1.00  0.00     0.189 HD
HETATM    7  N4  UNL     1       0.495  -0.412  -0.058  1.00  0.00    -0.030 N 
HETATM    8  C3  UNL     1      -0.882  -0.274  -0.354  1.00  0.00     0.374 C 
HETATM    9  O1  UNL     1      -1.490  -1.321  -0.768  1.00  0.00    -0.243 OA
HETATM   10  N5  UNL     1      -1.619   0.912  -0.228  1.00  0.00    -0.256 N 
ATOM     11  H5  UNL     1      -1.155   1.759   0.100  1.00  0.00     0.191 HD
ENDROOT
BRANCH   1  12
HETATM   12  N1  UNL     1       1.184   1.730   0.655  1.00  0.00    -0.233 N 
ATOM     13  H12 UNL     1       1.848   2.427   0.993  1.00  0.00     0.174 HD
ATOM     14  H11 UNL     1       0.278   2.187   0.553  1.00  0.00     0.174 HD
ENDBRANCH   1  12
BRANCH  10  15
HETATM   15  N6  UNL     1      -3.005   0.953  -0.550  1.00  0.00    -0.341 N 
ATOM     16  H62 UNL     1      -3.454   0.097  -0.876  1.00  0.00     0.177 HD
ATOM     17  H61 UNL     1      -3.541   1.816  -0.458  1.00  0.00     0.177 HD
ENDBRANCH  10  15
TORSDOF 2
