REMARK  3 active torsions:
REMARK  status: ('A' for Active; 'I' for Inactive)
REMARK    1  A    between atoms: S1_2  and  N1_3 
REMARK    2  A    between atoms: N1_3  and  C2_4 
REMARK    3  A    between atoms: C5_7  and  N2_8 
ROOT
HETATM    1  C2  UNL     1       0.482  -0.146   0.348  1.00  0.00     0.088 C 
HETATM    2  C3  UNL     1      -0.251   0.377  -0.841  1.00  0.00     0.024 C 
HETATM    3  C4  UNL     1      -1.691   0.025  -0.902  1.00  0.00     0.034 C 
HETATM    4  C5  UNL     1      -2.083  -0.815   0.312  1.00  0.00     0.183 C 
HETATM    5  C6  UNL     1      -1.731   0.059   1.521  1.00  0.00     0.034 C 
HETATM    6  C7  UNL     1      -0.228   0.023   1.647  1.00  0.00     0.024 C 
ENDROOT
BRANCH   4   7
HETATM    7  N2  UNL     1      -3.502  -1.114   0.280  1.00  0.00    -0.075 N 
ATOM      8  H23 UNL     1      -4.067  -0.268   0.204  1.00  0.00     0.274 HD
ATOM      9  H22 UNL     1      -3.777  -1.559  -0.596  1.00  0.00     0.274 HD
ATOM     10  H21 UNL     1      -3.764  -1.675   1.091  1.00  0.00     0.274 HD
ENDBRANCH   4   7
BRANCH   1  11
HETATM   11  N1  UNL     1       1.742   0.605   0.441  1.00  0.00    -0.175 NA
BRANCH  11  12
HETATM   12  S1  UNL     1       2.726   0.407  -0.981  1.00  0.00    -0.070 SA
HETATM   13  C1  UNL     1       4.465   0.583  -0.500  1.00  0.00     0.110 C 
ENDBRANCH  11  12
ENDBRANCH   1  11
TORSDOF 3
