REMARK  10 active torsions:
REMARK  status: ('A' for Active; 'I' for Inactive)
REMARK    1  A    between atoms: C2_2  and  N1_3 
REMARK    2  A    between atoms: N1_3  and  C3_5 
REMARK    3  A    between atoms: N3_9  and  N4_11 
REMARK    4  A    between atoms: N5_14  and  C5_15 
REMARK    5  A    between atoms: C5_15  and  C6_16 
REMARK    6  A    between atoms: C7_19  and  N7_20 
REMARK    7  A    between atoms: C8_27  and  N10_28 
REMARK    8  A    between atoms: N10_28  and  C9_30 
REMARK    9  A    between atoms: C9_30  and  C10_31 
REMARK   10  A    between atoms: C10_31  and  O1_32 
ROOT
HETATM    1  C3  UNL     1       2.001  -0.937  -0.109  1.00  0.00     0.707 A 
HETATM    2  N2  UNL     1       1.174  -1.536   0.765  1.00  0.00    -0.020 N 
ATOM      3  H2  UNL     1       1.374  -2.479   1.098  1.00  0.00     0.203 HD
HETATM    4  C4  UNL     1       0.087  -0.887   1.195  1.00  0.00     0.728 A 
HETATM    5  N3  UNL     1      -0.716  -1.454   2.043  1.00  0.00    -0.137 N 
ATOM      6  H3  UNL     1      -1.540  -0.943   2.360  1.00  0.00     0.205 HD
HETATM    7  N5  UNL     1      -0.189   0.385   0.750  1.00  0.00    -0.005 N 
HETATM    8  C8  UNL     1       0.612   1.020  -0.121  1.00  0.00     0.710 A 
HETATM    9  N11 UNL     1       1.728   0.289  -0.531  1.00  0.00    -0.021 N 
ATOM     10  H11 UNL     1       2.370   0.724  -1.194  1.00  0.00     0.203 HD
ENDROOT
BRANCH   7  11
HETATM   11  C5  UNL     1      -1.404   0.991   1.278  1.00  0.00     0.245 C 
BRANCH  11  12
HETATM   12  C6  UNL     1      -2.617   0.567   0.539  1.00  0.00     0.132 A 
HETATM   13  N6  UNL     1      -3.457  -0.436   0.951  1.00  0.00    -0.177 N 
HETATM   14  C7  UNL     1      -4.450  -0.591   0.074  1.00  0.00     0.691 A 
ATOM     15  H6  UNL     1      -3.339  -0.983   1.804  1.00  0.00     0.185 HD
HETATM   16  N8  UNL     1      -4.255   0.301  -0.893  1.00  0.00    -0.131 N 
HETATM   17  N9  UNL     1      -3.141   1.000  -0.605  1.00  0.00    -0.273 N 
ATOM     18  H8  UNL     1      -4.848   0.433  -1.712  1.00  0.00     0.205 HD
ATOM     19  H9  UNL     1      -2.756   1.750  -1.179  1.00  0.00     0.189 HD
BRANCH  14  20
HETATM   20  N7  UNL     1      -5.425  -1.439   0.136  1.00  0.00    -0.233 N 
ATOM     21  H72 UNL     1      -5.575  -2.123   0.878  1.00  0.00     0.174 HD
ATOM     22  H71 UNL     1      -6.184  -1.558  -0.535  1.00  0.00     0.174 HD
ENDBRANCH  14  20
ENDBRANCH  11  12
ENDBRANCH   7  11
BRANCH   8  23
HETATM   23  N10 UNL     1       0.525   2.171  -0.540  1.00  0.00    -0.223 N 
ATOM     24  H10 UNL     1       1.306   2.297  -1.184  1.00  0.00     0.177 HD
BRANCH  23  25
HETATM   25  C9  UNL     1      -0.147   3.350  -0.528  1.00  0.00     0.164 C 
BRANCH  25  26
HETATM   26  C10 UNL     1       0.466   4.408  -1.466  1.00  0.00     0.184 C 
BRANCH  26  27
HETATM   27  O1  UNL     1       0.442   3.907  -2.762  1.00  0.00    -0.399 OA
ATOM     28  H1  UNL     1       0.820   4.559  -3.340  1.00  0.00     0.209 HD
ENDBRANCH  26  27
ENDBRANCH  25  26
ENDBRANCH  23  25
ENDBRANCH   8  23
BRANCH   5  29
HETATM   29  N4  UNL     1      -0.488  -2.740   2.534  1.00  0.00    -0.331 N 
ATOM     30  H42 UNL     1       0.340  -3.237   2.206  1.00  0.00     0.177 HD
ATOM     31  H41 UNL     1      -1.119  -3.185   3.200  1.00  0.00     0.177 HD
ENDBRANCH   5  29
BRANCH   1  32
HETATM   32  N1  UNL     1       3.067  -1.526  -0.557  1.00  0.00    -0.225 N 
ATOM     33  H1  UNL     1       3.685  -1.058  -1.220  1.00  0.00     0.177 HD
BRANCH  32  34
HETATM   34  C2  UNL     1       3.355  -2.863  -0.090  1.00  0.00     0.133 C 
HETATM   35  C1  UNL     1       4.636  -3.326  -0.753  1.00  0.00     0.027 C 
ENDBRANCH  32  34
ENDBRANCH   1  32
TORSDOF 10
