REMARK  4 active torsions:
REMARK  status: ('A' for Active; 'I' for Inactive)
REMARK    1  A    between atoms: S1_2  and  C2_3 
REMARK    2  A    between atoms: C6_10  and  O1_11 
REMARK    3  A    between atoms: C6_10  and  C7_13 
REMARK    4  A    between atoms: C11_19  and  C12_20 
ROOT
HETATM    1  C2  UNL     1       2.152  -0.427   0.003  1.00  0.00     0.255 C 
HETATM    2  N1  UNL     1       2.352   0.819  -0.668  1.00  0.00    -0.060 N 
ATOM      3  H11 UNL     1       2.164   0.756  -1.669  1.00  0.00     0.278 HD
ATOM      4  H12 UNL     1       3.337   1.076  -0.724  1.00  0.00     0.278 HD
HETATM    5  C3  UNL     1       1.563   1.824  -0.029  1.00  0.00     0.251 C 
HETATM    6  C4  UNL     1       0.954   1.169   1.211  1.00  0.00     0.116 C 
HETATM    7  C5  UNL     1       0.841  -0.254   0.787  1.00  0.00     0.090 C 
HETATM    8  C6  UNL     1      -0.266  -0.552  -0.177  1.00  0.00     0.161 C 
HETATM    9  C8  UNL     1      -1.628  -0.091   0.220  1.00  0.00     0.019 C 
HETATM   10  C9  UNL     1      -2.129  -0.772   1.477  1.00  0.00     0.020 C 
HETATM   11  C10 UNL     1      -2.571  -0.512  -0.892  1.00  0.00     0.020 C 
HETATM   12  C11 UNL     1      -1.726   1.414   0.328  1.00  0.00     0.192 C 
HETATM   13  S2  UNL     1      -0.584   1.905   1.631  1.00  0.00     0.037 S 
HETATM   14  O6  UNL     1      -1.092   1.344   3.105  1.00  0.00    -0.257 OA
ENDROOT
BRANCH   8  15
HETATM   15  O1  UNL     1       0.007  -0.087  -1.465  1.00  0.00    -0.377 OA
ATOM     16  H1  UNL     1      -0.695  -0.276  -2.076  1.00  0.00     0.211 HD
ENDBRANCH   8  15
BRANCH   8  17
HETATM   17  C7  UNL     1      -0.318  -2.048  -0.281  1.00  0.00     0.210 C 
HETATM   18  O2  UNL     1      -0.572  -2.753   0.734  1.00  0.00    -0.646 OA
HETATM   19  O3  UNL     1      -0.095  -2.731  -1.468  1.00  0.00    -0.646 OA
ENDBRANCH   8  17
BRANCH   1  20
HETATM   20  S1  UNL     1       3.527  -0.707   1.178  1.00  0.00    -0.140 SA
HETATM   21  C1  UNL     1       5.037  -0.922   0.185  1.00  0.00     0.092 C 
ENDBRANCH   1  20
BRANCH  12  22
HETATM   22  C12 UNL     1      -3.066   1.904   0.581  1.00  0.00     0.190 C 
HETATM   23  O4  UNL     1      -3.323   2.528   1.636  1.00  0.00    -0.647 OA
HETATM   24  O5  UNL     1      -4.085   1.701  -0.320  1.00  0.00    -0.647 OA
ENDBRANCH  12  22
TORSDOF 4
