REMARK  9 active torsions:
REMARK  status: ('A' for Active; 'I' for Inactive)
REMARK    1  A    between atoms: C2_2  and  C3_3 
REMARK    2  A    between atoms: C4_4  and  C5_5 
REMARK    3  A    between atoms: C5_5  and  S1_6 
REMARK    4  A    between atoms: S1_6  and  C6_9 
REMARK    5  A    between atoms: C10_13  and  O3_14 
REMARK    6  A    between atoms: C11_16  and  O4_17 
REMARK    7  A    between atoms: C13_21  and  C14_22 
REMARK    8  A    between atoms: C14_22  and  O6_24 
REMARK    9  A    between atoms: C16_26  and  O7_27 
ROOT
HETATM    1  C6  UNL     1       0.165  -0.050   0.021  1.00  0.00     0.066 C 
HETATM    2  C7  UNL     1      -0.203   1.210   0.194  1.00  0.00     0.002 C 
HETATM    3  C8  UNL     1      -1.574   1.723   0.333  1.00  0.00     0.043 C 
HETATM    4  C9  UNL     1      -1.627   3.247   0.232  1.00  0.00     0.045 C 
HETATM    5  C10 UNL     1      -3.089   3.454  -0.143  1.00  0.00     0.150 C 
HETATM    6  C11 UNL     1      -3.549   2.183  -0.824  1.00  0.00     0.176 C 
HETATM    7  C12 UNL     1      -2.325   1.349  -0.923  1.00  0.00     0.161 C 
HETATM    8  O5  UNL     1      -2.482   0.029  -1.143  1.00  0.00    -0.372 OA
HETATM    9  C13 UNL     1      -2.192  -0.830  -0.104  1.00  0.00     0.184 C 
HETATM   10  C16 UNL     1      -0.735  -1.252  -0.073  1.00  0.00     0.194 C 
ENDROOT
BRANCH   1  11
HETATM   11  S1  UNL     1       1.871  -0.411  -0.119  1.00  0.00     0.184 S 
HETATM   12  O1  UNL     1       2.597   0.744  -0.753  1.00  0.00    -0.222 OA
HETATM   13  O2  UNL     1       2.027  -1.632  -0.968  1.00  0.00    -0.222 OA
BRANCH  11  14
HETATM   14  C5  UNL     1       2.608  -0.744   1.457  1.00  0.00     0.239 C 
BRANCH  14  15
HETATM   15  C4  UNL     1       4.024  -1.032   1.224  1.00  0.00    -0.091 C 
HETATM   16  C3  UNL     1       5.193  -1.281   1.015  1.00  0.00    -0.106 C 
BRANCH  16  17
HETATM   17  C2  UNL     1       6.603  -1.593   0.738  1.00  0.00     0.089 C 
HETATM   18  C1  UNL     1       7.173  -0.718  -0.341  1.00  0.00     0.018 C 
ENDBRANCH  16  17
ENDBRANCH  14  15
ENDBRANCH  11  14
ENDBRANCH   1  11
BRANCH  10  19
HETATM   19  O7  UNL     1      -0.558  -1.921   1.161  1.00  0.00    -0.388 OA
ATOM     20  H7  UNL     1      -1.126  -2.680   1.102  1.00  0.00     0.210 HD
ENDBRANCH  10  19
BRANCH   9  21
HETATM   21  C14 UNL     1      -2.987  -2.113  -0.398  1.00  0.00     0.146 C 
HETATM   22  C15 UNL     1      -2.785  -3.167   0.638  1.00  0.00     0.042 C 
BRANCH  21  23
HETATM   23  O6  UNL     1      -2.540  -2.593  -1.625  1.00  0.00    -0.393 OA
ATOM     24  H6  UNL     1      -3.031  -3.386  -1.807  1.00  0.00     0.210 HD
ENDBRANCH  21  23
ENDBRANCH   9  21
BRANCH   5  25
HETATM   25  O3  UNL     1      -3.187   4.559  -0.978  1.00  0.00    -0.393 OA
ATOM     26  H3  UNL     1      -4.099   4.688  -1.212  1.00  0.00     0.210 HD
ENDBRANCH   5  25
BRANCH   6  27
HETATM   27  O4  UNL     1      -3.978   2.523  -2.107  1.00  0.00    -0.390 OA
ATOM     28  H4  UNL     1      -4.267   1.725  -2.534  1.00  0.00     0.210 HD
ENDBRANCH   6  27
TORSDOF 9
