REMARK  0 active torsions:
REMARK  status: ('A' for Active; 'I' for Inactive)
ROOT
HETATM    1  C1  UNL     1      -1.927  -3.286   0.408  1.00  0.00     0.310 C 
HETATM    2  N1  UNL     1      -1.498  -2.056  -0.279  1.00  0.00     0.091 N 
HETATM    3  C2  UNL     1      -2.724  -1.391  -0.590  1.00  0.00     0.273 C 
HETATM    4  C3  UNL     1      -2.626   0.048  -1.133  1.00  0.00     0.042 C 
HETATM    5  C4  UNL     1      -1.146   0.349  -0.858  1.00  0.00     0.003 C 
HETATM    6  C5  UNL     1      -0.527  -0.292  -1.984  1.00  0.00     0.012 C 
HETATM    7  C6  UNL     1       0.674  -1.084  -2.087  1.00  0.00     0.001 C 
HETATM    8  C7  UNL     1       1.016  -2.021  -1.005  1.00  0.00     0.007 C 
HETATM    9  C8  UNL     1       0.829  -1.372   0.315  1.00  0.00     0.025 C 
HETATM   10  C9  UNL     1       1.643  -0.211   0.638  1.00  0.00    -0.004 C 
HETATM   11  C10 UNL     1       3.101  -0.717   0.444  1.00  0.00     0.005 C 
HETATM   12  C11 UNL     1       3.881   0.600   0.613  1.00  0.00     0.001 C 
HETATM   13  C12 UNL     1       3.101   1.365  -0.460  1.00  0.00     0.005 C 
HETATM   14  C13 UNL     1       1.665   1.105   0.110  1.00  0.00    -0.010 C 
HETATM   15  C14 UNL     1       0.800   1.777  -0.807  1.00  0.00     0.015 C 
HETATM   16  C15 UNL     1      -0.721   1.767  -0.723  1.00  0.00     0.065 C 
HETATM   17  C16 UNL     1      -1.020   2.253   0.662  1.00  0.00     0.336 C 
HETATM   18  C17 UNL     1      -2.395   2.644   0.911  1.00  0.00     0.118 C 
HETATM   19  N2  UNL     1      -3.483   2.978   1.126  1.00  0.00    -0.193 NA
HETATM   20  C18 UNL     1      -0.223   3.453   1.013  1.00  0.00     0.118 C 
HETATM   21  N3  UNL     1       0.381   4.406   1.292  1.00  0.00    -0.193 NA
HETATM   22  N4  UNL     1      -0.602   1.067   1.383  1.00  0.00     0.130 N 
HETATM   23  C19 UNL     1      -1.077   1.152   2.715  1.00  0.00     0.314 C 
HETATM   24  C20 UNL     1      -1.127   0.017   0.580  1.00  0.00     0.268 C 
HETATM   25  C21 UNL     1      -0.626  -1.356   0.684  1.00  0.00     0.261 C 
ENDROOT
TORSDOF 0
