REMARK  0 active torsions:
REMARK  status: ('A' for Active; 'I' for Inactive)
ROOT
HETATM    1  C1  UNL     1       0.336  -2.603  -1.150  1.00  0.00     0.018 C 
HETATM    2  C2  UNL     1       0.923  -1.196  -1.001  1.00  0.00     0.056 C 
HETATM    3  C3  UNL     1       2.344  -1.307  -0.696  1.00  0.00     0.071 C 
HETATM    4  N1  UNL     1       3.093  -0.147  -0.702  1.00  0.00    -0.364 N 
HETATM    5  C4  UNL     1       2.603   1.076  -1.134  1.00  0.00     0.065 C 
HETATM    6  C5  UNL     1       1.212   1.457  -1.049  1.00  0.00     0.067 C 
HETATM    7  C6  UNL     1       0.383   0.999   0.143  1.00  0.00     0.047 C 
HETATM    8  C7  UNL     1       1.103   1.348   1.388  1.00  0.00    -0.002 C 
HETATM    9  C8  UNL     1       2.204   0.635   1.959  1.00  0.00     0.044 C 
HETATM   10  S1  UNL     1       3.869   1.154   1.370  1.00  0.00    -0.122 SA
HETATM   11  C9  UNL     1       4.288  -0.091   0.080  1.00  0.00     0.205 C 
HETATM   12  C10 UNL     1      -0.826   1.946   0.140  1.00  0.00     0.087 C 
HETATM   13  N2  UNL     1      -2.051   1.360  -0.223  1.00  0.00    -0.297 N 
HETATM   14  C11 UNL     1      -3.260   1.958  -0.672  1.00  0.00     0.226 C 
HETATM   15  O1  UNL     1      -3.463   3.193  -0.931  1.00  0.00    -0.273 OA
HETATM   16  C12 UNL     1      -4.288   0.929  -0.805  1.00  0.00     0.108 C 
HETATM   17  C13 UNL     1      -3.477  -0.325  -1.059  1.00  0.00     0.071 C 
HETATM   18  C14 UNL     1      -2.272  -0.065  -0.190  1.00  0.00     0.143 C 
HETATM   19  C15 UNL     1      -2.559  -0.618   1.174  1.00  0.00     0.062 C 
HETATM   20  C16 UNL     1      -1.610  -1.821   1.300  1.00  0.00     0.008 C 
HETATM   21  C17 UNL     1      -0.219  -1.194   1.219  1.00  0.00     0.040 C 
HETATM   22  C18 UNL     1       0.022  -0.434  -0.065  1.00  0.00     0.088 C 
HETATM   23  O2  UNL     1      -1.186  -0.598  -0.804  1.00  0.00    -0.347 OA
ENDROOT
TORSDOF 0
