REMARK  5 active torsions:
REMARK  status: ('A' for Active; 'I' for Inactive)
REMARK    1  A    between atoms: C2_2  and  N1_3 
REMARK    2  A    between atoms: N1_3  and  O1_4 
REMARK    3  A    between atoms: C3_6  and  C4_7 
REMARK    4  A    between atoms: C12_16  and  C13_17 
REMARK    5  A    between atoms: C13_17  and  C14_18 
REMARK       I    between atoms: C14_18  and  N2_20 
ROOT
HETATM    1  C1  UNL     1      -2.874   0.155   2.363  1.00  0.00     0.041 C 
HETATM    2  C2  UNL     1      -2.211   0.498   1.001  1.00  0.00     0.056 C 
HETATM    3  C5  UNL     1      -3.237   0.052  -0.049  1.00  0.00     0.042 C 
HETATM    4  C6  UNL     1      -2.666  -1.016  -0.786  1.00  0.00    -0.037 C 
HETATM    5  C7  UNL     1      -3.204  -1.679  -2.009  1.00  0.00     0.010 C 
HETATM    6  C8  UNL     1      -2.149  -2.826  -2.028  1.00  0.00     0.005 C 
HETATM    7  C9  UNL     1      -1.628  -2.989  -0.645  1.00  0.00    -0.013 C 
HETATM    8  C10 UNL     1      -2.705  -2.234   0.079  1.00  0.00     0.014 C 
HETATM    9  C11 UNL     1      -0.356  -2.340  -0.247  1.00  0.00     0.014 C 
HETATM   10  C12 UNL     1      -0.375  -0.831  -0.200  1.00  0.00    -0.029 C 
HETATM   11  C19 UNL     1      -1.345  -0.513  -1.290  1.00  0.00     0.019 C 
HETATM   12  C20 UNL     1      -0.912  -0.176   1.022  1.00  0.00     0.043 C 
ENDROOT
BRANCH  10  13
HETATM   13  C13 UNL     1       0.956  -0.239  -0.586  1.00  0.00     0.112 C 
BRANCH  13  14
HETATM   14  C14 UNL     1       2.076  -0.610   0.245  1.00  0.00     0.220 C 
HETATM   15  O2  UNL     1       1.943  -1.373   1.216  1.00  0.00    -0.273 OA
HETATM   16  N2  UNL     1       3.352  -0.111  -0.033  1.00  0.00    -0.349 N 
HETATM   17  C15 UNL     1       4.546  -0.408   0.721  1.00  0.00     0.153 C 
HETATM   18  C18 UNL     1       3.518   0.779  -1.163  1.00  0.00     0.153 C 
HETATM   19  C16 UNL     1       5.150   0.899   1.162  1.00  0.00     0.252 C 
HETATM   20  N3  UNL     1       5.175   1.894   0.141  1.00  0.00    -0.072 N 
HETATM   21  C17 UNL     1       4.884   1.408  -1.173  1.00  0.00     0.252 C 
ATOM     22  H32 UNL     1       4.550   2.663   0.381  1.00  0.00     0.277 HD
ATOM     23  H31 UNL     1       6.069   2.385   0.147  1.00  0.00     0.277 HD
ENDBRANCH  13  14
ENDBRANCH  10  13
BRANCH   2  24
HETATM   24  N1  UNL     1      -2.245   1.938   0.971  1.00  0.00    -0.265 N 
HETATM   25  C3  UNL     1      -1.218   2.673   0.895  1.00  0.00     0.105 C 
BRANCH  24  26
HETATM   26  O1  UNL     1      -3.484   2.597   1.031  1.00  0.00    -0.287 OA
ATOM     27  H1  UNL     1      -3.506   3.547   1.011  1.00  0.00     0.244 HD
ENDBRANCH  24  26
BRANCH  25  28
HETATM   28  C4  UNL     1      -1.358   4.190   0.870  1.00  0.00     0.161 C 
HETATM   29 CL1  UNL     1      -0.115   4.824   1.993  1.00  0.00    -0.125 Cl
ENDBRANCH  25  28
ENDBRANCH   2  24
TORSDOF 5
