REMARK  8 active torsions:
REMARK  status: ('A' for Active; 'I' for Inactive)
REMARK    1  A    between atoms: N1_2  and  C2_5 
REMARK    2  A    between atoms: C2_5  and  C3_6 
REMARK    3  A    between atoms: C6_9  and  C7_10 
REMARK    4  A    between atoms: C7_10  and  N2_11 
REMARK       I    between atoms: N2_11  and  C8_13 
REMARK    5  A    between atoms: C8_13  and  C9_15 
REMARK    6  A    between atoms: C9_15  and  C10_16 
REMARK    7  A    between atoms: C13_19  and  C14_20 
REMARK    8  A    between atoms: C14_20  and  N3_21 
ROOT
HETATM    1  N2  UNL     1      -2.583   1.163   1.385  1.00  0.00    -0.361 N 
ATOM      2  H2  UNL     1      -2.819   2.088   1.026  1.00  0.00     0.162 HD
HETATM    3  C8  UNL     1      -1.235   0.809   1.590  1.00  0.00     0.218 C 
HETATM    4  O1  UNL     1      -0.930  -0.307   2.033  1.00  0.00    -0.274 OA
ENDROOT
BRANCH   3   5
HETATM    5  C9  UNL     1      -0.183   1.803   1.265  1.00  0.00     0.117 C 
BRANCH   5   6
HETATM    6  C10 UNL     1       1.149   1.189   1.613  1.00  0.00     0.056 C 
HETATM    7  C11 UNL     1       2.332   2.059   1.351  1.00  0.00     0.016 C 
HETATM    8  C12 UNL     1       2.712   1.989  -0.080  1.00  0.00     0.008 C 
HETATM    9  C13 UNL     1       3.598   0.829  -0.472  1.00  0.00     0.021 C 
HETATM   10  C20 UNL     1       3.014  -0.489  -0.014  1.00  0.00     0.080 C 
HETATM   11  S1  UNL     1       1.339  -0.318   0.628  1.00  0.00    -0.163 SA
BRANCH   9  12
HETATM   12  C14 UNL     1       4.945   1.001   0.115  1.00  0.00     0.242 C 
BRANCH  12  13
HETATM   13  N3  UNL     1       5.936   0.031  -0.134  1.00  0.00    -0.070 N 
HETATM   14  C15 UNL     1       6.231  -0.682   1.093  1.00  0.00     0.272 C 
HETATM   15  C16 UNL     1       7.203   0.671  -0.524  1.00  0.00     0.237 C 
HETATM   16  C17 UNL     1       7.980  -0.467  -1.091  1.00  0.00     0.029 C 
HETATM   17  C18 UNL     1       6.970  -1.268  -1.838  1.00  0.00     0.029 C 
HETATM   18  C19 UNL     1       5.662  -0.931  -1.151  1.00  0.00     0.237 C 
ENDBRANCH  12  13
ENDBRANCH   9  12
ENDBRANCH   5   6
ENDBRANCH   3   5
BRANCH   1  19
HETATM   19  C7  UNL     1      -3.628   0.215   1.683  1.00  0.00     0.127 C 
BRANCH  19  20
HETATM   20  C6  UNL     1      -3.483  -0.988   0.791  1.00  0.00     0.003 C 
HETATM   21  C5  UNL     1      -3.577  -0.613  -0.673  1.00  0.00     0.007 C 
HETATM   22  C4  UNL     1      -4.659  -1.425  -1.306  1.00  0.00     0.007 C 
HETATM   23  C3  UNL     1      -6.012  -1.170  -0.712  1.00  0.00     0.011 C 
HETATM   24  C22 UNL     1      -5.959  -1.418   0.770  1.00  0.00     0.007 C 
HETATM   25  C21 UNL     1      -4.614  -1.932   1.180  1.00  0.00     0.007 C 
BRANCH  23  26
HETATM   26  C2  UNL     1      -6.475   0.240  -1.017  1.00  0.00     0.236 C 
BRANCH  26  27
HETATM   27  N1  UNL     1      -7.766   0.523  -0.464  1.00  0.00    -0.079 N 
HETATM   28  C1  UNL     1      -8.840  -0.201  -1.069  1.00  0.00     0.267 C 
ATOM     29  H12 UNL     1      -7.953   1.525  -0.492  1.00  0.00     0.276 HD
ATOM     30  H11 UNL     1      -7.761   0.374   0.545  1.00  0.00     0.276 HD
ENDBRANCH  26  27
ENDBRANCH  23  26
ENDBRANCH  19  20
ENDBRANCH   1  19
TORSDOF 8
