REMARK  14 active torsions:
REMARK  status: ('A' for Active; 'I' for Inactive)
REMARK       I    between atoms: C2_2  and  N1_4 
REMARK    1  A    between atoms: N1_4  and  C3_6 
REMARK    2  A    between atoms: C4_7  and  O2_8 
REMARK    3  A    between atoms: O2_8  and  C5_9 
REMARK    4  A    between atoms: C6_10  and  N2_11 
REMARK    5  A    between atoms: N2_11  and  N3_13 
REMARK    6  A    between atoms: N3_13  and  N4_14 
REMARK    7  A    between atoms: C7_18  and  O4_19 
REMARK    8  A    between atoms: O4_19  and  C8_20 
REMARK       I    between atoms: C8_20  and  N5_22 
REMARK    9  A    between atoms: N5_22  and  C9_24 
REMARK   10  A    between atoms: C13_28  and  O6_29 
REMARK   11  A    between atoms: C14_32  and  C15_33 
REMARK   12  A    between atoms: C15_33  and  N6_34 
REMARK   13  A    between atoms: C16_38  and  O8_39 
REMARK   14  A    between atoms: C17_41  and  O9_42 
ROOT
HETATM    1  C5  UNL     1      -0.566   0.259   1.166  1.00  0.00     0.209 C 
HETATM    2  C6  UNL     1      -0.048   1.669   0.996  1.00  0.00     0.284 C 
HETATM    3  O3  UNL     1       1.245   1.583   1.495  1.00  0.00    -0.329 OA
HETATM    4  C7  UNL     1       1.746   0.477   0.843  1.00  0.00     0.305 C 
HETATM    5  C13 UNL     1       0.723  -0.573   1.183  1.00  0.00     0.207 C 
ENDROOT
BRANCH   1   6
HETATM    6  O2  UNL     1      -1.317  -0.029   0.030  1.00  0.00    -0.347 OA
BRANCH   6   7
HETATM    7  C4  UNL     1      -2.616  -0.371   0.304  1.00  0.00     0.286 C 
HETATM    8  C3  UNL     1      -3.539   0.601  -0.351  1.00  0.00     0.170 C 
HETATM    9  C17 UNL     1      -4.751  -0.167  -0.892  1.00  0.00     0.177 C 
HETATM   10  C16 UNL     1      -5.128  -1.171   0.173  1.00  0.00     0.179 C 
HETATM   11  C14 UNL     1      -4.041  -2.186   0.265  1.00  0.00     0.181 C 
HETATM   12  O7  UNL     1      -2.801  -1.690  -0.137  1.00  0.00    -0.349 OA
BRANCH   8  13
HETATM   13  N1  UNL     1      -2.943   1.355  -1.406  1.00  0.00    -0.349 N 
HETATM   14  C2  UNL     1      -3.012   2.772  -1.406  1.00  0.00     0.214 C 
HETATM   15  C1  UNL     1      -2.393   3.585  -2.503  1.00  0.00     0.117 C 
HETATM   16  O1  UNL     1      -3.588   3.429  -0.501  1.00  0.00    -0.274 OA
ATOM     17  H1  UNL     1      -2.464   0.872  -2.166  1.00  0.00     0.163 HD
ENDBRANCH   8  13
BRANCH   9  18
HETATM   18  O9  UNL     1      -4.474  -0.805  -2.085  1.00  0.00    -0.391 OA
ATOM     19  H9  UNL     1      -5.225  -1.281  -2.420  1.00  0.00     0.210 HD
ENDBRANCH   9  18
BRANCH  10  20
HETATM   20  O8  UNL     1      -5.287  -0.459   1.371  1.00  0.00    -0.390 OA
ATOM     21  H8  UNL     1      -5.980   0.188   1.312  1.00  0.00     0.210 HD
ENDBRANCH  10  20
BRANCH  11  22
HETATM   22  C15 UNL     1      -4.320  -3.423  -0.561  1.00  0.00     0.264 C 
BRANCH  22  23
HETATM   23  N6  UNL     1      -5.597  -4.020  -0.219  1.00  0.00    -0.077 N 
ATOM     24  H63 UNL     1      -5.659  -4.218   0.780  1.00  0.00     0.274 HD
ATOM     25  H62 UNL     1      -6.356  -3.343  -0.295  1.00  0.00     0.274 HD
ATOM     26  H61 UNL     1      -5.785  -4.854  -0.776  1.00  0.00     0.274 HD
ENDBRANCH  22  23
ENDBRANCH  11  22
ENDBRANCH   6   7
ENDBRANCH   1   6
BRANCH   2  27
HETATM   27  N2  UNL     1      -0.852   2.632   1.710  1.00  0.00    -0.220 N 
ATOM     28  H2  UNL     1      -1.554   2.274   2.357  1.00  0.00     0.200 HD
BRANCH  27  29
HETATM   29  N3  UNL     1      -0.754   3.832   1.597  1.00  0.00    -0.246 NA
BRANCH  29  30
HETATM   30  N4  UNL     1      -0.548   5.001   1.280  1.00  0.00    -0.261 N 
ATOM     31  H42 UNL     1      -0.100   4.681   0.422  1.00  0.00     0.193 HD
ATOM     32  H41 UNL     1      -0.465   6.013   1.185  1.00  0.00     0.193 HD
ENDBRANCH  29  30
ENDBRANCH  27  29
ENDBRANCH   2  27
BRANCH   5  33
HETATM   33  O6  UNL     1       0.871  -1.110   2.441  1.00  0.00    -0.388 OA
ATOM     34  H6  UNL     1       1.669  -1.625   2.452  1.00  0.00     0.210 HD
ENDBRANCH   5  33
BRANCH   4  35
HETATM   35  O4  UNL     1       3.050   0.134   1.258  1.00  0.00    -0.270 OA
BRANCH  35  36
HETATM   36  C8  UNL     1       4.138   0.061   0.399  1.00  0.00     0.363 C 
HETATM   37  O5  UNL     1       3.901   0.326  -0.815  1.00  0.00    -0.238 OA
HETATM   38  N5  UNL     1       5.446  -0.287   0.834  1.00  0.00    -0.329 N 
ATOM     39  H5  UNL     1       5.617  -0.497   1.817  1.00  0.00     0.165 HD
BRANCH  38  40
HETATM   40  C9  UNL     1       6.528  -0.343  -0.110  1.00  0.00     0.024 C 
HETATM   41  C10 UNL     1       6.767   0.985  -0.796  1.00  0.00     0.037 C 
HETATM   42  C11 UNL     1       6.252  -1.355  -1.225  1.00  0.00     0.037 C 
HETATM   43  C12 UNL     1       7.786  -0.742   0.594  1.00  0.00     0.037 C 
ENDBRANCH  38  40
ENDBRANCH  35  36
ENDBRANCH   4  35
TORSDOF 14
