REMARK  13 active torsions:
REMARK  status: ('A' for Active; 'I' for Inactive)
REMARK    1  A    between atoms: N1_1  and  C1_5 
REMARK    2  A    between atoms: C1_5  and  O1_6 
REMARK    3  A    between atoms: C1_5  and  C2_8 
REMARK    4  A    between atoms: C2_8  and  C3_9 
REMARK    5  A    between atoms: C2_8  and  C11_20 
REMARK       I    between atoms: C3_9  and  N2_11 
REMARK    6  A    between atoms: N2_11  and  C4_13 
REMARK    7  A    between atoms: C11_20  and  O4_22 
REMARK    8  A    between atoms: O4_22  and  C12_23 
REMARK    9  A    between atoms: C13_24  and  N3_25 
REMARK   10  A    between atoms: C15_30  and  N4_31 
REMARK   11  A    between atoms: C16_35  and  O5_36 
REMARK   12  A    between atoms: C17_38  and  O6_39 
REMARK   13  A    between atoms: O6_39  and  C18_40 
ROOT
HETATM    1  C12 UNL     1      -1.899  -1.004  -1.717  1.00  0.00     0.193 C 
HETATM    2  C13 UNL     1      -1.475  -2.266  -2.441  1.00  0.00     0.217 C 
HETATM    3  C14 UNL     1      -2.023  -3.438  -1.676  1.00  0.00     0.071 C 
HETATM    4  C15 UNL     1      -3.522  -3.437  -1.857  1.00  0.00     0.216 C 
HETATM    5  C16 UNL     1      -4.085  -2.053  -1.667  1.00  0.00     0.180 C 
HETATM    6  C17 UNL     1      -3.108  -1.218  -0.855  1.00  0.00     0.184 C 
ENDROOT
BRANCH   1   7
HETATM    7  O4  UNL     1      -0.799  -0.461  -1.010  1.00  0.00    -0.310 OA
BRANCH   7   8
HETATM    8  C11 UNL     1      -0.250   0.768  -1.343  1.00  0.00     0.277 C 
HETATM    9  O3  UNL     1      -0.776   1.387  -2.311  1.00  0.00    -0.264 OA
BRANCH   8  10
HETATM   10  C2  UNL     1       0.890   1.318  -0.601  1.00  0.00     0.233 C 
BRANCH  10  11
HETATM   11  C1  UNL     1       1.252   2.674  -1.209  1.00  0.00     0.339 C 
BRANCH  11  12
HETATM   12  N1  UNL     1       0.051   3.489  -1.171  1.00  0.00    -0.052 N 
ATOM     13  H13 UNL     1       0.196   4.393  -1.621  1.00  0.00     0.277 HD
ATOM     14  H12 UNL     1      -0.672   3.121  -1.789  1.00  0.00     0.277 HD
ATOM     15  H11 UNL     1      -0.290   3.596  -0.216  1.00  0.00     0.277 HD
ENDBRANCH  11  12
BRANCH  11  16
HETATM   16  O1  UNL     1       1.718   2.528  -2.514  1.00  0.00    -0.369 OA
ATOM     17  H1  UNL     1       2.504   1.995  -2.539  1.00  0.00     0.212 HD
ENDBRANCH  11  16
ENDBRANCH  10  11
BRANCH  10  18
HETATM   18  C3  UNL     1       2.068   0.432  -0.606  1.00  0.00     0.236 C 
HETATM   19  O2  UNL     1       2.057  -0.659  -1.220  1.00  0.00    -0.272 OA
HETATM   20  N2  UNL     1       3.261   0.775   0.084  1.00  0.00    -0.356 N 
ATOM     21  H2  UNL     1       3.293   1.659   0.592  1.00  0.00     0.162 HD
BRANCH  20  22
HETATM   22  C4  UNL     1       4.432  -0.073   0.098  1.00  0.00     0.084 C 
HETATM   23  C5  UNL     1       5.588   0.644  -0.554  1.00  0.00     0.025 C 
HETATM   24  C6  UNL     1       6.323   1.538   0.421  1.00  0.00     0.002 C 
HETATM   25  C7  UNL     1       7.575   0.871   0.948  1.00  0.00     0.000 C 
HETATM   26  C8  UNL     1       7.152  -0.129   2.011  1.00  0.00     0.000 C 
HETATM   27  C9  UNL     1       6.149  -1.128   1.470  1.00  0.00     0.002 C 
HETATM   28  C10 UNL     1       4.771  -0.535   1.501  1.00  0.00     0.025 C 
ENDBRANCH  20  22
ENDBRANCH  10  18
ENDBRANCH   8  10
ENDBRANCH   7   8
ENDBRANCH   1   7
BRANCH   2  29
HETATM   29  N3  UNL     1      -2.085  -2.253  -3.753  1.00  0.00    -0.072 N 
ATOM     30  H33 UNL     1      -3.098  -2.140  -3.717  1.00  0.00     0.274 HD
ATOM     31  H32 UNL     1      -1.872  -1.405  -4.279  1.00  0.00     0.274 HD
ATOM     32  H31 UNL     1      -1.800  -3.102  -4.240  1.00  0.00     0.274 HD
ENDBRANCH   2  29
BRANCH   6  33
HETATM   33  O6  UNL     1      -3.626   0.036  -0.566  1.00  0.00    -0.375 OA
BRANCH  33  34
HETATM   34  C18 UNL     1      -3.817   0.305   0.749  1.00  0.00     0.125 C 
HETATM   35  C19 UNL     1      -5.330   0.494   0.954  1.00  0.00     0.059 C 
HETATM   36  C20 UNL     1      -5.623   1.538   2.007  1.00  0.00     0.235 C 
HETATM   37  N5  UNL     1      -5.251   2.831   1.518  1.00  0.00    -0.075 N 
HETATM   38  C21 UNL     1      -3.970   2.812   0.820  1.00  0.00     0.235 C 
ATOM     39  H52 UNL     1      -5.985   3.228   0.931  1.00  0.00     0.277 HD
ATOM     40  H51 UNL     1      -5.251   3.522   2.268  1.00  0.00     0.277 HD
HETATM   41  C22 UNL     1      -3.186   1.584   1.231  1.00  0.00     0.059 C 
ENDBRANCH  33  34
ENDBRANCH   6  33
BRANCH   5  42
HETATM   42  O5  UNL     1      -5.286  -2.239  -0.937  1.00  0.00    -0.391 OA
ATOM     43  H5  UNL     1      -5.641  -1.366  -0.817  1.00  0.00     0.210 HD
ENDBRANCH   5  42
BRANCH   4  44
HETATM   44  N4  UNL     1      -4.036  -4.354  -0.823  1.00  0.00    -0.072 N 
ATOM     45  H43 UNL     1      -3.618  -5.284  -0.852  1.00  0.00     0.274 HD
ATOM     46  H42 UNL     1      -3.735  -4.119   0.123  1.00  0.00     0.274 HD
ATOM     47  H41 UNL     1      -5.049  -4.353  -0.945  1.00  0.00     0.274 HD
ENDBRANCH   4  44
TORSDOF 13
