REMARK  3 active torsions:
REMARK  status: ('A' for Active; 'I' for Inactive)
REMARK       I    between atoms: C1_2  and  N1_3 
REMARK       I    between atoms: C1_2  and  N3_21 
REMARK    1  A    between atoms: N1_3  and  N2_5 
REMARK    2  A    between atoms: N2_5  and  C2_7 
REMARK    3  A    between atoms: N3_21  and  C14_23 
ROOT
HETATM    1  C2  UNL     1      -1.270  -1.025   0.107  1.00  0.00     0.138 A 
HETATM    2  C3  UNL     1      -0.811  -2.172   0.923  1.00  0.00     0.317 A 
HETATM    3  O2  UNL     1       0.321  -2.682   0.786  1.00  0.00    -0.257 OA
HETATM    4  O3  UNL     1      -1.859  -2.465   1.759  1.00  0.00    -0.273 OA
HETATM    5  C4  UNL     1      -2.941  -1.610   1.550  1.00  0.00     0.093 A 
HETATM    6  C5  UNL     1      -4.190  -1.549   2.167  1.00  0.00     0.039 A 
HETATM    7  C6  UNL     1      -5.081  -0.587   1.755  1.00  0.00     0.015 A 
HETATM    8  C7  UNL     1      -4.768   0.309   0.755  1.00  0.00    -0.025 A 
HETATM    9  C8  UNL     1      -5.664   1.279   0.339  1.00  0.00     0.012 A 
HETATM   10  C9  UNL     1      -5.388   2.188  -0.653  1.00  0.00     0.001 A 
HETATM   11  C10 UNL     1      -4.141   2.100  -1.243  1.00  0.00     0.001 A 
HETATM   12  C11 UNL     1      -3.210   1.154  -0.868  1.00  0.00     0.013 A 
HETATM   13  C12 UNL     1      -3.528   0.259   0.133  1.00  0.00    -0.010 A 
HETATM   14  C13 UNL     1      -2.613  -0.713   0.542  1.00  0.00     0.043 A 
ENDROOT
BRANCH   1  15
HETATM   15  N2  UNL     1      -0.594  -0.437  -0.803  1.00  0.00    -0.290 N 
ATOM     16  H2  UNL     1      -1.005   0.347  -1.309  1.00  0.00     0.187 HD
BRANCH  15  17
HETATM   17  N1  UNL     1       0.700  -0.856  -1.112  1.00  0.00    -0.251 N 
HETATM   18  C1  UNL     1       1.849  -0.221  -0.505  1.00  0.00     0.339 C 
HETATM   19  O1  UNL     1       1.609   0.696   0.287  1.00  0.00    -0.245 OA
HETATM   20  N3  UNL     1       3.157  -0.653  -0.824  1.00  0.00    -0.308 N 
ATOM     21  H3  UNL     1       3.239  -1.424  -1.487  1.00  0.00     0.170 HD
ATOM     22  H1  UNL     1       0.838  -1.620  -1.774  1.00  0.00     0.191 HD
BRANCH  20  23
HETATM   23  C14 UNL     1       4.347  -0.126  -0.319  1.00  0.00     0.036 A 
HETATM   24  C15 UNL     1       5.515  -0.888  -0.446  1.00  0.00     0.029 A 
HETATM   25  C16 UNL     1       6.724  -0.434   0.006  1.00  0.00     0.002 A 
HETATM   26  C17 UNL     1       6.815   0.809   0.606  1.00  0.00     0.000 A 
HETATM   27  C18 UNL     1       5.698   1.595   0.753  1.00  0.00     0.002 A 
HETATM   28  C19 UNL     1       4.477   1.102   0.281  1.00  0.00     0.029 A 
ENDBRANCH  20  23
ENDBRANCH  15  17
ENDBRANCH   1  15
TORSDOF 3
