REMARK  8 active torsions:
REMARK  status: ('A' for Active; 'I' for Inactive)
REMARK    1  A    between atoms: O1_2  and  C2_3 
REMARK    2  A    between atoms: C2_3  and  C3_7 
REMARK    3  A    between atoms: C3_7  and  C4_8 
REMARK    4  A    between atoms: C3_7  and  C6_12 
REMARK    5  A    between atoms: C4_8  and  O3_10 
REMARK    6  A    between atoms: C7_17  and  N4_18 
REMARK       I    between atoms: N4_18  and  C8_20 
REMARK    7  A    between atoms: C8_20  and  C9_22 
REMARK    8  A    between atoms: C9_22  and  N5_25 
ROOT
HETATM    1  C6  UNL     1      -0.966  -0.241   0.192  1.00  0.00     0.134 A 
HETATM    2  N2  UNL     1      -0.913  -0.920   1.362  1.00  0.00    -0.273 N 
ATOM      3  H2  UNL     1      -1.656  -0.999   2.057  1.00  0.00     0.189 HD
HETATM    4  N3  UNL     1       0.289  -1.460   1.426  1.00  0.00    -0.130 N 
ATOM      5  H3  UNL     1       0.623  -2.033   2.201  1.00  0.00     0.205 HD
HETATM    6  C7  UNL     1       1.020  -1.154   0.331  1.00  0.00     0.701 A 
HETATM    7  N6  UNL     1       0.200  -0.392  -0.413  1.00  0.00    -0.176 N 
ATOM      8  H6  UNL     1       0.443   0.013  -1.317  1.00  0.00     0.185 HD
ENDROOT
BRANCH   1   9
HETATM    9  C3  UNL     1      -2.116   0.544  -0.347  1.00  0.00     0.229 C 
BRANCH   9  10
HETATM   10  C2  UNL     1      -3.317  -0.333  -0.505  1.00  0.00     0.132 C 
HETATM   11  N1  UNL     1      -3.873  -0.435  -1.658  1.00  0.00    -0.382 N 
ATOM     12  H12 UNL     1      -4.692  -1.033  -1.766  1.00  0.00     0.158 HD
ATOM     13  H11 UNL     1      -3.475   0.089  -2.437  1.00  0.00     0.158 HD
BRANCH  10  14
HETATM   14  O1  UNL     1      -3.856  -1.043   0.551  1.00  0.00    -0.343 OA
HETATM   15  C1  UNL     1      -5.135  -1.684   0.427  1.00  0.00     0.211 C 
ENDBRANCH  10  14
ENDBRANCH   9  10
BRANCH   9  16
HETATM   16  C4  UNL     1      -2.396   1.604   0.641  1.00  0.00     0.278 C 
HETATM   17  O2  UNL     1      -2.320   2.797   0.298  1.00  0.00    -0.264 OA
BRANCH  16  18
HETATM   18  O3  UNL     1      -2.739   1.273   1.929  1.00  0.00    -0.326 OA
HETATM   19  C5  UNL     1      -3.024   2.230   2.936  1.00  0.00     0.213 C 
ENDBRANCH  16  18
ENDBRANCH   9  16
ENDBRANCH   1   9
BRANCH   6  20
HETATM   20  N4  UNL     1       2.220  -1.496   0.044  1.00  0.00    -0.156 N 
HETATM   21  C8  UNL     1       2.782  -1.047  -1.179  1.00  0.00     0.271 C 
HETATM   22  O4  UNL     1       2.266  -1.472  -2.244  1.00  0.00    -0.270 OA
ATOM     23  H4  UNL     1       2.761  -2.080   0.682  1.00  0.00     0.187 HD
BRANCH  21  24
HETATM   24  C9  UNL     1       3.939  -0.109  -1.221  1.00  0.00     0.197 C 
HETATM   25  C10 UNL     1       5.138  -0.789  -0.567  1.00  0.00     0.056 C 
HETATM   26  C11 UNL     1       3.656   1.146  -0.421  1.00  0.00     0.056 C 
BRANCH  24  27
HETATM   27  N5  UNL     1       4.325   0.198  -2.577  1.00  0.00    -0.062 N 
ATOM     28  H53 UNL     1       4.513  -0.650  -3.112  1.00  0.00     0.275 HD
ATOM     29  H52 UNL     1       3.537   0.554  -3.117  1.00  0.00     0.275 HD
ATOM     30  H51 UNL     1       5.117   0.840  -2.606  1.00  0.00     0.275 HD
ENDBRANCH  24  27
ENDBRANCH  21  24
ENDBRANCH   6  20
TORSDOF 8
