REMARK  6 active torsions:
REMARK  status: ('A' for Active; 'I' for Inactive)
REMARK    1  A    between atoms: C2_2  and  N1_3 
REMARK    2  A    between atoms: C2_2  and  C14_25 
REMARK    3  A    between atoms: N1_3  and  C3_4 
REMARK    4  A    between atoms: N2_8  and  C7_9 
REMARK    5  A    between atoms: C7_9  and  O1_13 
REMARK    6  A    between atoms: O1_13  and  C8_14 
ROOT
HETATM    1  C3  UNL     1      -1.704  -0.199   0.541  1.00  0.00     0.267 C 
HETATM    2  C4  UNL     1      -1.067  -0.574  -0.794  1.00  0.00     0.088 C 
HETATM    3  C5  UNL     1       0.092  -1.487  -0.666  1.00  0.00     0.115 C 
HETATM    4  C6  UNL     1       1.393  -0.890  -1.147  1.00  0.00     0.155 C 
HETATM    5  N2  UNL     1       2.355  -1.272  -0.158  1.00  0.00    -0.311 N 
HETATM    6  C12 UNL     1       1.800  -2.113   0.863  1.00  0.00     0.294 C 
HETATM    7 CL1  UNL     1       2.283  -3.809   0.672  1.00  0.00    -0.079 Cl
HETATM    8  N4  UNL     1       0.359  -1.984   0.665  1.00  0.00    -0.293 N 
HETATM    9  C13 UNL     1      -0.762  -2.250   1.498  1.00  0.00     0.323 C 
HETATM   10  O2  UNL     1      -0.715  -3.194   2.338  1.00  0.00    -0.247 OA
HETATM   11  N5  UNL     1      -1.901  -1.422   1.343  1.00  0.00    -0.310 N 
ATOM     12  H5  UNL     1      -2.802  -1.657   1.760  1.00  0.00     0.167 HD
ENDROOT
BRANCH   5  13
HETATM   13  C7  UNL     1       3.734  -0.861  -0.181  1.00  0.00     0.218 C 
HETATM   14  N3  UNL     1       4.636  -1.480   0.515  1.00  0.00    -0.365 N 
ATOM     15  H32 UNL     1       4.320  -2.270   1.077  1.00  0.00     0.159 HD
ATOM     16  H31 UNL     1       5.613  -1.189   0.499  1.00  0.00     0.159 HD
BRANCH  13  17
HETATM   17  O1  UNL     1       4.163   0.210  -0.943  1.00  0.00    -0.312 OA
BRANCH  17  18
HETATM   18  C8  UNL     1       5.450   0.768  -0.711  1.00  0.00     0.060 C 
HETATM   19  C9  UNL     1       5.667   1.925  -1.681  1.00  0.00     0.046 C 
HETATM   20  C10 UNL     1       5.572   1.325   0.692  1.00  0.00     0.046 C 
HETATM   21  C11 UNL     1       6.548  -0.227  -0.920  1.00  0.00     0.046 C 
ENDBRANCH  17  18
ENDBRANCH  13  17
ENDBRANCH   5  13
BRANCH   1  22
HETATM   22  N1  UNL     1      -2.809   0.541   0.484  1.00  0.00    -0.430 NA
BRANCH  22  23
HETATM   23  C2  UNL     1      -3.816   1.122   0.406  1.00  0.00     0.062 C 
HETATM   24  C1  UNL     1      -3.896   2.588   0.785  1.00  0.00     0.080 C 
BRANCH  23  25
HETATM   25  C14 UNL     1      -5.111   0.515  -0.062  1.00  0.00    -0.000 C 
HETATM   26  C15 UNL     1      -4.973  -0.936  -0.426  1.00  0.00     0.021 C 
HETATM   27  C16 UNL     1      -5.608   1.245  -1.309  1.00  0.00     0.021 C 
HETATM   28  C17 UNL     1      -6.199   0.703   0.995  1.00  0.00     0.021 C 
ENDBRANCH  23  25
ENDBRANCH  22  23
ENDBRANCH   1  22
TORSDOF 6
