REMARK  7 active torsions:
REMARK  status: ('A' for Active; 'I' for Inactive)
REMARK    1  A    between atoms: O1_1  and  C1_3 
REMARK    2  A    between atoms: C1_3  and  O2_4 
REMARK    3  A    between atoms: O2_4  and  C2_5 
REMARK    4  A    between atoms: C2_5  and  N1_6 
REMARK    5  A    between atoms: N1_6  and  C4_17 
REMARK    6  A    between atoms: C3_7  and  N2_8 
REMARK    7  A    between atoms: C4_17  and  O3_18 
ROOT
HETATM    1  N1  UNL     1       0.153  -0.706  -0.507  1.00  0.00    -0.332 N 
HETATM    2  C3  UNL     1       1.430  -0.487  -0.471  1.00  0.00     0.231 C 
ENDROOT
BRANCH   2   3
HETATM    3  N2  UNL     1       2.023   0.339   0.521  1.00  0.00    -0.161 N 
HETATM    4  N3  UNL     1       2.328  -0.066   1.738  1.00  0.00    -0.203 N 
HETATM    5  N4  UNL     1       2.869   0.956   2.415  1.00  0.00    -0.211 N 
ATOM      6  H3  UNL     1       2.177  -1.006   2.105  1.00  0.00     0.212 HD
HETATM    7  N5  UNL     1       2.898   2.000   1.610  1.00  0.00    -0.211 N 
ATOM      8  H4  UNL     1       3.199   0.931   3.380  1.00  0.00     0.211 HD
HETATM    9  N6  UNL     1       2.369   1.592   0.445  1.00  0.00    -0.203 N 
ATOM     10  H5  UNL     1       3.252   2.931   1.829  1.00  0.00     0.211 HD
ATOM     11  H6  UNL     1       2.255   2.179  -0.381  1.00  0.00     0.212 HD
ENDBRANCH   2   3
BRANCH   1  12
HETATM   12  C2  UNL     1      -0.756  -0.127   0.455  1.00  0.00     0.298 C 
BRANCH  12  13
HETATM   13  O2  UNL     1      -1.663   0.653  -0.237  1.00  0.00    -0.348 OA
BRANCH  13  14
HETATM   14  C1  UNL     1      -2.595   1.265   0.598  1.00  0.00     0.336 C 
BRANCH  14  15
HETATM   15  O1  UNL     1      -3.346   0.340   1.318  1.00  0.00    -0.377 OA
ATOM     16  H1  UNL     1      -3.982   0.757   1.887  1.00  0.00     0.212 HD
ENDBRANCH  14  15
ENDBRANCH  13  14
ENDBRANCH  12  13
ENDBRANCH   1  12
BRANCH   1  17
HETATM   17  C4  UNL     1      -0.391  -1.558  -1.545  1.00  0.00     0.293 C 
BRANCH  17  18
HETATM   18  O3  UNL     1       0.582  -2.045  -2.396  1.00  0.00    -0.382 OA
ATOM     19  H3  UNL     1       0.225  -2.604  -3.077  1.00  0.00     0.211 HD
ENDBRANCH  17  18
ENDBRANCH   1  17
TORSDOF 7
