REMARK  5 active torsions:
REMARK  status: ('A' for Active; 'I' for Inactive)
REMARK    1  A    between atoms: C2_2  and  C4_4 
REMARK    2  A    between atoms: C6_6  and  O1_7 
REMARK    3  A    between atoms: O1_7  and  C7_8 
REMARK    4  A    between atoms: C7_8  and  C8_10 
REMARK    5  A    between atoms: C17_19  and  O3_20 
ROOT
HETATM    1  C4  UNL     1      -1.864  -0.426   0.324  1.00  0.00    -0.044 C 
HETATM    2  C5  UNL     1      -0.569  -0.522   0.164  1.00  0.00     0.013 C 
HETATM    3  C6  UNL     1       0.495   0.359  -0.460  1.00  0.00     0.156 C 
HETATM    4  C12 UNL     1       0.412   1.671   0.315  1.00  0.00     0.045 C 
HETATM    5  C13 UNL     1      -0.750   2.519  -0.093  1.00  0.00     0.013 C 
HETATM    6  C14 UNL     1      -1.378   2.101  -1.358  1.00  0.00    -0.025 C 
HETATM    7  C15 UNL     1      -2.356   1.219  -1.385  1.00  0.00    -0.018 C 
HETATM    8  C16 UNL     1      -2.830   0.633  -0.073  1.00  0.00     0.070 C 
HETATM    9  C17 UNL     1      -2.880   1.681   0.987  1.00  0.00     0.131 C 
HETATM   10  C18 UNL     1      -1.789   2.690   0.973  1.00  0.00     0.041 C 
ENDROOT
BRANCH   3  11
HETATM   11  O1  UNL     1       1.751  -0.226  -0.366  1.00  0.00    -0.308 OA
BRANCH  11  12
HETATM   12  C7  UNL     1       2.474  -0.458  -1.537  1.00  0.00     0.289 C 
HETATM   13  O2  UNL     1       1.933  -0.114  -2.648  1.00  0.00    -0.260 OA
BRANCH  12  14
HETATM   14  C8  UNL     1       3.779  -1.053  -1.574  1.00  0.00     0.009 C 
HETATM   15  C9  UNL     1       4.454  -1.252  -2.871  1.00  0.00     0.054 C 
HETATM   16  C10 UNL     1       4.395  -1.430  -0.475  1.00  0.00    -0.018 C 
HETATM   17  C11 UNL     1       3.846  -1.294   0.882  1.00  0.00     0.036 C 
ENDBRANCH  12  14
ENDBRANCH  11  12
ENDBRANCH   3  11
BRANCH   1  18
HETATM   18  C2  UNL     1      -2.465  -1.538   0.993  1.00  0.00    -0.065 C 
HETATM   19  C1  UNL     1      -3.758  -1.657   1.267  1.00  0.00     0.019 C 
HETATM   20  C3  UNL     1      -1.581  -2.684   1.425  1.00  0.00     0.048 C 
ENDBRANCH   1  18
BRANCH   9  21
HETATM   21  O3  UNL     1      -2.925   1.128   2.280  1.00  0.00    -0.395 OA
ATOM     22  H3  UNL     1      -2.957   1.796   2.955  1.00  0.00     0.210 HD
ENDBRANCH   9  21
TORSDOF 5
