REMARK  6 active torsions:
REMARK  status: ('A' for Active; 'I' for Inactive)
REMARK    1  A    between atoms: S1_2  and  C2_3 
REMARK    2  A    between atoms: C3_6  and  N2_7 
REMARK    3  A    between atoms: N3_13  and  C9_14 
REMARK    4  A    between atoms: C9_14  and  C10_15 
REMARK    5  A    between atoms: C10_15  and  O1_16 
REMARK    6  A    between atoms: C12_22  and  N6_23 
ROOT
HETATM    1  C2  UNL     1       4.263  -0.339  -0.074  1.00  0.00     0.174 A 
HETATM    2  N1  UNL     1       2.932  -0.434   0.057  1.00  0.00    -0.169 N 
ATOM      3  H1  UNL     1       2.462  -1.296  -0.219  1.00  0.00     0.186 HD
HETATM    4  C3  UNL     1       2.201   0.590   0.548  1.00  0.00     0.696 A 
HETATM    5  N5  UNL     1       2.881   1.695   0.894  1.00  0.00    -0.022 N 
ATOM      6  H5  UNL     1       2.360   2.487   1.270  1.00  0.00     0.203 HD
HETATM    7  C12 UNL     1       4.211   1.807   0.769  1.00  0.00     0.692 A 
HETATM    8  N7  UNL     1       4.928   0.793   0.283  1.00  0.00    -0.170 N 
ATOM      9  H7  UNL     1       5.941   0.864   0.182  1.00  0.00     0.186 HD
ENDROOT
BRANCH   4  10
HETATM   10  N2  UNL     1       0.787   0.508   0.695  1.00  0.00    -0.215 N 
HETATM   11  C4  UNL     1      -0.032   1.584   1.218  1.00  0.00     0.143 C 
HETATM   12  C5  UNL     1      -1.323   1.404   0.414  1.00  0.00     0.050 C 
HETATM   13  C6  UNL     1      -1.455  -0.082   0.397  1.00  0.00     0.064 C 
HETATM   14  C7  UNL     1      -2.231  -0.496   1.632  1.00  0.00     0.046 C 
HETATM   15  N4  UNL     1      -2.304  -0.571  -0.663  1.00  0.00    -0.153 NA
HETATM   16  C11 UNL     1      -0.069  -0.622   0.363  1.00  0.00     0.169 C 
HETATM   17  C8  UNL     1      -3.663  -0.246   1.139  1.00  0.00     0.111 C 
HETATM   18  N3  UNL     1      -3.555  -0.102  -0.284  1.00  0.00    -0.232 NA
BRANCH  18  19
HETATM   19  C9  UNL     1      -4.633  -0.769  -0.986  1.00  0.00     0.135 C 
BRANCH  19  20
HETATM   20  C10 UNL     1      -4.480  -0.593  -2.466  1.00  0.00     0.180 C 
BRANCH  20  21
HETATM   21  O1  UNL     1      -5.509  -1.228  -3.144  1.00  0.00    -0.400 OA
ATOM     22  H1  UNL     1      -5.412  -1.116  -4.082  1.00  0.00     0.209 HD
ENDBRANCH  20  21
ENDBRANCH  19  20
ENDBRANCH  18  19
ENDBRANCH   4  10
BRANCH   1  23
HETATM   23  S1  UNL     1       5.136  -1.746  -0.733  1.00  0.00    -0.097 SA
HETATM   24  C1  UNL     1       6.908  -1.451  -0.842  1.00  0.00     0.099 C 
ENDBRANCH   1  23
BRANCH   7  25
HETATM   25  N6  UNL     1       4.806   2.902   1.121  1.00  0.00    -0.234 N 
ATOM     26  H62 UNL     1       4.258   3.678   1.493  1.00  0.00     0.174 HD
ATOM     27  H61 UNL     1       5.818   2.987   1.026  1.00  0.00     0.174 HD
ENDBRANCH   7  25
TORSDOF 6
