REMARK  9 active torsions:
REMARK  status: ('A' for Active; 'I' for Inactive)
REMARK    1  A    between atoms: C1_2  and  C2_4 
REMARK    2  A    between atoms: C2_4  and  C3_6 
REMARK    3  A    between atoms: C3_6  and  C9_13 
REMARK    4  A    between atoms: C4_7  and  C5_8 
REMARK    5  A    between atoms: C9_13  and  O4_14 
REMARK    6  A    between atoms: C9_13  and  N2_16 
REMARK    7  A    between atoms: N2_16  and  C10_18 
REMARK    8  A    between atoms: C10_18  and  C11_19 
REMARK    9  A    between atoms: C10_18  and  C12_22 
ROOT
HETATM    1  C9  UNL     1      -0.774   1.340  -0.566  1.00  0.00     0.253 C 
ENDROOT
BRANCH   1   2
HETATM    2  C3  UNL     1      -2.148   0.948  -0.401  1.00  0.00     0.046 C 
HETATM    3  C4  UNL     1      -2.670  -0.258  -0.418  1.00  0.00     0.029 C 
BRANCH   2   4
HETATM    4  C2  UNL     1      -3.158   2.009  -0.158  1.00  0.00     0.246 C 
HETATM    5  O2  UNL     1      -4.349   1.590   0.128  1.00  0.00    -0.282 OA
BRANCH   4   6
HETATM    6  C1  UNL     1      -3.021   3.424  -0.204  1.00  0.00     0.305 C 
HETATM    7  N1  UNL     1      -4.109   4.277   0.274  1.00  0.00    -0.054 NA
HETATM    8  O1  UNL     1      -2.025   4.043  -0.628  1.00  0.00    -0.267 OA
ENDBRANCH   4   6
ENDBRANCH   2   4
BRANCH   3   9
HETATM    9  C5  UNL     1      -2.111  -1.551  -0.620  1.00  0.00    -0.011 A 
HETATM   10  C6  UNL     1      -1.218  -1.960  -1.576  1.00  0.00     0.038 A 
HETATM   11  C7  UNL     1      -0.985  -3.292  -1.344  1.00  0.00     0.142 A 
HETATM   12  O3  UNL     1      -1.693  -3.654  -0.318  1.00  0.00    -0.334 OA
HETATM   13  C8  UNL     1      -2.381  -2.661   0.151  1.00  0.00     0.152 A 
ENDBRANCH   3   9
ENDBRANCH   1   2
BRANCH   1  14
HETATM   14  O4  UNL     1      -0.608   2.362   0.532  1.00  0.00    -0.373 OA
ATOM     15  H4  UNL     1       0.300   2.621   0.423  1.00  0.00     0.212 HD
ENDBRANCH   1  14
BRANCH   1  16
HETATM   16  N2  UNL     1       0.378   0.600  -0.425  1.00  0.00    -0.376 N 
ATOM     17  H2  UNL     1       0.761   0.234  -1.296  1.00  0.00     0.157 HD
BRANCH  16  18
HETATM   18  C10 UNL     1       1.096   0.275   0.704  1.00  0.00     0.214 C 
BRANCH  18  19
HETATM   19  C11 UNL     1       0.583  -0.516   1.784  1.00  0.00     0.201 C 
HETATM   20  O5  UNL     1      -0.544  -0.399   2.296  1.00  0.00    -0.646 OA
HETATM   21  O6  UNL     1       1.437  -1.528   2.321  1.00  0.00    -0.646 OA
ENDBRANCH  18  19
BRANCH  18  22
HETATM   22  C12 UNL     1       2.456  -0.267   0.338  1.00  0.00    -0.025 A 
HETATM   23  C13 UNL     1       2.613  -1.128  -0.689  1.00  0.00     0.010 A 
HETATM   24  C14 UNL     1       3.884  -1.635  -1.018  1.00  0.00     0.001 A 
HETATM   25  C15 UNL     1       4.988  -1.263  -0.299  1.00  0.00     0.000 A 
HETATM   26  C16 UNL     1       4.827  -0.388   0.744  1.00  0.00     0.001 A 
HETATM   27  C17 UNL     1       3.573   0.095   1.047  1.00  0.00     0.010 A 
ENDBRANCH  18  22
ENDBRANCH  16  18
ENDBRANCH   1  16
TORSDOF 9
