REMARK  4 active torsions:
REMARK  status: ('A' for Active; 'I' for Inactive)
REMARK    1  A    between atoms: C2_2  and  O1_3 
REMARK    2  A    between atoms: O1_3  and  C3_4 
REMARK    3  A    between atoms: C3_4  and  C4_6 
REMARK    4  A    between atoms: C12_20  and  N3_21 
ROOT
HETATM    1  C4  UNL     1       0.535  -0.865  -0.026  1.00  0.00     0.095 C 
HETATM    2  C5  UNL     1       0.467  -2.164  -0.368  1.00  0.00     0.063 C 
HETATM    3  C6  UNL     1       1.684  -2.945  -0.520  1.00  0.00     0.077 C 
HETATM    4  O3  UNL     1      -0.762  -2.790  -0.593  1.00  0.00    -0.334 OA
HETATM    5  C7  UNL     1      -1.971  -2.240  -0.300  1.00  0.00     0.229 C 
HETATM    6  S1  UNL     1      -3.011  -2.079  -1.780  1.00  0.00    -0.078 SA
HETATM    7  C8  UNL     1      -3.891  -0.581  -1.233  1.00  0.00     0.065 C 
HETATM    8  N1  UNL     1      -4.746   0.015  -1.909  1.00  0.00    -0.396 N 
ATOM      9  H11 UNL     1      -5.239   0.854  -1.603  1.00  0.00     0.156 HD
ATOM     10  H12 UNL     1      -5.139  -0.152  -2.836  1.00  0.00     0.156 HD
HETATM   11  C9  UNL     1      -3.316  -0.337   0.124  1.00  0.00     0.183 C 
HETATM   12  C10 UNL     1      -4.086  -1.208   1.045  1.00  0.00     0.075 C 
HETATM   13  N2  UNL     1      -4.703  -1.881   1.754  1.00  0.00    -0.196 NA
HETATM   14  C11 UNL     1      -1.903  -0.776   0.053  1.00  0.00     0.011 C 
HETATM   15  C12 UNL     1      -0.711  -0.164   0.181  1.00  0.00     0.056 C 
ENDROOT
BRANCH  15  16
HETATM   16  N3  UNL     1      -0.721   1.230   0.530  1.00  0.00    -0.380 N 
HETATM   17  C13 UNL     1      -0.804   2.374  -0.391  1.00  0.00     0.124 A 
HETATM   18  C14 UNL     1      -0.755   3.328   0.752  1.00  0.00     0.040 A 
HETATM   19  C15 UNL     1      -0.716   2.104   1.657  1.00  0.00     0.124 A 
ENDBRANCH  15  16
BRANCH   1  20
HETATM   20  C3  UNL     1       1.817  -0.229   0.188  1.00  0.00     0.298 C 
HETATM   21  O2  UNL     1       1.952   0.974   0.507  1.00  0.00    -0.259 OA
BRANCH  20  22
HETATM   22  O1  UNL     1       3.058  -0.869   0.067  1.00  0.00    -0.318 OA
BRANCH  22  23
HETATM   23  C2  UNL     1       4.294  -0.263   0.271  1.00  0.00     0.174 C 
HETATM   24  C1  UNL     1       4.573   0.898  -0.642  1.00  0.00     0.034 C 
ENDBRANCH  22  23
ENDBRANCH  20  22
ENDBRANCH   1  20
TORSDOF 4
