REMARK  4 active torsions:
REMARK  status: ('A' for Active; 'I' for Inactive)
REMARK    1  A    between atoms: C5_8  and  C6_9 
REMARK    2  A    between atoms: C6_9  and  N3_18 
REMARK    3  A    between atoms: N2_10  and  C7_12 
REMARK    4  A    between atoms: N3_18  and  C13_20 
ROOT
HETATM    1  C6  UNL     1      -0.724  -0.367  -0.308  1.00  0.00     0.112 C 
HETATM    2  N2  UNL     1       0.549  -0.414  -0.182  1.00  0.00    -0.371 N 
ATOM      3  H2  UNL     1       0.960  -1.180   0.352  1.00  0.00     0.161 HD
ENDROOT
BRANCH   1   4
HETATM    4  C5  UNL     1      -1.590  -1.363   0.280  1.00  0.00     0.063 A 
HETATM    5  C2  UNL     1      -2.811  -1.777  -0.262  1.00  0.00     0.045 A 
HETATM    6  C1  UNL     1      -3.409  -1.270  -1.522  1.00  0.00     0.071 C 
HETATM    7  N1  UNL     1      -3.288  -2.705   0.588  1.00  0.00    -0.265 N 
HETATM    8  O1  UNL     1      -2.468  -2.877   1.575  1.00  0.00    -0.242 OA
ATOM      9  H1  UNL     1      -4.171  -3.202   0.471  1.00  0.00     0.194 HD
HETATM   10  C3  UNL     1      -1.408  -2.078   1.434  1.00  0.00     0.088 A 
HETATM   11  C4  UNL     1      -0.275  -2.016   2.377  1.00  0.00     0.080 C 
ENDBRANCH   1   4
BRANCH   1  12
HETATM   12  N3  UNL     1      -1.243   0.729  -1.077  1.00  0.00    -0.371 N 
ATOM     13  H3  UNL     1      -1.315   0.603  -2.087  1.00  0.00     0.161 HD
BRANCH  12  14
HETATM   14  C13 UNL     1      -1.665   1.977  -0.540  1.00  0.00     0.083 A 
HETATM   15  C14 UNL     1      -2.785   2.100   0.441  1.00  0.00     0.027 A 
HETATM   16  C15 UNL     1      -1.402   2.270   0.910  1.00  0.00     0.027 A 
ENDBRANCH  12  14
ENDBRANCH   1  12
BRANCH   2  17
HETATM   17  C7  UNL     1       1.434   0.583  -0.771  1.00  0.00     0.086 C 
HETATM   18  C8  UNL     1       2.055  -0.114  -1.982  1.00  0.00     0.025 C 
HETATM   19  C9  UNL     1       3.496  -0.344  -1.635  1.00  0.00     0.002 C 
HETATM   20  C10 UNL     1       3.485  -0.375  -0.112  1.00  0.00     0.006 C 
HETATM   21  C11 UNL     1       2.570   0.819   0.168  1.00  0.00     0.004 C 
HETATM   22  C12 UNL     1       2.236   0.996   1.595  1.00  0.00     0.012 C 
ENDBRANCH   2  17
TORSDOF 4
