REMARK  10 active torsions:
REMARK  status: ('A' for Active; 'I' for Inactive)
REMARK       I    between atoms: C1_2  and  N1_3 
REMARK    1  A    between atoms: C1_2  and  C9_13 
REMARK    2  A    between atoms: N1_3  and  C2_5 
REMARK    3  A    between atoms: C2_5  and  C3_6 
REMARK    4  A    between atoms: C3_6  and  N2_7 
REMARK    5  A    between atoms: C9_13  and  C10_14 
REMARK    6  A    between atoms: C9_13  and  C16_20 
REMARK    7  A    between atoms: C10_14  and  C11_15 
REMARK       I    between atoms: C16_20  and  N3_22 
REMARK    8  A    between atoms: N3_22  and  C17_24 
REMARK       I    between atoms: N4_32  and  C25_33 
REMARK    9  A    between atoms: C25_33  and  C26_35 
REMARK   10  A    between atoms: C26_35  and  C27_36 
ROOT
HETATM    1  C16 UNL     1      -1.751  -2.500   0.924  1.00  0.00     0.235 C 
HETATM    2  O2  UNL     1      -1.201  -2.854   1.977  1.00  0.00    -0.272 OA
HETATM    3  N3  UNL     1      -1.112  -1.778  -0.091  1.00  0.00    -0.326 N 
ATOM      4  H3  UNL     1      -1.687  -1.549  -0.902  1.00  0.00     0.169 HD
ENDROOT
BRANCH   1   5
HETATM    5  C9  UNL     1      -3.200  -2.907   0.791  1.00  0.00     0.170 C 
BRANCH   5   6
HETATM    6  C1  UNL     1      -3.939  -1.666   0.480  1.00  0.00     0.231 C 
HETATM    7  O1  UNL     1      -4.495  -1.546  -0.628  1.00  0.00    -0.273 OA
HETATM    8  N1  UNL     1      -4.049  -0.589   1.392  1.00  0.00    -0.359 N 
ATOM      9  H1  UNL     1      -3.605  -0.662   2.307  1.00  0.00     0.162 HD
BRANCH   8  10
HETATM   10  C2  UNL     1      -4.774   0.605   1.054  1.00  0.00     0.142 C 
BRANCH  10  11
HETATM   11  C3  UNL     1      -4.713   1.565   2.193  1.00  0.00     0.141 C 
BRANCH  11  12
HETATM   12  N2  UNL     1      -5.396   2.790   1.988  1.00  0.00    -0.392 N 
HETATM   13  C4  UNL     1      -4.845   3.658   1.014  1.00  0.00     0.122 C 
HETATM   14  C5  UNL     1      -5.600   3.757  -0.271  1.00  0.00     0.020 C 
HETATM   15  C6  UNL     1      -7.083   3.821  -0.087  1.00  0.00     0.007 C 
HETATM   16  C7  UNL     1      -7.603   2.809   0.908  1.00  0.00     0.044 C 
HETATM   17  C8  UNL     1      -6.792   2.805   2.179  1.00  0.00     0.058 C 
ENDBRANCH  11  12
ENDBRANCH  10  11
ENDBRANCH   8  10
ENDBRANCH   5   6
BRANCH   5  18
HETATM   18  C10 UNL     1      -3.285  -3.922  -0.281  1.00  0.00     0.028 C 
BRANCH  18  19
HETATM   19  C11 UNL     1      -4.630  -4.437  -0.636  1.00  0.00    -0.013 C 
HETATM   20  C12 UNL     1      -4.464  -5.468  -1.756  1.00  0.00     0.005 C 
HETATM   21  C13 UNL     1      -3.812  -6.609  -1.012  1.00  0.00     0.000 C 
HETATM   22  C14 UNL     1      -4.284  -6.493   0.418  1.00  0.00     0.000 C 
HETATM   23  C15 UNL     1      -5.245  -5.311   0.436  1.00  0.00     0.005 C 
ENDBRANCH  18  19
ENDBRANCH   5  18
ENDBRANCH   1   5
BRANCH   3  24
HETATM   24  C17 UNL     1       0.226  -1.324  -0.140  1.00  0.00     0.035 A 
HETATM   25  C18 UNL     1       1.244  -1.770   0.670  1.00  0.00     0.030 A 
HETATM   26  C19 UNL     1       2.543  -1.256   0.584  1.00  0.00     0.011 A 
HETATM   27  C20 UNL     1       2.866  -0.277  -0.319  1.00  0.00    -0.034 A 
HETATM   28  C21 UNL     1       1.846   0.170  -1.130  1.00  0.00    -0.046 A 
HETATM   29  C33 UNL     1       4.242   0.224  -0.372  1.00  0.00     0.164 C 
HETATM   30  C22 UNL     1       0.575  -0.317  -1.062  1.00  0.00     0.037 A 
HETATM   31  C23 UNL     1       2.177   1.241  -2.109  1.00  0.00     0.059 C 
HETATM   32  C24 UNL     1       3.072   2.226  -1.350  1.00  0.00     0.130 C 
HETATM   33  N4  UNL     1       4.291   1.519  -1.027  1.00  0.00    -0.348 N 
HETATM   34  C25 UNL     1       5.577   2.088  -1.346  1.00  0.00     0.220 C 
HETATM   35  O3  UNL     1       5.552   3.225  -1.903  1.00  0.00    -0.273 OA
BRANCH  34  36
HETATM   36  C26 UNL     1       6.823   1.363  -1.030  1.00  0.00     0.107 C 
BRANCH  36  37
HETATM   37  C27 UNL     1       8.075   2.098  -1.372  1.00  0.00    -0.006 C 
HETATM   38  C28 UNL     1       8.253   3.397  -0.664  1.00  0.00     0.005 C 
HETATM   39  C29 UNL     1       8.224   3.205   0.841  1.00  0.00     0.000 C 
HETATM   40  C30 UNL     1       9.139   2.087   1.230  1.00  0.00     0.000 C 
HETATM   41  C31 UNL     1      10.055   1.675   0.112  1.00  0.00     0.000 C 
HETATM   42  C32 UNL     1       9.314   1.266  -1.139  1.00  0.00     0.005 C 
ENDBRANCH  36  37
ENDBRANCH  34  36
ENDBRANCH   3  24
TORSDOF 10
