REMARK  16 active torsions:
REMARK  status: ('A' for Active; 'I' for Inactive)
REMARK       I    between atoms: C2_2  and  N1_4 
REMARK    1  A    between atoms: N1_4  and  C4_6 
REMARK    2  A    between atoms: C5_7  and  C6_8 
REMARK    3  A    between atoms: C6_8  and  O2_9 
REMARK    4  A    between atoms: C6_8  and  N2_11 
REMARK    5  A    between atoms: N2_11  and  S1_13 
REMARK    6  A    between atoms: S1_13  and  C7_16 
REMARK    7  A    between atoms: N8_30  and  C9_31 
REMARK    8  A    between atoms: C12_34  and  S3_35 
REMARK    9  A    between atoms: S3_35  and  C13_38 
REMARK   10  A    between atoms: C13_38  and  C14_39 
REMARK   11  A    between atoms: C15_43  and  C16_44 
REMARK   12  A    between atoms: C16_44  and  O10_45 
REMARK   13  A    between atoms: C16_44  and  C17_47 
REMARK   14  A    between atoms: C17_47  and  O11_48 
REMARK   15  A    between atoms: C17_47  and  C18_50 
REMARK   16  A    between atoms: C18_50  and  O12_51 
ROOT
HETATM    1  C4  UNL     1       2.753  -0.964  -1.990  1.00  0.00     0.166 A 
HETATM    2  C5  UNL     1       3.682  -1.725  -2.638  1.00  0.00     0.147 A 
HETATM    3  N6  UNL     1       2.930  -2.498  -3.498  1.00  0.00    -0.278 N 
ATOM      4  H6  UNL     1       3.306  -3.191  -4.145  1.00  0.00     0.189 HD
HETATM    5  N7  UNL     1       1.663  -2.210  -3.359  1.00  0.00    -0.233 N 
ATOM      6  H7  UNL     1       0.901  -2.643  -3.880  1.00  0.00     0.209 HD
HETATM    7  N8  UNL     1       1.518  -1.251  -2.419  1.00  0.00    -0.223 N 
ENDROOT
BRANCH   7   8
HETATM    8  C9  UNL     1       0.268  -0.746  -2.034  1.00  0.00     0.060 A 
HETATM    9  C10 UNL     1      -0.072   0.562  -1.873  1.00  0.00     0.033 A 
HETATM   10  C11 UNL     1      -1.336   0.988  -1.510  1.00  0.00     0.026 A 
HETATM   11  C12 UNL     1      -2.347   0.077  -1.286  1.00  0.00     0.065 A 
HETATM   12  C19 UNL     1      -2.034  -1.256  -1.441  1.00  0.00     0.026 A 
HETATM   13  C20 UNL     1      -0.771  -1.667  -1.803  1.00  0.00     0.033 A 
BRANCH  11  14
HETATM   14  S3  UNL     1      -3.906   0.690  -0.840  1.00  0.00     0.246 S 
HETATM   15  O5  UNL     1      -4.032   2.103  -1.312  1.00  0.00    -0.216 OA
HETATM   16  O6  UNL     1      -4.931  -0.163  -1.553  1.00  0.00    -0.216 OA
BRANCH  14  17
HETATM   17  C13 UNL     1      -4.244   0.640   0.883  1.00  0.00     0.372 C 
HETATM   18  O9  UNL     1      -4.756  -0.549   1.365  1.00  0.00    -0.300 OA
HETATM   19  C15 UNL     1      -6.056  -0.044   1.187  1.00  0.00     0.301 C 
HETATM   20  O13 UNL     1      -5.537   1.215   1.085  1.00  0.00    -0.300 OA
BRANCH  17  21
HETATM   21  C14 UNL     1      -3.314   1.383   1.768  1.00  0.00     0.257 C 
HETATM   22  O7  UNL     1      -2.842   2.464   1.324  1.00  0.00    -0.643 OA
HETATM   23  O8  UNL     1      -2.929   0.990   3.022  1.00  0.00    -0.643 OA
ENDBRANCH  17  21
BRANCH  19  24
HETATM   24  C16 UNL     1      -6.908  -0.247   2.398  1.00  0.00     0.204 C 
BRANCH  24  25
HETATM   25  O10 UNL     1      -7.058  -1.597   2.667  1.00  0.00    -0.388 OA
ATOM     26  H10 UNL     1      -7.600  -1.726   3.437  1.00  0.00     0.210 HD
ENDBRANCH  24  25
BRANCH  24  27
HETATM   27  C17 UNL     1      -8.169   0.543   2.374  1.00  0.00     0.175 C 
BRANCH  27  28
HETATM   28  O11 UNL     1      -7.964   1.892   2.112  1.00  0.00    -0.391 OA
ATOM     29  H11 UNL     1      -8.769   2.396   2.097  1.00  0.00     0.210 HD
ENDBRANCH  27  28
BRANCH  27  30
HETATM   30  C18 UNL     1      -9.229   0.029   1.450  1.00  0.00     0.198 C 
BRANCH  30  31
HETATM   31  O12 UNL     1      -8.917   0.165   0.103  1.00  0.00    -0.398 OA
ATOM     32  H12 UNL     1      -9.590  -0.161  -0.483  1.00  0.00     0.209 HD
ENDBRANCH  30  31
ENDBRANCH  27  30
ENDBRANCH  24  27
ENDBRANCH  19  24
ENDBRANCH  14  17
ENDBRANCH  11  14
ENDBRANCH   7   8
BRANCH   1  33
HETATM   33  N1  UNL     1       3.051   0.023  -1.015  1.00  0.00    -0.305 N 
HETATM   34  C2  UNL     1       3.606   1.306  -1.362  1.00  0.00     0.221 C 
HETATM   35  C1  UNL     1       3.929   2.333  -0.343  1.00  0.00     0.117 C 
HETATM   36  O1  UNL     1       3.840   1.602  -2.572  1.00  0.00    -0.273 OA
HETATM   37  C3  UNL     1       2.788  -0.225   0.390  1.00  0.00     0.161 C 
ENDBRANCH   1  33
BRANCH   2  38
HETATM   38  C6  UNL     1       5.107  -1.860  -2.545  1.00  0.00     0.182 C 
BRANCH  38  39
HETATM   39  O2  UNL     1       5.730  -2.528  -3.473  1.00  0.00    -0.344 OA
ATOM     40  H2  UNL     1       6.674  -2.617  -3.411  1.00  0.00     0.219 HD
ENDBRANCH  38  39
BRANCH  38  41
HETATM   41  N2  UNL     1       5.971  -1.362  -1.557  1.00  0.00    -0.257 N 
ATOM     42  H2  UNL     1       5.570  -0.832  -0.784  1.00  0.00     0.181 HD
BRANCH  41  43
HETATM   43  S1  UNL     1       7.682  -1.605  -1.589  1.00  0.00     0.288 S 
HETATM   44  O3  UNL     1       7.974  -3.050  -1.438  1.00  0.00    -0.198 OA
HETATM   45  O4  UNL     1       8.267  -1.075  -2.870  1.00  0.00    -0.198 OA
BRANCH  43  46
HETATM   46  C7  UNL     1       8.397  -0.703  -0.269  1.00  0.00     0.209 A 
HETATM   47  N3  UNL     1       8.836   0.546  -0.294  1.00  0.00    -0.281 N 
HETATM   48  N4  UNL     1       9.332   1.072   0.747  1.00  0.00    -0.279 N 
ATOM     49  H3  UNL     1       8.775   1.088  -1.156  1.00  0.00     0.188 HD
HETATM   50  C8  UNL     1       9.405   0.345   1.867  1.00  0.00     0.159 A 
ATOM     51  H4  UNL     1       9.670   2.034   0.731  1.00  0.00     0.189 HD
HETATM   52  N5  UNL     1       9.880   0.706   3.034  1.00  0.00    -0.379 N 
HETATM   53  S2  UNL     1       8.723  -1.139   1.353  1.00  0.00    -0.020 SA
ATOM     54  H52 UNL     1      10.286   1.590   3.340  1.00  0.00     0.158 HD
ATOM     55  H51 UNL     1       9.936   0.151   3.888  1.00  0.00     0.158 HD
ENDBRANCH  43  46
ENDBRANCH  41  43
ENDBRANCH  38  41
ENDBRANCH   2  38
TORSDOF 16
