REMARK  2 active torsions:
REMARK  status: ('A' for Active; 'I' for Inactive)
REMARK    1  A    between atoms: N1_1  and  C1_5 
REMARK    2  A    between atoms: C8_12  and  O1_13 
ROOT
HETATM    1  C1  UNL     1      -0.343   0.758  -0.414  1.00  0.00     0.129 C 
HETATM    2  C2  UNL     1      -1.736   1.199   0.061  1.00  0.00     0.039 C 
HETATM    3  C3  UNL     1      -2.150   0.037   0.928  1.00  0.00     0.003 C 
HETATM    4  C4  UNL     1      -1.577  -1.170   0.229  1.00  0.00     0.007 C 
HETATM    5  C5  UNL     1      -0.598  -0.652  -0.805  1.00  0.00     0.021 C 
HETATM    6  C6  UNL     1       0.585  -1.540  -0.840  1.00  0.00     0.009 C 
HETATM    7  C7  UNL     1       1.575  -1.323   0.264  1.00  0.00     0.032 C 
HETATM    8  C8  UNL     1       1.911   0.163   0.303  1.00  0.00     0.120 C 
HETATM    9  C9  UNL     1       0.639   0.861   0.715  1.00  0.00     0.070 C 
ENDROOT
BRANCH   1  10
HETATM   10  N1  UNL     1      -0.007   1.626  -1.520  1.00  0.00    -0.070 N 
ATOM     11  H13 UNL     1      -0.707   1.631  -2.261  1.00  0.00     0.275 HD
ATOM     12  H12 UNL     1      -0.064   2.618  -1.291  1.00  0.00     0.275 HD
ATOM     13  H11 UNL     1       0.918   1.333  -1.835  1.00  0.00     0.275 HD
ENDBRANCH   1  10
BRANCH   8  14
HETATM   14  O1  UNL     1       2.974   0.430   1.161  1.00  0.00    -0.396 OA
ATOM     15  H1  UNL     1       3.183   1.356   1.185  1.00  0.00     0.210 HD
ENDBRANCH   8  14
TORSDOF 2
