REMARK  1 active torsions:
REMARK  status: ('A' for Active; 'I' for Inactive)
REMARK    1  A    between atoms: C6_7  and  N2_8 
ROOT
HETATM    1  N1  UNL     1       3.992   0.359   0.830  1.00  0.00    -0.197 NA
HETATM    2  C1  UNL     1       2.867   0.160   0.698  1.00  0.00     0.070 C 
HETATM    3  C2  UNL     1       1.437  -0.113   0.520  1.00  0.00     0.138 C 
HETATM    4  C3  UNL     1       1.190  -0.910  -0.745  1.00  0.00     0.025 C 
HETATM    5  C4  UNL     1      -0.114  -1.651  -0.561  1.00  0.00     0.004 C 
HETATM    6  C5  UNL     1      -1.305  -0.862  -0.988  1.00  0.00     0.033 C 
HETATM    7  C6  UNL     1      -1.636   0.284  -0.088  1.00  0.00     0.189 C 
HETATM    8  C7  UNL     1      -0.666   1.435  -0.210  1.00  0.00     0.086 C 
HETATM    9  C8  UNL     1       0.648   1.139   0.407  1.00  0.00    -0.001 C 
HETATM   10  N3  UNL     1       1.201   2.153   0.942  1.00  0.00    -0.404 N 
ATOM     11  H31 UNL     1       0.659   3.013   0.864  1.00  0.00     0.155 HD
ATOM     12  H32 UNL     1       2.106   1.949   1.367  1.00  0.00     0.155 HD
ENDROOT
BRANCH   7  13
HETATM   13  N2  UNL     1      -1.805  -0.076   1.287  1.00  0.00    -0.075 N 
ATOM     14  H23 UNL     1      -2.503  -0.814   1.379  1.00  0.00     0.274 HD
ATOM     15  H22 UNL     1      -0.982  -0.571   1.629  1.00  0.00     0.274 HD
ATOM     16  H21 UNL     1      -2.031   0.706   1.901  1.00  0.00     0.274 HD
ENDBRANCH   7  13
TORSDOF 1
