REMARK  1 active torsions:
REMARK  status: ('A' for Active; 'I' for Inactive)
REMARK    1  A    between atoms: C1_2  and  C2_4 
ROOT
HETATM    1  C2  UNL     1       0.760  -0.238  -0.211  1.00  0.00     0.049 C 
HETATM    2  C3  UNL     1       0.442  -0.283   1.227  1.00  0.00     0.020 C 
HETATM    3  C4  UNL     1      -0.977  -0.190   1.609  1.00  0.00     0.002 C 
HETATM    4  C5  UNL     1      -1.976  -0.311   0.528  1.00  0.00     0.005 C 
HETATM    5  C6  UNL     1      -1.436   0.130  -0.829  1.00  0.00    -0.013 C 
HETATM    6  C7  UNL     1      -0.758   1.478  -0.682  1.00  0.00     0.006 C 
HETATM    7  C8  UNL     1       0.727   1.191  -0.777  1.00  0.00     0.021 C 
HETATM    8  C9  UNL     1      -0.298  -0.865  -1.103  1.00  0.00     0.025 C 
ENDROOT
BRANCH   1   9
HETATM    9  C1  UNL     1       2.102  -0.793  -0.462  1.00  0.00     0.181 C 
HETATM   10  O1  UNL     1       2.323  -1.785  -1.194  1.00  0.00    -0.647 OA
HETATM   11  O2  UNL     1       3.182  -0.189   0.143  1.00  0.00    -0.647 OA
ENDBRANCH   1   9
TORSDOF 1
