REMARK  2 active torsions:
REMARK  status: ('A' for Active; 'I' for Inactive)
REMARK    1  A    between atoms: N1_1  and  C1_5 
REMARK    2  A    between atoms: C4_8  and  C5_9 
ROOT
HETATM    1  C1  UNL     1      -2.129  -0.754   0.050  1.00  0.00     0.188 C 
HETATM    2  C2  UNL     1      -2.604   0.293  -0.963  1.00  0.00     0.033 C 
HETATM    3  C3  UNL     1      -1.969   1.333  -0.056  1.00  0.00     0.009 C 
HETATM    4  C4  UNL     1      -1.101   0.228   0.511  1.00  0.00     0.020 C 
ENDROOT
BRANCH   4   5
HETATM    5  C5  UNL     1       0.257   0.124  -0.155  1.00  0.00    -0.008 C 
HETATM    6  C6  UNL     1       1.125   1.202   0.463  1.00  0.00     0.005 C 
HETATM    7  C7  UNL     1       2.432   1.151  -0.323  1.00  0.00     0.000 C 
HETATM    8  C8  UNL     1       3.112  -0.118   0.048  1.00  0.00     0.000 C 
HETATM    9  C9  UNL     1       2.307  -1.350  -0.081  1.00  0.00     0.000 C 
HETATM   10  C10 UNL     1       0.847  -1.239  -0.066  1.00  0.00     0.005 C 
ENDBRANCH   4   5
BRANCH   1  11
HETATM   11  N1  UNL     1      -3.145  -0.927   1.089  1.00  0.00    -0.075 N 
ATOM     12  H13 UNL     1      -3.393  -0.044   1.536  1.00  0.00     0.274 HD
ATOM     13  H12 UNL     1      -4.059  -1.156   0.699  1.00  0.00     0.274 HD
ATOM     14  H11 UNL     1      -2.829  -1.624   1.763  1.00  0.00     0.274 HD
ENDBRANCH   1  11
TORSDOF 2
