REMARK  5 active torsions:
REMARK  status: ('A' for Active; 'I' for Inactive)
REMARK    1  A    between atoms: C2_2  and  C3_3 
REMARK    2  A    between atoms: C3_3  and  N1_4 
REMARK    3  A    between atoms: C10_15  and  C12_17 
REMARK    4  A    between atoms: C12_17  and  C13_18 
REMARK    5  A    between atoms: N4_22  and  O1_24 
ROOT
HETATM    1  N1  UNL     1       0.578  -0.198  -0.296  1.00  0.00    -0.276 NA
HETATM    2  C4  UNL     1      -0.549   0.582  -0.709  1.00  0.00     0.155 C 
HETATM    3  C5  UNL     1      -1.769   0.378   0.096  1.00  0.00     0.049 A 
HETATM    4  C6  UNL     1      -1.839  -0.629   1.001  1.00  0.00     0.037 A 
HETATM    5  N2  UNL     1      -3.049  -0.563   1.570  1.00  0.00    -0.335 N 
ATOM      6  H2  UNL     1      -3.394  -1.194   2.293  1.00  0.00     0.168 HD
HETATM    7  C7  UNL     1      -3.738   0.458   1.045  1.00  0.00     0.178 A 
HETATM    8  S1  UNL     1      -5.259   0.952   1.404  1.00  0.00    -0.040 SA
HETATM    9  N3  UNL     1      -2.920   1.039   0.120  1.00  0.00    -0.329 N 
HETATM   10  C8  UNL     1      -3.331   2.203  -0.672  1.00  0.00     0.158 C 
HETATM   11  C9  UNL     1      -0.714  -1.564   1.226  1.00  0.00     0.084 C 
HETATM   12  C10 UNL     1       0.248  -1.536   0.021  1.00  0.00     0.027 C 
HETATM   13  C11 UNL     1      -0.589  -2.083  -1.138  1.00  0.00     0.033 C 
ENDROOT
BRANCH   1  14
HETATM   14  C3  UNL     1       1.397   0.521   0.588  1.00  0.00     0.087 C 
BRANCH  14  15
HETATM   15  C2  UNL     1       2.100   1.625  -0.114  1.00  0.00     0.038 C 
HETATM   16  C1  UNL     1       2.959   2.603   0.643  1.00  0.00     0.071 C 
HETATM   17  N4  UNL     1       2.048   1.817  -1.385  1.00  0.00    -0.273 N 
ATOM     18  H4  UNL     1       1.472   1.169  -1.923  1.00  0.00     0.194 HD
BRANCH  17  19
HETATM   19  O1  UNL     1       2.676   2.786  -2.078  1.00  0.00    -0.290 OA
ATOM     20  H1  UNL     1       2.638   2.928  -3.017  1.00  0.00     0.244 HD
ENDBRANCH  17  19
ENDBRANCH  14  15
ENDBRANCH   1  14
BRANCH  12  21
HETATM   21  C12 UNL     1       1.360  -2.446   0.391  1.00  0.00     0.143 C 
BRANCH  21  22
HETATM   22  C13 UNL     1       2.440  -2.705  -0.583  1.00  0.00     0.389 C 
HETATM   23  F1  UNL     1       1.999  -3.277  -1.787  1.00  0.00    -0.171 F 
HETATM   24  F2  UNL     1       3.341  -1.715  -0.801  1.00  0.00    -0.171 F 
HETATM   25  F3  UNL     1       3.212  -3.764  -0.046  1.00  0.00    -0.171 F 
ENDBRANCH  21  22
ENDBRANCH  12  21
TORSDOF 5
