REMARK  3 active torsions:
REMARK  status: ('A' for Active; 'I' for Inactive)
REMARK    1  A    between atoms: C10_19  and  C11_20 
REMARK    2  A    between atoms: C11_20  and  C12_21 
REMARK    3  A    between atoms: C12_21  and  N3_22 
ROOT
HETATM    1  N1  UNL     1      -0.320   1.537   3.329  1.00  0.00    -0.196 NA
HETATM    2  C1  UNL     1       0.056   1.456   2.227  1.00  0.00     0.073 C 
HETATM    3  C2  UNL     1       0.522   1.376   0.832  1.00  0.00     0.176 C 
HETATM    4  C3  UNL     1      -0.413   2.045  -0.078  1.00  0.00     0.136 C 
HETATM    5  N2  UNL     1      -0.045   3.049  -0.772  1.00  0.00    -0.382 N 
ATOM      6  H21 UNL     1      -0.695   3.514  -1.405  1.00  0.00     0.158 HD
ATOM      7  H22 UNL     1       0.910   3.400  -0.701  1.00  0.00     0.158 HD
HETATM    8  O1  UNL     1      -1.705   1.570  -0.174  1.00  0.00    -0.294 OA
HETATM    9  C4  UNL     1      -1.859   0.195   0.102  1.00  0.00     0.109 A 
HETATM   10  C5  UNL     1      -3.142  -0.313   0.017  1.00  0.00     0.092 A 
HETATM   11 CL1  UNL     1      -4.491   0.718  -0.416  1.00  0.00    -0.079 Cl
HETATM   12  C6  UNL     1      -3.319  -1.658   0.285  1.00  0.00     0.082 A 
HETATM   13 CL2  UNL     1      -4.915  -2.324   0.187  1.00  0.00    -0.081 Cl
HETATM   14  C7  UNL     1      -2.250  -2.477   0.629  1.00  0.00     0.080 A 
HETATM   15 CL3  UNL     1      -2.462  -4.186   0.971  1.00  0.00    -0.081 Cl
HETATM   16  C8  UNL     1      -0.969  -1.969   0.713  1.00  0.00     0.067 A 
HETATM   17 CL4  UNL     1       0.389  -2.992   1.146  1.00  0.00    -0.082 Cl
HETATM   18  C9  UNL     1      -0.797  -0.619   0.443  1.00  0.00     0.007 A 
HETATM   19  C10 UNL     1       0.617  -0.118   0.540  1.00  0.00     0.050 C 
ENDROOT
BRANCH  19  20
HETATM   20  C11 UNL     1       1.333  -0.316  -0.768  1.00  0.00     0.038 C 
BRANCH  20  21
HETATM   21  C12 UNL     1       2.722   0.218  -0.823  1.00  0.00     0.230 C 
BRANCH  21  22
HETATM   22  N3  UNL     1       3.351  -0.030  -2.122  1.00  0.00    -0.079 N 
ATOM     23  H33 UNL     1       3.325  -1.021  -2.364  1.00  0.00     0.274 HD
ATOM     24  H32 UNL     1       2.782   0.336  -2.885  1.00  0.00     0.274 HD
ATOM     25  H31 UNL     1       4.302   0.336  -2.160  1.00  0.00     0.274 HD
ENDBRANCH  21  22
ENDBRANCH  20  21
ENDBRANCH  19  20
TORSDOF 3
