REMARK  4 active torsions:
REMARK  status: ('A' for Active; 'I' for Inactive)
REMARK    1  A    between atoms: C2_2  and  C3_3 
REMARK    2  A    between atoms: C3_3  and  C4_6 
REMARK    3  A    between atoms: N1_7  and  N2_9 
REMARK    4  A    between atoms: N2_9  and  C5_11 
ROOT
HETATM    1  C5  UNL     1       1.187  -1.556   0.114  1.00  0.00     0.699 A 
HETATM    2  N3  UNL     1       1.185  -0.381   0.699  1.00  0.00    -0.174 N 
ATOM      3  H3  UNL     1       0.298   0.026   0.995  1.00  0.00     0.186 HD
HETATM    4  C6  UNL     1       2.351   0.316   0.923  1.00  0.00     0.143 A 
HETATM    5  N4  UNL     1       2.476   1.476   1.486  1.00  0.00    -0.326 N 
ATOM      6  H4  UNL     1       1.650   1.973   1.819  1.00  0.00     0.169 HD
HETATM    7  C7  UNL     1       3.675   2.015   1.628  1.00  0.00     0.148 A 
HETATM    8 CL3  UNL     1       4.061   3.580   2.365  1.00  0.00    -0.056 Cl
HETATM    9  S1  UNL     1       4.689   0.830   0.932  1.00  0.00    -0.053 SA
HETATM   10  C8  UNL     1       3.490  -0.312   0.490  1.00  0.00     0.091 A 
HETATM   11  C9  UNL     1       3.462  -1.570  -0.132  1.00  0.00     0.140 A 
HETATM   12 CL4  UNL     1       4.980  -2.239  -0.625  1.00  0.00    -0.062 Cl
HETATM   13  N5  UNL     1       2.288  -2.220  -0.332  1.00  0.00    -0.178 N 
ATOM     14  H5  UNL     1       2.235  -3.134  -0.781  1.00  0.00     0.185 HD
ENDROOT
BRANCH   1  15
HETATM   15  N2  UNL     1       0.076  -2.179  -0.079  1.00  0.00    -0.132 N 
ATOM     16  H2  UNL     1       0.060  -3.093  -0.532  1.00  0.00     0.205 HD
BRANCH  15  17
HETATM   17  N1  UNL     1      -1.102  -1.572   0.348  1.00  0.00    -0.298 N 
HETATM   18  C4  UNL     1      -1.477  -0.424  -0.081  1.00  0.00     0.122 C 
ATOM     19  H1  UNL     1      -1.688  -2.059   1.027  1.00  0.00     0.186 HD
BRANCH  18  20
HETATM   20  C3  UNL     1      -2.764   0.110   0.461  1.00  0.00     0.146 C 
HETATM   21 CL1  UNL     1      -2.542   0.590   2.138  1.00  0.00    -0.096 Cl
HETATM   22 CL2  UNL     1      -3.951  -1.208   0.361  1.00  0.00    -0.096 Cl
BRANCH  20  23
HETATM   23  C2  UNL     1      -3.206   1.271  -0.390  1.00  0.00     0.043 C 
HETATM   24  C1  UNL     1      -3.375   0.772  -1.826  1.00  0.00     0.009 C 
ENDBRANCH  20  23
ENDBRANCH  18  20
ENDBRANCH  15  17
ENDBRANCH   1  15
TORSDOF 4
