REMARK  3 active torsions:
REMARK  status: ('A' for Active; 'I' for Inactive)
REMARK    1  A    between atoms: C6_10  and  O3_11 
REMARK    2  A    between atoms: O3_11  and  C7_12 
REMARK    3  A    between atoms: C7_12  and  C8_13 
ROOT
HETATM    1  O1  UNL     1      -3.749   4.036   0.139  1.00  0.00    -0.251 OA
HETATM    2  C1  UNL     1      -3.228   2.867   0.232  1.00  0.00     0.332 A 
HETATM    3  O2  UNL     1      -3.869   1.769   0.404  1.00  0.00    -0.268 OA
HETATM    4  C2  UNL     1      -3.266   0.663   0.484  1.00  0.00     0.101 A 
HETATM    5  C3  UNL     1      -3.859  -0.606   0.672  1.00  0.00     0.064 A 
HETATM    6  C4  UNL     1      -3.104  -1.748   0.745  1.00  0.00     0.061 A 
HETATM    7 CL1  UNL     1      -3.899  -3.297   0.980  1.00  0.00    -0.082 Cl
HETATM    8  C5  UNL     1      -1.730  -1.707   0.637  1.00  0.00     0.090 A 
HETATM    9 CL2  UNL     1      -0.726  -3.139   0.723  1.00  0.00    -0.079 Cl
HETATM   10  C6  UNL     1      -1.110  -0.489   0.452  1.00  0.00     0.112 A 
HETATM   11  C12 UNL     1      -1.901   0.666   0.381  1.00  0.00     0.079 A 
HETATM   12  S1  UNL     1      -1.605   2.342   0.169  1.00  0.00    -0.016 SA
ENDROOT
BRANCH  10  13
HETATM   13  O3  UNL     1       0.239  -0.317   0.331  1.00  0.00    -0.343 OA
BRANCH  13  14
HETATM   14  C7  UNL     1       0.954  -0.344  -0.878  1.00  0.00     0.219 C 
BRANCH  14  15
HETATM   15  C8  UNL     1       2.399  -0.122  -0.634  1.00  0.00     0.026 A 
HETATM   16  C9  UNL     1       2.975   0.084   0.598  1.00  0.00     0.075 A 
HETATM   17  C10 UNL     1       4.354   0.256   0.439  1.00  0.00     0.191 A 
HETATM   18  F1  UNL     1       5.212   0.478   1.458  1.00  0.00    -0.186 F 
HETATM   19  N1  UNL     1       4.601   0.154  -0.882  1.00  0.00    -0.309 N 
HETATM   20  C11 UNL     1       3.439  -0.072  -1.535  1.00  0.00     0.199 A 
ATOM     21  H1  UNL     1       5.519   0.235  -1.320  1.00  0.00     0.170 HD
HETATM   22  F2  UNL     1       3.358  -0.220  -2.868  1.00  0.00    -0.185 F 
ENDBRANCH  14  15
ENDBRANCH  13  14
ENDBRANCH  10  13
TORSDOF 3
