REMARK  3 active torsions:
REMARK  status: ('A' for Active; 'I' for Inactive)
REMARK    1  A    between atoms: C2_2  and  O1_5 
REMARK    2  A    between atoms: O1_5  and  N1_6 
REMARK    3  A    between atoms: N2_13  and  O3_14 
ROOT
HETATM    1  N1  UNL     1      -0.225  -0.332   1.140  1.00  0.00    -0.245 N 
ATOM      2  H1  UNL     1      -0.144  -1.022   1.886  1.00  0.00     0.196 HD
HETATM    3  C4  UNL     1      -1.362  -0.261   0.580  1.00  0.00     0.143 C 
HETATM    4  C5  UNL     1      -2.480  -1.138   1.005  1.00  0.00     0.165 C 
HETATM    5  S1  UNL     1      -3.324  -1.377  -0.609  1.00  0.00    -0.059 SA
HETATM    6  C6  UNL     1      -2.565   0.035  -1.439  1.00  0.00     0.311 C 
HETATM    7  O2  UNL     1      -2.802   0.361  -2.633  1.00  0.00    -0.258 OA
HETATM    8  N2  UNL     1      -1.708   0.619  -0.470  1.00  0.00    -0.167 N 
ENDROOT
BRANCH   1   9
HETATM    9  O1  UNL     1       0.882   0.376   0.884  1.00  0.00    -0.239 OA
BRANCH   9  10
HETATM   10  C2  UNL     1       2.031   0.012   0.276  1.00  0.00     0.099 C 
HETATM   11  C1  UNL     1       2.715   0.982  -0.607  1.00  0.00     0.081 C 
HETATM   12  C3  UNL     1       2.566  -1.175   0.440  1.00  0.00     0.222 C 
HETATM   13  F1  UNL     1       1.934  -2.077   1.259  1.00  0.00    -0.217 F 
ENDBRANCH   9  10
ENDBRANCH   1   9
BRANCH   8  14
HETATM   14  O3  UNL     1      -1.300   1.927  -0.624  1.00  0.00    -0.278 OA
ATOM     15  H3  UNL     1      -1.533   2.519  -1.330  1.00  0.00     0.245 HD
ENDBRANCH   8  14
TORSDOF 3
