REMARK  15 active torsions:
REMARK  status: ('A' for Active; 'I' for Inactive)
REMARK    1  A    between atoms: C2_2  and  C3_3 
REMARK    2  A    between atoms: C3_3  and  O1_4 
REMARK    3  A    between atoms: C3_3  and  C4_6 
REMARK    4  A    between atoms: C4_6  and  N1_7 
REMARK    5  A    between atoms: C4_6  and  C6_11 
REMARK    6  A    between atoms: N1_7  and  C5_9 
REMARK    7  A    between atoms: C6_11  and  C7_13 
REMARK    8  A    between atoms: C7_13  and  O4_14 
REMARK    9  A    between atoms: O4_14  and  C8_15 
REMARK   10  A    between atoms: C10_19  and  C11_20 
REMARK   11  A    between atoms: C11_20  and  N3_22 
REMARK       I    between atoms: N3_22  and  C13_24 
REMARK   12  A    between atoms: C13_24  and  C14_26 
REMARK   13  A    between atoms: C14_26  and  N4_27 
REMARK   14  A    between atoms: C14_26  and  C15_31 
REMARK   15  A    between atoms: C15_31  and  S1_32 
ROOT
HETATM    1  C8  UNL     1      -0.436   0.276  -0.009  1.00  0.00     0.270 A 
HETATM    2  N2  UNL     1       0.470   0.858   0.812  1.00  0.00    -0.324 N 
ATOM      3  H2  UNL     1       0.316   1.696   1.372  1.00  0.00     0.169 HD
HETATM    4  C9  UNL     1       1.606   0.143   0.763  1.00  0.00     0.127 A 
HETATM    5  C10 UNL     1       1.392  -0.904  -0.109  1.00  0.00     0.095 A 
HETATM    6  O6  UNL     1       0.167  -0.764  -0.527  1.00  0.00    -0.275 OA
ENDROOT
BRANCH   1   7
HETATM    7  O4  UNL     1      -1.741   0.722  -0.233  1.00  0.00    -0.309 OA
BRANCH   7   8
HETATM    8  C7  UNL     1      -2.537   0.003  -1.108  1.00  0.00     0.260 C 
BRANCH   8   9
HETATM    9  C6  UNL     1      -3.910   0.504  -1.317  1.00  0.00     0.175 C 
HETATM   10  O3  UNL     1      -4.524  -0.155  -2.190  1.00  0.00    -0.293 OA
BRANCH   9  11
HETATM   11  C4  UNL     1      -4.553   1.631  -0.630  1.00  0.00     0.184 C 
BRANCH  11  12
HETATM   12  C3  UNL     1      -4.824   1.435   0.837  1.00  0.00     0.148 C 
BRANCH  12  13
HETATM   13  C2  UNL     1      -5.927   0.481   1.156  1.00  0.00     0.029 C 
HETATM   14  C1  UNL     1      -5.609  -0.967   0.945  1.00  0.00     0.007 C 
ENDBRANCH  12  13
BRANCH  12  15
HETATM   15  O1  UNL     1      -3.745   1.159   1.626  1.00  0.00    -0.393 OA
ATOM     16  H1  UNL     1      -3.043   1.766   1.423  1.00  0.00     0.210 HD
ENDBRANCH  12  15
ENDBRANCH  11  12
BRANCH  11  17
HETATM   17  N1  UNL     1      -5.870   1.914  -1.230  1.00  0.00    -0.354 N 
ATOM     18  H1  UNL     1      -6.581   1.183  -1.207  1.00  0.00     0.162 HD
BRANCH  17  19
HETATM   19  C5  UNL     1      -6.194   3.146  -1.834  1.00  0.00     0.349 C 
HETATM   20  O2  UNL     1      -5.304   4.046  -1.859  1.00  0.00    -0.284 OA
ENDBRANCH  17  19
ENDBRANCH  11  17
ENDBRANCH   9  11
ENDBRANCH   8   9
ENDBRANCH   7   8
ENDBRANCH   1   7
BRANCH   5  21
HETATM   21  C11 UNL     1       2.364  -1.974  -0.493  1.00  0.00     0.139 C 
HETATM   22  C12 UNL     1       1.870  -2.729  -1.702  1.00  0.00     0.039 C 
BRANCH  21  23
HETATM   23  N3  UNL     1       3.665  -1.432  -0.773  1.00  0.00    -0.349 N 
HETATM   24  C13 UNL     1       4.791  -1.751   0.013  1.00  0.00     0.249 C 
HETATM   25  O5  UNL     1       4.620  -2.548   0.991  1.00  0.00    -0.271 OA
ATOM     26  H3  UNL     1       3.777  -0.798  -1.564  1.00  0.00     0.163 HD
BRANCH  24  27
HETATM   27  C14 UNL     1       6.164  -1.258  -0.177  1.00  0.00     0.283 C 
BRANCH  27  28
HETATM   28  N4  UNL     1       6.276  -0.375  -1.287  1.00  0.00    -0.066 N 
ATOM     29  H43 UNL     1       5.920  -0.809  -2.139  1.00  0.00     0.275 HD
ATOM     30  H42 UNL     1       5.616   0.398  -1.209  1.00  0.00     0.275 HD
ATOM     31  H41 UNL     1       7.228  -0.033  -1.419  1.00  0.00     0.275 HD
ENDBRANCH  27  28
BRANCH  27  32
HETATM   32  C15 UNL     1       6.739  -0.672   1.090  1.00  0.00     0.116 C 
BRANCH  32  33
HETATM   33  S1  UNL     1       5.722   0.710   1.641  1.00  0.00    -0.171 SA
HETATM   34  C16 UNL     1       5.821   2.093   0.495  1.00  0.00     0.089 C 
ENDBRANCH  32  33
ENDBRANCH  27  32
ENDBRANCH  24  27
ENDBRANCH  21  23
ENDBRANCH   5  21
TORSDOF 15
