REMARK  1 active torsions:
REMARK  status: ('A' for Active; 'I' for Inactive)
REMARK    1  A    between atoms: N1_1  and  C1_4 
ROOT
HETATM    1  C1  UNL     1       2.200  -0.488   0.073  1.00  0.00     0.692 A 
HETATM    2  N2  UNL     1       1.202  -1.388   0.115  1.00  0.00    -0.168 N 
ATOM      3  H2  UNL     1       1.333  -2.397   0.185  1.00  0.00     0.186 HD
HETATM    4  C2  UNL     1       0.007  -0.773   0.052  1.00  0.00     0.217 A 
HETATM    5  C3  UNL     1      -1.308  -1.188   0.056  1.00  0.00     0.306 A 
HETATM    6  O1  UNL     1      -1.587  -2.409   0.133  1.00  0.00    -0.262 OA
HETATM    7  N3  UNL     1      -2.344  -0.319  -0.021  1.00  0.00    -0.259 N 
ATOM      8  H3  UNL     1      -3.313  -0.639  -0.017  1.00  0.00     0.190 HD
HETATM    9  N4  UNL     1      -2.038   0.963  -0.102  1.00  0.00    -0.247 N 
ATOM     10  H4  UNL     1      -2.792   1.647  -0.162  1.00  0.00     0.192 HD
HETATM   11  C4  UNL     1      -0.753   1.401  -0.108  1.00  0.00     0.362 A 
HETATM   12  O2  UNL     1      -0.498   2.627  -0.185  1.00  0.00    -0.243 OA
HETATM   13  N5  UNL     1       0.282   0.540  -0.031  1.00  0.00    -0.167 N 
HETATM   14  N6  UNL     1       1.611   0.705  -0.018  1.00  0.00    -0.120 N 
ATOM     15  H6  UNL     1       2.096   1.601  -0.070  1.00  0.00     0.206 HD
ENDROOT
BRANCH   1  16
HETATM   16  N1  UNL     1       3.480  -0.692   0.110  1.00  0.00    -0.233 N 
ATOM     17  H12 UNL     1       3.930  -1.604   0.180  1.00  0.00     0.174 HD
ATOM     18  H11 UNL     1       4.237  -0.009   0.078  1.00  0.00     0.174 HD
ENDBRANCH   1  16
TORSDOF 1
