REMARK  20 active torsions:
REMARK  status: ('A' for Active; 'I' for Inactive)
REMARK    1  A    between atoms: C2_2  and  C4_4 
REMARK    2  A    between atoms: C4_4  and  N1_5 
REMARK    3  A    between atoms: C4_4  and  C6_13 
REMARK    4  A    between atoms: N1_5  and  C5_8 
REMARK    5  A    between atoms: C5_8  and  O1_9 
REMARK    6  A    between atoms: C5_8  and  O2_11 
REMARK    7  A    between atoms: C6_13  and  O4_15 
REMARK    8  A    between atoms: O4_15  and  C7_16 
REMARK    9  A    between atoms: C7_16  and  C8_17 
REMARK   10  A    between atoms: C7_16  and  C9_20 
REMARK   11  A    between atoms: C8_17  and  O5_18 
REMARK   12  A    between atoms: C9_20  and  C10_22 
REMARK   13  A    between atoms: N2_24  and  C12_25 
REMARK   14  A    between atoms: C15_30  and  O7_31 
REMARK   15  A    between atoms: C16_33  and  C17_34 
REMARK   16  A    between atoms: C17_34  and  O8_35 
REMARK   17  A    between atoms: C25_47  and  O11_48 
REMARK   18  A    between atoms: C26_50  and  O12_51 
REMARK   19  A    between atoms: C27_53  and  C28_54 
REMARK   20  A    between atoms: C28_54  and  O13_55 
ROOT
HETATM    1  C12 UNL     1       0.658  -0.412   1.306  1.00  0.00     0.140 A 
HETATM    2  N3  UNL     1       1.888  -0.182   0.867  1.00  0.00    -0.338 N 
ATOM      3  H3  UNL     1       2.038   0.563   0.187  1.00  0.00     0.167 HD
HETATM    4  C13 UNL     1       2.953  -0.906   1.294  1.00  0.00     0.080 A 
HETATM    5  C14 UNL     1       2.779  -1.907   2.206  1.00  0.00     0.095 A 
HETATM    6  C15 UNL     1       1.527  -2.187   2.697  1.00  0.00     0.096 A 
HETATM    7  C16 UNL     1       0.454  -1.415   2.227  1.00  0.00     0.045 A 
HETATM    8  C18 UNL     1       4.111  -2.472   2.431  1.00  0.00     0.270 A 
HETATM    9  O9  UNL     1       4.325  -3.440   3.236  1.00  0.00    -0.266 OA
HETATM   10  N4  UNL     1       5.071  -1.791   1.640  1.00  0.00    -0.241 N 
HETATM   11  C19 UNL     1       4.388  -0.837   0.943  1.00  0.00     0.076 A 
HETATM   12  C20 UNL     1       5.053  -0.010   0.081  1.00  0.00     0.062 A 
HETATM   13  C21 UNL     1       6.416  -0.177  -0.052  1.00  0.00     0.042 A 
HETATM   14  C22 UNL     1       7.107  -1.150   0.656  1.00  0.00     0.039 A 
HETATM   15  C23 UNL     1       6.397  -1.954   1.508  1.00  0.00     0.263 A 
HETATM   16  O10 UNL     1       6.979  -2.842   2.167  1.00  0.00    -0.267 OA
HETATM   17  C24 UNL     1       8.584  -1.461   0.599  1.00  0.00     0.081 C 
HETATM   18  C25 UNL     1       8.977  -1.232  -0.845  1.00  0.00     0.153 C 
HETATM   19  C26 UNL     1       9.407   0.157  -1.154  1.00  0.00     0.171 C 
HETATM   20  C27 UNL     1       8.364   1.214  -0.966  1.00  0.00     0.136 C 
HETATM   21  N5  UNL     1       7.013   0.754  -0.945  1.00  0.00    -0.380 N 
ATOM     22  H5  UNL     1       6.399   1.142  -1.661  1.00  0.00     0.160 HD
ENDROOT
BRANCH   1  23
HETATM   23  N2  UNL     1      -0.462   0.342   0.851  1.00  0.00    -0.234 N 
HETATM   24  C11 UNL     1      -1.355  -0.026  -0.087  1.00  0.00     0.154 A 
HETATM   25  C10 UNL     1      -2.320   0.962  -0.188  1.00  0.00     0.115 A 
HETATM   26  N7  UNL     1      -1.968   1.905   0.698  1.00  0.00    -0.281 N 
HETATM   27  N6  UNL     1      -0.878   1.516   1.290  1.00  0.00    -0.234 N 
ATOM     28  H7  UNL     1      -2.468   2.776   0.876  1.00  0.00     0.188 HD
ATOM     29  H6  UNL     1      -0.399   2.056   2.011  1.00  0.00     0.209 HD
BRANCH  25  30
HETATM   30  C9  UNL     1      -3.518   0.911  -1.038  1.00  0.00     0.210 C 
HETATM   31  O6  UNL     1      -3.641  -0.080  -1.821  1.00  0.00    -0.288 OA
BRANCH  30  32
HETATM   32  C7  UNL     1      -4.596   1.918  -1.038  1.00  0.00     0.231 C 
BRANCH  32  33
HETATM   33  O4  UNL     1      -5.768   1.332  -1.639  1.00  0.00    -0.304 OA
BRANCH  33  34
HETATM   34  C6  UNL     1      -6.905   1.138  -0.878  1.00  0.00     0.291 C 
HETATM   35  O3  UNL     1      -6.829   1.528   0.325  1.00  0.00    -0.263 OA
BRANCH  34  36
HETATM   36  C4  UNL     1      -8.157   0.517  -1.369  1.00  0.00     0.293 C 
BRANCH  36  37
HETATM   37  C2  UNL     1      -7.855  -0.947  -1.631  1.00  0.00     0.018 C 
HETATM   38  C1  UNL     1      -6.954  -1.197  -2.790  1.00  0.00     0.012 C 
HETATM   39  C3  UNL     1      -9.121  -1.746  -1.762  1.00  0.00     0.012 C 
ENDBRANCH  36  37
BRANCH  36  40
HETATM   40  N1  UNL     1      -9.064   0.515  -0.211  1.00  0.00    -0.011 N 
ATOM     41  H12 UNL     1      -9.488  -0.400  -0.062  1.00  0.00     0.284 HD
ATOM     42  H11 UNL     1      -8.556   0.591   0.670  1.00  0.00     0.284 HD
BRANCH  40  43
HETATM   43  C5  UNL     1     -10.063   1.558  -0.352  1.00  0.00     0.465 C 
BRANCH  43  44
HETATM   44  O1  UNL     1     -10.919   1.538   0.755  1.00  0.00    -0.350 OA
ATOM     45  H1  UNL     1     -11.573   2.221   0.663  1.00  0.00     0.214 HD
ENDBRANCH  43  44
BRANCH  43  46
HETATM   46  O2  UNL     1      -9.439   2.811  -0.448  1.00  0.00    -0.350 OA
ATOM     47  H2  UNL     1     -10.093   3.494  -0.540  1.00  0.00     0.214 HD
ENDBRANCH  43  46
ENDBRANCH  40  43
ENDBRANCH  36  40
ENDBRANCH  34  36
ENDBRANCH  33  34
ENDBRANCH  32  33
BRANCH  32  48
HETATM   48  C8  UNL     1      -4.276   3.187  -1.760  1.00  0.00     0.205 C 
BRANCH  48  49
HETATM   49  O5  UNL     1      -3.192   3.888  -1.320  1.00  0.00    -0.398 OA
ATOM     50  H5  UNL     1      -2.989   4.695  -1.779  1.00  0.00     0.209 HD
ENDBRANCH  48  49
ENDBRANCH  32  48
ENDBRANCH  30  32
ENDBRANCH  25  30
ENDBRANCH   1  23
BRANCH   7  51
HETATM   51  C17 UNL     1      -0.929  -1.632   2.691  1.00  0.00     0.209 C 
BRANCH  51  52
HETATM   52  O8  UNL     1      -0.929  -2.674   3.616  1.00  0.00    -0.396 OA
ATOM     53  H8  UNL     1      -1.820  -2.814   3.915  1.00  0.00     0.209 HD
ENDBRANCH  51  52
ENDBRANCH   7  51
BRANCH   6  54
HETATM   54  O7  UNL     1       1.283  -3.180   3.622  1.00  0.00    -0.359 OA
ATOM     55  H7  UNL     1       0.417  -3.374   3.962  1.00  0.00     0.217 HD
ENDBRANCH   6  54
BRANCH  20  56
HETATM   56  C28 UNL     1       8.501   2.331  -1.992  1.00  0.00     0.191 C 
BRANCH  56  57
HETATM   57  O13 UNL     1       9.852   2.743  -1.966  1.00  0.00    -0.399 OA
ATOM     58  H13 UNL     1       9.937   3.440  -2.606  1.00  0.00     0.209 HD
ENDBRANCH  56  57
ENDBRANCH  20  56
BRANCH  18  59
HETATM   59  O11 UNL     1      10.027  -2.100  -1.215  1.00  0.00    -0.393 OA
ATOM     60  H11 UNL     1      10.274  -1.956  -2.121  1.00  0.00     0.210 HD
ENDBRANCH  18  59
BRANCH  19  61
HETATM   61  O12 UNL     1      10.614   0.474  -0.498  1.00  0.00    -0.391 OA
ATOM     62  H12 UNL     1      10.889   1.362  -0.695  1.00  0.00     0.210 HD
ENDBRANCH  19  61
TORSDOF 20
