REMARK  7 active torsions:
REMARK  status: ('A' for Active; 'I' for Inactive)
REMARK    1  A    between atoms: C2_2  and  C3_4 
REMARK    2  A    between atoms: C3_4  and  N1_5 
REMARK    3  A    between atoms: C14_17  and  N3_18 
REMARK    4  A    between atoms: C15_20  and  C16_21 
REMARK    5  A    between atoms: C16_21  and  C17_22 
REMARK    6  A    between atoms: C20_25  and  S1_26 
REMARK    7  A    between atoms: S1_26  and  N4_27 
ROOT
HETATM    1  N1  UNL     1      -3.220   1.174   0.168  1.00  0.00    -0.333 N 
HETATM    2  C4  UNL     1      -2.859   0.584   1.259  1.00  0.00     0.288 A 
HETATM    3  C5  UNL     1      -1.293   0.323   1.362  1.00  0.00     0.267 A 
HETATM    4  C6  UNL     1       0.002   0.147   1.317  1.00  0.00    -0.002 A 
HETATM    5  C7  UNL     1       0.716  -0.992   1.844  1.00  0.00     0.066 C 
HETATM    6  C8  UNL     1       0.461  -2.139   0.942  1.00  0.00    -0.022 C 
HETATM    7  C9  UNL     1      -0.017  -2.225  -0.332  1.00  0.00     0.000 C 
HETATM    8  C10 UNL     1      -1.192  -1.769  -1.012  1.00  0.00     0.057 C 
HETATM    9  C11 UNL     1      -2.332  -1.274  -0.358  1.00  0.00     0.221 C 
HETATM   10  N2  UNL     1      -2.159  -0.686   0.755  1.00  0.00     0.069 N 
HETATM   11  C12 UNL     1      -1.981   1.034   0.144  1.00  0.00     0.289 A 
HETATM   12  C13 UNL     1      -0.900   0.911   0.124  1.00  0.00     0.055 A 
HETATM   13  C14 UNL     1       0.416   0.667   0.247  1.00  0.00     0.047 A 
HETATM   14  N5  UNL     1      -3.734  -1.440  -0.714  1.00  0.00    -0.297 N 
HETATM   15  C23 UNL     1      -3.957  -1.731  -2.125  1.00  0.00     0.161 C 
HETATM   16  C24 UNL     1      -4.839  -1.367   0.253  1.00  0.00     0.259 C 
HETATM   17  O3  UNL     1      -5.974  -1.630  -0.182  1.00  0.00    -0.267 OA
HETATM   18  C25 UNL     1      -4.723  -1.012   1.687  1.00  0.00     0.043 A 
HETATM   19  C26 UNL     1      -5.469  -1.619   2.625  1.00  0.00     0.018 A 
HETATM   20  C27 UNL     1      -5.320  -1.350   3.993  1.00  0.00     0.001 A 
HETATM   21  C28 UNL     1      -4.385  -0.434   4.438  1.00  0.00     0.001 A 
HETATM   22  C29 UNL     1      -3.603   0.212   3.509  1.00  0.00     0.013 A 
HETATM   23  C30 UNL     1      -3.762  -0.060   2.190  1.00  0.00     0.018 A 
ENDROOT
BRANCH  13  24
HETATM   24  N3  UNL     1       1.175   1.185  -0.783  1.00  0.00    -0.369 N 
HETATM   25  C15 UNL     1       2.537   1.252  -0.773  1.00  0.00     0.066 C 
ATOM     26  H3  UNL     1       0.686   1.540  -1.604  1.00  0.00     0.165 HD
BRANCH  25  27
HETATM   27  C16 UNL     1       3.175  -0.079  -1.094  1.00  0.00     0.083 C 
BRANCH  27  28
HETATM   28  C17 UNL     1       4.655  -0.041  -1.132  1.00  0.00    -0.053 A 
HETATM   29  C18 UNL     1       5.356   0.146  -2.283  1.00  0.00     0.009 A 
HETATM   30  C19 UNL     1       6.760   0.179  -2.301  1.00  0.00     0.026 A 
HETATM   31  C20 UNL     1       7.417   0.010  -1.083  1.00  0.00     0.079 A 
HETATM   32  C21 UNL     1       6.731  -0.179   0.082  1.00  0.00     0.026 A 
HETATM   33  C22 UNL     1       5.342  -0.204   0.051  1.00  0.00     0.009 A 
BRANCH  31  34
HETATM   34  S1  UNL     1       9.175   0.039  -0.981  1.00  0.00     0.256 S 
HETATM   35  O1  UNL     1       9.617   0.457   0.394  1.00  0.00    -0.201 OA
HETATM   36  O2  UNL     1       9.771   1.014  -1.946  1.00  0.00    -0.201 OA
BRANCH  34  37
HETATM   37  N4  UNL     1       9.813  -1.514  -1.284  1.00  0.00    -0.324 N 
ATOM     38  H42 UNL     1       9.243  -2.334  -1.493  1.00  0.00     0.169 HD
ATOM     39  H41 UNL     1      10.831  -1.497  -1.225  1.00  0.00     0.169 HD
ENDBRANCH  34  37
ENDBRANCH  31  34
ENDBRANCH  27  28
ENDBRANCH  25  27
ENDBRANCH  13  24
BRANCH   1  40
HETATM   40  C3  UNL     1      -4.158   1.852  -0.792  1.00  0.00     0.138 C 
BRANCH  40  41
HETATM   41  C2  UNL     1      -4.186   3.341  -0.537  1.00  0.00     0.071 C 
HETATM   42  C1  UNL     1      -5.083   4.086  -1.454  1.00  0.00     0.023 C 
HETATM   43 BR1  UNL     1      -2.388   4.008  -0.717  1.00  0.00    -0.090 Br
ENDBRANCH  40  41
ENDBRANCH   1  40
TORSDOF 7
