REMARK  7 active torsions:
REMARK  status: ('A' for Active; 'I' for Inactive)
REMARK    1  A    between atoms: N1_1  and  S1_4 
REMARK    2  A    between atoms: S1_4  and  C1_7 
REMARK    3  A    between atoms: C6_12  and  C7_13 
REMARK    4  A    between atoms: N2_25  and  C18_26 
REMARK    5  A    between atoms: C18_26  and  C19_27 
REMARK    6  A    between atoms: C19_27  and  C20_28 
REMARK    7  A    between atoms: C19_27  and  C26_34 
ROOT
HETATM    1  C7  UNL     1       4.201   0.273   0.270  1.00  0.00    -0.013 A 
HETATM    2  C8  UNL     1       3.579   1.460   0.586  1.00  0.00     0.014 A 
HETATM    3  C9  UNL     1       2.212   1.608   0.322  1.00  0.00     0.019 A 
HETATM    4  C10 UNL     1       1.476   0.594  -0.244  1.00  0.00     0.044 A 
HETATM    5  C11 UNL     1       2.073  -0.606  -0.569  1.00  0.00     0.006 A 
HETATM    6  C12 UNL     1       1.325  -1.625  -1.146  1.00  0.00     0.044 A 
HETATM    7  C13 UNL     1       1.926  -2.810  -1.471  1.00  0.00     0.018 A 
HETATM    8  C14 UNL     1       3.268  -2.971  -1.221  1.00  0.00     0.002 A 
HETATM    9  C15 UNL     1       4.003  -1.945  -0.645  1.00  0.00     0.013 A 
HETATM   10  C16 UNL     1       3.424  -0.743  -0.306  1.00  0.00    -0.013 A 
HETATM   11  C17 UNL     1      -0.113  -1.411  -1.403  1.00  0.00     0.261 A 
HETATM   12  O3  UNL     1      -0.705  -2.361  -1.922  1.00  0.00    -0.267 OA
HETATM   13  N2  UNL     1      -0.774  -0.222  -1.093  1.00  0.00    -0.276 N 
HETATM   14  C34 UNL     1       0.060   0.811  -0.493  1.00  0.00     0.261 A 
HETATM   15  O5  UNL     1      -0.489   1.896  -0.200  1.00  0.00    -0.267 OA
ENDROOT
BRANCH  13  16
HETATM   16  C18 UNL     1      -2.175   0.003  -1.283  1.00  0.00     0.176 C 
BRANCH  16  17
HETATM   17  C19 UNL     1      -3.083  -0.168  -0.150  1.00  0.00    -0.016 C 
BRANCH  17  18
HETATM   18  C20 UNL     1      -3.297  -1.387   0.568  1.00  0.00    -0.027 A 
HETATM   19  C21 UNL     1      -3.384  -1.281   1.976  1.00  0.00     0.012 A 
HETATM   20  C22 UNL     1      -3.606  -2.353   2.796  1.00  0.00     0.001 A 
HETATM   21  C23 UNL     1      -3.760  -3.617   2.281  1.00  0.00     0.000 A 
HETATM   22  C24 UNL     1      -3.675  -3.722   0.911  1.00  0.00     0.001 A 
HETATM   23  C25 UNL     1      -3.452  -2.649   0.098  1.00  0.00     0.012 A 
ENDBRANCH  17  18
BRANCH  17  24
HETATM   24  C26 UNL     1      -4.425   0.499  -0.374  1.00  0.00     0.012 A 
HETATM   25  C27 UNL     1      -4.853   1.514   0.482  1.00  0.00     0.025 A 
HETATM   26  C28 UNL     1      -6.069   2.166   0.354  1.00  0.00    -0.024 A 
HETATM   27  C29 UNL     1      -6.873   1.765  -0.684  1.00  0.00     0.042 A 
HETATM   28  C33 UNL     1      -6.722   3.257   1.131  1.00  0.00     0.162 A 
HETATM   29  C30 UNL     1      -6.462   0.759  -1.541  1.00  0.00     0.060 A 
HETATM   30  C32 UNL     1      -8.087   2.582  -0.621  1.00  0.00     0.252 A 
HETATM   31  C31 UNL     1      -5.237   0.105  -1.410  1.00  0.00     0.128 A 
HETATM   32  F1  UNL     1      -4.900  -0.863  -2.294  1.00  0.00    -0.205 F 
HETATM   33  O4  UNL     1      -9.057   2.503  -1.409  1.00  0.00    -0.268 OA
HETATM   34  N3  UNL     1      -7.983   3.469   0.471  1.00  0.00    -0.353 N 
ATOM     35  H3  UNL     1      -8.689   4.151   0.748  1.00  0.00     0.163 HD
ENDBRANCH  17  24
ENDBRANCH  16  17
ENDBRANCH  13  16
BRANCH   1  36
HETATM   36  C6  UNL     1       5.600   0.062   0.618  1.00  0.00    -0.002 A 
HETATM   37  C1  UNL     1       6.672   0.680   0.076  1.00  0.00     0.090 A 
HETATM   38  C2  UNL     1       7.961   0.429   0.584  1.00  0.00     0.026 A 
HETATM   39  C3  UNL     1       8.188  -0.435   1.628  1.00  0.00     0.002 A 
HETATM   40  C4  UNL     1       7.089  -1.067   2.181  1.00  0.00     0.001 A 
HETATM   41  C5  UNL     1       5.831  -0.822   1.686  1.00  0.00     0.014 A 
BRANCH  37  42
HETATM   42  S1  UNL     1       6.485   1.738  -1.294  1.00  0.00     0.257 S 
HETATM   43  O1  UNL     1       5.816   3.009  -0.873  1.00  0.00    -0.201 OA
HETATM   44  O2  UNL     1       5.816   1.075  -2.454  1.00  0.00    -0.201 OA
BRANCH  42  45
HETATM   45  N1  UNL     1       8.066   2.248  -1.858  1.00  0.00    -0.324 N 
ATOM     46  H12 UNL     1       8.432   3.200  -1.886  1.00  0.00     0.169 HD
ATOM     47  H11 UNL     1       8.522   1.382  -2.145  1.00  0.00     0.169 HD
ENDBRANCH  42  45
ENDBRANCH  37  42
ENDBRANCH   1  36
TORSDOF 7
