REMARK  11 active torsions:
REMARK  status: ('A' for Active; 'I' for Inactive)
REMARK    1  A    between atoms: S1_2  and  C2_5 
REMARK    2  A    between atoms: C2_5  and  N1_6 
REMARK    3  A    between atoms: C2_5  and  C3_10 
REMARK    4  A    between atoms: C3_10  and  N2_11 
REMARK    5  A    between atoms: C3_10  and  C4_15 
REMARK    6  A    between atoms: C4_15  and  O3_16 
REMARK    7  A    between atoms: C4_15  and  C5_18 
REMARK    8  A    between atoms: C5_18  and  C6_19 
REMARK    9  A    between atoms: N3_20  and  O4_22 
REMARK   10  A    between atoms: N4_24  and  N5_26 
REMARK       I    between atoms: N5_26  and  C7_28 
REMARK   11  A    between atoms: C7_28  and  C8_30 
ROOT
HETATM    1  C8  UNL     1      -3.857  -0.236   0.266  1.00  0.00     0.054 A 
HETATM    2  C9  UNL     1      -4.433  -0.163   1.542  1.00  0.00     0.018 A 
HETATM    3  C10 UNL     1      -5.413   0.749   1.855  1.00  0.00     0.001 A 
HETATM    4  C11 UNL     1      -5.861   1.632   0.903  1.00  0.00     0.002 A 
HETATM    5  C12 UNL     1      -5.298   1.564  -0.350  1.00  0.00     0.024 A 
HETATM    6  C13 UNL     1      -4.299   0.635  -0.675  1.00  0.00     0.060 A 
HETATM    7  C14 UNL     1      -3.848   0.637  -2.055  1.00  0.00     0.100 C 
HETATM    8  N6  UNL     1      -3.517   0.628  -3.160  1.00  0.00    -0.191 NA
ENDROOT
BRANCH   1   9
HETATM    9  C7  UNL     1      -2.808  -1.163   0.061  1.00  0.00     0.271 C 
HETATM   10  N5  UNL     1      -1.675  -0.954  -0.731  1.00  0.00    -0.266 N 
ATOM     11  H5  UNL     1      -1.560  -0.062  -1.212  1.00  0.00     0.190 HD
HETATM   12  O5  UNL     1      -2.902  -2.294   0.659  1.00  0.00    -0.266 OA
BRANCH  10  13
HETATM   13  N4  UNL     1      -0.703  -1.936  -0.877  1.00  0.00    -0.298 N 
HETATM   14  C5  UNL     1       0.435  -1.848  -0.345  1.00  0.00     0.074 C 
ATOM     15  H4  UNL     1      -0.920  -2.761  -1.437  1.00  0.00     0.187 HD
BRANCH  14  16
HETATM   16  C4  UNL     1       0.840  -0.706   0.475  1.00  0.00     0.204 C 
BRANCH  16  17
HETATM   17  C3  UNL     1       1.941   0.135  -0.137  1.00  0.00     0.263 C 
BRANCH  17  18
HETATM   18  C2  UNL     1       2.496   1.135   0.830  1.00  0.00     0.337 C 
BRANCH  18  19
HETATM   19  S1  UNL     1       3.825   2.010   0.051  1.00  0.00     0.172 S 
HETATM   20  C1  UNL     1       5.156   0.927  -0.392  1.00  0.00     0.163 C 
HETATM   21  O1  UNL     1       3.275   2.697  -1.164  1.00  0.00    -0.226 OA
HETATM   22  O2  UNL     1       4.355   3.004   1.042  1.00  0.00    -0.226 OA
ENDBRANCH  18  19
BRANCH  18  23
HETATM   23  N1  UNL     1       2.954   0.537   2.064  1.00  0.00    -0.059 N 
ATOM     24  H13 UNL     1       3.771  -0.057   1.921  1.00  0.00     0.275 HD
ATOM     25  H12 UNL     1       3.377   1.224   2.688  1.00  0.00     0.275 HD
ATOM     26  H11 UNL     1       2.189   0.033   2.512  1.00  0.00     0.275 HD
ENDBRANCH  18  23
ENDBRANCH  17  18
BRANCH  17  27
HETATM   27  N2  UNL     1       1.454   0.854  -1.298  1.00  0.00    -0.069 N 
ATOM     28  H23 UNL     1       0.783   1.583  -1.057  1.00  0.00     0.275 HD
ATOM     29  H22 UNL     1       2.165   1.454  -1.716  1.00  0.00     0.275 HD
ATOM     30  H21 UNL     1       1.076   0.173  -1.957  1.00  0.00     0.275 HD
ENDBRANCH  17  27
ENDBRANCH  16  17
BRANCH  16  31
HETATM   31  O3  UNL     1      -0.185   0.150   0.848  1.00  0.00    -0.387 OA
ATOM     32  H3  UNL     1      -0.876  -0.377   1.232  1.00  0.00     0.210 HD
ENDBRANCH  16  31
ENDBRANCH  14  16
BRANCH  14  33
HETATM   33  C6  UNL     1       1.362  -2.941  -0.599  1.00  0.00     0.142 C 
HETATM   34  N3  UNL     1       2.553  -3.018  -0.122  1.00  0.00    -0.278 N 
ATOM     35  H3  UNL     1       2.892  -2.269   0.481  1.00  0.00     0.193 HD
BRANCH  34  36
HETATM   36  O4  UNL     1       3.381  -4.070  -0.396  1.00  0.00    -0.290 OA
ATOM     37  H4  UNL     1       4.261  -4.127  -0.043  1.00  0.00     0.244 HD
ENDBRANCH  34  36
ENDBRANCH  14  33
ENDBRANCH  10  13
ENDBRANCH   1   9
TORSDOF 11
