REMARK  10 active torsions:
REMARK  status: ('A' for Active; 'I' for Inactive)
REMARK    1  A    between atoms: O1_2  and  C2_3 
REMARK    2  A    between atoms: C7_9  and  O2_10 
REMARK    3  A    between atoms: C12_18  and  C13_19 
REMARK    4  A    between atoms: C16_23  and  O4_24 
REMARK    5  A    between atoms: O4_24  and  C17_25 
REMARK    6  A    between atoms: C17_25  and  C18_26 
REMARK    7  A    between atoms: C18_26  and  C19_27 
REMARK    8  A    between atoms: C19_27  and  N2_28 
REMARK    9  A    between atoms: N2_28  and  C21_30 
REMARK   10  A    between atoms: C29_43  and  O5_44 
ROOT
HETATM    1  C13 UNL     1      -2.963  -1.034   1.363  1.00  0.00    -0.041 A 
HETATM    2  C14 UNL     1      -2.027  -0.980   2.365  1.00  0.00     0.030 A 
HETATM    3  C15 UNL     1      -0.710  -1.234   2.018  1.00  0.00     0.047 A 
HETATM    4 BR1  UNL     1       0.628  -1.172   3.374  1.00  0.00    -0.048 Br
HETATM    5  C16 UNL     1      -0.293  -1.535   0.741  1.00  0.00     0.119 A 
HETATM    6  C29 UNL     1      -1.254  -1.584  -0.252  1.00  0.00     0.103 A 
HETATM    7  C31 UNL     1      -2.594  -1.331   0.074  1.00  0.00     0.048 A 
ENDROOT
BRANCH   5   8
HETATM    8  O4  UNL     1       1.011  -1.786   0.408  1.00  0.00    -0.347 OA
BRANCH   8   9
HETATM    9  C17 UNL     1       1.943  -0.786   0.010  1.00  0.00     0.177 C 
BRANCH   9  10
HETATM   10  C18 UNL     1       3.288  -1.391  -0.288  1.00  0.00     0.046 C 
BRANCH  10  11
HETATM   11  C19 UNL     1       4.346  -0.457  -0.732  1.00  0.00     0.126 C 
BRANCH  11  12
HETATM   12  N2  UNL     1       4.719   0.596   0.145  1.00  0.00    -0.371 N 
HETATM   13  C20 UNL     1       3.803   1.693   0.391  1.00  0.00     0.151 C 
BRANCH  12  14
HETATM   14  C21 UNL     1       5.990   0.628   0.830  1.00  0.00     0.116 A 
HETATM   15  N3  UNL     1       6.016   0.480   2.187  1.00  0.00    -0.338 N 
HETATM   16  C22 UNL     1       7.186   0.480   2.851  1.00  0.00     0.182 A 
ATOM     17  H3  UNL     1       5.142   0.369   2.701  1.00  0.00     0.168 HD
HETATM   18  N4  UNL     1       8.366   0.626   2.209  1.00  0.00    -0.351 N 
HETATM   19  C23 UNL     1       8.405   0.777   0.867  1.00  0.00     0.048 A 
ATOM     20  H4  UNL     1       9.235   0.622   2.743  1.00  0.00     0.166 HD
HETATM   21  C24 UNL     1       9.618   0.932   0.213  1.00  0.00     0.057 A 
HETATM   22  C28 UNL     1       7.197   0.776   0.195  1.00  0.00     0.035 A 
HETATM   23  C25 UNL     1       9.674   1.094  -1.154  1.00  0.00     0.048 A 
HETATM   24  N5  UNL     1      10.916   1.253  -1.845  1.00  0.00    -0.102 NA
HETATM   25  C26 UNL     1       8.469   1.093  -1.822  1.00  0.00     0.027 A 
HETATM   26  C27 UNL     1       7.245   0.937  -1.166  1.00  0.00     0.019 A 
ENDBRANCH  12  14
ENDBRANCH  11  12
ENDBRANCH  10  11
ENDBRANCH   9  10
ENDBRANCH   8   9
ENDBRANCH   5   8
BRANCH   6  27
HETATM   27  O5  UNL     1      -0.892  -1.883  -1.561  1.00  0.00    -0.353 OA
HETATM   28  C30 UNL     1      -1.848  -1.943  -2.605  1.00  0.00     0.210 C 
ENDBRANCH   6  27
BRANCH   1  29
HETATM   29  C12 UNL     1      -4.388  -0.769   1.694  1.00  0.00     0.091 A 
HETATM   30  C5  UNL     1      -5.045   0.219   0.846  1.00  0.00     0.006 A 
HETATM   31  C4  UNL     1      -4.513   1.480   0.785  1.00  0.00     0.046 A 
HETATM   32  C6  UNL     1      -6.190  -0.071   0.092  1.00  0.00     0.081 A 
HETATM   33  C3  UNL     1      -5.112   2.419  -0.012  1.00  0.00     0.064 A 
HETATM   34 CL1  UNL     1      -3.095   2.006   1.677  1.00  0.00    -0.084 Cl
HETATM   35  C2  UNL     1      -6.230   2.158  -0.758  1.00  0.00     0.105 A 
HETATM   36  C7  UNL     1      -6.784   0.897  -0.711  1.00  0.00     0.127 A 
HETATM   37  N1  UNL     1      -6.806  -1.373   0.130  1.00  0.00    -0.329 N 
HETATM   38  C8  UNL     1      -7.982  -1.722  -0.627  1.00  0.00     0.158 C 
HETATM   39  C9  UNL     1      -6.159  -2.337   0.992  1.00  0.00     0.150 A 
HETATM   40  C10 UNL     1      -5.099  -2.082   1.690  1.00  0.00     0.008 A 
HETATM   41  O3  UNL     1      -6.254  -3.668   1.437  1.00  0.00    -0.331 OA
HETATM   42  C11 UNL     1      -5.129  -3.488   2.219  1.00  0.00     0.217 A 
BRANCH  35  43
HETATM   43  O1  UNL     1      -6.802   3.131  -1.546  1.00  0.00    -0.353 OA
HETATM   44  C1  UNL     1      -6.303   4.445  -1.653  1.00  0.00     0.210 C 
ENDBRANCH  35  43
BRANCH  36  45
HETATM   45  O2  UNL     1      -7.907   0.592  -1.444  1.00  0.00    -0.356 OA
ATOM     46  H2  UNL     1      -8.289  -0.277  -1.412  1.00  0.00     0.218 HD
ENDBRANCH  36  45
ENDBRANCH   1  29
TORSDOF 10
