REMARK  7 active torsions:
REMARK  status: ('A' for Active; 'I' for Inactive)
REMARK    1  A    between atoms: C2_2  and  C4_4 
REMARK    2  A    between atoms: C4_4  and  O2_6 
REMARK    3  A    between atoms: O2_6  and  C5_7 
REMARK    4  A    between atoms: C6_9  and  C7_10 
REMARK    5  A    between atoms: C8_11  and  C9_12 
REMARK    6  A    between atoms: C9_12  and  O5_14 
REMARK    7  A    between atoms: O5_14  and  C10_15 
ROOT
HETATM    1  C5  UNL     1      -2.661  -0.274   0.198  1.00  0.00     0.302 C 
HETATM    2  O3  UNL     1      -1.324  -0.179  -0.042  1.00  0.00    -0.348 OA
HETATM    3  C6  UNL     1      -0.574  -0.001   1.122  1.00  0.00     0.154 C 
HETATM    4  C15 UNL     1      -0.906  -0.959   2.199  1.00  0.00     0.047 C 
HETATM    5  C16 UNL     1      -0.536  -2.386   1.917  1.00  0.00     0.015 C 
HETATM    6  C17 UNL     1      -2.364  -0.810   2.574  1.00  0.00     0.175 C 
HETATM    7  O6  UNL     1      -3.122  -1.994   2.336  1.00  0.00    -0.289 OA
HETATM    8  C18 UNL     1      -4.437  -1.509   2.186  1.00  0.00     0.407 C 
HETATM    9  O7  UNL     1      -5.526  -2.124   2.314  1.00  0.00    -0.229 OA
HETATM   10  O8  UNL     1      -4.387  -0.142   1.849  1.00  0.00    -0.285 OA
HETATM   11  C19 UNL     1      -3.004   0.141   1.614  1.00  0.00     0.219 C 
ENDROOT
BRANCH   3  12
HETATM   12  C7  UNL     1       0.862   0.027   0.848  1.00  0.00     0.011 C 
HETATM   13  C8  UNL     1       1.743  -0.440   1.716  1.00  0.00     0.081 C 
BRANCH  13  14
HETATM   14  C9  UNL     1       3.190  -0.386   1.384  1.00  0.00     0.283 C 
HETATM   15  O4  UNL     1       3.988  -0.838   2.230  1.00  0.00    -0.260 OA
BRANCH  14  16
HETATM   16  O5  UNL     1       3.649   0.133   0.205  1.00  0.00    -0.313 OA
BRANCH  16  17
HETATM   17  C10 UNL     1       5.032   0.196  -0.137  1.00  0.00     0.132 C 
HETATM   18  C11 UNL     1       5.180  -0.467  -1.487  1.00  0.00     0.032 C 
HETATM   19  C12 UNL     1       6.105   0.369  -2.312  1.00  0.00     0.002 C 
HETATM   20  C13 UNL     1       6.584   1.494  -1.420  1.00  0.00     0.002 C 
HETATM   21  C14 UNL     1       5.431   1.637  -0.459  1.00  0.00     0.032 C 
ENDBRANCH  16  17
ENDBRANCH  14  16
ENDBRANCH  13  14
ENDBRANCH   3  12
BRANCH   1  22
HETATM   22  O2  UNL     1      -3.442   0.562  -0.652  1.00  0.00    -0.283 OA
BRANCH  22  23
HETATM   23  C4  UNL     1      -4.423   0.045  -1.490  1.00  0.00     0.290 C 
HETATM   24  O1  UNL     1      -4.573  -1.202  -1.448  1.00  0.00    -0.260 OA
BRANCH  23  25
HETATM   25  C2  UNL     1      -5.236   0.864  -2.368  1.00  0.00     0.004 C 
HETATM   26  C1  UNL     1      -6.140   0.288  -3.127  1.00  0.00     0.024 C 
HETATM   27  C3  UNL     1      -5.096   2.333  -2.451  1.00  0.00     0.054 C 
ENDBRANCH  23  25
ENDBRANCH  22  23
ENDBRANCH   1  22
TORSDOF 7
