REMARK  6 active torsions:
REMARK  status: ('A' for Active; 'I' for Inactive)
REMARK    1  A    between atoms: C2_2  and  C4_4 
REMARK    2  A    between atoms: C4_4  and  C5_5 
REMARK    3  A    between atoms: C4_4  and  N1_8 
REMARK    4  A    between atoms: C5_5  and  O1_6 
REMARK    5  A    between atoms: N1_8  and  C6_10 
REMARK    6  A    between atoms: C9_19  and  C10_20 
ROOT
HETATM    1  C6  UNL     1      -0.394  -1.111  -0.281  1.00  0.00     0.146 A 
HETATM    2  N2  UNL     1       0.207  -2.299  -0.428  1.00  0.00    -0.321 N 
ATOM      3  H2  UNL     1      -0.404  -3.096  -0.610  1.00  0.00     0.169 HD
HETATM    4  C7  UNL     1       1.504  -2.556  -0.364  1.00  0.00     0.141 A 
HETATM    5  N3  UNL     1       1.899  -3.777  -0.534  1.00  0.00    -0.383 N 
ATOM      6  H31 UNL     1       2.898  -3.975  -0.485  1.00  0.00     0.157 HD
ATOM      7  H32 UNL     1       1.160  -4.458  -0.708  1.00  0.00     0.157 HD
HETATM    8  C8  UNL     1       2.502  -1.636  -0.129  1.00  0.00     0.173 A 
HETATM    9  F1  UNL     1       3.807  -2.058  -0.092  1.00  0.00    -0.201 F 
HETATM   10  C9  UNL     1       2.304  -0.301   0.076  1.00  0.00     0.036 A 
HETATM   11  S1  UNL     1       0.677   0.192   0.024  1.00  0.00    -0.055 SA
ENDROOT
BRANCH   1  12
HETATM   12  N1  UNL     1      -1.672  -0.952  -0.360  1.00  0.00    -0.363 N 
ATOM     13  H1  UNL     1      -2.253  -1.770  -0.544  1.00  0.00     0.162 HD
BRANCH  12  14
HETATM   14  C4  UNL     1      -2.316   0.324  -0.201  1.00  0.00     0.110 C 
BRANCH  14  15
HETATM   15  C2  UNL     1      -3.613   0.147   0.543  1.00  0.00     0.002 C 
HETATM   16  C1  UNL     1      -4.564  -0.741  -0.232  1.00  0.00     0.011 C 
HETATM   17  C3  UNL     1      -4.289   1.444   0.862  1.00  0.00     0.011 C 
ENDBRANCH  14  15
BRANCH  14  18
HETATM   18  C5  UNL     1      -2.492   0.951  -1.548  1.00  0.00     0.189 C 
BRANCH  18  19
HETATM   19  O1  UNL     1      -3.259   0.209  -2.418  1.00  0.00    -0.399 OA
ATOM     20  H1  UNL     1      -3.371   0.607  -3.273  1.00  0.00     0.209 HD
ENDBRANCH  18  19
ENDBRANCH  14  18
ENDBRANCH  12  14
ENDBRANCH   1  12
BRANCH  10  21
HETATM   21  C10 UNL     1       3.384   0.677   0.327  1.00  0.00    -0.014 C 
HETATM   22  C11 UNL     1       4.104   0.246   1.584  1.00  0.00     0.020 C 
HETATM   23  C12 UNL     1       4.318   0.828  -0.844  1.00  0.00     0.020 C 
HETATM   24  C13 UNL     1       2.752   2.018   0.609  1.00  0.00     0.020 C 
ENDBRANCH  10  21
TORSDOF 6
