REMARK  6 active torsions:
REMARK  status: ('A' for Active; 'I' for Inactive)
REMARK       I    between atoms: C1_2  and  N2_4 
REMARK    1  A    between atoms: N2_4  and  O2_6 
REMARK    2  A    between atoms: O2_6  and  C2_7 
REMARK       I    between atoms: C2_7  and  N3_9 
REMARK    3  A    between atoms: N3_9  and  N4_10 
REMARK       I    between atoms: N4_10  and  C3_12 
REMARK    4  A    between atoms: C3_12  and  C4_14 
REMARK    5  A    between atoms: N5_16  and  C6_17 
REMARK    6  A    between atoms: C9_20  and  N6_21 
ROOT
HETATM    1  C4  UNL     1      -0.925   0.655  -1.718  1.00  0.00     0.137 A 
HETATM    2  C5  UNL     1       0.192   0.536  -0.894  1.00  0.00     0.155 A 
HETATM    3  N5  UNL     1       1.313   0.379  -1.672  1.00  0.00    -0.248 N 
HETATM    4  N9  UNL     1       0.888   0.409  -2.933  1.00  0.00    -0.235 N 
ATOM      5  H9  UNL     1       1.499   0.317  -3.745  1.00  0.00     0.209 HD
HETATM    6  N10 UNL     1      -0.418   0.572  -3.006  1.00  0.00    -0.279 N 
ATOM      7  H10 UNL     1      -0.964   0.628  -3.866  1.00  0.00     0.189 HD
ENDROOT
BRANCH   1   8
HETATM    8  C3  UNL     1      -2.351   0.667  -1.407  1.00  0.00     0.299 C 
HETATM    9  N4  UNL     1      -2.789   0.151  -0.117  1.00  0.00    -0.192 N 
ATOM     10  H4  UNL     1      -2.068  -0.121   0.551  1.00  0.00     0.205 HD
HETATM   11  O4  UNL     1      -3.180   1.098  -2.252  1.00  0.00    -0.263 OA
BRANCH   9  12
HETATM   12  N3  UNL     1      -4.012   0.013   0.243  1.00  0.00    -0.254 NA
HETATM   13  C2  UNL     1      -5.346  -0.144   0.624  1.00  0.00     0.480 C 
HETATM   14  O3  UNL     1      -6.283  -0.645  -0.004  1.00  0.00    -0.217 OA
BRANCH  13  15
HETATM   15  O2  UNL     1      -5.699   0.322   1.933  1.00  0.00    -0.164 OA
BRANCH  15  16
HETATM   16  N2  UNL     1      -6.991   0.117   2.306  1.00  0.00    -0.207 N 
HETATM   17  C1  UNL     1      -8.139   0.420   1.631  1.00  0.00     0.352 C 
HETATM   18  N1  UNL     1      -9.339  -0.025   2.417  1.00  0.00    -0.038 NA
HETATM   19  O1  UNL     1      -8.401   0.946   0.563  1.00  0.00    -0.249 OA
ATOM     20  H2  UNL     1      -7.120  -0.324   3.216  1.00  0.00     0.199 HD
ENDBRANCH  15  16
ENDBRANCH  13  15
ENDBRANCH   9  12
ENDBRANCH   1   8
BRANCH   3  21
HETATM   21  C6  UNL     1       2.646   0.162  -1.215  1.00  0.00     0.096 A 
HETATM   22  C7  UNL     1       3.476  -0.634  -2.013  1.00  0.00     0.037 A 
HETATM   23  C8  UNL     1       4.782  -0.901  -1.668  1.00  0.00     0.034 A 
HETATM   24  C9  UNL     1       5.285  -0.371  -0.505  1.00  0.00     0.057 A 
HETATM   25  C12 UNL     1       4.466   0.421   0.281  1.00  0.00     0.075 A 
HETATM   26  C13 UNL     1       3.167   0.680  -0.072  1.00  0.00     0.147 A 
HETATM   27  F1  UNL     1       2.393   1.476   0.732  1.00  0.00    -0.204 F 
BRANCH  24  28
HETATM   28  N6  UNL     1       6.592  -0.640  -0.068  1.00  0.00    -0.250 N 
HETATM   29  C10 UNL     1       7.311   0.017   0.874  1.00  0.00     0.132 A 
HETATM   30  C11 UNL     1       8.562  -0.574   1.009  1.00  0.00     0.123 A 
HETATM   31  N7  UNL     1       8.560  -1.593   0.119  1.00  0.00    -0.294 N 
HETATM   32  N8  UNL     1       7.393  -1.623  -0.510  1.00  0.00    -0.016 NA
ATOM     33  H7  UNL     1       9.334  -2.237  -0.043  1.00  0.00     0.183 HD
ENDBRANCH  24  28
ENDBRANCH   3  21
TORSDOF 6
