REMARK  7 active torsions:
REMARK  status: ('A' for Active; 'I' for Inactive)
REMARK    1  A    between atoms: S1_2  and  C2_3 
REMARK    2  A    between atoms: C2_3  and  C3_4 
REMARK    3  A    between atoms: C3_4  and  C4_5 
REMARK    4  A    between atoms: C5_10  and  N3_11 
REMARK       I    between atoms: N3_11  and  C6_13 
REMARK       I    between atoms: C6_13  and  N4_15 
REMARK    5  A    between atoms: N4_15  and  C7_17 
REMARK    6  A    between atoms: C8_21  and  C9_22 
REMARK    7  A    between atoms: N8_31  and  N9_32 
ROOT
HETATM    1  C7  UNL     1      -1.176  -0.113  -1.628  1.00  0.00     0.274 A 
HETATM    2  O2  UNL     1      -1.684  -1.257  -2.104  1.00  0.00    -0.197 OA
HETATM    3  N5  UNL     1      -2.875  -1.438  -1.617  1.00  0.00    -0.239 N 
ATOM      4  H5  UNL     1      -3.478  -2.235  -1.822  1.00  0.00     0.196 HD
HETATM    5  C8  UNL     1      -3.190  -0.423  -0.808  1.00  0.00     0.168 A 
HETATM    6  N8  UNL     1      -2.123   0.391  -0.825  1.00  0.00    -0.204 N 
ENDROOT
BRANCH   1   7
HETATM    7  N4  UNL     1      -0.019   0.375  -1.901  1.00  0.00    -0.271 N 
HETATM    8  C6  UNL     1       0.445   1.588  -1.358  1.00  0.00     0.329 C 
HETATM    9  N3  UNL     1       1.252   1.578  -0.194  1.00  0.00    -0.287 N 
HETATM   10  O1  UNL     1       0.145   2.673  -1.901  1.00  0.00    -0.247 OA
ATOM     11  H3  UNL     1       0.968   2.048   0.666  1.00  0.00     0.172 HD
ATOM     12  H4  UNL     1       0.589  -0.139  -2.539  1.00  0.00     0.174 HD
BRANCH   9  13
HETATM   13  C5  UNL     1       2.388   0.926  -0.290  1.00  0.00     0.169 A 
HETATM   14  N2  UNL     1       3.324   0.767   0.656  1.00  0.00    -0.279 N 
HETATM   15  N1  UNL     1       4.365   0.097   0.371  1.00  0.00    -0.296 N 
ATOM     16  H2  UNL     1       3.203   1.174   1.583  1.00  0.00     0.189 HD
HETATM   17  C4  UNL     1       4.513  -0.427  -0.835  1.00  0.00     0.070 A 
ATOM     18  H1  UNL     1       5.090  -0.038   1.075  1.00  0.00     0.187 HD
HETATM   19  S2  UNL     1       3.074   0.072  -1.601  1.00  0.00    -0.038 SA
BRANCH  17  20
HETATM   20  C3  UNL     1       5.648  -1.248  -1.394  1.00  0.00     0.076 C 
BRANCH  20  21
HETATM   21  C2  UNL     1       6.703  -1.440  -0.360  1.00  0.00     0.080 C 
BRANCH  21  22
HETATM   22  S1  UNL     1       7.396   0.115   0.218  1.00  0.00    -0.173 SA
HETATM   23  C1  UNL     1       8.662  -0.224   1.466  1.00  0.00     0.089 C 
ENDBRANCH  21  22
ENDBRANCH  20  21
ENDBRANCH  17  20
ENDBRANCH   9  13
ENDBRANCH   1   7
BRANCH   6  24
HETATM   24  N9  UNL     1      -2.023   1.580  -0.114  1.00  0.00    -0.334 N 
ATOM     25  H92 UNL     1      -1.212   2.199  -0.127  1.00  0.00     0.177 HD
ATOM     26  H91 UNL     1      -2.744   1.964   0.497  1.00  0.00     0.177 HD
ENDBRANCH   6  24
BRANCH   5  27
HETATM   27  C9  UNL     1      -4.422  -0.216  -0.051  1.00  0.00     0.105 A 
HETATM   28  C10 UNL     1      -4.714  -0.636   1.237  1.00  0.00     0.042 A 
HETATM   29  C11 UNL     1      -3.773  -1.406   2.098  1.00  0.00     0.071 C 
HETATM   30  N6  UNL     1      -5.964  -0.217   1.512  1.00  0.00    -0.299 N 
HETATM   31  N7  UNL     1      -6.470   0.436   0.484  1.00  0.00    -0.261 N 
ATOM     32  H6  UNL     1      -6.451  -0.382   2.393  1.00  0.00     0.187 HD
HETATM   33  C12 UNL     1      -7.787   1.040   0.392  1.00  0.00     0.181 C 
HETATM   34  C13 UNL     1      -5.557   0.459  -0.494  1.00  0.00     0.277 A 
HETATM   35  O3  UNL     1      -5.686   0.994  -1.626  1.00  0.00    -0.265 OA
ENDBRANCH   5  27
TORSDOF 7
