REMARK  5 active torsions:
REMARK  status: ('A' for Active; 'I' for Inactive)
REMARK    1  A    between atoms: C2_2  and  N1_3 
REMARK    2  A    between atoms: N1_3  and  C3_5 
REMARK    3  A    between atoms: C6_10  and  N3_11 
REMARK    4  A    between atoms: N3_11  and  C7_13 
REMARK    5  A    between atoms: C14_20  and  C15_21 
ROOT
HETATM    1  C3  UNL     1       3.712  -0.330   0.466  1.00  0.00     0.679 A 
HETATM    2  N2  UNL     1       4.095   0.257  -0.671  1.00  0.00    -0.202 N 
ATOM      3  H2  UNL     1       5.085   0.460  -0.812  1.00  0.00     0.183 HD
HETATM    4  C4  UNL     1       3.224   0.587  -1.630  1.00  0.00     0.110 A 
HETATM    5  C5  UNL     1       1.878   0.286  -1.388  1.00  0.00     0.066 A 
HETATM    6  C6  UNL     1       1.453  -0.316  -0.229  1.00  0.00     0.118 A 
HETATM    7  N4  UNL     1       2.424  -0.604   0.669  1.00  0.00    -0.177 N 
ATOM      8  H4  UNL     1       2.156  -1.053   1.545  1.00  0.00     0.185 HD
ENDROOT
BRANCH   6   9
HETATM    9  N3  UNL     1       0.108  -0.621   0.057  1.00  0.00    -0.371 N 
ATOM     10  H3  UNL     1      -0.068  -1.072   0.955  1.00  0.00     0.161 HD
BRANCH   9  11
HETATM   11  C7  UNL     1      -1.037  -0.376  -0.757  1.00  0.00     0.087 C 
HETATM   12  C8  UNL     1      -1.454   1.031  -0.929  1.00  0.00     0.025 C 
HETATM   13  C9  UNL     1      -1.371   1.867   0.324  1.00  0.00     0.002 C 
HETATM   14  C10 UNL     1      -2.787   2.203   0.745  1.00  0.00     0.000 C 
HETATM   15  C11 UNL     1      -3.199   1.182   1.783  1.00  0.00     0.000 C 
HETATM   16  C12 UNL     1      -3.815   0.009   1.011  1.00  0.00     0.000 C 
HETATM   17  C13 UNL     1      -2.793  -1.057   0.937  1.00  0.00     0.007 C 
HETATM   18  C14 UNL     1      -2.173  -1.327  -0.381  1.00  0.00     0.008 C 
BRANCH  18  19
HETATM   19  C15 UNL     1      -3.134  -1.566  -1.503  1.00  0.00     0.002 C 
HETATM   20  C16 UNL     1      -2.448  -2.178  -2.718  1.00  0.00     0.005 C 
ENDBRANCH  18  19
ENDBRANCH   9  11
ENDBRANCH   6   9
BRANCH   1  21
HETATM   21  N1  UNL     1       4.597  -0.640   1.387  1.00  0.00    -0.226 N 
ATOM     22  H1  UNL     1       4.289  -1.088   2.250  1.00  0.00     0.177 HD
BRANCH  21  23
HETATM   23  C2  UNL     1       5.995  -0.355   1.194  1.00  0.00     0.133 C 
HETATM   24  C1  UNL     1       6.343   1.068   1.604  1.00  0.00     0.027 C 
ENDBRANCH  21  23
ENDBRANCH   1  21
TORSDOF 5
