REMARK  18 active torsions:
REMARK  status: ('A' for Active; 'I' for Inactive)
REMARK    1  A    between atoms: C5_10  and  C6_11 
REMARK    2  A    between atoms: C6_11  and  N4_12 
REMARK    3  A    between atoms: N4_12  and  C7_14 
REMARK    4  A    between atoms: C9_16  and  N5_17 
REMARK    5  A    between atoms: N5_17  and  C10_19 
REMARK    6  A    between atoms: C10_19  and  C11_20 
REMARK    7  A    between atoms: C11_20  and  O1_21 
REMARK    8  A    between atoms: C11_20  and  C12_23 
REMARK    9  A    between atoms: C12_23  and  O2_24 
REMARK   10  A    between atoms: C14_27  and  N6_28 
REMARK   11  A    between atoms: N6_28  and  C15_30 
REMARK   12  A    between atoms: C15_30  and  O3_31 
REMARK   13  A    between atoms: C15_30  and  C16_33 
REMARK   14  A    between atoms: C16_33  and  C17_34 
REMARK   15  A    between atoms: C17_34  and  O4_35 
REMARK   16  A    between atoms: C17_34  and  C18_37 
REMARK   17  A    between atoms: C19_40  and  N8_41 
REMARK   18  A    between atoms: C22_50  and  N11_51 
ROOT
HETATM    1  N1  UNL     1       8.478   6.114  -0.636  1.00  0.00    -0.188 NA
HETATM    2  C1  UNL     1       7.752   5.424  -0.050  1.00  0.00     0.139 C 
HETATM    3  C2  UNL     1       6.847   4.563   0.654  1.00  0.00     0.211 A 
HETATM    4  N2  UNL     1       6.368   4.671   1.902  1.00  0.00    -0.275 N 
ATOM      5  H2  UNL     1       6.598   5.423   2.551  1.00  0.00     0.189 HD
HETATM    6  N3  UNL     1       5.553   3.662   2.173  1.00  0.00    -0.283 N 
ATOM      7  H3  UNL     1       5.060   3.514   3.053  1.00  0.00     0.188 HD
HETATM    8  C3  UNL     1       5.486   2.865   1.089  1.00  0.00     0.129 A 
HETATM    9  C4  UNL     1       4.910   1.711   0.592  1.00  0.00     0.060 A 
HETATM   10  C5  UNL     1       5.380   1.565  -0.694  1.00  0.00    -0.021 A 
HETATM   11  C23 UNL     1       6.219   2.634  -0.924  1.00  0.00     0.110 A 
HETATM   12  N13 UNL     1       6.280   3.422   0.164  1.00  0.00    -0.282 N 
ENDROOT
BRANCH  10  13
HETATM   13  C6  UNL     1       5.068   0.479  -1.687  1.00  0.00     0.161 C 
BRANCH  13  14
HETATM   14  N4  UNL     1       4.086  -0.397  -1.133  1.00  0.00    -0.372 N 
ATOM     15  H4  UNL     1       4.428  -1.280  -0.754  1.00  0.00     0.161 HD
BRANCH  14  16
HETATM   16  C7  UNL     1       2.826  -0.197  -1.059  1.00  0.00     0.104 C 
HETATM   17  C8  UNL     1       2.144  -1.254  -0.458  1.00  0.00     0.077 C 
HETATM   18  C9  UNL     1       0.826  -1.295  -0.056  1.00  0.00     0.033 C 
HETATM   19  C13 UNL     1      -0.087  -0.235  -0.111  1.00  0.00     0.062 C 
HETATM   20  C14 UNL     1      -0.048   0.933  -0.817  1.00  0.00     0.076 C 
HETATM   21  C22 UNL     1       1.068   1.388  -1.502  1.00  0.00     0.127 C 
HETATM   22  N12 UNL     1       2.331   0.934  -1.536  1.00  0.00    -0.327 N 
ATOM     23  H12 UNL     1       3.005   1.548  -1.994  1.00  0.00     0.169 HD
BRANCH  18  24
HETATM   24  N5  UNL     1       0.353  -2.525   0.462  1.00  0.00    -0.387 N 
ATOM     25  H5  UNL     1      -0.622  -2.586   0.754  1.00  0.00     0.159 HD
BRANCH  24  26
HETATM   26  C10 UNL     1       1.181  -3.690   0.595  1.00  0.00     0.153 C 
BRANCH  26  27
HETATM   27  C11 UNL     1       0.420  -4.851   1.170  1.00  0.00     0.159 C 
BRANCH  27  28
HETATM   28  O1  UNL     1      -0.658  -5.228   0.398  1.00  0.00    -0.392 OA
ATOM     29  H1  UNL     1      -1.139  -5.962   0.762  1.00  0.00     0.210 HD
ENDBRANCH  27  28
BRANCH  27  30
HETATM   30  C12 UNL     1       1.353  -6.035   1.317  1.00  0.00     0.197 C 
BRANCH  30  31
HETATM   31  O2  UNL     1       0.711  -7.111   1.931  1.00  0.00    -0.398 OA
ATOM     32  H2  UNL     1       1.296  -7.854   2.023  1.00  0.00     0.209 HD
ENDBRANCH  30  31
ENDBRANCH  27  30
ENDBRANCH  26  27
ENDBRANCH  24  26
ENDBRANCH  18  24
BRANCH  20  33
HETATM   33  N6  UNL     1      -1.183   1.737  -0.861  1.00  0.00    -0.358 N 
ATOM     34  H6  UNL     1      -1.089   2.612  -1.376  1.00  0.00     0.162 HD
BRANCH  33  35
HETATM   35  C15 UNL     1      -2.488   1.487  -0.265  1.00  0.00     0.245 C 
BRANCH  35  36
HETATM   36  O3  UNL     1      -2.477   1.266   1.077  1.00  0.00    -0.373 OA
ATOM     37  H3  UNL     1      -3.328   1.103   1.466  1.00  0.00     0.212 HD
ENDBRANCH  35  36
BRANCH  35  38
HETATM   38  C16 UNL     1      -3.175   0.492  -1.126  1.00  0.00     0.065 C 
BRANCH  38  39
HETATM   39  C17 UNL     1      -4.475  -0.031  -0.825  1.00  0.00     0.095 C 
BRANCH  39  40
HETATM   40  O4  UNL     1      -4.648  -1.263  -1.295  1.00  0.00    -0.358 OA
ATOM     41  H4  UNL     1      -5.510  -1.610  -1.095  1.00  0.00     0.217 HD
ENDBRANCH  39  40
BRANCH  39  42
HETATM   42  C18 UNL     1      -5.624   0.479  -0.132  1.00  0.00     0.112 A 
HETATM   43  N7  UNL     1      -5.754   1.699   0.404  1.00  0.00    -0.187 N 
HETATM   44  C19 UNL     1      -6.901   2.097   1.034  1.00  0.00     0.679 A 
ATOM     45  H7  UNL     1      -4.973   2.352   0.341  1.00  0.00     0.184 HD
HETATM   46  N9  UNL     1      -7.975   1.299   1.162  1.00  0.00    -0.155 N 
HETATM   47  C20 UNL     1      -7.895   0.067   0.642  1.00  0.00     0.286 A 
ATOM     48  H9  UNL     1      -8.819   1.619   1.637  1.00  0.00     0.187 HD
HETATM   49  O5  UNL     1      -8.905  -0.711   0.751  1.00  0.00    -0.266 OA
HETATM   50  C21 UNL     1      -6.762  -0.340   0.013  1.00  0.00     0.144 A 
HETATM   51  N10 UNL     1      -6.718  -1.661  -0.526  1.00  0.00    -0.094 NA
BRANCH  44  52
HETATM   52  N8  UNL     1      -6.950   3.288   1.526  1.00  0.00    -0.234 N 
ATOM     53  H82 UNL     1      -6.135   3.894   1.429  1.00  0.00     0.174 HD
ATOM     54  H81 UNL     1      -7.805   3.585   1.996  1.00  0.00     0.174 HD
ENDBRANCH  44  52
ENDBRANCH  39  42
ENDBRANCH  38  39
ENDBRANCH  35  38
ENDBRANCH  33  35
ENDBRANCH  20  33
BRANCH  21  55
HETATM   55  N11 UNL     1       0.832   2.424  -2.223  1.00  0.00    -0.384 N 
ATOM     56 2H11 UNL     1      -0.128   2.769  -2.197  1.00  0.00     0.157 HD
ATOM     57 1H11 UNL     1       1.653   2.759  -2.727  1.00  0.00     0.157 HD
ENDBRANCH  21  55
ENDBRANCH  14  16
ENDBRANCH  13  14
ENDBRANCH  10  13
TORSDOF 18
