REMARK  18 active torsions:
REMARK  status: ('A' for Active; 'I' for Inactive)
REMARK    1  A    between atoms: N1_1  and  C1_4 
REMARK    2  A    between atoms: C7_13  and  C8_14 
REMARK    3  A    between atoms: C8_14  and  C9_15 
REMARK    4  A    between atoms: C9_15  and  C10_16 
REMARK    5  A    between atoms: C10_16  and  N4_17 
REMARK    6  A    between atoms: C10_16  and  C11_21 
REMARK    7  A    between atoms: C11_21  and  N5_22 
REMARK    8  A    between atoms: C11_21  and  C12_26 
REMARK    9  A    between atoms: C12_26  and  O1_27 
REMARK   10  A    between atoms: C12_26  and  C13_29 
REMARK   11  A    between atoms: C13_29  and  O2_30 
REMARK   12  A    between atoms: C14_34  and  N7_35 
REMARK   13  A    between atoms: C17_44  and  S1_45 
REMARK   14  A    between atoms: S1_45  and  C18_46 
REMARK   15  A    between atoms: C18_46  and  C19_47 
REMARK   16  A    between atoms: C19_47  and  O3_48 
REMARK   17  A    between atoms: C19_47  and  C20_50 
REMARK   18  A    between atoms: C20_50  and  O4_51 
ROOT
HETATM    1  C1  UNL     1      -0.862  -4.176   0.309  1.00  0.00     0.116 A 
HETATM    2  C2  UNL     1      -1.407  -3.058  -0.272  1.00  0.00     0.082 A 
HETATM    3  C3  UNL     1      -0.517  -2.015  -0.120  1.00  0.00     0.074 A 
HETATM    4  N2  UNL     1       0.529  -2.531   0.543  1.00  0.00    -0.252 N 
HETATM    5  N3  UNL     1       0.324  -3.808   0.796  1.00  0.00    -0.278 N 
ATOM      6  H3  UNL     1       0.973  -4.421   1.289  1.00  0.00     0.189 HD
HETATM    7  C4  UNL     1       1.153  -1.264   0.499  1.00  0.00     0.088 A 
HETATM    8  C5  UNL     1       0.103  -0.698  -0.179  1.00  0.00     0.037 A 
HETATM    9  C6  UNL     1       0.133   0.631  -0.541  1.00  0.00     0.032 A 
HETATM   10  C7  UNL     1      -0.891   1.220  -1.232  1.00  0.00     0.040 A 
HETATM   11  N6  UNL     1      -0.780   2.539  -1.574  1.00  0.00    -0.195 N 
ATOM     12  H6  UNL     1      -1.536   2.989  -2.090  1.00  0.00     0.184 HD
HETATM   13  C14 UNL     1       0.297   3.243  -1.244  1.00  0.00     0.676 A 
HETATM   14  N8  UNL     1       1.335   2.719  -0.563  1.00  0.00    -0.189 N 
ATOM     15  H8  UNL     1       2.153   3.277  -0.318  1.00  0.00     0.184 HD
HETATM   16  C15 UNL     1       1.235   1.430  -0.226  1.00  0.00     0.090 A 
HETATM   17  C16 UNL     1       2.284   0.853   0.455  1.00  0.00     0.081 A 
HETATM   18  N9  UNL     1       3.372   1.579   0.781  1.00  0.00    -0.334 N 
ATOM     19  H9  UNL     1       3.424   2.566   0.527  1.00  0.00     0.168 HD
HETATM   20  C17 UNL     1       4.387   0.999   1.441  1.00  0.00     0.147 A 
HETATM   21  N10 UNL     1       4.374  -0.293   1.803  1.00  0.00    -0.303 N 
ATOM     22  H10 UNL     1       5.164  -0.697   2.305  1.00  0.00     0.171 HD
HETATM   23  C21 UNL     1       3.304  -1.048   1.494  1.00  0.00     0.262 A 
HETATM   24  O5  UNL     1       3.258  -2.245   1.812  1.00  0.00    -0.267 OA
HETATM   25  C22 UNL     1       2.245  -0.473   0.813  1.00  0.00     0.091 A 
ENDROOT
BRANCH  10  26
HETATM   26  C8  UNL     1      -2.105   0.478  -1.570  1.00  0.00     0.060 C 
BRANCH  26  27
HETATM   27  C9  UNL     1      -3.133   0.400  -0.457  1.00  0.00     0.041 C 
BRANCH  27  28
HETATM   28  C10 UNL     1      -4.294  -0.362  -1.011  1.00  0.00     0.216 C 
BRANCH  28  29
HETATM   29  N4  UNL     1      -4.873   0.328  -2.153  1.00  0.00    -0.073 N 
ATOM     30  H43 UNL     1      -5.129   1.288  -1.922  1.00  0.00     0.274 HD
ATOM     31  H42 UNL     1      -4.174   0.522  -2.870  1.00  0.00     0.274 HD
ATOM     32  H41 UNL     1      -5.665  -0.192  -2.531  1.00  0.00     0.274 HD
ENDBRANCH  28  29
BRANCH  28  33
HETATM   33  C11 UNL     1      -5.329  -0.826  -0.071  1.00  0.00     0.244 C 
BRANCH  33  34
HETATM   34  N5  UNL     1      -4.832  -1.713   0.960  1.00  0.00    -0.070 N 
ATOM     35  H53 UNL     1      -4.343  -2.506   0.545  1.00  0.00     0.274 HD
ATOM     36  H52 UNL     1      -4.059  -1.279   1.464  1.00  0.00     0.274 HD
ATOM     37  H51 UNL     1      -5.549  -2.034   1.611  1.00  0.00     0.274 HD
ENDBRANCH  33  34
BRANCH  33  38
HETATM   38  C12 UNL     1      -6.344   0.161   0.404  1.00  0.00     0.174 C 
BRANCH  38  39
HETATM   39  O1  UNL     1      -7.479  -0.580   0.873  1.00  0.00    -0.391 OA
ATOM     40  H1  UNL     1      -8.125   0.048   1.175  1.00  0.00     0.210 HD
ENDBRANCH  38  39
BRANCH  38  41
HETATM   41  C13 UNL     1      -5.893   0.912   1.662  1.00  0.00     0.197 C 
BRANCH  41  42
HETATM   42  O2  UNL     1      -6.992   1.687   2.056  1.00  0.00    -0.398 OA
ATOM     43  H2  UNL     1      -6.713   2.152   2.836  1.00  0.00     0.209 HD
ENDBRANCH  41  42
ENDBRANCH  38  41
ENDBRANCH  33  38
ENDBRANCH  28  33
ENDBRANCH  27  28
ENDBRANCH  26  27
ENDBRANCH  10  26
BRANCH  13  44
HETATM   44  N7  UNL     1       0.371   4.500  -1.585  1.00  0.00    -0.234 N 
ATOM     45  H72 UNL     1      -0.415   4.897  -2.100  1.00  0.00     0.174 HD
ATOM     46  H71 UNL     1       1.198   5.041  -1.332  1.00  0.00     0.174 HD
ENDBRANCH  13  44
BRANCH   1  47
HETATM   47  N1  UNL     1      -1.411  -5.368   0.367  1.00  0.00    -0.384 N 
ATOM     48  H12 UNL     1      -2.318  -5.649  -0.005  1.00  0.00     0.157 HD
ATOM     49  H11 UNL     1      -1.006  -6.199   0.799  1.00  0.00     0.157 HD
ENDBRANCH   1  47
BRANCH  20  50
HETATM   50  S1  UNL     1       5.809   1.983   1.849  1.00  0.00    -0.091 SA
BRANCH  50  51
HETATM   51  C18 UNL     1       7.054   1.935   0.535  1.00  0.00     0.116 C 
BRANCH  51  52
HETATM   52  C19 UNL     1       7.648   0.570   0.391  1.00  0.00     0.151 C 
BRANCH  52  53
HETATM   53  O3  UNL     1       8.265   0.173   1.574  1.00  0.00    -0.393 OA
ATOM     54  H3  UNL     1       8.642  -0.694   1.483  1.00  0.00     0.210 HD
ENDBRANCH  52  53
BRANCH  52  55
HETATM   55  C20 UNL     1       8.724   0.576  -0.674  1.00  0.00     0.196 C 
BRANCH  55  56
HETATM   56  O4  UNL     1       8.241   0.960  -1.920  1.00  0.00    -0.398 OA
ATOM     57  H4  UNL     1       8.916   0.964  -2.588  1.00  0.00     0.209 HD
ENDBRANCH  55  56
ENDBRANCH  52  55
ENDBRANCH  51  52
ENDBRANCH  50  51
ENDBRANCH  20  50
TORSDOF 18
