REMARK  8 active torsions:
REMARK  status: ('A' for Active; 'I' for Inactive)
REMARK    1  A    between atoms: C4_6  and  C5_7 
REMARK    2  A    between atoms: C7_9  and  N2_10 
REMARK       I    between atoms: N2_10  and  C8_11 
REMARK    3  A    between atoms: C8_11  and  C9_13 
REMARK    4  A    between atoms: C9_13  and  C10_15 
REMARK    5  A    between atoms: C10_15  and  C11_17 
REMARK    6  A    between atoms: C11_17  and  N4_18 
REMARK    7  A    between atoms: C11_17  and  O3_22 
REMARK    8  A    between atoms: C12_26  and  C13_27 
ROOT
HETATM    1  C5  UNL     1      -1.965  -0.999  -0.684  1.00  0.00     0.065 A 
HETATM    2  C6  UNL     1      -0.996  -0.723   0.215  1.00  0.00     0.096 A 
HETATM    3  C7  UNL     1       0.339  -1.192   0.038  1.00  0.00     0.187 A 
HETATM    4  N5  UNL     1       0.567  -1.951  -1.090  1.00  0.00    -0.313 N 
ATOM      5  H5  UNL     1       1.503  -2.321  -1.258  1.00  0.00     0.170 HD
HETATM    6  C12 UNL     1      -0.419  -2.221  -1.985  1.00  0.00     0.193 A 
HETATM    7  N6  UNL     1      -1.653  -1.759  -1.797  1.00  0.00    -0.337 N 
ATOM      8  H6  UNL     1      -2.378  -1.968  -2.483  1.00  0.00     0.167 HD
ENDROOT
BRANCH   3   9
HETATM    9  N2  UNL     1       1.218  -0.755   0.665  1.00  0.00    -0.345 NA
HETATM   10  C8  UNL     1       2.318  -0.313   1.346  1.00  0.00     0.369 C 
HETATM   11  O1  UNL     1       2.288   0.134   2.478  1.00  0.00    -0.247 OA
BRANCH  10  12
HETATM   12  C9  UNL     1       3.605  -0.388   0.512  1.00  0.00     0.278 C 
HETATM   13  O2  UNL     1       3.788  -1.382  -0.151  1.00  0.00    -0.279 OA
BRANCH  12  14
HETATM   14  C10 UNL     1       4.517   0.737   0.529  1.00  0.00     0.136 C 
HETATM   15  N3  UNL     1       4.208   1.821   1.387  1.00  0.00    -0.098 NA
BRANCH  14  16
HETATM   16  C11 UNL     1       5.955   0.464   0.258  1.00  0.00     0.369 C 
BRANCH  16  17
HETATM   17  N4  UNL     1       6.739   0.436   1.487  1.00  0.00    -0.048 N 
ATOM     18  H43 UNL     1       6.618   1.294   2.025  1.00  0.00     0.277 HD
ATOM     19  H42 UNL     1       6.354  -0.228   2.159  1.00  0.00     0.277 HD
ATOM     20  H41 UNL     1       7.724   0.249   1.301  1.00  0.00     0.277 HD
ENDBRANCH  16  17
BRANCH  16  21
HETATM   21  O3  UNL     1       6.482   1.572  -0.474  1.00  0.00    -0.365 OA
ATOM     22  H3  UNL     1       7.400   1.398  -0.647  1.00  0.00     0.212 HD
ENDBRANCH  16  21
ENDBRANCH  14  16
ENDBRANCH  12  14
ENDBRANCH  10  12
ENDBRANCH   3   9
BRANCH   1  23
HETATM   23  C4  UNL     1      -3.303  -0.417  -0.648  1.00  0.00     0.063 A 
HETATM   24  C3  UNL     1      -3.740   0.368   0.436  1.00  0.00     0.080 A 
HETATM   25  C2  UNL     1      -5.011   0.897   0.401  1.00  0.00     0.103 A 
HETATM   26  N1  UNL     1      -5.311   1.653   1.442  1.00  0.00    -0.381 N 
HETATM   27  N8  UNL     1      -5.849   0.698  -0.619  1.00  0.00    -0.339 N 
HETATM   28  C1  UNL     1      -6.572   2.294   1.620  1.00  0.00     0.147 C 
ATOM     29  H1  UNL     1      -4.599   1.786   2.160  1.00  0.00     0.160 HD
HETATM   30  C14 UNL     1      -5.435  -0.080  -1.722  1.00  0.00     0.182 A 
ATOM     31  H8  UNL     1      -6.784   1.106  -0.602  1.00  0.00     0.168 HD
HETATM   32  N7  UNL     1      -4.192  -0.548  -1.600  1.00  0.00    -0.350 N 
ATOM     33  H7  UNL     1      -3.877  -1.109  -2.391  1.00  0.00     0.166 HD
ENDBRANCH   1  23
BRANCH   6  34
HETATM   34  C13 UNL     1      -0.041  -3.023  -3.202  1.00  0.00     0.449 C 
HETATM   35  F1  UNL     1       1.330  -3.182  -3.223  1.00  0.00    -0.163 F 
HETATM   36  F2  UNL     1      -0.573  -4.298  -3.131  1.00  0.00    -0.163 F 
HETATM   37  F3  UNL     1      -0.430  -2.399  -4.363  1.00  0.00    -0.163 F 
ENDBRANCH   6  34
TORSDOF 8
