REMARK  8 active torsions:
REMARK  status: ('A' for Active; 'I' for Inactive)
REMARK    1  A    between atoms: N1_1  and  C1_4 
REMARK    2  A    between atoms: C3_10  and  N4_11 
REMARK    3  A    between atoms: N4_11  and  N5_13 
REMARK    4  A    between atoms: C4_15  and  C5_17 
REMARK    5  A    between atoms: N8_21  and  C6_22 
REMARK    6  A    between atoms: C9_25  and  C10_26 
REMARK    7  A    between atoms: C10_26  and  N9_27 
REMARK    8  A    between atoms: C10_26  and  C11_31 
ROOT
HETATM    1  C5  UNL     1       1.170   0.356  -0.839  1.00  0.00     0.187 A 
HETATM    2  N7  UNL     1       0.793   1.639  -0.733  1.00  0.00    -0.219 N 
ATOM      3  H7  UNL     1       1.394   2.456  -0.839  1.00  0.00     0.198 HD
HETATM    4  O1  UNL     1      -0.473   1.649  -0.471  1.00  0.00    -0.132 OA
HETATM    5  N8  UNL     1      -0.916   0.433  -0.406  1.00  0.00    -0.135 N 
HETATM    6  N10 UNL     1       0.074  -0.399  -0.629  1.00  0.00    -0.252 N 
ATOM      7  H10 UNL     1       0.024  -1.418  -0.641  1.00  0.00     0.191 HD
ENDROOT
BRANCH   1   8
HETATM    8  C4  UNL     1       2.527  -0.076  -1.129  1.00  0.00     0.178 C 
HETATM    9  N5  UNL     1       3.441   0.810  -1.299  1.00  0.00    -0.283 N 
ATOM     10  H5  UNL     1       3.194   1.797  -1.227  1.00  0.00     0.188 HD
HETATM   11  N6  UNL     1       2.771  -1.472  -1.211  1.00  0.00    -0.077 NA
BRANCH   9  12
HETATM   12  N4  UNL     1       4.745   0.465  -1.576  1.00  0.00    -0.282 N 
ATOM     13  H4  UNL     1       5.009   0.335  -2.553  1.00  0.00     0.188 HD
BRANCH  12  14
HETATM   14  C3  UNL     1       5.657   0.296  -0.671  1.00  0.00     0.152 A 
HETATM   15  C2  UNL     1       5.418   0.445   0.679  1.00  0.00     0.158 A 
HETATM   16  N3  UNL     1       6.418   0.253   1.561  1.00  0.00    -0.294 N 
HETATM   17  N2  UNL     1       7.646  -0.079   1.200  1.00  0.00    -0.133 N 
ATOM     18  H3  UNL     1       6.218   0.369   2.555  1.00  0.00     0.186 HD
HETATM   19  C1  UNL     1       7.884  -0.225  -0.115  1.00  0.00     0.692 A 
ATOM     20  H2  UNL     1       8.383  -0.219   1.891  1.00  0.00     0.205 HD
HETATM   21  N11 UNL     1       6.905  -0.041  -1.043  1.00  0.00    -0.173 N 
ATOM     22  H11 UNL     1       7.121  -0.160  -2.033  1.00  0.00     0.186 HD
BRANCH  19  23
HETATM   23  N1  UNL     1       9.068  -0.548  -0.514  1.00  0.00    -0.233 N 
ATOM     24  H12 UNL     1       9.801  -0.686   0.181  1.00  0.00     0.174 HD
ATOM     25  H11 UNL     1       9.249  -0.659  -1.512  1.00  0.00     0.174 HD
ENDBRANCH  19  23
ENDBRANCH  12  14
ENDBRANCH   9  12
ENDBRANCH   1   8
BRANCH   5  26
HETATM   26  C6  UNL     1      -2.292   0.128  -0.128  1.00  0.00     0.084 A 
HETATM   27  C7  UNL     1      -2.904  -0.992  -0.652  1.00  0.00     0.034 A 
HETATM   28  C8  UNL     1      -4.233  -1.292  -0.387  1.00  0.00     0.012 A 
HETATM   29  C9  UNL     1      -4.967  -0.444   0.427  1.00  0.00    -0.019 A 
HETATM   30  C12 UNL     1      -4.358   0.685   0.958  1.00  0.00     0.012 A 
HETATM   31  C13 UNL     1      -3.023   0.971   0.682  1.00  0.00     0.034 A 
BRANCH  29  32
HETATM   32  C10 UNL     1      -6.376  -0.709   0.743  1.00  0.00     0.323 C 
BRANCH  32  33
HETATM   33  N9  UNL     1      -6.707  -0.535   2.128  1.00  0.00    -0.062 N 
ATOM     34  H93 UNL     1      -6.096  -1.102   2.716  1.00  0.00     0.275 HD
ATOM     35  H92 UNL     1      -6.438   0.396   2.446  1.00  0.00     0.275 HD
ATOM     36  H91 UNL     1      -7.686  -0.719   2.348  1.00  0.00     0.275 HD
ENDBRANCH  32  33
BRANCH  32  37
HETATM   37  C11 UNL     1      -7.274   0.146  -0.138  1.00  0.00     0.419 C 
HETATM   38  F1  UNL     1      -7.053  -0.144  -1.464  1.00  0.00    -0.168 F 
HETATM   39  F2  UNL     1      -7.037   1.488   0.064  1.00  0.00    -0.168 F 
HETATM   40  F3  UNL     1      -8.596  -0.170   0.187  1.00  0.00    -0.168 F 
ENDBRANCH  32  37
ENDBRANCH  29  32
ENDBRANCH   5  26
TORSDOF 8
