REMARK  13 active torsions:
REMARK  status: ('A' for Active; 'I' for Inactive)
REMARK    1  A    between atoms: C2_2  and  C3_3 
REMARK    2  A    between atoms: C2_2  and  C12_26 
REMARK    3  A    between atoms: C3_3  and  C4_4 
REMARK       I    between atoms: C4_4  and  N1_6 
REMARK    4  A    between atoms: N1_6  and  C5_7 
REMARK    5  A    between atoms: C5_7  and  C8_10 
REMARK    6  A    between atoms: C8_10  and  O2_11 
REMARK    7  A    between atoms: C8_10  and  C9_13 
REMARK    8  A    between atoms: C10_16  and  N3_17 
REMARK    9  A    between atoms: C13_27  and  C14_28 
REMARK   10  A    between atoms: C15_29  and  C16_30 
REMARK   11  A    between atoms: C16_30  and  C17_31 
REMARK   12  A    between atoms: C17_31  and  C18_32 
REMARK   13  A    between atoms: C18_32  and  C19_33 
ROOT
HETATM    1  C4  UNL     1      -1.975   1.039  -0.913  1.00  0.00     0.291 C 
HETATM    2  O1  UNL     1      -1.408   2.074  -1.449  1.00  0.00    -0.257 OA
HETATM    3  N1  UNL     1      -3.071   0.462  -1.316  1.00  0.00    -0.401 NA
ENDROOT
BRANCH   1   4
HETATM    4  C3  UNL     1      -1.212   0.485   0.309  1.00  0.00     0.157 C 
BRANCH   4   5
HETATM    5  C2  UNL     1       0.251   0.889   0.192  1.00  0.00    -0.051 C 
HETATM    6  C1  UNL     1       0.420   2.172   0.425  1.00  0.00     0.020 C 
BRANCH   5   7
HETATM    7  C12 UNL     1       1.173  -0.180  -0.094  1.00  0.00    -0.023 C 
HETATM    8  C13 UNL     1       2.618  -0.086   0.044  1.00  0.00     0.140 C 
HETATM    9  C21 UNL     1       3.217  -0.764  -1.182  1.00  0.00     0.272 C 
HETATM   10  O4  UNL     1       4.316  -0.528  -1.744  1.00  0.00    -0.264 OA
HETATM   11  O5  UNL     1       2.248  -1.688  -1.504  1.00  0.00    -0.305 OA
HETATM   12  C22 UNL     1       0.995  -0.924  -1.412  1.00  0.00     0.088 C 
HETATM   13  C23 UNL     1      -0.047  -1.995  -1.371  1.00  0.00     0.051 C 
HETATM   14  C24 UNL     1       1.015  -0.077  -2.632  1.00  0.00     0.051 C 
BRANCH   8  15
HETATM   15  C14 UNL     1       3.330   1.162   0.164  1.00  0.00    -0.012 C 
HETATM   16  C15 UNL     1       4.097   1.589   1.167  1.00  0.00    -0.029 C 
BRANCH  16  17
HETATM   17  C16 UNL     1       4.425   0.913   2.400  1.00  0.00     0.027 C 
BRANCH  17  18
HETATM   18  C17 UNL     1       5.819   0.673   2.806  1.00  0.00     0.004 C 
BRANCH  18  19
HETATM   19  C18 UNL     1       6.758  -0.107   1.974  1.00  0.00    -0.000 C 
BRANCH  19  20
HETATM   20  C19 UNL     1       7.086   0.524   0.665  1.00  0.00    -0.005 C 
HETATM   21  C20 UNL     1       8.095  -0.331  -0.114  1.00  0.00     0.005 C 
ENDBRANCH  19  20
ENDBRANCH  18  19
ENDBRANCH  17  18
ENDBRANCH  16  17
ENDBRANCH   8  15
ENDBRANCH   5   7
ENDBRANCH   4   5
ENDBRANCH   1   4
BRANCH   3  22
HETATM   22  C5  UNL     1      -4.276  -0.173  -1.758  1.00  0.00     0.122 C 
HETATM   23  C6  UNL     1      -4.177  -0.800  -3.139  1.00  0.00     0.057 C 
HETATM   24  C7  UNL     1      -5.411   0.839  -1.835  1.00  0.00     0.057 C 
BRANCH  22  25
HETATM   25  C8  UNL     1      -4.750  -1.276  -0.804  1.00  0.00     0.227 C 
BRANCH  25  26
HETATM   26  O2  UNL     1      -3.732  -2.220  -0.645  1.00  0.00    -0.384 OA
ATOM     27  H2  UNL     1      -4.026  -2.903  -0.054  1.00  0.00     0.210 HD
ENDBRANCH  25  26
BRANCH  25  28
HETATM   28  C9  UNL     1      -5.334  -0.802   0.432  1.00  0.00     0.134 A 
HETATM   29  N2  UNL     1      -4.669  -0.212   1.420  1.00  0.00    -0.178 N 
HETATM   30  C10 UNL     1      -5.236   0.185   2.561  1.00  0.00     0.681 A 
ATOM     31  H2  UNL     1      -3.669  -0.054   1.299  1.00  0.00     0.185 HD
HETATM   32  N4  UNL     1      -6.544  -0.001   2.766  1.00  0.00    -0.141 N 
HETATM   33  C11 UNL     1      -7.258  -0.593   1.800  1.00  0.00     0.340 A 
ATOM     34  H4  UNL     1      -6.986   0.300   3.635  1.00  0.00     0.189 HD
HETATM   35  O3  UNL     1      -8.494  -0.765   2.005  1.00  0.00    -0.246 OA
HETATM   36  N5  UNL     1      -6.671  -0.985   0.660  1.00  0.00    -0.295 N 
ATOM     37  H5  UNL     1      -7.238  -1.433  -0.059  1.00  0.00     0.172 HD
BRANCH  30  38
HETATM   38  N3  UNL     1      -4.528   0.754   3.469  1.00  0.00    -0.234 N 
ATOM     39  H32 UNL     1      -3.530   0.896   3.313  1.00  0.00     0.174 HD
ATOM     40  H31 UNL     1      -4.961   1.057   4.341  1.00  0.00     0.174 HD
ENDBRANCH  30  38
ENDBRANCH  25  28
ENDBRANCH  22  25
ENDBRANCH   3  22
TORSDOF 13
