REMARK  11 active torsions:
REMARK  status: ('A' for Active; 'I' for Inactive)
REMARK    1  A    between atoms: C2_2  and  C4_4 
REMARK    2  A    between atoms: C4_4  and  N1_5 
REMARK    3  A    between atoms: C5_8  and  C6_9 
REMARK    4  A    between atoms: C12_18  and  C13_19 
REMARK    5  A    between atoms: C13_19  and  C14_20 
REMARK    6  A    between atoms: C13_19  and  N5_35 
REMARK    7  A    between atoms: C14_20  and  C15_21 
REMARK    8  A    between atoms: C17_23  and  C18_24 
REMARK    9  A    between atoms: C20_29  and  C21_30 
REMARK   10  A    between atoms: N5_35  and  C23_37 
REMARK   11  A    between atoms: C23_37  and  C24_38 
ROOT
HETATM    1  C24 UNL     1      -3.192  -2.077  -1.771  1.00  0.00     0.081 C 
HETATM    2  C25 UNL     1      -3.331  -2.019  -3.213  1.00  0.00     0.072 C 
HETATM    3  N6  UNL     1      -3.433  -1.966  -4.367  1.00  0.00    -0.196 NA
HETATM    4  C26 UNL     1      -4.531  -2.354  -1.148  1.00  0.00     0.028 C 
HETATM    5  C27 UNL     1      -4.257  -3.002   0.213  1.00  0.00     0.002 C 
HETATM    6  C28 UNL     1      -3.908  -4.427  -0.097  1.00  0.00     0.001 C 
HETATM    7  C29 UNL     1      -2.680  -4.435  -0.975  1.00  0.00     0.021 C 
HETATM    8  C30 UNL     1      -2.163  -3.116  -1.393  1.00  0.00     0.117 C 
HETATM    9  C31 UNL     1      -1.378  -3.364  -2.644  1.00  0.00     0.065 C 
HETATM   10  N7  UNL     1      -0.747  -3.540  -3.597  1.00  0.00    -0.197 NA
ENDROOT
BRANCH   1  11
HETATM   11  C23 UNL     1      -2.754  -0.734  -1.235  1.00  0.00     0.146 C 
BRANCH  11  12
HETATM   12  N5  UNL     1      -1.492  -0.286  -1.726  1.00  0.00    -0.385 N 
ATOM     13  H5  UNL     1      -0.981  -0.705  -2.503  1.00  0.00     0.159 HD
BRANCH  12  14
HETATM   14  C13 UNL     1      -1.031   0.900  -0.921  1.00  0.00     0.075 C 
BRANCH  14  15
HETATM   15  C12 UNL     1       0.296   0.714  -0.442  1.00  0.00     0.150 A 
HETATM   16  N1  UNL     1       1.344   1.425  -0.032  1.00  0.00    -0.273 N 
HETATM   17  N2  UNL     1       2.319   0.611   0.371  1.00  0.00    -0.285 N 
HETATM   18  C5  UNL     1       1.931  -0.637   0.228  1.00  0.00     0.102 A 
ATOM     19  H2  UNL     1       3.224   0.909   0.734  1.00  0.00     0.188 HD
HETATM   20  N4  UNL     1       0.723  -0.609  -0.258  1.00  0.00    -0.328 N 
ATOM     21  H4  UNL     1       0.165  -1.435  -0.475  1.00  0.00     0.169 HD
BRANCH  16  22
HETATM   22  C4  UNL     1       1.504   2.811  -0.213  1.00  0.00     0.155 C 
BRANCH  22  23
HETATM   23  C2  UNL     1       2.814   3.114  -0.966  1.00  0.00    -0.003 C 
HETATM   24  C1  UNL     1       3.990   2.686  -0.100  1.00  0.00     0.011 C 
HETATM   25  C3  UNL     1       2.886   2.440  -2.315  1.00  0.00     0.011 C 
ENDBRANCH  22  23
ENDBRANCH  16  22
BRANCH  18  26
HETATM   26  C6  UNL     1       2.779  -1.825   0.489  1.00  0.00     0.058 C 
HETATM   27  C7  UNL     1       3.972  -1.824  -0.432  1.00  0.00     0.032 C 
HETATM   28  C8  UNL     1       4.666  -3.150  -0.324  1.00  0.00     0.117 C 
HETATM   29  N3  UNL     1       4.970  -3.510   1.013  1.00  0.00    -0.417 N 
HETATM   30  C9  UNL     1       6.283  -3.178   1.468  1.00  0.00     0.143 C 
HETATM   31  C10 UNL     1       3.913  -3.374   1.940  1.00  0.00     0.117 C 
HETATM   32  C11 UNL     1       3.274  -1.968   1.875  1.00  0.00     0.032 C 
ENDBRANCH  18  26
ENDBRANCH  14  15
BRANCH  14  33
HETATM   33  C14 UNL     1      -1.854   2.021  -1.167  1.00  0.00     0.044 C 
BRANCH  33  34
HETATM   34  C15 UNL     1      -2.212   2.905  -0.013  1.00  0.00    -0.032 A 
HETATM   35  C16 UNL     1      -1.744   4.179   0.044  1.00  0.00     0.027 A 
HETATM   36  C17 UNL     1      -1.992   4.986   1.123  1.00  0.00     0.049 A 
HETATM   37  C19 UNL     1      -2.737   4.506   2.175  1.00  0.00     0.032 A 
HETATM   38  C20 UNL     1      -3.230   3.194   2.122  1.00  0.00     0.049 A 
HETATM   39  C22 UNL     1      -2.961   2.404   1.026  1.00  0.00     0.027 A 
BRANCH  36  40
HETATM   40  C18 UNL     1      -1.429   6.402   1.138  1.00  0.00     0.417 C 
HETATM   41  F1  UNL     1      -2.366   7.213   1.686  1.00  0.00    -0.166 F 
HETATM   42  F2  UNL     1      -0.295   6.416   1.919  1.00  0.00    -0.166 F 
HETATM   43  F3  UNL     1      -1.135   6.736  -0.150  1.00  0.00    -0.166 F 
ENDBRANCH  36  40
BRANCH  38  44
HETATM   44  C21 UNL     1      -4.019   2.638   3.262  1.00  0.00     0.417 C 
HETATM   45  F4  UNL     1      -3.851   3.508   4.337  1.00  0.00    -0.166 F 
HETATM   46  F5  UNL     1      -5.339   2.626   2.866  1.00  0.00    -0.166 F 
HETATM   47  F6  UNL     1      -3.562   1.371   3.564  1.00  0.00    -0.166 F 
ENDBRANCH  38  44
ENDBRANCH  33  34
ENDBRANCH  14  33
ENDBRANCH  12  14
ENDBRANCH  11  12
ENDBRANCH   1  11
TORSDOF 11
