REMARK  1 active torsions:
REMARK  status: ('A' for Active; 'I' for Inactive)
REMARK    1  A    between atoms: C4_7  and  C5_8 
ROOT
HETATM    1  C1  UNL     1      -0.721   1.828   0.038  1.00  0.00     0.046 C 
HETATM    2  C2  UNL     1      -0.790   0.407  -0.370  1.00  0.00     0.128 C 
HETATM    3  C3  UNL     1      -2.223  -0.020  -0.626  1.00  0.00     0.046 C 
HETATM    4  N1  UNL     1       0.011   0.189  -1.585  1.00  0.00    -0.057 N 
ATOM      5  H11 UNL     1       0.261   0.982  -2.176  1.00  0.00     0.279 HD
ATOM      6  H12 UNL     1      -0.405  -0.284  -2.387  1.00  0.00     0.279 HD
HETATM    7  C4  UNL     1       1.051  -0.490  -0.795  1.00  0.00     0.234 C 
HETATM    8  C6  UNL     1       0.068  -0.590   0.313  1.00  0.00     0.018 C 
HETATM    9  C7  UNL     1      -0.618  -1.969   0.241  1.00  0.00     0.020 C 
HETATM   10  C8  UNL     1       0.507  -0.355   1.700  1.00  0.00     0.020 C 
ENDROOT
BRANCH   7  11
HETATM   11  C5  UNL     1       2.275   0.270  -0.605  1.00  0.00     0.086 C 
HETATM   12  N2  UNL     1       2.593   0.947   0.427  1.00  0.00    -0.409 N 
ATOM     13  H22 UNL     1       1.910   0.944   1.185  1.00  0.00     0.155 HD
ATOM     14  H21 UNL     1       3.452   1.480   0.560  1.00  0.00     0.155 HD
ENDBRANCH   7  11
TORSDOF 1
