REMARK  9 active torsions:
REMARK  status: ('A' for Active; 'I' for Inactive)
REMARK    1  A    between atoms: N1_2  and  C2_5 
REMARK    2  A    between atoms: C2_5  and  C3_6 
REMARK    3  A    between atoms: C4_9  and  N3_10 
REMARK    4  A    between atoms: N3_10  and  C5_12 
REMARK    5  A    between atoms: C5_12  and  C6_13 
REMARK    6  A    between atoms: C5_12  and  C13_37 
REMARK       I    between atoms: C6_13  and  N4_15 
REMARK    7  A    between atoms: N4_15  and  N5_17 
REMARK       I    between atoms: N5_17  and  C7_19 
REMARK       I    between atoms: C7_19  and  N6_21 
REMARK    8  A    between atoms: C10_28  and  N9_29 
REMARK    9  A    between atoms: C13_37  and  N11_39 
ROOT
HETATM    1  C6  UNL     1      -0.207  -0.167   0.616  1.00  0.00     0.261 C 
HETATM    2  O1  UNL     1      -0.782  -1.008  -0.119  1.00  0.00    -0.269 OA
HETATM    3  N4  UNL     1      -0.938   0.562   1.559  1.00  0.00    -0.264 N 
ATOM      4  H4  UNL     1      -0.451   1.241   2.144  1.00  0.00     0.190 HD
ENDROOT
BRANCH   1   5
HETATM    5  C5  UNL     1       1.278   0.075   0.501  1.00  0.00     0.208 C 
BRANCH   5   6
HETATM    6  N3  UNL     1       1.814  -0.758  -0.540  1.00  0.00    -0.347 N 
ATOM      7  H3  UNL     1       1.180  -1.385  -1.034  1.00  0.00     0.163 HD
BRANCH   6   8
HETATM    8  C4  UNL     1       3.218  -0.750  -0.923  1.00  0.00     0.175 A 
HETATM    9  N2  UNL     1       4.111   0.122  -1.122  1.00  0.00    -0.340 N 
HETATM   10  C3  UNL     1       5.125  -0.787  -1.445  1.00  0.00     0.212 A 
ATOM     11  H2  UNL     1       4.097   1.140  -1.066  1.00  0.00     0.164 HD
HETATM   12  N12 UNL     1       4.125  -1.781  -1.236  1.00  0.00    -0.340 N 
ATOM     13  H12 UNL     1       4.084  -2.799  -1.290  1.00  0.00     0.164 HD
BRANCH  10  14
HETATM   14  C2  UNL     1       6.313  -0.864  -0.506  1.00  0.00     0.278 C 
BRANCH  14  15
HETATM   15  N1  UNL     1       6.983   0.411  -0.414  1.00  0.00    -0.075 N 
HETATM   16  C1  UNL     1       7.649   0.798  -1.622  1.00  0.00     0.267 C 
ATOM     17  H12 UNL     1       7.631   0.422   0.374  1.00  0.00     0.276 HD
ATOM     18  H11 UNL     1       6.335   1.138  -0.111  1.00  0.00     0.276 HD
ENDBRANCH  14  15
ENDBRANCH  10  14
ENDBRANCH   6   8
ENDBRANCH   5   6
BRANCH   5  19
HETATM   19  C13 UNL     1       1.890  -0.217   1.877  1.00  0.00     0.211 C 
HETATM   20  C14 UNL     1       1.648  -1.638   2.290  1.00  0.00     0.042 C 
BRANCH  19  21
HETATM   21  N11 UNL     1       3.292   0.102   1.866  1.00  0.00    -0.073 N 
ATOM     22 3H11 UNL     1       3.788  -0.379   1.116  1.00  0.00     0.274 HD
ATOM     23 2H11 UNL     1       3.464   1.062   1.566  1.00  0.00     0.274 HD
ATOM     24 1H11 UNL     1       3.699  -0.092   2.781  1.00  0.00     0.274 HD
ENDBRANCH  19  21
ENDBRANCH   5  19
ENDBRANCH   1   5
BRANCH   3  25
HETATM   25  N5  UNL     1      -2.325   0.387   1.726  1.00  0.00    -0.248 N 
HETATM   26  C7  UNL     1      -3.254   0.688   0.663  1.00  0.00     0.347 C 
HETATM   27  O2  UNL     1      -2.715   1.109  -0.403  1.00  0.00    -0.245 OA
HETATM   28  N6  UNL     1      -4.644   0.511   0.847  1.00  0.00    -0.250 N 
HETATM   29  C8  UNL     1      -5.167   0.060   2.008  1.00  0.00     0.195 A 
HETATM   30  C12 UNL     1      -5.656   0.730  -0.003  1.00  0.00     0.158 A 
HETATM   31  N7  UNL     1      -6.500   0.000   1.879  1.00  0.00    -0.336 N 
HETATM   32  C9  UNL     1      -6.832   0.402   0.666  1.00  0.00     0.155 A 
ATOM     33  H7  UNL     1      -7.152  -0.307   2.601  1.00  0.00     0.168 HD
HETATM   34  N8  UNL     1      -8.013   0.539   0.015  1.00  0.00    -0.174 N 
HETATM   35  C10 UNL     1      -8.100   0.969  -1.223  1.00  0.00     0.680 A 
ATOM     36  H8  UNL     1      -8.872   0.297   0.508  1.00  0.00     0.186 HD
HETATM   37  N10 UNL     1      -6.973   1.284  -1.865  1.00  0.00    -0.154 N 
HETATM   38  C11 UNL     1      -5.743   1.177  -1.288  1.00  0.00     0.290 A 
ATOM     39  H10 UNL     1      -7.035   1.618  -2.827  1.00  0.00     0.187 HD
HETATM   40  O3  UNL     1      -4.723   1.485  -1.934  1.00  0.00    -0.265 OA
ATOM     41  H5  UNL     1      -2.681   0.040   2.617  1.00  0.00     0.192 HD
BRANCH  35  42
HETATM   42  N9  UNL     1      -9.252   1.088  -1.813  1.00  0.00    -0.234 N 
ATOM     43  H92 UNL     1     -10.113   0.847  -1.322  1.00  0.00     0.174 HD
ATOM     44  H91 UNL     1      -9.320   1.422  -2.774  1.00  0.00     0.174 HD
ENDBRANCH  35  42
ENDBRANCH   3  25
TORSDOF 9
