REMARK  5 active torsions:
REMARK  status: ('A' for Active; 'I' for Inactive)
REMARK    1  A    between atoms: C1_2  and  C2_3 
REMARK       I    between atoms: C1_2  and  N3_11 
REMARK    2  A    between atoms: C2_3  and  C3_4 
REMARK    3  A    between atoms: N3_11  and  C6_13 
REMARK    4  A    between atoms: C8_18  and  C9_19 
REMARK    5  A    between atoms: C9_19  and  C10_21 
ROOT
HETATM    1  C6  UNL     1      -0.690   0.761   1.437  1.00  0.00     0.152 A 
HETATM    2  N4  UNL     1       0.477   1.306   1.794  1.00  0.00    -0.329 N 
ATOM      3  H4  UNL     1       0.561   1.841   2.658  1.00  0.00     0.168 HD
HETATM    4  C7  UNL     1       1.505   1.137   1.011  1.00  0.00     0.103 A 
HETATM    5 BR1  UNL     1       3.252   1.887   1.407  1.00  0.00    -0.030 Br
HETATM    6  C8  UNL     1       1.332   0.411  -0.132  1.00  0.00     0.093 A 
HETATM    7  S1  UNL     1      -0.318  -0.008  -0.041  1.00  0.00    -0.047 SA
ENDROOT
BRANCH   1   8
HETATM    8  N3  UNL     1      -1.835   0.814   2.083  1.00  0.00    -0.307 N 
HETATM    9  C1  UNL     1      -2.941   0.144   1.486  1.00  0.00     0.229 C 
HETATM   10  O1  UNL     1      -3.366  -0.958   1.897  1.00  0.00    -0.273 OA
ATOM     11  H3  UNL     1      -1.926   1.311   2.969  1.00  0.00     0.171 HD
BRANCH   9  12
HETATM   12  C2  UNL     1      -3.625   0.770   0.328  1.00  0.00     0.161 C 
BRANCH  12  13
HETATM   13  C3  UNL     1      -4.742  -0.067  -0.144  1.00  0.00     0.034 A 
HETATM   14  C4  UNL     1      -6.043   0.056   0.341  1.00  0.00     0.114 A 
HETATM   15  N1  UNL     1      -6.786  -0.848  -0.301  1.00  0.00    -0.360 N 
HETATM   16  C5  UNL     1      -5.994  -1.513  -1.154  1.00  0.00     0.180 A 
ATOM     17  H1  UNL     1      -7.785  -1.006  -0.166  1.00  0.00     0.166 HD
HETATM   18  N2  UNL     1      -4.758  -1.045  -1.062  1.00  0.00    -0.354 N 
ATOM     19  H2  UNL     1      -3.955  -1.373  -1.598  1.00  0.00     0.166 HD
ENDBRANCH  12  13
ENDBRANCH   9  12
ENDBRANCH   1   8
BRANCH   6  20
HETATM   20  C9  UNL     1       2.276   0.042  -1.193  1.00  0.00     0.203 C 
HETATM   21  O2  UNL     1       1.845  -0.105  -2.387  1.00  0.00    -0.286 OA
BRANCH  20  22
HETATM   22  C10 UNL     1       3.674  -0.163  -0.954  1.00  0.00     0.033 A 
HETATM   23  C11 UNL     1       4.628   0.586  -1.601  1.00  0.00     0.017 A 
HETATM   24  C12 UNL     1       5.981   0.437  -1.401  1.00  0.00     0.001 A 
HETATM   25  C13 UNL     1       6.384  -0.522  -0.498  1.00  0.00     0.001 A 
HETATM   26  C14 UNL     1       5.437  -1.302   0.178  1.00  0.00     0.020 A 
HETATM   27  C15 UNL     1       4.096  -1.115  -0.056  1.00  0.00     0.025 A 
HETATM   28 BR2  UNL     1       2.860  -2.233   0.899  1.00  0.00    -0.050 Br
ENDBRANCH  20  22
ENDBRANCH   6  20
TORSDOF 5
