REMARK  7 active torsions:
REMARK  status: ('A' for Active; 'I' for Inactive)
REMARK    1  A    between atoms: C1_2  and  C2_4 
REMARK    2  A    between atoms: C2_4  and  C3_5 
REMARK    3  A    between atoms: C2_4  and  N3_21 
REMARK    4  A    between atoms: C3_5  and  C4_6 
REMARK    5  A    between atoms: C7_9  and  C8_10 
REMARK    6  A    between atoms: N1_14  and  O3_15 
REMARK       I    between atoms: N3_21  and  C14_23 
REMARK    7  A    between atoms: C14_23  and  C15_25 
ROOT
HETATM    1  C4  UNL     1       0.202   0.583   0.565  1.00  0.00     0.011 A 
HETATM    2  C5  UNL     1       1.162   1.547   0.358  1.00  0.00     0.026 A 
HETATM    3  C6  UNL     1       2.502   1.230   0.307  1.00  0.00     0.015 A 
HETATM    4  C7  UNL     1       2.925  -0.087   0.466  1.00  0.00    -0.009 A 
HETATM    5  C13 UNL     1       1.950  -1.018   0.670  1.00  0.00     0.100 A 
HETATM    6  N2  UNL     1       0.656  -0.684   0.715  1.00  0.00    -0.368 N 
ATOM      7  H2  UNL     1      -0.027  -1.425   0.871  1.00  0.00     0.165 HD
ENDROOT
BRANCH   1   8
HETATM    8  C3  UNL     1      -1.246   0.815   0.634  1.00  0.00     0.093 C 
BRANCH   8   9
HETATM    9  C2  UNL     1      -2.014   0.658  -0.632  1.00  0.00     0.191 C 
BRANCH   9  10
HETATM   10  C1  UNL     1      -1.627   1.544  -1.731  1.00  0.00     0.197 C 
HETATM   11  O1  UNL     1      -2.490   2.297  -2.244  1.00  0.00    -0.646 OA
HETATM   12  O2  UNL     1      -0.349   1.574  -2.218  1.00  0.00    -0.646 OA
ENDBRANCH   9  10
BRANCH   9  13
HETATM   13  N3  UNL     1      -3.461   0.766  -0.366  1.00  0.00    -0.346 N 
HETATM   14  C14 UNL     1      -4.353  -0.301  -0.530  1.00  0.00     0.225 C 
HETATM   15  O4  UNL     1      -3.903  -1.416  -0.926  1.00  0.00    -0.273 OA
ATOM     16  H3  UNL     1      -3.830   1.662  -0.047  1.00  0.00     0.163 HD
BRANCH  14  17
HETATM   17  C15 UNL     1      -5.807  -0.204  -0.267  1.00  0.00     0.110 A 
HETATM   18  C16 UNL     1      -6.375  -1.407   0.450  1.00  0.00     0.050 A 
HETATM   19  C17 UNL     1      -6.774  -1.068  -0.954  1.00  0.00     0.088 A 
HETATM   20 BR1  UNL     1      -8.612  -0.478  -1.131  1.00  0.00    -0.072 Br
HETATM   21 BR2  UNL     1      -6.207  -2.252  -2.384  1.00  0.00    -0.072 Br
ENDBRANCH  14  17
ENDBRANCH   9  13
ENDBRANCH   8   9
ENDBRANCH   1   8
BRANCH   4  22
HETATM   22  C8  UNL     1       4.324  -0.414   0.415  1.00  0.00    -0.007 A 
HETATM   23  C9  UNL     1       4.765  -1.628  -0.056  1.00  0.00     0.015 A 
HETATM   24  C10 UNL     1       6.128  -1.852  -0.067  1.00  0.00     0.021 A 
HETATM   25  C11 UNL     1       7.015  -0.897   0.376  1.00  0.00     0.122 A 
HETATM   26  N1  UNL     1       6.578   0.280   0.832  1.00  0.00    -0.246 N 
HETATM   27  C12 UNL     1       5.238   0.528   0.854  1.00  0.00     0.134 A 
BRANCH  26  28
HETATM   28  O3  UNL     1       7.512   1.189   1.259  1.00  0.00    -0.284 OA
ATOM     29  H3  UNL     1       7.201   2.026   1.583  1.00  0.00     0.245 HD
ENDBRANCH  26  28
ENDBRANCH   4  22
TORSDOF 7
