REMARK  8 active torsions:
REMARK  status: ('A' for Active; 'I' for Inactive)
REMARK    1  A    between atoms: C3_3  and  C4_5 
REMARK    2  A    between atoms: C4_5  and  C5_6 
REMARK    3  A    between atoms: C5_6  and  C6_7 
REMARK    4  A    between atoms: C9_11  and  O2_12 
REMARK    5  A    between atoms: C13_17  and  O3_18 
REMARK    6  A    between atoms: C13_17  and  N1_20 
REMARK    7  A    between atoms: N1_20  and  C14_22 
REMARK    8  A    between atoms: C14_22  and  C17_25 
ROOT
HETATM    1  C1  UNL     1       0.236  -4.230  -3.893  1.00  0.00     0.021 C 
HETATM    2  C2  UNL     1      -0.460  -3.602  -3.138  1.00  0.00    -0.034 C 
HETATM    3  C3  UNL     1      -1.277  -2.833  -2.243  1.00  0.00     0.238 C 
HETATM    4  O1  UNL     1      -2.492  -3.130  -2.217  1.00  0.00    -0.277 OA
ENDROOT
BRANCH   3   5
HETATM    5  C4  UNL     1      -0.698  -1.743  -1.398  1.00  0.00     0.074 C 
HETATM    6  C13 UNL     1      -1.621  -0.988  -0.626  1.00  0.00     0.152 C 
BRANCH   5   7
HETATM    7  C5  UNL     1       0.564  -1.539  -1.519  1.00  0.00     0.033 C 
BRANCH   7   8
HETATM    8  C6  UNL     1       1.499  -0.641  -0.921  1.00  0.00    -0.016 A 
HETATM    9  C7  UNL     1       2.033   0.441  -1.586  1.00  0.00     0.034 A 
HETATM   10  C8  UNL     1       2.990   1.264  -1.027  1.00  0.00     0.045 A 
HETATM   11 BR1  UNL     1       3.719   2.754  -1.961  1.00  0.00    -0.048 Br
HETATM   12  C9  UNL     1       3.436   0.999   0.250  1.00  0.00     0.086 A 
HETATM   13  C11 UNL     1       2.936  -0.067   0.955  1.00  0.00     0.058 A 
HETATM   14  C12 UNL     1       1.985  -0.866   0.371  1.00  0.00     0.024 A 
HETATM   15 BR2  UNL     1       1.301  -2.350   1.321  1.00  0.00    -0.050 Br
BRANCH  12  16
HETATM   16  O2  UNL     1       4.395   1.835   0.793  1.00  0.00    -0.355 OA
HETATM   17  C10 UNL     1       4.853   1.568   2.100  1.00  0.00     0.210 C 
ENDBRANCH  12  16
ENDBRANCH   7   8
ENDBRANCH   5   7
BRANCH   6  18
HETATM   18  O3  UNL     1      -2.845  -1.444  -0.634  1.00  0.00    -0.346 OA
ATOM     19  H3  UNL     1      -3.462  -0.939  -0.118  1.00  0.00     0.219 HD
ENDBRANCH   6  18
BRANCH   6  20
HETATM   20  N1  UNL     1      -1.441   0.177   0.144  1.00  0.00    -0.352 N 
ATOM     21  H1  UNL     1      -0.511   0.594   0.189  1.00  0.00     0.163 HD
BRANCH  20  22
HETATM   22  C14 UNL     1      -2.524   0.810   0.877  1.00  0.00     0.113 C 
HETATM   23  C15 UNL     1      -1.949   2.006   1.608  1.00  0.00     0.050 C 
HETATM   24  C16 UNL     1      -3.211  -0.089   1.849  1.00  0.00     0.050 C 
BRANCH  22  25
HETATM   25  C17 UNL     1      -3.549   1.347  -0.087  1.00  0.00     0.201 C 
HETATM   26  O4  UNL     1      -3.449   1.263  -1.328  1.00  0.00    -0.646 OA
HETATM   27  O5  UNL     1      -4.650   1.961   0.487  1.00  0.00    -0.646 OA
ENDBRANCH  22  25
ENDBRANCH  20  22
ENDBRANCH   6  20
ENDBRANCH   3   5
TORSDOF 8
