REMARK  5 active torsions:
REMARK  status: ('A' for Active; 'I' for Inactive)
REMARK    1  A    between atoms: C2_2  and  C3_3 
REMARK       I    between atoms: C3_3  and  N1_5 
REMARK    2  A    between atoms: C4_7  and  C5_8 
REMARK    3  A    between atoms: C4_7  and  C11_18 
REMARK    4  A    between atoms: C5_8  and  C6_9 
REMARK       I    between atoms: C11_18  and  N4_20 
REMARK    5  A    between atoms: N4_20  and  C12_22 
ROOT
HETATM    1  C6  UNL     1      -1.905  -2.200   0.733  1.00  0.00     0.037 A 
HETATM    2  N2  UNL     1      -1.269  -3.124   1.473  1.00  0.00    -0.366 N 
ATOM      3  H2  UNL     1      -1.028  -2.998   2.456  1.00  0.00     0.165 HD
HETATM    4  C7  UNL     1      -0.989  -4.227   0.771  1.00  0.00     0.108 A 
HETATM    5  C8  UNL     1      -1.478  -3.992  -0.496  1.00  0.00     0.049 A 
HETATM    6 BR1  UNL     1      -1.398  -5.185  -1.989  1.00  0.00    -0.048 Br
HETATM    7  C9  UNL     1      -2.047  -2.751  -0.548  1.00  0.00     0.086 A 
HETATM    8  C10 UNL     1      -2.680  -2.093  -1.669  1.00  0.00     0.103 C 
HETATM    9  N3  UNL     1      -3.194  -1.583  -2.577  1.00  0.00    -0.191 NA
ENDROOT
BRANCH   1  10
HETATM   10  C5  UNL     1      -2.395  -0.858   1.136  1.00  0.00     0.121 C 
BRANCH  10  11
HETATM   11  C4  UNL     1      -1.536   0.252   0.583  1.00  0.00     0.086 C 
HETATM   12  N1  UNL     1      -2.078   1.097  -0.210  1.00  0.00    -0.322 N 
HETATM   13  C3  UNL     1      -1.439   2.183  -0.813  1.00  0.00     0.244 C 
ATOM     14  H1  UNL     1      -3.067   0.966  -0.421  1.00  0.00     0.169 HD
HETATM   15  O1  UNL     1      -0.887   1.993  -1.930  1.00  0.00    -0.268 OA
BRANCH  13  16
HETATM   16  C2  UNL     1      -1.371   3.519  -0.233  1.00  0.00     0.064 C 
HETATM   17  C1  UNL     1      -1.929   3.804   0.932  1.00  0.00     0.017 C 
ENDBRANCH  13  16
BRANCH  11  18
HETATM   18  C11 UNL     1      -0.138   0.312   0.963  1.00  0.00     0.270 C 
HETATM   19  O2  UNL     1       0.296  -0.580   1.771  1.00  0.00    -0.266 OA
HETATM   20  N4  UNL     1       0.809   1.247   0.541  1.00  0.00    -0.308 N 
ATOM     21  H4  UNL     1       0.561   2.230   0.654  1.00  0.00     0.170 HD
BRANCH  20  22
HETATM   22  C12 UNL     1       1.966   0.999   0.023  1.00  0.00     0.108 A 
HETATM   23  C13 UNL     1       2.469  -0.244  -0.207  1.00  0.00     0.049 A 
HETATM   24  C14 UNL     1       3.736  -0.402  -0.769  1.00  0.00     0.007 A 
HETATM   25  C15 UNL     1       4.485   0.718  -1.093  1.00  0.00     0.037 A 
HETATM   26  C16 UNL     1       3.950   1.966  -0.849  1.00  0.00     0.081 A 
HETATM   27 BR2  UNL     1       4.988   3.515  -1.299  1.00  0.00    -0.031 Br
HETATM   28  N5  UNL     1       2.730   2.065  -0.309  1.00  0.00    -0.337 N 
ATOM     29  H5  UNL     1       2.354   2.998  -0.138  1.00  0.00     0.168 HD
ENDBRANCH  20  22
ENDBRANCH  11  18
ENDBRANCH  10  11
ENDBRANCH   1  10
TORSDOF 5
