REMARK  5 active torsions:
REMARK  status: ('A' for Active; 'I' for Inactive)
REMARK    1  A    between atoms: C2_2  and  C3_3 
REMARK    2  A    between atoms: C6_6  and  N1_7 
REMARK    3  A    between atoms: C9_12  and  N3_13 
REMARK    4  A    between atoms: N3_13  and  C10_15 
REMARK    5  A    between atoms: C10_15  and  C11_16 
ROOT
HETATM    1  N1  UNL     1       0.253   0.598   0.037  1.00  0.00    -0.271 N 
HETATM    2  N2  UNL     1       0.004   1.802  -0.426  1.00  0.00    -0.298 N 
ATOM      3  H2  UNL     1       0.709   2.424  -0.822  1.00  0.00     0.187 HD
HETATM    4  C7  UNL     1      -1.294   2.108  -0.312  1.00  0.00     0.064 A 
HETATM    5  C8  UNL     1      -1.872   0.972   0.278  1.00  0.00     0.015 A 
HETATM    6  C9  UNL     1      -0.910   0.036   0.494  1.00  0.00     0.126 A 
HETATM    7  C14 UNL     1      -3.310   1.044   0.522  1.00  0.00     0.075 C 
HETATM    8  C15 UNL     1      -3.580   2.486   0.997  1.00  0.00     0.277 C 
HETATM    9  N4  UNL     1      -3.340   3.424  -0.047  1.00  0.00     0.090 N 
HETATM   10  C16 UNL     1      -3.510   4.751   0.463  1.00  0.00     0.310 C 
HETATM   11  C17 UNL     1      -2.071   3.304  -0.678  1.00  0.00     0.330 C 
ENDROOT
BRANCH   1  12
HETATM   12  C6  UNL     1       1.549   0.025   0.038  1.00  0.00     0.110 C 
HETATM   13  C5  UNL     1       1.997  -0.316  -1.379  1.00  0.00     0.028 C 
HETATM   14  C4  UNL     1       2.766  -1.593  -1.410  1.00  0.00     0.007 C 
HETATM   15  C3  UNL     1       3.794  -1.733  -0.313  1.00  0.00    -0.015 C 
HETATM   16  C19 UNL     1       3.322  -1.254   1.027  1.00  0.00     0.007 C 
HETATM   17  C18 UNL     1       1.787  -1.109   0.968  1.00  0.00     0.028 C 
BRANCH  15  18
HETATM   18  C2  UNL     1       5.123  -1.188  -0.731  1.00  0.00     0.000 C 
HETATM   19  C1  UNL     1       5.141   0.251  -1.096  1.00  0.00     0.005 C 
ENDBRANCH  15  18
ENDBRANCH   1  12
BRANCH   6  20
HETATM   20  N3  UNL     1      -0.960  -1.089   0.976  1.00  0.00    -0.374 N 
ATOM     21  H3  UNL     1      -0.026  -1.499   0.972  1.00  0.00     0.161 HD
BRANCH  20  22
HETATM   22  C10 UNL     1      -1.853  -1.991   1.524  1.00  0.00     0.126 C 
BRANCH  22  23
HETATM   23  C11 UNL     1      -2.042  -3.139   0.514  1.00  0.00     0.003 A 
HETATM   24  C12 UNL     1      -2.586  -2.761  -0.848  1.00  0.00     0.007 A 
HETATM   25  C13 UNL     1      -3.453  -3.509   0.106  1.00  0.00     0.007 A 
ENDBRANCH  22  23
ENDBRANCH  20  22
ENDBRANCH   6  20
TORSDOF 5
