REMARK  5 active torsions:
REMARK  status: ('A' for Active; 'I' for Inactive)
REMARK    1  A    between atoms: C2_2  and  O1_5 
REMARK    2  A    between atoms: O1_5  and  C5_6 
REMARK    3  A    between atoms: C5_6  and  C6_8 
REMARK    4  A    between atoms: N1_9  and  N2_11 
REMARK       I    between atoms: N2_11  and  C7_13 
REMARK    5  A    between atoms: C7_13  and  C8_15 
ROOT
HETATM    1  N2  UNL     1       0.104  -0.892  -0.557  1.00  0.00    -0.270 N 
ATOM      2  H2  UNL     1      -0.265  -1.512  -1.278  1.00  0.00     0.190 HD
HETATM    3  C7  UNL     1      -0.728   0.169  -0.078  1.00  0.00     0.244 C 
HETATM    4  O3  UNL     1      -0.281   0.926   0.801  1.00  0.00    -0.271 OA
ENDROOT
BRANCH   3   5
HETATM    5  C8  UNL     1      -2.122   0.340  -0.650  1.00  0.00     0.040 C 
HETATM    6  C9  UNL     1      -1.869   0.576  -2.151  1.00  0.00     0.025 C 
HETATM    7  C10 UNL     1      -2.750  -0.979  -0.511  1.00  0.00     0.023 C 
HETATM    8  C11 UNL     1      -4.211  -1.081  -0.535  1.00  0.00    -0.013 C 
HETATM    9  C12 UNL     1      -4.708  -1.489   0.859  1.00  0.00     0.010 C 
HETATM   10  C18 UNL     1      -4.994   0.127  -0.835  1.00  0.00     0.010 C 
HETATM   11  C13 UNL     1      -4.941  -0.197   1.567  1.00  0.00    -0.009 C 
HETATM   12  C14 UNL     1      -3.716   0.519   2.085  1.00  0.00     0.010 C 
HETATM   13  C17 UNL     1      -5.085   0.840   0.481  1.00  0.00    -0.006 C 
HETATM   14  C15 UNL     1      -3.792   1.436   0.933  1.00  0.00    -0.009 C 
HETATM   15  C16 UNL     1      -2.724   1.520  -0.070  1.00  0.00     0.024 C 
ENDBRANCH   3   5
BRANCH   1  16
HETATM   16  N1  UNL     1       1.383  -1.116  -0.089  1.00  0.00    -0.303 N 
HETATM   17  C6  UNL     1       2.353  -0.356  -0.433  1.00  0.00     0.189 C 
ATOM     18  H1  UNL     1       1.557  -1.899   0.541  1.00  0.00     0.186 HD
BRANCH  17  19
HETATM   19  C5  UNL     1       3.706  -0.582   0.053  1.00  0.00     0.300 C 
HETATM   20  O2  UNL     1       3.965  -1.541   0.835  1.00  0.00    -0.259 OA
BRANCH  19  21
HETATM   21  O1  UNL     1       4.758   0.240  -0.318  1.00  0.00    -0.307 OA
BRANCH  21  22
HETATM   22  C2  UNL     1       6.075   0.050   0.134  1.00  0.00     0.060 C 
HETATM   23  C1  UNL     1       6.190   0.130   1.632  1.00  0.00     0.046 C 
HETATM   24  C3  UNL     1       6.650  -1.276  -0.364  1.00  0.00     0.046 C 
HETATM   25  C4  UNL     1       6.939   1.158  -0.445  1.00  0.00     0.046 C 
ENDBRANCH  21  22
ENDBRANCH  19  21
ENDBRANCH  17  19
ENDBRANCH   1  16
TORSDOF 5
