REMARK  7 active torsions:
REMARK  status: ('A' for Active; 'I' for Inactive)
REMARK    1  A    between atoms: C2_2  and  C3_3 
REMARK    2  A    between atoms: C3_3  and  C4_4 
REMARK    3  A    between atoms: C4_4  and  C5_5 
REMARK    4  A    between atoms: C8_10  and  C9_11 
REMARK    5  A    between atoms: C9_11  and  N1_12 
REMARK    6  A    between atoms: C16_19  and  C18_21 
REMARK    7  A    between atoms: C18_21  and  C19_23 
ROOT
HETATM    1  C5  UNL     1       0.779   0.672  -0.095  1.00  0.00     0.060 C 
HETATM    2  C6  UNL     1       1.430   0.796  -1.430  1.00  0.00     0.209 C 
HETATM    3  O1  UNL     1       1.064   1.078  -2.565  1.00  0.00    -0.288 OA
HETATM    4  C7  UNL     1       2.849   0.464  -1.124  1.00  0.00     0.205 C 
HETATM    5  O2  UNL     1       3.900   0.906  -1.620  1.00  0.00    -0.288 OA
HETATM    6  C8  UNL     1       2.788  -0.569  -0.039  1.00  0.00     0.121 C 
HETATM    7  C12 UNL     1       1.324  -0.712   0.179  1.00  0.00    -0.053 C 
HETATM    8  C13 UNL     1       0.530  -1.681   0.496  1.00  0.00    -0.021 C 
HETATM    9  C14 UNL     1      -0.950  -1.573   0.628  1.00  0.00     0.034 C 
HETATM   10  C15 UNL     1      -1.455  -0.505  -0.381  1.00  0.00     0.014 C 
HETATM   11  C16 UNL     1      -2.906  -0.497  -0.184  1.00  0.00     0.021 C 
HETATM   12  C17 UNL     1      -3.756   0.500  -0.929  1.00  0.00     0.024 C 
HETATM   13  C21 UNL     1      -3.185  -0.272   1.273  1.00  0.00     0.017 C 
HETATM   14  C22 UNL     1      -2.550   0.998   1.672  1.00  0.00     0.002 C 
HETATM   15  C23 UNL     1      -1.111   1.226   1.341  1.00  0.00     0.011 C 
HETATM   16  C24 UNL     1      -0.700   0.783  -0.052  1.00  0.00    -0.020 C 
HETATM   17  C25 UNL     1      -1.124   1.825  -1.043  1.00  0.00     0.017 C 
ENDROOT
BRANCH  11  18
HETATM   18  C18 UNL     1      -3.461  -1.826  -0.681  1.00  0.00     0.135 C 
HETATM   19  O3  UNL     1      -2.744  -2.548  -1.315  1.00  0.00    -0.297 OA
BRANCH  18  20
HETATM   20  C19 UNL     1      -4.866  -2.207  -0.387  1.00  0.00     0.074 C 
HETATM   21  C20 UNL     1      -5.701  -2.484  -1.599  1.00  0.00     0.013 C 
ENDBRANCH  18  20
ENDBRANCH  11  18
BRANCH   1  22
HETATM   22  C4  UNL     1       1.439   1.674   0.787  1.00  0.00     0.027 C 
BRANCH  22  23
HETATM   23  C3  UNL     1       1.418   3.106   0.449  1.00  0.00     0.028 C 
BRANCH  23  24
HETATM   24  C2  UNL     1       2.181   3.876   1.508  1.00  0.00    -0.037 C 
HETATM   25  C1  UNL     1       1.643   4.829   2.246  1.00  0.00     0.007 C 
ENDBRANCH  23  24
ENDBRANCH  22  23
ENDBRANCH   1  22
BRANCH   6  26
HETATM   26  C9  UNL     1       3.381  -1.884  -0.551  1.00  0.00     0.288 C 
BRANCH  26  27
HETATM   27  N1  UNL     1       4.752  -1.594  -0.915  1.00  0.00     0.081 N 
HETATM   28  C10 UNL     1       5.532  -1.296   0.248  1.00  0.00     0.309 C 
HETATM   29  C11 UNL     1       5.341  -2.766  -1.585  1.00  0.00     0.309 C 
ENDBRANCH  26  27
ENDBRANCH   6  26
TORSDOF 7
