REMARK  8 active torsions:
REMARK  status: ('A' for Active; 'I' for Inactive)
REMARK    1  A    between atoms: C2_2  and  N3_23 
REMARK    2  A    between atoms: C3_3  and  C4_4 
REMARK    3  A    between atoms: C4_4  and  N1_5 
REMARK    4  A    between atoms: N2_8  and  S1_9 
REMARK    5  A    between atoms: S1_9  and  C7_12 
REMARK    6  A    between atoms: C7_12  and  C8_13 
REMARK    7  A    between atoms: C8_13  and  C9_14 
REMARK    8  A    between atoms: C10_15  and  C12_17 
ROOT
HETATM    1  N1  UNL     1       1.128  -1.246   0.877  1.00  0.00    -0.341 N 
HETATM    2  C5  UNL     1       0.176  -2.020   1.487  1.00  0.00     0.111 A 
HETATM    3  C6  UNL     1      -0.948  -1.268   1.725  1.00  0.00     0.128 A 
HETATM    4  N2  UNL     1      -0.688  -0.029   1.262  1.00  0.00    -0.238 N 
HETATM    5  C16 UNL     1       0.559  -0.050   0.762  1.00  0.00     0.096 A 
HETATM    6  C17 UNL     1       1.203   1.140   0.136  1.00  0.00     0.090 C 
ENDROOT
BRANCH   4   7
HETATM    7  S1  UNL     1      -1.793   1.315   1.326  1.00  0.00     0.237 S 
HETATM    8  O1  UNL     1      -1.058   2.455   2.011  1.00  0.00    -0.205 OA
HETATM    9  O2  UNL     1      -2.977   1.016   2.161  1.00  0.00    -0.205 OA
BRANCH   7  10
HETATM   10  C7  UNL     1      -2.175   1.879  -0.302  1.00  0.00     0.168 C 
BRANCH  10  11
HETATM   11  C8  UNL     1      -2.790   0.799  -1.115  1.00  0.00     0.044 C 
BRANCH  11  12
HETATM   12  C9  UNL     1      -4.057   0.244  -0.584  1.00  0.00    -0.023 C 
HETATM   13  C10 UNL     1      -5.195   0.310  -1.242  1.00  0.00    -0.080 C 
HETATM   14  C11 UNL     1      -5.171   0.984  -2.589  1.00  0.00     0.044 C 
BRANCH  13  15
HETATM   15  C12 UNL     1      -6.435  -0.248  -0.688  1.00  0.00    -0.029 C 
HETATM   16  C13 UNL     1      -6.171  -0.857   0.657  1.00  0.00     0.019 C 
HETATM   17  C14 UNL     1      -7.484   0.840  -0.516  1.00  0.00     0.019 C 
HETATM   18  C15 UNL     1      -6.986  -1.375  -1.561  1.00  0.00     0.019 C 
ENDBRANCH  13  15
ENDBRANCH  11  12
ENDBRANCH  10  11
ENDBRANCH   7  10
ENDBRANCH   4   7
BRANCH   1  19
HETATM   19  C4  UNL     1       2.448  -1.744   0.507  1.00  0.00     0.159 C 
BRANCH  19  20
HETATM   20  C3  UNL     1       3.416  -1.653   1.593  1.00  0.00     0.017 C 
HETATM   21  C2  UNL     1       4.569  -1.055   1.604  1.00  0.00     0.001 C 
HETATM   22  C1  UNL     1       5.339  -1.153   2.925  1.00  0.00     0.067 C 
BRANCH  21  23
HETATM   23  N3  UNL     1       5.189  -0.366   0.535  1.00  0.00    -0.385 N 
HETATM   24  C18 UNL     1       5.328   1.083   0.593  1.00  0.00     0.122 C 
HETATM   25  C19 UNL     1       6.788   1.381   0.298  1.00  0.00     0.020 C 
HETATM   26  C20 UNL     1       7.060   1.032  -1.126  1.00  0.00     0.003 C 
HETATM   27  C21 UNL     1       6.233  -0.103  -1.668  1.00  0.00     0.020 C 
HETATM   28  C22 UNL     1       5.732  -1.039  -0.623  1.00  0.00     0.122 C 
ENDBRANCH  21  23
ENDBRANCH  19  20
ENDBRANCH   1  19
TORSDOF 8
