REMARK  14 active torsions:
REMARK  status: ('A' for Active; 'I' for Inactive)
REMARK    1  A    between atoms: N1_2  and  C2_4 
REMARK    2  A    between atoms: C2_4  and  C3_5 
REMARK    3  A    between atoms: C3_5  and  N2_6 
REMARK    4  A    between atoms: C4_7  and  C5_8 
REMARK    5  A    between atoms: C5_8  and  C6_9 
REMARK    6  A    between atoms: C6_9  and  C7_10 
REMARK    7  A    between atoms: C7_10  and  O1_11 
REMARK    8  A    between atoms: C10_16  and  C11_17 
REMARK    9  A    between atoms: C13_19  and  C14_20 
REMARK   10  A    between atoms: C14_20  and  O2_21 
REMARK   11  A    between atoms: C14_20  and  N4_23 
REMARK   12  A    between atoms: N4_23  and  C15_25 
REMARK   13  A    between atoms: C15_25  and  C16_26 
REMARK       I    between atoms: C16_26  and  N5_28 
REMARK   14  A    between atoms: C20_32  and  C21_33 
ROOT
HETATM    1  C11 UNL     1       2.002  -1.035   1.412  1.00  0.00     0.030 A 
HETATM    2  C12 UNL     1       0.736  -0.680   1.019  1.00  0.00     0.033 A 
HETATM    3  C13 UNL     1      -0.401  -1.496   1.203  1.00  0.00     0.021 A 
HETATM    4  C26 UNL     1      -0.210  -2.691   1.802  1.00  0.00    -0.046 A 
HETATM    5  C27 UNL     1      -1.343  -3.637   2.005  1.00  0.00     0.049 C 
HETATM    6  C28 UNL     1       1.073  -3.085   2.221  1.00  0.00     0.031 A 
HETATM    7  C29 UNL     1       2.157  -2.274   2.030  1.00  0.00     0.059 A 
HETATM    8  C30 UNL     1       3.423  -2.781   2.490  1.00  0.00     0.100 C 
HETATM    9  N6  UNL     1       4.442  -3.220   2.866  1.00  0.00    -0.191 NA
ENDROOT
BRANCH   1  10
HETATM   10  C10 UNL     1       3.203  -0.237   1.178  1.00  0.00     0.119 A 
HETATM   11  N2  UNL     1       3.603   0.558   0.195  1.00  0.00    -0.330 N 
HETATM   12  C4  UNL     1       4.863   1.022   0.556  1.00  0.00     0.029 A 
HETATM   13  C9  UNL     1       5.210   0.489   1.766  1.00  0.00     0.115 A 
HETATM   14  N3  UNL     1       4.200  -0.273   2.136  1.00  0.00    -0.350 N 
ATOM     15  H3  UNL     1       4.160  -0.810   3.002  1.00  0.00     0.167 HD
BRANCH  11  16
HETATM   16  C3  UNL     1       2.995   0.953  -1.034  1.00  0.00     0.174 C 
BRANCH  16  17
HETATM   17  C2  UNL     1       3.404   0.184  -2.248  1.00  0.00     0.075 C 
BRANCH  17  18
HETATM   18  N1  UNL     1       3.165  -1.195  -2.308  1.00  0.00    -0.405 N 
HETATM   19  C1  UNL     1       1.843  -1.668  -2.439  1.00  0.00     0.145 C 
ATOM     20  H1  UNL     1       3.943  -1.853  -2.257  1.00  0.00     0.158 HD
ENDBRANCH  17  18
ENDBRANCH  16  17
ENDBRANCH  11  16
BRANCH  12  21
HETATM   21  C5  UNL     1       5.693   1.940  -0.232  1.00  0.00     0.061 C 
BRANCH  21  22
HETATM   22  C6  UNL     1       7.003   2.221   0.528  1.00  0.00     0.032 C 
BRANCH  22  23
HETATM   23  C7  UNL     1       7.871   3.153  -0.256  1.00  0.00     0.167 C 
BRANCH  23  24
HETATM   24  O1  UNL     1       9.042   3.391   0.397  1.00  0.00    -0.396 OA
HETATM   25  C8  UNL     1       8.924   3.969   1.635  1.00  0.00     0.201 C 
ENDBRANCH  23  24
ENDBRANCH  22  23
ENDBRANCH  21  22
ENDBRANCH  12  21
ENDBRANCH   1  10
BRANCH   3  26
HETATM   26  C14 UNL     1      -1.668  -0.963   0.798  1.00  0.00     0.147 C 
BRANCH  26  27
HETATM   27  O2  UNL     1      -1.605  -0.063  -0.143  1.00  0.00    -0.346 OA
ATOM     28  H2  UNL     1      -2.445   0.290  -0.411  1.00  0.00     0.219 HD
ENDBRANCH  26  27
BRANCH  26  29
HETATM   29  N4  UNL     1      -2.958  -1.231   1.232  1.00  0.00    -0.352 N 
ATOM     30  H4  UNL     1      -3.076  -1.919   1.976  1.00  0.00     0.163 HD
BRANCH  29  31
HETATM   31  C15 UNL     1      -4.174  -0.586   0.689  1.00  0.00     0.113 C 
HETATM   32  C22 UNL     1      -5.324  -1.047   1.538  1.00  0.00     0.041 C 
HETATM   33  C23 UNL     1      -5.415  -0.108   2.716  1.00  0.00     0.003 C 
HETATM   34  C24 UNL     1      -5.081   1.226   2.064  1.00  0.00     0.003 C 
HETATM   35  C25 UNL     1      -4.088   0.887   0.973  1.00  0.00     0.041 C 
BRANCH  31  36
HETATM   36  C16 UNL     1      -4.329  -0.937  -0.727  1.00  0.00     0.249 C 
HETATM   37  O3  UNL     1      -3.472  -1.737  -1.236  1.00  0.00    -0.270 OA
HETATM   38  N5  UNL     1      -5.350  -0.468  -1.616  1.00  0.00    -0.335 N 
HETATM   39  C17 UNL     1      -6.458   0.389  -1.337  1.00  0.00     0.127 C 
HETATM   40  C20 UNL     1      -5.362  -0.822  -2.999  1.00  0.00     0.188 C 
HETATM   41  C18 UNL     1      -6.989   0.817  -2.717  1.00  0.00     0.022 C 
HETATM   42  C19 UNL     1      -6.634  -0.361  -3.588  1.00  0.00     0.038 C 
BRANCH  40  43
HETATM   43  C21 UNL     1      -4.167  -0.325  -3.729  1.00  0.00     0.196 C 
HETATM   44  O4  UNL     1      -4.061  -0.604  -4.946  1.00  0.00    -0.646 OA
HETATM   45  O5  UNL     1      -3.192   0.416  -3.106  1.00  0.00    -0.646 OA
ENDBRANCH  40  43
ENDBRANCH  31  36
ENDBRANCH  29  31
ENDBRANCH  26  29
ENDBRANCH   3  26
TORSDOF 14
