REMARK  13 active torsions:
REMARK  status: ('A' for Active; 'I' for Inactive)
REMARK    1  A    between atoms: O1_2  and  C2_3 
REMARK    2  A    between atoms: C5_6  and  C6_7 
REMARK    3  A    between atoms: C6_7  and  C7_8 
REMARK    4  A    between atoms: C7_8  and  N1_9 
REMARK    5  A    between atoms: C7_8  and  C21_32 
REMARK       I    between atoms: N1_9  and  C8_11 
REMARK    6  A    between atoms: C8_11  and  C9_13 
REMARK    7  A    between atoms: C9_13  and  N2_14 
REMARK    8  A    between atoms: C9_13  and  C18_25 
REMARK       I    between atoms: N2_14  and  C10_16 
REMARK    9  A    between atoms: C10_16  and  C11_18 
REMARK   10  A    between atoms: C23_34  and  O4_35 
REMARK   11  A    between atoms: C25_37  and  O5_38 
REMARK   12  A    between atoms: C27_40  and  O6_41 
REMARK   13  A    between atoms: C31_45  and  O7_46 
ROOT
HETATM    1  C7  UNL     1      -0.706   0.453  -0.374  1.00  0.00     0.122 C 
ENDROOT
BRANCH   1   2
HETATM    2  C6  UNL     1      -1.244   1.687  -0.976  1.00  0.00     0.068 C 
BRANCH   2   3
HETATM    3  C5  UNL     1      -2.263   2.407  -0.177  1.00  0.00    -0.053 A 
HETATM    4  C4  UNL     1      -1.821   3.230   0.876  1.00  0.00     0.010 A 
HETATM    5  C3  UNL     1      -2.671   3.968   1.655  1.00  0.00     0.040 A 
HETATM    6  C2  UNL     1      -4.035   3.926   1.423  1.00  0.00     0.101 A 
HETATM    7  C31 UNL     1      -4.485   3.126   0.395  1.00  0.00     0.102 A 
HETATM    8  C30 UNL     1      -3.623   2.375  -0.396  1.00  0.00     0.046 A 
BRANCH   6   9
HETATM    9  O1  UNL     1      -4.919   4.681   2.214  1.00  0.00    -0.353 OA
HETATM   10  C1  UNL     1      -4.409   5.498   3.266  1.00  0.00     0.210 C 
ENDBRANCH   6   9
BRANCH   7  11
HETATM   11  O7  UNL     1      -5.855   3.102   0.185  1.00  0.00    -0.353 OA
HETATM   12  C32 UNL     1      -6.413   2.326  -0.836  1.00  0.00     0.210 C 
ENDBRANCH   7  11
ENDBRANCH   2   3
ENDBRANCH   1   2
BRANCH   1  13
HETATM   13  N1  UNL     1       0.325  -0.177  -1.195  1.00  0.00    -0.350 N 
HETATM   14  C8  UNL     1       1.689  -0.046  -0.915  1.00  0.00     0.248 C 
HETATM   15  O2  UNL     1       2.050   0.636   0.067  1.00  0.00    -0.271 OA
ATOM     16  H1  UNL     1       0.040  -0.732  -2.002  1.00  0.00     0.163 HD
BRANCH  14  17
HETATM   17  C9  UNL     1       2.709  -0.697  -1.760  1.00  0.00     0.245 C 
BRANCH  17  18
HETATM   18  N2  UNL     1       4.049  -0.339  -1.302  1.00  0.00    -0.337 N 
HETATM   19  C10 UNL     1       4.850  -1.295  -0.662  1.00  0.00     0.252 C 
HETATM   20  O3  UNL     1       4.368  -2.470  -0.503  1.00  0.00    -0.268 OA
ATOM     21  H2  UNL     1       4.402   0.607  -1.448  1.00  0.00     0.164 HD
BRANCH  19  22
HETATM   22  C11 UNL     1       6.191  -1.070  -0.156  1.00  0.00     0.032 A 
HETATM   23  C12 UNL     1       6.837   0.107  -0.462  1.00  0.00     0.017 A 
HETATM   24  C13 UNL     1       8.125   0.335   0.039  1.00  0.00     0.002 A 
HETATM   25  C14 UNL     1       8.756  -0.586   0.827  1.00  0.00     0.007 A 
HETATM   26  C15 UNL     1       8.112  -1.771   1.137  1.00  0.00    -0.061 A 
HETATM   27  C16 UNL     1       8.769  -2.787   1.993  1.00  0.00     0.048 C 
HETATM   28  C17 UNL     1       6.842  -1.994   0.644  1.00  0.00     0.023 A 
ENDBRANCH  19  22
ENDBRANCH  17  18
BRANCH  17  29
HETATM   29  C18 UNL     1       2.488  -0.361  -3.164  1.00  0.00     0.113 A 
HETATM   30  N3  UNL     1       1.959  -1.237  -4.061  1.00  0.00    -0.352 N 
HETATM   31  C19 UNL     1       1.888  -0.620  -5.240  1.00  0.00     0.106 A 
ATOM     32  H3  UNL     1       1.669  -2.195  -3.866  1.00  0.00     0.166 HD
HETATM   33  C20 UNL     1       2.377   0.643  -5.066  1.00  0.00     0.106 A 
HETATM   34  N4  UNL     1       2.749   0.800  -3.773  1.00  0.00    -0.352 N 
ATOM     35  H4  UNL     1       3.149   1.637  -3.349  1.00  0.00     0.166 HD
ENDBRANCH  17  29
ENDBRANCH  14  17
ENDBRANCH   1  13
BRANCH   1  36
HETATM   36  C21 UNL     1      -1.618  -0.605   0.035  1.00  0.00    -0.030 A 
HETATM   37  C22 UNL     1      -2.790  -0.957  -0.601  1.00  0.00     0.049 A 
HETATM   38  C23 UNL     1      -3.597  -1.965  -0.131  1.00  0.00     0.104 A 
HETATM   39  C25 UNL     1      -3.303  -2.682   0.979  1.00  0.00     0.135 A 
HETATM   40  C27 UNL     1      -2.121  -2.358   1.653  1.00  0.00     0.104 A 
HETATM   41  C29 UNL     1      -1.316  -1.353   1.187  1.00  0.00     0.049 A 
BRANCH  38  42
HETATM   42  O4  UNL     1      -4.771  -2.275  -0.812  1.00  0.00    -0.353 OA
HETATM   43  C24 UNL     1      -5.156  -1.568  -1.984  1.00  0.00     0.210 C 
ENDBRANCH  38  42
BRANCH  39  44
HETATM   44  O5  UNL     1      -4.092  -3.683   1.456  1.00  0.00    -0.351 OA
HETATM   45  C26 UNL     1      -5.125  -3.539   2.386  1.00  0.00     0.210 C 
ENDBRANCH  39  44
BRANCH  40  46
HETATM   46  O6  UNL     1      -1.812  -3.100   2.797  1.00  0.00    -0.353 OA
HETATM   47  C28 UNL     1      -0.607  -2.772   3.470  1.00  0.00     0.210 C 
ENDBRANCH  40  46
ENDBRANCH   1  36
TORSDOF 13
