REMARK  14 active torsions:
REMARK  status: ('A' for Active; 'I' for Inactive)
REMARK    1  A    between atoms: N1_2  and  C2_5 
REMARK    2  A    between atoms: C2_5  and  C3_6 
REMARK    3  A    between atoms: C3_6  and  N2_7 
REMARK    4  A    between atoms: N3_10  and  C6_11 
REMARK    5  A    between atoms: C6_11  and  C7_12 
REMARK    6  A    between atoms: C7_12  and  C8_13 
REMARK    7  A    between atoms: C8_13  and  O1_14 
REMARK    8  A    between atoms: O1_14  and  C9_15 
REMARK    9  A    between atoms: C11_17  and  N4_18 
REMARK   10  A    between atoms: N4_18  and  C12_20 
REMARK   11  A    between atoms: C13_23  and  C14_24 
REMARK   12  A    between atoms: C15_25  and  C16_26 
REMARK   13  A    between atoms: C28_42  and  O2_43 
REMARK   14  A    between atoms: C30_45  and  O3_46 
ROOT
HETATM    1  C9  UNL     1      -1.262   1.150   2.482  1.00  0.00     0.107 A 
HETATM    2  C10 UNL     1       0.066   0.789   2.447  1.00  0.00     0.070 A 
HETATM    3  C11 UNL     1       1.118   1.682   2.382  1.00  0.00     0.060 A 
HETATM    4  C26 UNL     1       0.820   3.025   2.352  1.00  0.00     0.002 A 
HETATM    5  C27 UNL     1       1.908   4.002   2.284  1.00  0.00     0.054 C 
HETATM    6  C28 UNL     1      -0.494   3.474   2.386  1.00  0.00     0.112 A 
HETATM    7  C30 UNL     1      -1.495   2.537   2.449  1.00  0.00     0.135 A 
ENDROOT
BRANCH   3   8
HETATM    8  N4  UNL     1       2.465   1.271   2.343  1.00  0.00    -0.191 N 
ATOM      9  H4  UNL     1       3.012   1.366   3.199  1.00  0.00     0.184 HD
BRANCH   8  10
HETATM   10  C12 UNL     1       3.064   0.779   1.296  1.00  0.00     0.682 A 
HETATM   11  N5  UNL     1       4.356   0.416   1.359  1.00  0.00    -0.192 N 
HETATM   12  C13 UNL     1       4.968  -0.100   0.262  1.00  0.00     0.050 A 
ATOM     13  H5  UNL     1       4.876   0.528   2.229  1.00  0.00     0.184 HD
HETATM   14  C24 UNL     1       4.258  -0.244  -0.897  1.00  0.00     0.047 A 
HETATM   15  C25 UNL     1       2.910   0.131  -0.977  1.00  0.00     0.108 A 
HETATM   16  N7  UNL     1       2.369   0.633   0.144  1.00  0.00    -0.202 N 
ATOM     17  H7  UNL     1       1.390   0.917   0.127  1.00  0.00     0.183 HD
BRANCH  12  18
HETATM   18  C14 UNL     1       6.373  -0.476   0.360  1.00  0.00     0.031 C 
HETATM   19  C15 UNL     1       7.052  -0.995  -0.638  1.00  0.00     0.013 C 
BRANCH  19  20
HETATM   20  C16 UNL     1       8.438  -1.378  -0.584  1.00  0.00    -0.035 A 
HETATM   21  C17 UNL     1       9.234  -1.233   0.525  1.00  0.00     0.013 A 
HETATM   22  C18 UNL     1      10.577  -1.626   0.520  1.00  0.00     0.031 A 
HETATM   23  C19 UNL     1      11.152  -2.175  -0.600  1.00  0.00     0.042 A 
HETATM   24  N6  UNL     1      12.401  -2.636  -0.885  1.00  0.00    -0.365 N 
HETATM   25  C22 UNL     1      10.371  -2.329  -1.722  1.00  0.00    -0.007 A 
HETATM   26  C20 UNL     1      12.465  -3.081  -2.137  1.00  0.00     0.089 A 
ATOM     27  H6  UNL     1      13.181  -2.640  -0.228  1.00  0.00     0.165 HD
HETATM   28  C21 UNL     1      11.211  -2.896  -2.668  1.00  0.00     0.030 A 
HETATM   29  C23 UNL     1       9.058  -1.941  -1.708  1.00  0.00     0.025 A 
ENDBRANCH  19  20
ENDBRANCH  12  18
ENDBRANCH   8  10
ENDBRANCH   3   8
BRANCH   1  30
HETATM   30  O1  UNL     1      -2.329   0.347   2.541  1.00  0.00    -0.348 OA
BRANCH  30  31
HETATM   31  C8  UNL     1      -2.612  -0.975   2.570  1.00  0.00     0.181 C 
BRANCH  31  32
HETATM   32  C7  UNL     1      -2.166  -1.733   1.349  1.00  0.00     0.071 C 
BRANCH  32  33
HETATM   33  C6  UNL     1      -2.789  -1.239   0.103  1.00  0.00     0.065 C 
BRANCH  33  34
HETATM   34  N3  UNL     1      -4.146  -1.274  -0.117  1.00  0.00    -0.367 N 
HETATM   35  C5  UNL     1      -5.116  -0.523   0.512  1.00  0.00     0.107 C 
HETATM   36  C4  UNL     1      -6.138   0.167  -0.376  1.00  0.00     0.102 C 
HETATM   37  N2  UNL     1      -6.383  -0.414  -1.627  1.00  0.00    -0.386 N 
HETATM   38  C33 UNL     1      -5.178  -0.779  -2.284  1.00  0.00     0.142 C 
HETATM   39  C32 UNL     1      -4.471  -1.795  -1.418  1.00  0.00     0.147 C 
BRANCH  37  40
HETATM   40  C3  UNL     1      -7.497  -1.274  -1.777  1.00  0.00     0.149 C 
BRANCH  40  41
HETATM   41  C2  UNL     1      -8.791  -0.535  -1.666  1.00  0.00     0.251 C 
BRANCH  41  42
HETATM   42  N1  UNL     1      -9.901  -1.482  -1.847  1.00  0.00    -0.077 N 
HETATM   43  C1  UNL     1      -9.875  -1.934  -3.236  1.00  0.00     0.267 C 
ATOM     44  H12 UNL     1     -10.803  -1.093  -1.573  1.00  0.00     0.276 HD
ATOM     45  H11 UNL     1      -9.879  -2.252  -1.179  1.00  0.00     0.276 HD
ENDBRANCH  41  42
ENDBRANCH  40  41
ENDBRANCH  37  40
ENDBRANCH  33  34
ENDBRANCH  32  33
ENDBRANCH  31  32
ENDBRANCH  30  31
ENDBRANCH   1  30
BRANCH   6  46
HETATM   46  O2  UNL     1      -0.774   4.835   2.355  1.00  0.00    -0.352 OA
HETATM   47  C29 UNL     1      -0.953   5.440   1.083  1.00  0.00     0.210 C 
ENDBRANCH   6  46
BRANCH   7  48
HETATM   48  O3  UNL     1      -2.805   2.975   2.482  1.00  0.00    -0.351 OA
HETATM   49  C31 UNL     1      -3.597   3.206   1.338  1.00  0.00     0.210 C 
ENDBRANCH   7  48
TORSDOF 14
