REMARK  16 active torsions:
REMARK  status: ('A' for Active; 'I' for Inactive)
REMARK    1  A    between atoms: O1_2  and  C2_3 
REMARK    2  A    between atoms: C4_5  and  C5_6 
REMARK    3  A    between atoms: C5_6  and  C6_7 
REMARK    4  A    between atoms: C6_7  and  C7_8 
REMARK    5  A    between atoms: C7_8  and  O2_9 
REMARK    6  A    between atoms: C7_8  and  N1_11 
REMARK    7  A    between atoms: N1_11  and  C8_13 
REMARK    8  A    between atoms: C8_13  and  C9_14 
REMARK    9  A    between atoms: C16_23  and  O3_24 
REMARK   10  A    between atoms: O3_24  and  C17_25 
REMARK   11  A    between atoms: C17_25  and  C18_26 
REMARK   12  A    between atoms: C19_31  and  C20_32 
REMARK   13  A    between atoms: C20_32  and  N5_33 
REMARK   14  A    between atoms: N8_38  and  C22_39 
REMARK   15  A    between atoms: C22_39  and  C23_40 
REMARK   16  A    between atoms: C23_40  and  C24_41 
ROOT
HETATM    1  C18 UNL     1      -1.274  -1.059   1.364  1.00  0.00     0.124 A 
HETATM    2  N3  UNL     1      -0.679  -0.528   2.436  1.00  0.00    -0.286 N 
ATOM      3  H3  UNL     1       0.312  -0.627   2.656  1.00  0.00     0.188 HD
HETATM    4  N4  UNL     1      -1.529   0.129   3.159  1.00  0.00    -0.286 N 
ATOM      5  H4  UNL     1      -1.334   0.629   4.027  1.00  0.00     0.188 HD
HETATM    6  C19 UNL     1      -2.721   0.023   2.540  1.00  0.00     0.117 A 
HETATM    7  N8  UNL     1      -2.608  -0.705   1.423  1.00  0.00    -0.321 N 
ENDROOT
BRANCH   1   8
HETATM    8  C17 UNL     1      -0.776  -1.893   0.257  1.00  0.00     0.253 C 
BRANCH   8   9
HETATM    9  O3  UNL     1      -0.174  -1.230  -0.783  1.00  0.00    -0.341 OA
BRANCH   9  10
HETATM   10  C16 UNL     1       1.005  -0.561  -0.830  1.00  0.00     0.102 A 
HETATM   11  C2  UNL     1       1.357   0.108  -2.015  1.00  0.00     0.102 A 
HETATM   12  C3  UNL     1       2.525   0.800  -2.123  1.00  0.00     0.051 A 
HETATM   13  C4  UNL     1       3.468   0.906  -1.077  1.00  0.00    -0.033 A 
HETATM   14  C14 UNL     1       3.102   0.253   0.056  1.00  0.00     0.014 A 
HETATM   15  C15 UNL     1       1.909  -0.464   0.187  1.00  0.00     0.040 A 
BRANCH  11  16
HETATM   16  O1  UNL     1       0.450   0.026  -3.070  1.00  0.00    -0.353 OA
HETATM   17  C1  UNL     1       0.682   0.651  -4.316  1.00  0.00     0.210 C 
ENDBRANCH  11  16
BRANCH  13  18
HETATM   18  C5  UNL     1       4.630   1.744  -1.273  1.00  0.00     0.015 C 
BRANCH  18  19
HETATM   19  C6  UNL     1       5.790   1.888  -0.817  1.00  0.00     0.056 C 
BRANCH  19  20
HETATM   20  C7  UNL     1       6.652   1.323   0.135  1.00  0.00     0.135 C 
BRANCH  20  21
HETATM   21  O2  UNL     1       7.823   1.967   0.259  1.00  0.00    -0.346 OA
ATOM     22  H2  UNL     1       8.407   1.584   0.904  1.00  0.00     0.219 HD
ENDBRANCH  20  21
BRANCH  20  23
HETATM   23  N1  UNL     1       6.549   0.228   0.975  1.00  0.00    -0.367 N 
ATOM     24  H1  UNL     1       5.715  -0.359   0.974  1.00  0.00     0.161 HD
BRANCH  23  25
HETATM   25  C8  UNL     1       7.695  -0.065   1.880  1.00  0.00     0.161 C 
BRANCH  25  26
HETATM   26  C9  UNL     1       8.728  -0.703   1.039  1.00  0.00    -0.025 A 
HETATM   27  C10 UNL     1      10.026  -0.790   1.498  1.00  0.00     0.011 A 
HETATM   28  C11 UNL     1      10.950  -1.411   0.666  1.00  0.00     0.018 A 
HETATM   29  C12 UNL     1      10.614  -1.922  -0.560  1.00  0.00     0.087 A 
HETATM   30  N2  UNL     1       9.346  -1.827  -0.987  1.00  0.00    -0.375 N 
HETATM   31  C13 UNL     1       8.446  -1.233  -0.199  1.00  0.00     0.096 A 
ATOM     32  H2  UNL     1       9.074  -2.201  -1.896  1.00  0.00     0.164 HD
ENDBRANCH  25  26
ENDBRANCH  23  25
ENDBRANCH  20  23
ENDBRANCH  19  20
ENDBRANCH  18  19
ENDBRANCH  13  18
ENDBRANCH   9  10
ENDBRANCH   8   9
ENDBRANCH   1   8
BRANCH   7  33
HETATM   33  C22 UNL     1      -3.629  -1.073   0.483  1.00  0.00     0.136 C 
BRANCH  33  34
HETATM   34  C23 UNL     1      -3.791  -0.078  -0.639  1.00  0.00     0.061 C 
BRANCH  34  35
HETATM   35  C24 UNL     1      -4.886  -0.605  -1.520  1.00  0.00    -0.029 A 
HETATM   36  C25 UNL     1      -4.718  -1.197  -2.720  1.00  0.00     0.096 A 
HETATM   37  N9  UNL     1      -5.953  -1.534  -3.181  1.00  0.00    -0.365 N 
HETATM   38  C26 UNL     1      -6.872  -1.146  -2.260  1.00  0.00     0.042 A 
ATOM     39  H9  UNL     1      -6.154  -1.998  -4.067  1.00  0.00     0.165 HD
HETATM   40  C27 UNL     1      -8.241  -1.221  -2.173  1.00  0.00     0.030 A 
HETATM   41  C31 UNL     1      -6.204  -0.545  -1.183  1.00  0.00    -0.002 A 
HETATM   42  C28 UNL     1      -8.963  -0.740  -1.096  1.00  0.00     0.002 A 
HETATM   43  C29 UNL     1      -8.271  -0.156  -0.057  1.00  0.00     0.001 A 
HETATM   44  C30 UNL     1      -6.893  -0.056  -0.096  1.00  0.00     0.014 A 
ENDBRANCH  34  35
ENDBRANCH  33  34
ENDBRANCH   7  33
BRANCH   6  45
HETATM   45  C20 UNL     1      -3.999   0.632   3.030  1.00  0.00     0.199 C 
BRANCH  45  46
HETATM   46  N5  UNL     1      -4.115   2.004   2.602  1.00  0.00    -0.360 N 
HETATM   47  C21 UNL     1      -5.068   2.771   2.967  1.00  0.00     0.197 C 
HETATM   48  N6  UNL     1      -5.114   4.110   2.505  1.00  0.00    -0.067 NA
HETATM   49  N7  UNL     1      -6.083   2.296   3.832  1.00  0.00    -0.067 NA
ATOM     50  H5  UNL     1      -3.401   2.380   1.978  1.00  0.00     0.162 HD
ENDBRANCH  45  46
ENDBRANCH   6  45
TORSDOF 16
