REMARK  16 active torsions:
REMARK  status: ('A' for Active; 'I' for Inactive)
REMARK    1  A    between atoms: C2_2  and  C3_3 
REMARK    2  A    between atoms: C3_3  and  C5_5 
REMARK    3  A    between atoms: C5_5  and  C6_6 
REMARK    4  A    between atoms: C5_5  and  N1_13 
REMARK    5  A    between atoms: C6_6  and  C7_7 
REMARK       I    between atoms: N1_13  and  C13_15 
REMARK    6  A    between atoms: C13_15  and  C14_17 
REMARK    7  A    between atoms: C14_17  and  N2_18 
REMARK    8  A    between atoms: C14_17  and  C23_32 
REMARK       I    between atoms: N2_18  and  C15_20 
REMARK    9  A    between atoms: C15_20  and  C16_22 
REMARK   10  A    between atoms: C16_22  and  C18_24 
REMARK   11  A    between atoms: C18_24  and  C19_25 
REMARK   12  A    between atoms: C23_32  and  O4_33 
REMARK   13  A    between atoms: C23_32  and  C24_35 
REMARK       I    between atoms: C24_35  and  N4_37 
REMARK   14  A    between atoms: N4_37  and  C25_39 
REMARK   15  A    between atoms: C25_39  and  C26_40 
REMARK   16  A    between atoms: C26_40  and  C27_41 
ROOT
HETATM    1  C14 UNL     1      -0.077   0.776   0.207  1.00  0.00     0.239 C 
ENDROOT
BRANCH   1   2
HETATM    2  C13 UNL     1      -1.323   0.148  -0.232  1.00  0.00     0.247 C 
HETATM    3  N1  UNL     1      -1.616  -1.215  -0.379  1.00  0.00    -0.354 N 
ATOM      4  H1  UNL     1      -0.890  -1.897  -0.160  1.00  0.00     0.162 HD
HETATM    5  O1  UNL     1      -2.318   0.925  -0.529  1.00  0.00    -0.271 OA
BRANCH   3   6
HETATM    6  C5  UNL     1      -2.944  -1.708  -0.842  1.00  0.00     0.088 C 
BRANCH   6   7
HETATM    7  C3  UNL     1      -2.790  -2.169  -2.268  1.00  0.00     0.004 C 
HETATM    8  C4  UNL     1      -4.094  -2.311  -3.011  1.00  0.00     0.012 C 
BRANCH   7   9
HETATM    9  C2  UNL     1      -1.856  -3.304  -2.497  1.00  0.00     0.002 C 
HETATM   10  C1  UNL     1      -2.343  -4.656  -2.122  1.00  0.00     0.005 C 
ENDBRANCH   7   9
ENDBRANCH   6   7
BRANCH   6  11
HETATM   11  C6  UNL     1      -3.449  -2.727   0.112  1.00  0.00     0.030 C 
BRANCH  11  12
HETATM   12  C7  UNL     1      -3.619  -2.232   1.532  1.00  0.00    -0.013 C 
HETATM   13  C8  UNL     1      -4.584  -1.109   1.684  1.00  0.00     0.005 C 
HETATM   14  C9  UNL     1      -6.014  -1.512   1.399  1.00  0.00     0.000 C 
HETATM   15  C10 UNL     1      -6.375  -2.856   1.948  1.00  0.00     0.000 C 
HETATM   16  C11 UNL     1      -5.381  -3.207   3.026  1.00  0.00     0.000 C 
HETATM   17  C12 UNL     1      -4.022  -3.398   2.385  1.00  0.00     0.005 C 
ENDBRANCH  11  12
ENDBRANCH   6  11
ENDBRANCH   3   6
ENDBRANCH   1   2
BRANCH   1  18
HETATM   18  N2  UNL     1      -0.375   2.224   0.305  1.00  0.00    -0.342 N 
HETATM   19  C15 UNL     1      -0.731   3.083  -0.714  1.00  0.00     0.222 C 
HETATM   20  O2  UNL     1      -0.866   2.790  -1.918  1.00  0.00    -0.273 OA
ATOM     21  H2  UNL     1      -0.309   2.634   1.236  1.00  0.00     0.163 HD
BRANCH  19  22
HETATM   22  C16 UNL     1      -0.988   4.531  -0.359  1.00  0.00     0.075 C 
HETATM   23  C17 UNL     1      -1.240   5.283  -1.619  1.00  0.00     0.020 C 
BRANCH  22  24
HETATM   24  C18 UNL     1      -2.150   4.509   0.589  1.00  0.00     0.038 C 
BRANCH  24  25
HETATM   25  C19 UNL     1      -2.591   5.844   1.089  1.00  0.00     0.085 C 
HETATM   26  C20 UNL     1      -3.776   5.701   2.050  1.00  0.00     0.034 C 
HETATM   27  C21 UNL     1      -4.920   5.508   1.064  1.00  0.00     0.105 C 
HETATM   28  C22 UNL     1      -4.537   6.403  -0.053  1.00  0.00     0.217 C 
HETATM   29  O3  UNL     1      -5.276   6.850  -0.941  1.00  0.00    -0.274 OA
HETATM   30  N3  UNL     1      -3.132   6.690   0.048  1.00  0.00    -0.356 N 
ATOM     31  H3  UNL     1      -2.612   7.366  -0.512  1.00  0.00     0.162 HD
ENDBRANCH  24  25
ENDBRANCH  22  24
ENDBRANCH  19  22
ENDBRANCH   1  18
BRANCH   1  32
HETATM   32  C23 UNL     1       1.079   0.583  -0.678  1.00  0.00     0.143 C 
BRANCH  32  33
HETATM   33  O4  UNL     1       1.506   1.608  -1.355  1.00  0.00    -0.357 OA
ATOM     34  H4  UNL     1       2.254   1.483  -1.927  1.00  0.00     0.217 HD
ENDBRANCH  32  33
BRANCH  32  35
HETATM   35  C24 UNL     1       1.853  -0.613  -0.918  1.00  0.00     0.273 C 
HETATM   36  O5  UNL     1       1.689  -1.696  -0.322  1.00  0.00    -0.266 OA
HETATM   37  N4  UNL     1       2.903  -0.631  -1.903  1.00  0.00    -0.355 N 
ATOM     38  H4  UNL     1       3.079   0.228  -2.423  1.00  0.00     0.162 HD
BRANCH  37  39
HETATM   39  C25 UNL     1       3.717  -1.769  -2.204  1.00  0.00     0.123 C 
BRANCH  39  40
HETATM   40  C26 UNL     1       4.549  -2.314  -1.113  1.00  0.00     0.029 C 
BRANCH  40  41
HETATM   41  C27 UNL     1       5.587  -1.436  -0.514  1.00  0.00    -0.038 C 
HETATM   42  C28 UNL     1       6.618  -0.967  -1.520  1.00  0.00     0.014 C 
HETATM   43  C29 UNL     1       7.770  -0.311  -0.833  1.00  0.00    -0.013 C 
HETATM   44  C30 UNL     1       7.280   0.903  -0.068  1.00  0.00     0.009 C 
HETATM   45  C34 UNL     1       8.486  -1.224   0.136  1.00  0.00     0.009 C 
HETATM   46  C31 UNL     1       6.249   0.443   0.928  1.00  0.00    -0.013 C 
HETATM   47  C32 UNL     1       6.889  -0.465   1.925  1.00  0.00     0.009 C 
HETATM   48  C36 UNL     1       5.089  -0.244   0.226  1.00  0.00     0.014 C 
HETATM   49  C33 UNL     1       7.462  -1.644   1.167  1.00  0.00    -0.013 C 
HETATM   50  C35 UNL     1       6.356  -2.350   0.462  1.00  0.00     0.014 C 
ENDBRANCH  40  41
ENDBRANCH  39  40
ENDBRANCH  37  39
ENDBRANCH  32  35
ENDBRANCH   1  32
TORSDOF 16
