REMARK  15 active torsions:
REMARK  status: ('A' for Active; 'I' for Inactive)
REMARK    1  A    between atoms: C2_2  and  C3_3 
REMARK    2  A    between atoms: C3_3  and  C4_4 
REMARK    3  A    between atoms: C4_4  and  C5_5 
REMARK       I    between atoms: N1_8  and  C8_9 
REMARK    4  A    between atoms: C8_9  and  C9_11 
REMARK    5  A    between atoms: C9_11  and  C10_12 
REMARK    6  A    between atoms: C9_11  and  N2_18 
REMARK    7  A    between atoms: C10_12  and  C11_13 
REMARK       I    between atoms: N2_18  and  C16_20 
REMARK    8  A    between atoms: C16_20  and  C17_22 
REMARK    9  A    between atoms: C17_22  and  N3_23 
REMARK   10  A    between atoms: C17_22  and  C31_45 
REMARK       I    between atoms: N3_23  and  C18_25 
REMARK   11  A    between atoms: C18_25  and  C19_27 
REMARK   12  A    between atoms: C19_27  and  N4_29 
REMARK       I    between atoms: N4_29  and  C21_31 
REMARK   13  A    between atoms: C21_31  and  C22_33 
REMARK   14  A    between atoms: C22_33  and  N5_34 
REMARK   15  A    between atoms: C22_33  and  C25_39 
REMARK       I    between atoms: N5_34  and  C23_36 
ROOT
HETATM    1  C17 UNL     1       0.722   1.418  -0.595  1.00  0.00     0.180 C 
ENDROOT
BRANCH   1   2
HETATM    2  C16 UNL     1      -0.680   1.080  -0.880  1.00  0.00     0.241 C 
HETATM    3  N2  UNL     1      -1.828   1.730  -0.356  1.00  0.00    -0.346 N 
ATOM      4  H2  UNL     1      -1.706   2.505   0.296  1.00  0.00     0.163 HD
HETATM    5  O2  UNL     1      -0.930   0.098  -1.684  1.00  0.00    -0.271 OA
BRANCH   3   6
HETATM    6  C9  UNL     1      -3.157   1.325  -0.719  1.00  0.00     0.177 C 
BRANCH   6   7
HETATM    7  C8  UNL     1      -3.835   0.491   0.305  1.00  0.00     0.242 C 
HETATM    8  N1  UNL     1      -5.056  -0.171   0.130  1.00  0.00    -0.350 N 
HETATM    9  C7  UNL     1      -5.666  -0.933   1.202  1.00  0.00     0.126 C 
HETATM   10  C34 UNL     1      -5.778  -0.166  -1.127  1.00  0.00     0.126 C 
HETATM   11  C6  UNL     1      -7.191  -0.745   1.038  1.00  0.00     0.024 C 
HETATM   12  C5  UNL     1      -7.609  -1.577  -0.102  1.00  0.00    -0.012 C 
HETATM   13  C35 UNL     1      -6.609  -1.426  -1.245  1.00  0.00     0.024 C 
HETATM   14  O1  UNL     1      -3.231   0.389   1.414  1.00  0.00    -0.271 OA
BRANCH  12  15
HETATM   15  C4  UNL     1      -7.847  -3.015   0.102  1.00  0.00     0.005 C 
BRANCH  15  16
HETATM   16  C3  UNL     1      -8.892  -3.537   0.976  1.00  0.00     0.000 C 
BRANCH  16  17
HETATM   17  C2  UNL     1      -8.912  -3.207   2.419  1.00  0.00    -0.005 C 
HETATM   18  C1  UNL     1     -10.098  -4.002   3.056  1.00  0.00     0.005 C 
ENDBRANCH  16  17
ENDBRANCH  15  16
ENDBRANCH  12  15
ENDBRANCH   6   7
BRANCH   6  19
HETATM   19  C10 UNL     1      -3.982   2.436  -1.265  1.00  0.00     0.039 C 
BRANCH  19  20
HETATM   20  C11 UNL     1      -4.508   3.443  -0.315  1.00  0.00    -0.012 C 
HETATM   21  C12 UNL     1      -3.522   4.251   0.458  1.00  0.00     0.005 C 
HETATM   22  C13 UNL     1      -4.352   5.519   0.762  1.00  0.00     0.000 C 
HETATM   23  C14 UNL     1      -4.916   5.824  -0.608  1.00  0.00     0.000 C 
HETATM   24  C15 UNL     1      -5.336   4.466  -1.110  1.00  0.00     0.005 C 
ENDBRANCH  19  20
ENDBRANCH   6  19
ENDBRANCH   3   6
ENDBRANCH   1   2
BRANCH   1  25
HETATM   25  N3  UNL     1       1.546   0.255  -0.758  1.00  0.00    -0.346 N 
HETATM   26  C18 UNL     1       2.726   0.018  -0.019  1.00  0.00     0.240 C 
HETATM   27  O3  UNL     1       3.115   0.851   0.830  1.00  0.00    -0.271 OA
ATOM     28  H3  UNL     1       1.263  -0.441  -1.448  1.00  0.00     0.163 HD
BRANCH  26  29
HETATM   29  C19 UNL     1       3.557  -1.212  -0.214  1.00  0.00     0.172 C 
HETATM   30  C20 UNL     1       2.984  -2.387   0.512  1.00  0.00     0.042 C 
BRANCH  29  31
HETATM   31  N4  UNL     1       4.884  -0.984   0.362  1.00  0.00    -0.346 N 
HETATM   32  C21 UNL     1       6.032  -0.983  -0.470  1.00  0.00     0.241 C 
HETATM   33  O4  UNL     1       5.799  -1.200  -1.719  1.00  0.00    -0.271 OA
ATOM     34  H4  UNL     1       4.983  -0.825   1.365  1.00  0.00     0.163 HD
BRANCH  32  35
HETATM   35  C22 UNL     1       7.424  -0.762  -0.065  1.00  0.00     0.180 C 
BRANCH  35  36
HETATM   36  N5  UNL     1       8.317  -0.788  -1.222  1.00  0.00    -0.348 N 
HETATM   37  C23 UNL     1       8.951   0.394  -1.709  1.00  0.00     0.214 C 
HETATM   38  C24 UNL     1       9.853   0.415  -2.869  1.00  0.00     0.117 C 
HETATM   39  O5  UNL     1       8.695   1.463  -1.082  1.00  0.00    -0.274 OA
ATOM     40  H5  UNL     1       8.492  -1.675  -1.694  1.00  0.00     0.163 HD
ENDBRANCH  35  36
BRANCH  35  41
HETATM   41  C25 UNL     1       7.914  -1.631   1.066  1.00  0.00     0.018 C 
HETATM   42  C26 UNL     1       7.828  -3.097   0.758  1.00  0.00     0.007 C 
HETATM   43  C27 UNL     1       9.239  -3.608   0.522  1.00  0.00     0.000 C 
HETATM   44  C28 UNL     1       9.926  -3.521   1.888  1.00  0.00     0.000 C 
HETATM   45  C29 UNL     1      10.107  -2.070   2.256  1.00  0.00     0.000 C 
HETATM   46  C30 UNL     1       9.337  -1.211   1.322  1.00  0.00     0.007 C 
ENDBRANCH  35  41
ENDBRANCH  32  35
ENDBRANCH  29  31
ENDBRANCH  26  29
ENDBRANCH   1  25
BRANCH   1  47
HETATM   47  C31 UNL     1       1.096   2.476  -1.647  1.00  0.00     0.009 C 
HETATM   48  C32 UNL     1       0.193   3.669  -1.487  1.00  0.00     0.012 C 
HETATM   49  C33 UNL     1       2.517   2.907  -1.551  1.00  0.00     0.012 C 
ENDBRANCH   1  47
TORSDOF 15
