REMARK  6 active torsions:
REMARK  status: ('A' for Active; 'I' for Inactive)
REMARK    1  A    between atoms: O1_2  and  C2_3 
REMARK    2  A    between atoms: C4_5  and  N1_6 
REMARK       I    between atoms: N1_6  and  C5_8 
REMARK       I    between atoms: C5_8  and  N3_12 
REMARK    3  A    between atoms: N3_12  and  C7_14 
REMARK    4  A    between atoms: C7_14  and  C8_15 
REMARK    5  A    between atoms: C17_26  and  O4_27 
REMARK    6  A    between atoms: C19_29  and  O5_30 
ROOT
HETATM    1  N1  UNL     1       1.399   1.837  -0.409  1.00  0.00    -0.192 N 
ATOM      2  H1  UNL     1       1.856   2.745  -0.318  1.00  0.00     0.184 HD
HETATM    3  C5  UNL     1      -0.009   1.840  -0.601  1.00  0.00     0.674 C 
HETATM    4  N2  UNL     1      -0.403   1.701  -1.812  1.00  0.00    -0.235 N 
ATOM      5  H21 UNL     1      -1.414   1.703  -1.950  1.00  0.00     0.174 HD
ATOM      6  H22 UNL     1       0.231   1.575  -2.601  1.00  0.00     0.174 HD
HETATM    7  N3  UNL     1      -0.902   2.018   0.510  1.00  0.00    -0.218 N 
HETATM    8  C6  UNL     1      -0.268   1.914   1.842  1.00  0.00     0.169 C 
ENDROOT
BRANCH   1   9
HETATM    9  C4  UNL     1       2.220   0.700  -0.333  1.00  0.00     0.054 A 
HETATM   10  C3  UNL     1       1.705  -0.572  -0.437  1.00  0.00     0.069 A 
HETATM   11  C2  UNL     1       2.566  -1.674  -0.354  1.00  0.00     0.106 A 
HETATM   12  C19 UNL     1       3.920  -1.496  -0.169  1.00  0.00     0.135 A 
HETATM   13  C17 UNL     1       4.452  -0.224  -0.063  1.00  0.00     0.106 A 
HETATM   14  C16 UNL     1       3.606   0.859  -0.144  1.00  0.00     0.069 A 
BRANCH  11  15
HETATM   15  O1  UNL     1       2.094  -2.966  -0.454  1.00  0.00    -0.353 OA
HETATM   16  C1  UNL     1       0.736  -3.234  -0.644  1.00  0.00     0.210 C 
ENDBRANCH  11  15
BRANCH  12  17
HETATM   17  O5  UNL     1       4.734  -2.615  -0.092  1.00  0.00    -0.351 OA
HETATM   18  C20 UNL     1       4.947  -3.171   1.195  1.00  0.00     0.210 C 
ENDBRANCH  12  17
BRANCH  13  19
HETATM   19  O4  UNL     1       5.829  -0.033   0.125  1.00  0.00    -0.353 OA
HETATM   20  C18 UNL     1       6.367   1.276   0.230  1.00  0.00     0.210 C 
ENDBRANCH  13  19
ENDBRANCH   1   9
BRANCH   7  21
HETATM   21  C7  UNL     1      -2.306   2.277   0.404  1.00  0.00     0.182 C 
BRANCH  21  22
HETATM   22  C8  UNL     1      -3.170   1.141   0.076  1.00  0.00    -0.003 A 
HETATM   23  C9  UNL     1      -2.715  -0.137  -0.075  1.00  0.00     0.018 A 
HETATM   24  C10 UNL     1      -3.560  -1.202  -0.358  1.00  0.00    -0.059 A 
HETATM   25  C11 UNL     1      -3.071  -2.586  -0.521  1.00  0.00     0.048 C 
HETATM   26  C12 UNL     1      -4.904  -0.912  -0.484  1.00  0.00     0.046 A 
HETATM   27  C13 UNL     1      -5.380   0.387  -0.332  1.00  0.00     0.106 A 
HETATM   28  C14 UNL     1      -4.533   1.417  -0.054  1.00  0.00     0.113 A 
HETATM   29  O3  UNL     1      -6.658   0.941  -0.405  1.00  0.00    -0.323 OA
HETATM   30  O2  UNL     1      -5.274   2.593   0.044  1.00  0.00    -0.322 OA
HETATM   31  C15 UNL     1      -6.549   2.345  -0.526  1.00  0.00     0.352 C 
ENDBRANCH  21  22
ENDBRANCH   7  21
TORSDOF 6
