REMARK  8 active torsions:
REMARK  status: ('A' for Active; 'I' for Inactive)
REMARK    1  A    between atoms: C2_2  and  N1_3 
REMARK    2  A    between atoms: N1_3  and  C3_4 
REMARK    3  A    between atoms: N1_3  and  C5_6 
REMARK    4  A    between atoms: C5_6  and  C6_7 
REMARK    5  A    between atoms: C7_8  and  O1_9 
REMARK    6  A    between atoms: C14_18  and  C15_19 
REMARK    7  A    between atoms: C21_25  and  O4_26 
REMARK    8  A    between atoms: C22_28  and  N2_29 
ROOT
HETATM    1  C6  UNL     1      -1.684  -0.400  -0.116  1.00  0.00     0.040 A 
HETATM    2  C7  UNL     1      -0.958  -1.101  -1.089  1.00  0.00     0.086 A 
HETATM    3  C9  UNL     1       0.381  -1.307  -0.903  1.00  0.00    -0.013 A 
HETATM    4  C10 UNL     1       1.086  -0.853   0.219  1.00  0.00    -0.006 A 
HETATM    5  C11 UNL     1       0.378  -0.171   1.174  1.00  0.00     0.113 A 
HETATM    6  C12 UNL     1      -0.996   0.045   0.992  1.00  0.00     0.116 A 
HETATM    7  O2  UNL     1      -1.416   0.751   2.121  1.00  0.00    -0.322 OA
HETATM    8  C13 UNL     1      -0.406   0.855   3.092  1.00  0.00     0.352 C 
HETATM    9  O3  UNL     1       0.722   0.418   2.408  1.00  0.00    -0.322 OA
HETATM   10  C14 UNL     1       2.504  -1.236   0.083  1.00  0.00     0.063 C 
HETATM   11  C22 UNL     1       2.361  -2.487  -0.787  1.00  0.00     0.197 C 
HETATM   12  C23 UNL     1       1.301  -2.071  -1.802  1.00  0.00     0.075 C 
ENDROOT
BRANCH  10  13
HETATM   13  C15 UNL     1       3.357  -0.218  -0.674  1.00  0.00     0.052 C 
HETATM   14  C16 UNL     1       4.737  -0.676  -0.802  1.00  0.00    -0.019 C 
HETATM   15  C17 UNL     1       5.770   0.098  -0.646  1.00  0.00    -0.003 C 
HETATM   16  C18 UNL     1       5.680   1.519  -0.314  1.00  0.00     0.005 C 
HETATM   17  C19 UNL     1       4.451   1.974  -0.166  1.00  0.00    -0.055 C 
HETATM   18  C20 UNL     1       4.234   3.441   0.170  1.00  0.00     0.046 C 
HETATM   19  C21 UNL     1       3.219   1.174  -0.211  1.00  0.00     0.155 C 
BRANCH  19  20
HETATM   20  O4  UNL     1       2.316   1.917  -1.001  1.00  0.00    -0.391 OA
ATOM     21  H4  UNL     1       2.227   2.814  -0.702  1.00  0.00     0.210 HD
ENDBRANCH  19  20
ENDBRANCH  10  13
BRANCH  11  22
HETATM   22  N2  UNL     1       1.925  -3.615  -0.021  1.00  0.00    -0.074 N 
ATOM     23  H23 UNL     1       2.539  -3.784   0.776  1.00  0.00     0.274 HD
ATOM     24  H22 UNL     1       1.062  -3.412   0.484  1.00  0.00     0.274 HD
ATOM     25  H21 UNL     1       1.830  -4.449  -0.601  1.00  0.00     0.274 HD
ENDBRANCH  11  22
BRANCH   2  26
HETATM   26  O1  UNL     1      -1.632  -1.571  -2.231  1.00  0.00    -0.355 OA
HETATM   27  C8  UNL     1      -2.194  -2.881  -2.158  1.00  0.00     0.210 C 
ENDBRANCH   2  26
BRANCH   1  28
HETATM   28  C5  UNL     1      -3.136  -0.225  -0.303  1.00  0.00     0.316 C 
BRANCH  28  29
HETATM   29  N1  UNL     1      -3.749   0.600   0.722  1.00  0.00     0.092 N 
BRANCH  29  30
HETATM   30  C2  UNL     1      -5.224   0.438   0.638  1.00  0.00     0.268 C 
HETATM   31  C1  UNL     1      -5.603  -0.931   1.109  1.00  0.00     0.037 C 
ENDBRANCH  29  30
BRANCH  29  32
HETATM   32  C3  UNL     1      -3.526   1.984   0.230  1.00  0.00     0.268 C 
HETATM   33  C4  UNL     1      -4.043   3.023   1.157  1.00  0.00     0.037 C 
ENDBRANCH  29  32
ENDBRANCH  28  29
ENDBRANCH   1  28
TORSDOF 8
