REMARK  17 active torsions:
REMARK  status: ('A' for Active; 'I' for Inactive)
REMARK    1  A    between atoms: O1_2  and  C2_3 
REMARK    2  A    between atoms: C2_3  and  O2_4 
REMARK    3  A    between atoms: C2_3  and  C3_6 
REMARK    4  A    between atoms: C3_6  and  C4_7 
REMARK    5  A    between atoms: C3_6  and  N4_20 
REMARK    6  A    between atoms: C4_7  and  S1_8 
REMARK    7  A    between atoms: S1_8  and  C5_9 
REMARK    8  A    between atoms: C5_9  and  C6_10 
REMARK    9  A    between atoms: C7_16  and  N3_17 
REMARK   10  A    between atoms: N4_20  and  N5_22 
REMARK       I    between atoms: N9_30  and  C9_32 
REMARK   11  A    between atoms: C9_32  and  C10_34 
REMARK   12  A    between atoms: C11_37  and  O5_38 
REMARK   13  A    between atoms: C12_41  and  C13_42 
REMARK   14  A    between atoms: C13_42  and  N11_43 
REMARK       I    between atoms: N11_43  and  C14_44 
REMARK   15  A    between atoms: C14_44  and  O7_46 
REMARK   16  A    between atoms: O7_46  and  C15_47 
REMARK   17  A    between atoms: C21_54  and  O8_55 
ROOT
HETATM    1  N5  UNL     1       4.227   0.070  -0.070  1.00  0.00    -0.142 N 
HETATM    2  N6  UNL     1       4.245   0.440  -1.338  1.00  0.00    -0.204 N 
ATOM      3  H6  UNL     1       5.028   0.176  -1.936  1.00  0.00     0.212 HD
HETATM    4  N7  UNL     1       3.243   1.156  -1.834  1.00  0.00    -0.225 N 
ATOM      5  H7  UNL     1       3.264   1.434  -2.815  1.00  0.00     0.210 HD
HETATM    6  N8  UNL     1       2.218   1.515  -1.080  1.00  0.00    -0.265 N 
ATOM      7  H8  UNL     1       1.469   2.063  -1.503  1.00  0.00     0.190 HD
HETATM    8  C8  UNL     1       2.123   1.197   0.189  1.00  0.00     0.197 A 
HETATM    9  N9  UNL     1       1.167   1.379   0.995  1.00  0.00    -0.302 N 
ATOM     10  H9  UNL     1       1.330   1.048   1.946  1.00  0.00     0.171 HD
HETATM   11  C9  UNL     1      -0.071   1.962   0.776  1.00  0.00     0.275 C 
HETATM   12  O4  UNL     1      -0.270   3.180   0.907  1.00  0.00    -0.266 OA
HETATM   13  C22 UNL     1       3.210   0.419   0.735  1.00  0.00     0.328 A 
HETATM   14  O9  UNL     1       3.186   0.080   1.943  1.00  0.00    -0.260 OA
ENDROOT
BRANCH  11  15
HETATM   15  C10 UNL     1      -1.223   1.050   0.376  1.00  0.00     0.119 A 
HETATM   16  N10 UNL     1      -0.989  -0.212   0.122  1.00  0.00    -0.326 N 
HETATM   17  C11 UNL     1      -2.039  -1.011  -0.139  1.00  0.00     0.185 A 
ATOM     18  H10 UNL     1      -0.037  -0.579   0.122  1.00  0.00     0.168 HD
HETATM   19  S2  UNL     1      -3.362   0.015  -0.027  1.00  0.00    -0.046 SA
HETATM   20  C12 UNL     1      -2.474   1.490   0.361  1.00  0.00     0.049 A 
BRANCH  17  21
HETATM   21  O5  UNL     1      -1.994  -2.284  -0.402  1.00  0.00    -0.341 OA
ATOM     22  H5  UNL     1      -2.736  -2.848  -0.586  1.00  0.00     0.220 HD
ENDBRANCH  17  21
BRANCH  20  23
HETATM   23  C13 UNL     1      -3.194   2.802   0.589  1.00  0.00     0.273 C 
BRANCH  23  24
HETATM   24  N11 UNL     1      -4.601   2.510   0.487  1.00  0.00    -0.385 NA
HETATM   25  C14 UNL     1      -5.865   2.262   0.400  1.00  0.00     0.435 C 
HETATM   26  O6  UNL     1      -6.912   2.982   0.556  1.00  0.00    -0.221 OA
BRANCH  25  27
HETATM   27  O7  UNL     1      -6.320   0.908   0.061  1.00  0.00    -0.284 OA
BRANCH  27  28
HETATM   28  C15 UNL     1      -7.690   0.631  -0.049  1.00  0.00     0.170 C 
HETATM   29  C16 UNL     1      -8.167  -0.456   0.918  1.00  0.00     0.042 C 
HETATM   30  C17 UNL     1      -8.390   0.052   2.297  1.00  0.00     0.014 C 
HETATM   31  C18 UNL     1      -9.420  -1.066   0.374  1.00  0.00     0.279 C 
HETATM   32  N12 UNL     1     -10.158  -0.224  -0.502  1.00  0.00     0.087 N 
HETATM   33  C19 UNL     1     -11.325  -0.962  -0.902  1.00  0.00     0.310 C 
HETATM   34  C20 UNL     1      -9.434   0.173  -1.704  1.00  0.00     0.306 C 
HETATM   35  C21 UNL     1      -7.945   0.166  -1.479  1.00  0.00     0.176 C 
BRANCH  35  36
HETATM   36  O8  UNL     1      -7.387  -1.085  -1.708  1.00  0.00    -0.391 OA
ATOM     37  H8  UNL     1      -7.546  -1.375  -2.599  1.00  0.00     0.210 HD
ENDBRANCH  35  36
ENDBRANCH  27  28
ENDBRANCH  25  27
ENDBRANCH  23  24
ENDBRANCH  20  23
ENDBRANCH  11  15
BRANCH   1  38
HETATM   38  N4  UNL     1       5.228  -0.718   0.463  1.00  0.00    -0.301 N 
ATOM     39  H4  UNL     1       5.187  -1.050   1.427  1.00  0.00     0.183 HD
BRANCH  38  40
HETATM   40  C3  UNL     1       6.379  -1.066  -0.436  1.00  0.00     0.165 C 
BRANCH  40  41
HETATM   41  C2  UNL     1       6.956  -2.294   0.036  1.00  0.00     0.280 C 
BRANCH  41  42
HETATM   42  O1  UNL     1       8.088  -2.879  -0.469  1.00  0.00    -0.364 OA
HETATM   43  C1  UNL     1       8.600  -4.125   0.032  1.00  0.00     0.204 C 
ENDBRANCH  41  42
BRANCH  41  44
HETATM   44  O2  UNL     1       6.417  -2.954   1.018  1.00  0.00    -0.369 OA
ATOM     45  H2  UNL     1       5.632  -2.549   1.368  1.00  0.00     0.212 HD
ENDBRANCH  41  44
ENDBRANCH  40  41
BRANCH  40  46
HETATM   46  C4  UNL     1       7.243   0.127  -0.492  1.00  0.00     0.106 C 
BRANCH  46  47
HETATM   47  S1  UNL     1       8.619   0.380  -1.427  1.00  0.00    -0.161 SA
BRANCH  47  48
HETATM   48  C5  UNL     1      10.213  -0.286  -1.278  1.00  0.00     0.137 C 
BRANCH  48  49
HETATM   49  C6  UNL     1      10.782  -0.114   0.118  1.00  0.00     0.088 A 
HETATM   50  N1  UNL     1      10.499  -0.931   1.195  1.00  0.00    -0.241 N 
HETATM   51  O3  UNL     1      11.337  -0.556   2.175  1.00  0.00    -0.155 OA
ATOM     52  H1  UNL     1       9.796  -1.669   1.237  1.00  0.00     0.196 HD
HETATM   53  N2  UNL     1      12.115   0.439   1.757  1.00  0.00    -0.224 N 
HETATM   54  C7  UNL     1      11.777   0.711   0.511  1.00  0.00     0.146 A 
ATOM     55  H2  UNL     1      12.841   0.906   2.301  1.00  0.00     0.198 HD
BRANCH  54  56
HETATM   56  N3  UNL     1      12.222   1.664  -0.268  1.00  0.00    -0.382 N 
ATOM     57  H32 UNL     1      11.961   1.874  -1.231  1.00  0.00     0.157 HD
ATOM     58  H31 UNL     1      12.973   2.287   0.029  1.00  0.00     0.157 HD
ENDBRANCH  54  56
ENDBRANCH  48  49
ENDBRANCH  47  48
ENDBRANCH  46  47
ENDBRANCH  40  46
ENDBRANCH  38  40
ENDBRANCH   1  38
TORSDOF 17
