REMARK  16 active torsions:
REMARK  status: ('A' for Active; 'I' for Inactive)
REMARK    1  A    between atoms: C2_2  and  O1_3 
REMARK    2  A    between atoms: C2_2  and  N1_5 
REMARK    3  A    between atoms: N1_5  and  S1_7 
REMARK    4  A    between atoms: S1_7  and  N2_10 
REMARK    5  A    between atoms: C4_14  and  C5_15 
REMARK    6  A    between atoms: C6_18  and  C7_19 
REMARK    7  A    between atoms: C7_19  and  O7_20 
REMARK    8  A    between atoms: O7_20  and  C8_21 
REMARK    9  A    between atoms: C8_21  and  C9_23 
REMARK   10  A    between atoms: C10_27  and  C11_28 
REMARK   11  A    between atoms: C12_31  and  N5_32 
REMARK       I    between atoms: N5_32  and  C13_34 
REMARK   12  A    between atoms: C13_34  and  C14_36 
REMARK   13  A    between atoms: C14_36  and  N6_38 
REMARK   14  A    between atoms: C17_40  and  C18_41 
REMARK   15  A    between atoms: C19_48  and  N10_49 
REMARK   16  A    between atoms: C20_53  and  O13_54 
ROOT
HETATM    1  O7  UNL     1      -0.794   0.820   0.756  1.00  0.00    -0.312 OA
ENDROOT
BRANCH   1   2
HETATM    2  C7  UNL     1      -0.273   1.578  -0.308  1.00  0.00     0.218 C 
BRANCH   2   3
HETATM    3  C6  UNL     1       1.193   1.522  -0.282  1.00  0.00     0.015 C 
HETATM    4  C4  UNL     1       2.054   2.507  -0.168  1.00  0.00     0.127 C 
HETATM    5  N3  UNL     1       3.389   1.949  -0.192  1.00  0.00    -0.237 N 
HETATM    6  C3  UNL     1       4.755   1.610  -0.064  1.00  0.00     0.348 C 
HETATM    7  C20 UNL     1       3.219   0.728  -1.023  1.00  0.00     0.278 C 
HETATM    8  N2  UNL     1       4.476   0.289  -0.482  1.00  0.00    -0.152 N 
HETATM    9  O4  UNL     1       5.785   2.221   0.278  1.00  0.00    -0.245 OA
HETATM   10  C19 UNL     1       1.958   0.215  -0.390  1.00  0.00     0.296 C 
BRANCH   4  11
HETATM   11  C5  UNL     1       1.822   3.938  -0.039  1.00  0.00     0.227 C 
HETATM   12  O5  UNL     1       0.672   4.408  -0.024  1.00  0.00    -0.643 OA
HETATM   13  O6  UNL     1       2.867   4.833   0.071  1.00  0.00    -0.643 OA
ENDBRANCH   4  11
BRANCH   8  14
HETATM   14  S1  UNL     1       5.265  -1.221  -0.401  1.00  0.00     0.331 S 
HETATM   15  O2  UNL     1       4.340  -2.156   0.341  1.00  0.00    -0.182 OA
HETATM   16  O3  UNL     1       5.401  -1.839  -1.790  1.00  0.00    -0.182 OA
BRANCH  14  17
HETATM   17  N1  UNL     1       6.822  -1.176   0.286  1.00  0.00    -0.276 N 
ATOM     18  H1  UNL     1       6.982  -1.267   1.289  1.00  0.00     0.176 HD
BRANCH  17  19
HETATM   19  C2  UNL     1       7.894  -1.000  -0.656  1.00  0.00     0.225 C 
HETATM   20  C1  UNL     1       8.752   0.192  -0.323  1.00  0.00     0.063 C 
BRANCH  19  21
HETATM   21  O1  UNL     1       8.761  -2.119  -0.580  1.00  0.00    -0.377 OA
ATOM     22  H1  UNL     1       8.220  -2.871  -0.790  1.00  0.00     0.212 HD
ENDBRANCH  19  21
ENDBRANCH  17  19
ENDBRANCH  14  17
ENDBRANCH   8  14
BRANCH   7  23
HETATM   23  O13 UNL     1       3.184   0.956  -2.376  1.00  0.00    -0.351 OA
ATOM     24  H13 UNL     1       2.353   1.246  -2.734  1.00  0.00     0.214 HD
ENDBRANCH   7  23
BRANCH  10  25
HETATM   25  N10 UNL     1       1.247  -0.711  -1.243  1.00  0.00    -0.064 N 
ATOM     26 3H10 UNL     1       0.287  -0.856  -0.931  1.00  0.00     0.275 HD
ATOM     27 2H10 UNL     1       1.048  -0.309  -2.159  1.00  0.00     0.275 HD
ATOM     28 1H10 UNL     1       1.761  -1.589  -1.316  1.00  0.00     0.275 HD
ENDBRANCH  10  25
ENDBRANCH   2   3
ENDBRANCH   1   2
BRANCH   1  29
HETATM   29  C8  UNL     1      -0.555   0.998   2.083  1.00  0.00     0.313 C 
HETATM   30  O8  UNL     1       0.204   1.919   2.452  1.00  0.00    -0.257 OA
BRANCH  29  31
HETATM   31  C9  UNL     1      -1.209   0.080   3.059  1.00  0.00     0.143 A 
HETATM   32  N4  UNL     1      -0.953   0.246   4.361  1.00  0.00    -0.319 N 
HETATM   33  S2  UNL     1      -1.832  -0.951   5.125  1.00  0.00    -0.005 SA
ATOM     34  H4  UNL     1      -0.353   0.949   4.793  1.00  0.00     0.174 HD
HETATM   35  C10 UNL     1      -2.539  -1.676   3.764  1.00  0.00     0.127 A 
HETATM   36  C12 UNL     1      -2.046  -0.930   2.722  1.00  0.00     0.094 A 
BRANCH  35  37
HETATM   37  C11 UNL     1      -3.466  -2.832   3.668  1.00  0.00     0.220 C 
HETATM   38  O9  UNL     1      -3.869  -3.203   2.547  1.00  0.00    -0.643 OA
HETATM   39  O10 UNL     1      -3.873  -3.484   4.800  1.00  0.00    -0.643 OA
ENDBRANCH  35  37
BRANCH  36  40
HETATM   40  N5  UNL     1      -2.421  -1.220   1.338  1.00  0.00    -0.322 N 
HETATM   41  C13 UNL     1      -3.548  -0.577   0.765  1.00  0.00     0.246 C 
HETATM   42  O11 UNL     1      -4.191   0.232   1.488  1.00  0.00    -0.271 OA
ATOM     43  H5  UNL     1      -1.874  -1.882   0.787  1.00  0.00     0.169 HD
BRANCH  41  44
HETATM   44  C14 UNL     1      -4.003  -0.802  -0.613  1.00  0.00     0.197 C 
HETATM   45  C15 UNL     1      -4.473  -2.182  -0.916  1.00  0.00     0.044 C 
BRANCH  44  46
HETATM   46  N6  UNL     1      -5.101   0.127  -0.913  1.00  0.00    -0.273 N 
HETATM   47  C16 UNL     1      -6.260  -0.120  -1.536  1.00  0.00     0.148 A 
HETATM   48  C17 UNL     1      -6.988   1.054  -1.595  1.00  0.00     0.131 A 
HETATM   49  N8  UNL     1      -6.240   1.989  -0.999  1.00  0.00    -0.280 N 
HETATM   50  N9  UNL     1      -5.121   1.421  -0.600  1.00  0.00    -0.239 N 
ATOM     51  H8  UNL     1      -6.492   2.970  -0.875  1.00  0.00     0.188 HD
ATOM     52  H9  UNL     1      -4.368   1.909  -0.115  1.00  0.00     0.208 HD
BRANCH  48  53
HETATM   53  C18 UNL     1      -8.302   1.269  -2.179  1.00  0.00     0.284 C 
HETATM   54  N7  UNL     1      -8.988   0.196  -2.789  1.00  0.00    -0.056 NA
HETATM   55  O12 UNL     1      -8.832   2.408  -2.142  1.00  0.00    -0.269 OA
ENDBRANCH  48  53
ENDBRANCH  44  46
ENDBRANCH  41  44
ENDBRANCH  36  40
ENDBRANCH  29  31
ENDBRANCH   1  29
TORSDOF 16
