REMARK  5 active torsions:
REMARK  status: ('A' for Active; 'I' for Inactive)
REMARK    1  A    between atoms: C4_4  and  C6_6 
REMARK    2  A    between atoms: C8_8  and  C9_9 
REMARK    3  A    between atoms: C10_12  and  O1_13 
REMARK    4  A    between atoms: O1_13  and  C11_14 
REMARK    5  A    between atoms: C15_20  and  N2_21 
ROOT
HETATM    1  C6  UNL     1       1.843  -0.178  -1.001  1.00  0.00     0.012 A 
HETATM    2  C7  UNL     1       0.694  -0.334  -0.218  1.00  0.00     0.046 A 
HETATM    3  C8  UNL     1      -0.551  -0.027  -0.689  1.00  0.00     0.077 A 
HETATM    4  N4  UNL     1      -0.718   0.441  -1.936  1.00  0.00    -0.360 N 
ATOM      5  H4  UNL     1      -1.649   0.669  -2.284  1.00  0.00     0.165 HD
HETATM    6  C16 UNL     1       0.361   0.604  -2.717  1.00  0.00     0.131 A 
HETATM    7  C17 UNL     1       1.646   0.299  -2.265  1.00  0.00     0.140 A 
HETATM    8  F2  UNL     1       2.683   0.477  -3.105  1.00  0.00    -0.204 F 
ENDROOT
BRANCH   3   9
HETATM    9  C9  UNL     1      -1.771  -0.194   0.145  1.00  0.00     0.136 A 
HETATM   10  N1  UNL     1      -2.961   0.114  -0.348  1.00  0.00    -0.320 N 
HETATM   11  C10 UNL     1      -4.156   0.009   0.307  1.00  0.00     0.170 A 
ATOM     12  H1  UNL     1      -2.988   0.462  -1.306  1.00  0.00     0.169 HD
HETATM   13  C14 UNL     1      -4.076  -0.466   1.600  1.00  0.00     0.128 A 
HETATM   14 CL1  UNL     1      -5.459  -0.683   2.621  1.00  0.00    -0.076 Cl
HETATM   15  C15 UNL     1      -2.832  -0.788   2.115  1.00  0.00     0.127 A 
HETATM   16  N3  UNL     1      -1.690  -0.656   1.401  1.00  0.00    -0.326 N 
ATOM     17  H3  UNL     1      -0.788  -0.902   1.809  1.00  0.00     0.169 HD
BRANCH  11  18
HETATM   18  O1  UNL     1      -5.277   0.358  -0.321  1.00  0.00    -0.326 OA
BRANCH  18  19
HETATM   19  C11 UNL     1      -6.616   0.439  -0.141  1.00  0.00     0.167 A 
HETATM   20  C12 UNL     1      -7.459   1.410  -0.928  1.00  0.00     0.075 A 
HETATM   21  C13 UNL     1      -7.534  -0.018  -1.307  1.00  0.00     0.202 A 
HETATM   22  F1  UNL     1      -8.669  -0.707  -1.019  1.00  0.00    -0.247 F 
ENDBRANCH  18  19
ENDBRANCH  11  18
BRANCH  15  23
HETATM   23  N2  UNL     1      -2.777  -1.230   3.323  1.00  0.00    -0.384 N 
ATOM     24  H22 UNL     1      -3.638  -1.329   3.861  1.00  0.00     0.157 HD
ATOM     25  H21 UNL     1      -1.860  -1.467   3.702  1.00  0.00     0.157 HD
ENDBRANCH  15  23
ENDBRANCH   3   9
BRANCH   1  26
HETATM   26  C4  UNL     1       3.197  -0.485  -0.522  1.00  0.00     0.062 C 
HETATM   27  C3  UNL     1       4.069   0.734  -0.507  1.00  0.00     0.068 C 
HETATM   28  C2  UNL     1       5.361   0.491   0.248  1.00  0.00     0.130 C 
HETATM   29  C1  UNL     1       6.196   1.752   0.224  1.00  0.00     0.040 C 
HETATM   30  O2  UNL     1       5.091   0.137   1.600  1.00  0.00    -0.317 OA
HETATM   31  C18 UNL     1       3.838  -0.407   1.893  1.00  0.00     0.213 C 
HETATM   32  N5  UNL     1       3.111  -0.988   0.836  1.00  0.00    -0.343 N 
HETATM   33  N6  UNL     1       3.440  -0.336   3.111  1.00  0.00    -0.365 N 
ATOM     34  H5  UNL     1       2.506  -1.786   1.031  1.00  0.00     0.164 HD
ATOM     35  H62 UNL     1       2.525  -0.733   3.325  1.00  0.00     0.159 HD
ATOM     36  H61 UNL     1       3.967   0.085   3.877  1.00  0.00     0.159 HD
HETATM   37  C5  UNL     1       3.809  -1.613  -1.337  1.00  0.00     0.044 C 
ENDBRANCH   1  26
TORSDOF 5
