REMARK  7 active torsions:
REMARK  status: ('A' for Active; 'I' for Inactive)
REMARK    1  A    between atoms: C2_2  and  C4_4 
REMARK    2  A    between atoms: C4_4  and  C5_5 
REMARK    3  A    between atoms: C5_5  and  C6_6 
REMARK    4  A    between atoms: C6_6  and  N1_7 
REMARK    5  A    between atoms: N1_7  and  C7_9 
REMARK    6  A    between atoms: C8_12  and  N3_13 
REMARK    7  A    between atoms: N3_13  and  C9_15 
ROOT
HETATM    1  C7  UNL     1       0.752   0.538   0.578  1.00  0.00     0.140 A 
HETATM    2  N2  UNL     1       1.569  -0.185  -0.216  1.00  0.00    -0.175 N 
ATOM      3  H2  UNL     1       1.162  -0.747  -0.963  1.00  0.00     0.186 HD
HETATM    4  C8  UNL     1       2.905  -0.187  -0.052  1.00  0.00     0.685 A 
HETATM    5  N5  UNL     1       3.415   0.565   0.942  1.00  0.00    -0.200 N 
ATOM      6  H5  UNL     1       4.426   0.574   1.079  1.00  0.00     0.183 HD
HETATM    7  C13 UNL     1       2.651   1.302   1.759  1.00  0.00     0.133 A 
HETATM    8  C14 UNL     1       1.290   1.304   1.592  1.00  0.00     0.094 A 
HETATM    9 CL3  UNL     1       0.281   2.273   2.665  1.00  0.00    -0.079 Cl
ENDROOT
BRANCH   1  10
HETATM   10  N1  UNL     1      -0.518   0.554   0.438  1.00  0.00    -0.374 N 
ATOM     11  H1  UNL     1      -1.065   1.129   1.079  1.00  0.00     0.161 HD
BRANCH  10  12
HETATM   12  C6  UNL     1      -1.228  -0.199  -0.581  1.00  0.00     0.133 C 
BRANCH  12  13
HETATM   13  C5  UNL     1      -2.554   0.429  -0.804  1.00  0.00    -0.001 C 
HETATM   14  C15 UNL     1      -3.206  -0.058  -2.099  1.00  0.00     0.039 C 
HETATM   15  C16 UNL     1      -2.373   0.641  -3.124  1.00  0.00     0.168 C 
HETATM   16  O1  UNL     1      -1.725   1.692  -2.531  1.00  0.00    -0.390 OA
HETATM   17  C17 UNL     1      -2.260   1.876  -1.264  1.00  0.00     0.178 C 
BRANCH  13  18
HETATM   18  C4  UNL     1      -3.498   0.516   0.316  1.00  0.00     0.017 C 
BRANCH  18  19
HETATM   19  C2  UNL     1      -3.996  -0.710   0.966  1.00  0.00    -0.022 C 
HETATM   20  C1  UNL     1      -3.008  -1.624   1.611  1.00  0.00     0.009 C 
HETATM   21  C3  UNL     1      -4.932  -0.238   2.103  1.00  0.00     0.009 C 
ENDBRANCH  18  19
ENDBRANCH  13  18
ENDBRANCH  12  13
ENDBRANCH  10  12
ENDBRANCH   1  10
BRANCH   4  22
HETATM   22  N3  UNL     1       3.686  -0.881  -0.813  1.00  0.00    -0.175 N 
ATOM     23  H3  UNL     1       3.295  -1.449  -1.564  1.00  0.00     0.186 HD
BRANCH  22  24
HETATM   24  C9  UNL     1       5.076  -0.851  -0.603  1.00  0.00     0.144 A 
HETATM   25  N4  UNL     1       5.971   0.060  -1.072  1.00  0.00    -0.331 N 
HETATM   26  C10 UNL     1       7.205  -0.267  -0.647  1.00  0.00     0.106 A 
ATOM     27  H4  UNL     1       5.742   0.865  -1.655  1.00  0.00     0.168 HD
HETATM   28 CL1  UNL     1       8.661   0.647  -1.025  1.00  0.00    -0.064 Cl
HETATM   29  C11 UNL     1       7.114  -1.399   0.105  1.00  0.00     0.070 A 
HETATM   30  C12 UNL     1       5.782  -1.777   0.141  1.00  0.00     0.081 A 
HETATM   31 CL2  UNL     1       5.176  -3.183   0.992  1.00  0.00    -0.080 Cl
ENDBRANCH  22  24
ENDBRANCH   4  22
TORSDOF 7
