REMARK  8 active torsions:
REMARK  status: ('A' for Active; 'I' for Inactive)
REMARK    1  A    between atoms: N1_1  and  C1_4 
REMARK    2  A    between atoms: C2_7  and  C3_8 
REMARK    3  A    between atoms: C3_8  and  C4_9 
REMARK    4  A    between atoms: N3_10  and  C5_12 
REMARK    5  A    between atoms: N5_24  and  C15_25 
REMARK    6  A    between atoms: C15_25  and  C16_26 
REMARK    7  A    between atoms: C16_26  and  C17_27 
REMARK    8  A    between atoms: C20_30  and  C21_31 
ROOT
HETATM    1  C1  UNL     1      -1.056   2.663  -0.917  1.00  0.00     0.678 A 
HETATM    2  N2  UNL     1       0.090   2.940  -1.542  1.00  0.00    -0.194 N 
ATOM      3  H2  UNL     1       0.333   3.850  -1.934  1.00  0.00     0.184 HD
HETATM    4  C2  UNL     1       0.897   1.831  -1.585  1.00  0.00     0.047 A 
HETATM    5  C14 UNL     1       0.173   0.855  -0.945  1.00  0.00     0.134 A 
HETATM    6  N5  UNL     1      -1.006   1.356  -0.542  1.00  0.00    -0.192 N 
ENDROOT
BRANCH   4   7
HETATM    7  C3  UNL     1       2.253   1.808  -2.204  1.00  0.00     0.103 C 
BRANCH   7   8
HETATM    8  C4  UNL     1       3.269   2.162  -1.090  1.00  0.00     0.067 C 
HETATM    9  N3  UNL     1       3.338   1.318  -0.043  1.00  0.00    -0.368 N 
ATOM     10  H3  UNL     1       2.619   1.711   0.565  1.00  0.00     0.165 HD
BRANCH   9  11
HETATM   11  C5  UNL     1       3.716   0.389   0.628  1.00  0.00     0.045 A 
HETATM   12  C6  UNL     1       3.148   0.125   1.898  1.00  0.00     0.047 A 
HETATM   13  C7  UNL     1       3.568  -0.914   2.675  1.00  0.00     0.090 A 
HETATM   14  N4  UNL     1       4.545  -1.724   2.248  1.00  0.00    -0.365 N 
HETATM   15  C8  UNL     1       5.124  -1.529   1.055  1.00  0.00     0.044 A 
ATOM     16  H4  UNL     1       4.852  -2.498   2.837  1.00  0.00     0.165 HD
HETATM   17  C9  UNL     1       6.136  -2.411   0.668  1.00  0.00     0.030 A 
HETATM   18  C13 UNL     1       4.720  -0.487   0.248  1.00  0.00     0.017 A 
HETATM   19  C10 UNL     1       6.763  -2.263  -0.542  1.00  0.00     0.002 A 
HETATM   20  C11 UNL     1       6.386  -1.245  -1.360  1.00  0.00     0.001 A 
HETATM   21  C12 UNL     1       5.381  -0.376  -0.965  1.00  0.00     0.016 A 
ENDBRANCH   9  11
ENDBRANCH   7   8
ENDBRANCH   4   7
BRANCH   1  22
HETATM   22  N1  UNL     1      -2.049   3.490  -0.708  1.00  0.00    -0.234 N 
ATOM     23  H12 UNL     1      -2.086   4.470  -0.989  1.00  0.00     0.174 HD
ATOM     24  H11 UNL     1      -2.925   3.278  -0.230  1.00  0.00     0.174 HD
ENDBRANCH   1  22
BRANCH   6  25
HETATM   25  C15 UNL     1      -2.088   0.702   0.186  1.00  0.00     0.151 C 
BRANCH  25  26
HETATM   26  C16 UNL     1      -3.062   0.144  -0.809  1.00  0.00     0.059 C 
BRANCH  26  27
HETATM   27  C17 UNL     1      -4.229  -0.507  -0.206  1.00  0.00    -0.057 A 
HETATM   28  C18 UNL     1      -4.373  -1.830   0.102  1.00  0.00     0.008 A 
HETATM   29  C19 UNL     1      -5.557  -2.315   0.675  1.00  0.00     0.017 A 
HETATM   30  C20 UNL     1      -6.604  -1.479   0.943  1.00  0.00     0.047 A 
HETATM   31  C22 UNL     1      -6.488  -0.134   0.643  1.00  0.00     0.017 A 
HETATM   32  C23 UNL     1      -5.328   0.304   0.089  1.00  0.00     0.008 A 
BRANCH  30  33
HETATM   33  C21 UNL     1      -7.848  -1.982   1.535  1.00  0.00     0.417 C 
HETATM   34  F1  UNL     1      -8.741  -0.933   1.746  1.00  0.00    -0.166 F 
HETATM   35  F2  UNL     1      -8.469  -2.855   0.631  1.00  0.00    -0.166 F 
HETATM   36  F3  UNL     1      -7.653  -2.669   2.702  1.00  0.00    -0.166 F 
ENDBRANCH  30  33
ENDBRANCH  26  27
ENDBRANCH  25  26
ENDBRANCH   6  25
TORSDOF 8
