REMARK  2 active torsions:
REMARK  status: ('A' for Active; 'I' for Inactive)
REMARK    1  A    between atoms: C6_10  and  N2_11 
REMARK       I    between atoms: N2_11  and  C7_13 
REMARK    2  A    between atoms: C7_13  and  C8_15 
ROOT
HETATM    1  N2  UNL     1       0.321  -0.606  -0.350  1.00  0.00    -0.326 N 
ATOM      2  H2  UNL     1       0.259  -0.134  -1.252  1.00  0.00     0.169 HD
HETATM    3  C7  UNL     1      -0.886  -1.027   0.197  1.00  0.00     0.230 C 
HETATM    4  O2  UNL     1      -0.942  -1.608   1.296  1.00  0.00    -0.272 OA
ENDROOT
BRANCH   1   5
HETATM    5  C6  UNL     1       1.630  -0.748   0.186  1.00  0.00     0.038 A 
HETATM    6  C5  UNL     1       1.850  -1.777   1.066  1.00  0.00     0.054 A 
HETATM    7  C4  UNL     1       3.132  -1.857   1.599  1.00  0.00     0.055 A 
HETATM    8  C3  UNL     1       4.112  -0.930   1.238  1.00  0.00     0.059 A 
HETATM    9 CL1  UNL     1       3.603  -3.092   2.732  1.00  0.00    -0.083 Cl
HETATM   10  S1  UNL     1       5.759  -0.704   1.674  1.00  0.00    -0.025 SA
HETATM   11  C16 UNL     1       3.902   0.096   0.363  1.00  0.00     0.058 A 
HETATM   12  C2  UNL     1       6.068   0.666   0.724  1.00  0.00     0.291 A 
HETATM   13  N1  UNL     1       4.916   0.903   0.112  1.00  0.00    -0.311 N 
HETATM   14  O1  UNL     1       7.152   1.324   0.615  1.00  0.00    -0.259 OA
HETATM   15  C1  UNL     1       4.828   2.068  -0.828  1.00  0.00     0.160 C 
HETATM   16  C15 UNL     1       2.603   0.177  -0.177  1.00  0.00     0.060 A 
ENDBRANCH   1   5
BRANCH   3  17
HETATM   17  C8  UNL     1      -2.195  -0.803  -0.511  1.00  0.00     0.043 C 
HETATM   18  C9  UNL     1      -2.170  -1.498  -1.838  1.00  0.00     0.025 C 
HETATM   19  C10 UNL     1      -2.425   0.672  -0.751  1.00  0.00     0.065 C 
HETATM   20  C11 UNL     1      -3.811   0.988  -0.273  1.00  0.00     0.136 C 
HETATM   21  C12 UNL     1      -3.850   2.255   0.564  1.00  0.00     0.055 C 
HETATM   22  F1  UNL     1      -4.663   1.221  -1.354  1.00  0.00    -0.240 F 
HETATM   23  C13 UNL     1      -4.332  -0.200   0.470  1.00  0.00     0.149 C 
HETATM   24 CL2  UNL     1      -4.644   0.165   2.191  1.00  0.00    -0.098 Cl
HETATM   25 CL3  UNL     1      -5.873  -0.781  -0.228  1.00  0.00    -0.098 Cl
HETATM   26  C14 UNL     1      -3.306  -1.289   0.348  1.00  0.00     0.064 C 
ENDBRANCH   3  17
TORSDOF 2
