REMARK  8 active torsions:
REMARK  status: ('A' for Active; 'I' for Inactive)
REMARK    1  A    between atoms: N1_1  and  C1_5 
REMARK    2  A    between atoms: C1_5  and  C2_6 
REMARK    3  A    between atoms: C2_6  and  C3_7 
REMARK    4  A    between atoms: C3_7  and  C4_8 
REMARK    5  A    between atoms: C4_8  and  C5_9 
REMARK    6  A    between atoms: C5_9  and  C6_10 
REMARK    7  A    between atoms: C6_10  and  C7_11 
REMARK    8  A    between atoms: C7_11  and  C8_12 
ROOT
HETATM    1  C6  UNL     1       0.564   0.116   0.392  1.00  0.00     0.000 C 
ENDROOT
BRANCH   1   2
HETATM    2  C5  UNL     1       2.020  -0.280   0.180  1.00  0.00     0.000 C 
BRANCH   2   3
HETATM    3  C4  UNL     1       2.763   0.151   1.408  1.00  0.00     0.000 C 
BRANCH   3   4
HETATM    4  C3  UNL     1       4.222  -0.163   1.380  1.00  0.00     0.002 C 
BRANCH   4   5
HETATM    5  C2  UNL     1       4.883   0.517   0.230  1.00  0.00     0.027 C 
BRANCH   5   6
HETATM    6  C1  UNL     1       6.384   0.205   0.196  1.00  0.00     0.229 C 
BRANCH   6   7
HETATM    7  N1  UNL     1       6.492  -1.238   0.063  1.00  0.00    -0.079 N 
ATOM      8  H13 UNL     1       5.986  -1.752   0.785  1.00  0.00     0.274 HD
ATOM      9  H12 UNL     1       5.981  -1.612  -0.737  1.00  0.00     0.274 HD
ATOM     10  H11 UNL     1       7.490  -1.446   0.040  1.00  0.00     0.274 HD
ENDBRANCH   6   7
ENDBRANCH   5   6
ENDBRANCH   4   5
ENDBRANCH   3   4
ENDBRANCH   2   3
ENDBRANCH   1   2
BRANCH   1  11
HETATM   11  C7  UNL     1      -0.266  -0.285  -0.810  1.00  0.00     0.004 C 
BRANCH  11  12
HETATM   12  C8  UNL     1      -1.729   0.105  -0.612  1.00  0.00    -0.014 C 
HETATM   13  C9  UNL     1      -2.474  -0.320  -1.829  1.00  0.00     0.004 C 
HETATM   14  C10 UNL     1      -3.745   0.335  -2.128  1.00  0.00     0.000 C 
HETATM   15  C11 UNL     1      -4.319   1.269  -1.140  1.00  0.00     0.000 C 
HETATM   16  C12 UNL     1      -5.282   0.578  -0.164  1.00  0.00     0.000 C 
HETATM   17  C13 UNL     1      -4.528   0.099   1.058  1.00  0.00     0.000 C 
HETATM   18  C14 UNL     1      -3.585  -1.031   0.663  1.00  0.00     0.000 C 
HETATM   19  C15 UNL     1      -2.179  -0.551   0.658  1.00  0.00     0.004 C 
ENDBRANCH  11  12
ENDBRANCH   1  11
TORSDOF 8
