REMARK  6 active torsions:
REMARK  status: ('A' for Active; 'I' for Inactive)
REMARK    1  A    between atoms: C2_4  and  C3_5 
REMARK    2  A    between atoms: C3_5  and  C4_6 
REMARK    3  A    between atoms: C4_6  and  C5_7 
REMARK    4  A    between atoms: C5_7  and  C6_8 
REMARK    5  A    between atoms: C6_8  and  C7_9 
REMARK    6  A    between atoms: C7_9  and  C8_10 
ROOT
HETATM    1  C4  UNL     1       2.058  -1.054   1.058  1.00  0.00     0.006 C 
ENDROOT
BRANCH   1   2
HETATM    2  C3  UNL     1       3.159  -1.529   0.177  1.00  0.00     0.058 C 
BRANCH   2   3
HETATM    3  C2  UNL     1       3.882  -0.409  -0.467  1.00  0.00     0.025 A 
HETATM    4  N1  UNL     1       3.592   0.147  -1.639  1.00  0.00    -0.355 N 
HETATM    5  C1  UNL     1       4.462   1.126  -1.888  1.00  0.00     0.180 A 
ATOM      6  H1  UNL     1       2.825  -0.131  -2.251  1.00  0.00     0.166 HD
HETATM    7  N2  UNL     1       5.331   1.199  -0.852  1.00  0.00    -0.360 N 
HETATM    8  C14 UNL     1       4.973   0.253   0.024  1.00  0.00     0.113 A 
ATOM      9  H2  UNL     1       6.110   1.851  -0.757  1.00  0.00     0.166 HD
ENDBRANCH   2   3
ENDBRANCH   1   2
BRANCH   1  10
HETATM   10  C5  UNL     1       0.977  -0.267   0.366  1.00  0.00     0.000 C 
BRANCH  10  11
HETATM   11  C6  UNL     1       0.268  -1.066  -0.695  1.00  0.00     0.000 C 
BRANCH  11  12
HETATM   12  C7  UNL     1      -0.800  -0.311  -1.397  1.00  0.00     0.004 C 
BRANCH  12  13
HETATM   13  C8  UNL     1      -1.899   0.184  -0.497  1.00  0.00    -0.014 C 
HETATM   14  C9  UNL     1      -2.614  -0.917   0.222  1.00  0.00     0.004 C 
HETATM   15  C10 UNL     1      -3.551  -0.336   1.245  1.00  0.00     0.000 C 
HETATM   16  C11 UNL     1      -3.806   1.132   1.045  1.00  0.00     0.000 C 
HETATM   17  C12 UNL     1      -3.959   1.525  -0.395  1.00  0.00     0.000 C 
HETATM   18  C13 UNL     1      -2.919   0.960  -1.301  1.00  0.00     0.004 C 
ENDBRANCH  12  13
ENDBRANCH  11  12
ENDBRANCH  10  11
ENDBRANCH   1  10
TORSDOF 6
