REMARK  7 active torsions:
REMARK  status: ('A' for Active; 'I' for Inactive)
REMARK    1  A    between atoms: C4_4  and  C5_5 
REMARK    2  A    between atoms: C5_5  and  C6_6 
REMARK    3  A    between atoms: C6_6  and  C7_7 
REMARK    4  A    between atoms: C7_7  and  C8_8 
REMARK    5  A    between atoms: C8_8  and  C9_9 
REMARK    6  A    between atoms: C9_9  and  N1_10 
REMARK    7  A    between atoms: N1_10  and  C10_13 
ROOT
HETATM    1  C8  UNL     1      -0.072  -0.645   0.620  1.00  0.00     0.027 C 
ENDROOT
BRANCH   1   2
HETATM    2  C7  UNL     1       0.539   0.708   0.835  1.00  0.00     0.002 C 
BRANCH   2   3
HETATM    3  C6  UNL     1       2.027   0.635   0.738  1.00  0.00     0.005 C 
BRANCH   3   4
HETATM    4  C5  UNL     1       2.540   0.134  -0.600  1.00  0.00     0.038 C 
BRANCH   4   5
HETATM    5  C4  UNL     1       4.020   0.142  -0.488  1.00  0.00    -0.058 A 
HETATM    6  C3  UNL     1       4.740   1.246  -0.869  1.00  0.00     0.007 A 
HETATM    7  C2  UNL     1       6.126   1.246  -0.740  1.00  0.00     0.001 A 
HETATM    8  C1  UNL     1       6.790   0.140  -0.229  1.00  0.00     0.000 A 
HETATM    9  C16 UNL     1       6.069  -0.967   0.152  1.00  0.00     0.001 A 
HETATM   10  C15 UNL     1       4.684  -0.941   0.013  1.00  0.00     0.007 A 
ENDBRANCH   4   5
ENDBRANCH   3   4
ENDBRANCH   2   3
ENDBRANCH   1   2
BRANCH   1  11
HETATM   11  C9  UNL     1      -1.576  -0.555   0.760  1.00  0.00     0.232 C 
BRANCH  11  12
HETATM   12  N1  UNL     1      -2.135   0.373  -0.194  1.00  0.00    -0.071 N 
ATOM     13  H12 UNL     1      -1.708   1.298  -0.140  1.00  0.00     0.277 HD
ATOM     14  H11 UNL     1      -1.872   0.156  -1.155  1.00  0.00     0.277 HD
BRANCH  12  15
HETATM   15  C10 UNL     1      -3.552   0.406  -0.003  1.00  0.00     0.185 C 
HETATM   16  C11 UNL     1      -4.300   0.612  -1.319  1.00  0.00     0.033 C 
HETATM   17  C12 UNL     1      -5.731   0.330  -0.901  1.00  0.00     0.002 C 
HETATM   18  C13 UNL     1      -5.644  -0.552   0.343  1.00  0.00     0.002 C 
HETATM   19  C14 UNL     1      -4.154  -0.922   0.418  1.00  0.00     0.033 C 
ENDBRANCH  12  15
ENDBRANCH  11  12
ENDBRANCH   1  11
TORSDOF 7
