REMARK  4 active torsions:
REMARK  status: ('A' for Active; 'I' for Inactive)
REMARK    1  A    between atoms: C2_2  and  C3_3 
REMARK    2  A    between atoms: C3_3  and  C4_4 
REMARK       I    between atoms: N3_11  and  C7_13 
REMARK    3  A    between atoms: C7_13  and  O2_15 
REMARK    4  A    between atoms: O2_15  and  C8_16 
REMARK       I    between atoms: N4_22  and  C14_23 
REMARK       I    between atoms: C14_23  and  N5_25 
ROOT
HETATM    1  C4  UNL     1       1.751   1.336  -1.390  1.00  0.00     0.141 C 
HETATM    2  C5  UNL     1       0.323   1.227  -0.981  1.00  0.00     0.060 A 
HETATM    3  N1  UNL     1      -0.859   1.896  -0.991  1.00  0.00    -0.300 N 
ATOM      4  H1  UNL     1      -1.012   2.824  -1.385  1.00  0.00     0.186 HD
HETATM    5  N2  UNL     1      -1.766   1.157  -0.415  1.00  0.00    -0.285 N 
ATOM      6  H2  UNL     1      -2.741   1.432  -0.294  1.00  0.00     0.188 HD
HETATM    7  C6  UNL     1      -1.252  -0.015  -0.000  1.00  0.00     0.134 A 
HETATM    8  N3  UNL     1      -1.840  -1.003   0.610  1.00  0.00    -0.287 N 
ATOM      9  H3  UNL     1      -1.282  -1.823   0.849  1.00  0.00     0.172 HD
HETATM   10  C7  UNL     1      -3.197  -1.001   0.956  1.00  0.00     0.367 C 
HETATM   11  O1  UNL     1      -3.572  -1.077   2.142  1.00  0.00    -0.238 OA
HETATM   12  C12 UNL     1       0.080   0.031  -0.362  1.00  0.00     0.031 A 
HETATM   13  C13 UNL     1       1.348  -0.750  -0.327  1.00  0.00     0.173 C 
HETATM   14  N4  UNL     1       2.352   0.136  -0.867  1.00  0.00    -0.319 N 
HETATM   15  C14 UNL     1       3.733  -0.145  -0.891  1.00  0.00     0.322 C 
HETATM   16  O3  UNL     1       4.543   0.680  -1.421  1.00  0.00    -0.247 OA
HETATM   17  N5  UNL     1       4.239  -1.332  -0.334  1.00  0.00    -0.317 N 
HETATM   18  C15 UNL     1       3.808  -2.522   0.337  1.00  0.00     0.132 C 
HETATM   19  C16 UNL     1       5.014  -3.244  -0.289  1.00  0.00     0.060 C 
HETATM   20  C17 UNL     1       5.609  -1.858  -0.209  1.00  0.00     0.197 C 
HETATM   21  C18 UNL     1       6.256  -1.542   1.043  1.00  0.00     0.085 C 
HETATM   22  N6  UNL     1       6.766  -1.283   2.029  1.00  0.00    -0.195 NA
ENDROOT
BRANCH   1  23
HETATM   23  C3  UNL     1       2.340   2.615  -0.859  1.00  0.00     0.031 C 
BRANCH  23  24
HETATM   24  C2  UNL     1       2.314   2.728   0.632  1.00  0.00    -0.002 C 
HETATM   25  C1  UNL     1       2.948   4.081   0.978  1.00  0.00     0.005 C 
ENDBRANCH  23  24
ENDBRANCH   1  23
BRANCH  10  26
HETATM   26  O2  UNL     1      -4.137  -0.913  -0.058  1.00  0.00    -0.294 OA
BRANCH  26  27
HETATM   27  C8  UNL     1      -5.514  -0.902   0.151  1.00  0.00     0.061 C 
HETATM   28  C9  UNL     1      -6.049  -2.124   0.836  1.00  0.00     0.046 C 
HETATM   29  C10 UNL     1      -6.175  -0.837  -1.232  1.00  0.00     0.046 C 
HETATM   30  C11 UNL     1      -5.966   0.360   0.876  1.00  0.00     0.046 C 
ENDBRANCH  26  27
ENDBRANCH  10  26
TORSDOF 4
