REMARK  16 active torsions:
REMARK  status: ('A' for Active; 'I' for Inactive)
REMARK       I    between atoms: N1_2  and  C2_4 
REMARK    1  A    between atoms: C2_4  and  C3_6 
REMARK    2  A    between atoms: C5_8  and  N2_9 
REMARK    3  A    between atoms: N2_9  and  C6_11 
REMARK    4  A    between atoms: C7_16  and  S1_17 
REMARK    5  A    between atoms: S1_17  and  C8_19 
REMARK    6  A    between atoms: C8_19  and  N5_20 
REMARK    7  A    between atoms: C8_19  and  O3_24 
REMARK    8  A    between atoms: N6_26  and  C9_27 
REMARK    9  A    between atoms: C10_30  and  N8_31 
REMARK   10  A    between atoms: N8_31  and  C11_33 
REMARK   11  A    between atoms: C11_33  and  C12_34 
REMARK   12  A    between atoms: C12_34  and  O4_35 
REMARK   13  A    between atoms: C13_39  and  N10_40 
REMARK   14  A    between atoms: N10_40  and  C14_42 
REMARK   15  A    between atoms: C15_45  and  N12_46 
REMARK   16  A    between atoms: C18_51  and  N14_52 
ROOT
HETATM    1  C9  UNL     1       0.211  -0.939  -1.188  1.00  0.00     0.734 A 
HETATM    2  N7  UNL     1      -0.312  -1.540  -2.267  1.00  0.00    -0.020 N 
ATOM      3  H7  UNL     1       0.197  -2.299  -2.719  1.00  0.00     0.203 HD
HETATM    4  C10 UNL     1      -1.498  -1.152  -2.757  1.00  0.00     0.707 A 
HETATM    5  N9  UNL     1      -2.135  -0.148  -2.133  1.00  0.00    -0.021 N 
ATOM      6  H9  UNL     1      -3.037   0.148  -2.505  1.00  0.00     0.203 HD
HETATM    7  C13 UNL     1      -1.661   0.492  -1.050  1.00  0.00     0.726 A 
HETATM    8  N16 UNL     1      -0.458   0.062  -0.593  1.00  0.00    -0.019 N 
ATOM      9  H16 UNL     1      -0.050   0.512   0.226  1.00  0.00     0.203 HD
ENDROOT
BRANCH   1  10
HETATM   10  N6  UNL     1       1.480  -1.406  -0.723  1.00  0.00     0.051 N 
HETATM   11  C6  UNL     1       2.607  -0.674  -0.725  1.00  0.00     0.720 A 
HETATM   12  N3  UNL     1       3.559  -1.474  -0.214  1.00  0.00    -0.129 N 
HETATM   13  N4  UNL     1       3.047  -2.668   0.097  1.00  0.00    -0.262 N 
ATOM     14  H3  UNL     1       4.535  -1.207  -0.082  1.00  0.00     0.205 HD
HETATM   15  C7  UNL     1       1.741  -2.633  -0.221  1.00  0.00     0.235 A 
ATOM     16  H4  UNL     1       3.552  -3.458   0.500  1.00  0.00     0.189 HD
BRANCH  11  17
HETATM   17  N2  UNL     1       2.766   0.539  -1.125  1.00  0.00    -0.189 N 
ATOM     18  H2  UNL     1       1.975   1.064  -1.498  1.00  0.00     0.184 HD
BRANCH  17  19
HETATM   19  C5  UNL     1       4.047   1.142  -1.045  1.00  0.00     0.052 A 
HETATM   20  C4  UNL     1       4.621   1.614   0.119  1.00  0.00     0.065 A 
HETATM   21  C3  UNL     1       5.862   2.191   0.155  1.00  0.00     0.102 A 
HETATM   22  N17 UNL     1       6.535   2.294  -0.999  1.00  0.00    -0.361 N 
HETATM   23  C20 UNL     1       6.025   1.849  -2.176  1.00  0.00     0.090 A 
ATOM     24  H17 UNL     1       7.461   2.721  -0.993  1.00  0.00     0.165 HD
HETATM   25  C19 UNL     1       4.776   1.270  -2.206  1.00  0.00     0.047 A 
BRANCH  21  26
HETATM   26  C2  UNL     1       6.482   2.691   1.370  1.00  0.00     0.267 C 
HETATM   27  N1  UNL     1       7.773   3.286   1.340  1.00  0.00    -0.360 N 
HETATM   28  C1  UNL     1       8.392   3.782   2.532  1.00  0.00     0.149 C 
ATOM     29  H1  UNL     1       8.268   3.361   0.451  1.00  0.00     0.162 HD
HETATM   30  O1  UNL     1       5.858   2.590   2.447  1.00  0.00    -0.266 OA
ENDBRANCH  21  26
ENDBRANCH  17  19
ENDBRANCH  11  17
BRANCH  15  31
HETATM   31  S1  UNL     1       0.640  -3.976   0.008  1.00  0.00     0.144 S 
HETATM   32  O2  UNL     1       1.222  -5.317  -0.316  1.00  0.00    -0.245 OA
BRANCH  31  33
HETATM   33  C8  UNL     1      -0.142  -3.932   1.626  1.00  0.00     0.419 C 
BRANCH  33  34
HETATM   34  N5  UNL     1      -1.045  -5.054   1.787  1.00  0.00    -0.041 N 
ATOM     35  H53 UNL     1      -1.733  -5.097   1.035  1.00  0.00     0.278 HD
ATOM     36  H52 UNL     1      -0.577  -5.944   1.617  1.00  0.00     0.278 HD
ATOM     37  H51 UNL     1      -1.489  -5.029   2.705  1.00  0.00     0.278 HD
ENDBRANCH  33  34
BRANCH  33  38
HETATM   38  O3  UNL     1       0.828  -4.021   2.627  1.00  0.00    -0.360 OA
ATOM     39  H3  UNL     1       0.415  -3.998   3.482  1.00  0.00     0.213 HD
ENDBRANCH  33  38
ENDBRANCH  31  33
ENDBRANCH  15  31
ENDBRANCH   1  10
BRANCH   4  40
HETATM   40  N8  UNL     1      -2.022  -1.734  -3.812  1.00  0.00    -0.223 N 
ATOM     41  H8  UNL     1      -2.926  -1.413  -4.158  1.00  0.00     0.177 HD
BRANCH  40  42
HETATM   42  C11 UNL     1      -1.358  -2.807  -4.490  1.00  0.00     0.164 C 
BRANCH  42  43
HETATM   43  C12 UNL     1      -1.490  -4.127  -3.763  1.00  0.00     0.184 C 
BRANCH  43  44
HETATM   44  O4  UNL     1      -0.814  -5.098  -4.501  1.00  0.00    -0.399 OA
ATOM     45  H4  UNL     1      -0.897  -5.927  -4.044  1.00  0.00     0.209 HD
ENDBRANCH  43  44
ENDBRANCH  42  43
ENDBRANCH  40  42
ENDBRANCH   4  40
BRANCH   7  46
HETATM   46  N10 UNL     1      -2.389   1.548  -0.439  1.00  0.00    -0.020 N 
ATOM     47  H10 UNL     1      -2.006   2.492  -0.498  1.00  0.00     0.203 HD
BRANCH  46  48
HETATM   48  C14 UNL     1      -3.503   1.384   0.184  1.00  0.00     0.726 A 
HETATM   49  N11 UNL     1      -4.133   2.419   0.734  1.00  0.00    -0.021 N 
HETATM   50  C15 UNL     1      -5.305   2.314   1.400  1.00  0.00     0.708 A 
ATOM     51  H11 UNL     1      -3.708   3.342   0.648  1.00  0.00     0.203 HD
HETATM   52  N13 UNL     1      -5.850   1.081   1.501  1.00  0.00    -0.022 N 
HETATM   53  C18 UNL     1      -5.250  -0.001   0.960  1.00  0.00     0.705 A 
ATOM     54  H13 UNL     1      -6.734   0.965   1.997  1.00  0.00     0.203 HD
HETATM   55  N15 UNL     1      -4.084   0.180   0.312  1.00  0.00    -0.021 N 
ATOM     56  H15 UNL     1      -3.622  -0.631  -0.099  1.00  0.00     0.203 HD
BRANCH  50  57
HETATM   57  N12 UNL     1      -5.930   3.456   1.966  1.00  0.00    -0.225 N 
HETATM   58  C16 UNL     1      -5.316   4.756   1.842  1.00  0.00     0.168 C 
HETATM   59  C17 UNL     1      -7.174   3.314   2.664  1.00  0.00     0.168 C 
ENDBRANCH  50  57
BRANCH  53  60
HETATM   60  N14 UNL     1      -5.801  -1.160   1.078  1.00  0.00    -0.234 N 
ATOM     61 2H14 UNL     1      -6.684  -1.297   1.569  1.00  0.00     0.174 HD
ATOM     62 1H14 UNL     1      -5.348  -1.977   0.669  1.00  0.00     0.174 HD
ENDBRANCH  53  60
ENDBRANCH  46  48
ENDBRANCH   7  46
TORSDOF 16
