REMARK  6 active torsions:
REMARK  status: ('A' for Active; 'I' for Inactive)
REMARK    1  A    between atoms: N1_2  and  C1_4 
REMARK    2  A    between atoms: C3_6  and  O3_7 
REMARK    3  A    between atoms: C5_10  and  N2_11 
REMARK    4  A    between atoms: N2_11  and  C6_13 
REMARK    5  A    between atoms: C6_13  and  N3_15 
REMARK    6  A    between atoms: N3_15  and  C7_17 
ROOT
HETATM    1  N2  UNL     1       1.338  -0.888  -0.747  1.00  0.00    -0.333 N 
ATOM      2  H2  UNL     1       1.399  -1.767  -1.260  1.00  0.00     0.168 HD
ENDROOT
BRANCH   1   3
HETATM    3  C5  UNL     1       2.543  -0.234  -0.472  1.00  0.00     0.039 A 
HETATM    4  C4  UNL     1       2.747   1.123  -0.436  1.00  0.00     0.066 A 
HETATM    5  C3  UNL     1       3.973   1.681  -0.121  1.00  0.00     0.070 A 
HETATM    6  C2  UNL     1       5.054   0.894   0.174  1.00  0.00     0.072 A 
HETATM    7  C1  UNL     1       4.902  -0.465   0.151  1.00  0.00     0.107 A 
HETATM    8  C13 UNL     1       3.693  -0.998  -0.160  1.00  0.00     0.065 A 
BRANCH   5   9
HETATM    9  O3  UNL     1       4.120   3.058  -0.099  1.00  0.00    -0.361 OA
ATOM     10  H3  UNL     1       3.370   3.604  -0.304  1.00  0.00     0.217 HD
ENDBRANCH   5   9
BRANCH   7  11
HETATM   11  N1  UNL     1       6.018  -1.291   0.455  1.00  0.00    -0.116 N 
HETATM   12  O1  UNL     1       5.876  -2.525   0.432  1.00  0.00    -0.532 OA
HETATM   13  O2  UNL     1       7.254  -0.790   0.773  1.00  0.00    -0.532 OA
ENDBRANCH   7  11
ENDBRANCH   1   3
BRANCH   1  14
HETATM   14  C6  UNL     1       0.060  -0.456  -0.388  1.00  0.00     0.172 C 
HETATM   15  S1  UNL     1      -0.088   0.905   0.499  1.00  0.00    -0.041 SA
BRANCH  14  16
HETATM   16  N3  UNL     1      -1.119  -1.209  -0.750  1.00  0.00    -0.362 N 
ATOM     17  H3  UNL     1      -0.967  -2.068  -1.279  1.00  0.00     0.162 HD
BRANCH  16  18
HETATM   18  C7  UNL     1      -2.454  -0.884  -0.451  1.00  0.00     0.083 C 
HETATM   19  C8  UNL     1      -2.816  -0.774   1.009  1.00  0.00     0.025 C 
HETATM   20  C9  UNL     1      -4.326  -0.774   1.125  1.00  0.00     0.002 C 
HETATM   21  C10 UNL     1      -4.857   0.468   0.479  1.00  0.00     0.000 C 
HETATM   22  C11 UNL     1      -3.793   1.217  -0.245  1.00  0.00     0.002 C 
HETATM   23  C12 UNL     1      -2.909   0.377  -1.127  1.00  0.00     0.025 C 
ENDBRANCH  16  18
ENDBRANCH  14  16
ENDBRANCH   1  14
TORSDOF 6
