REMARK  5 active torsions:
REMARK  status: ('A' for Active; 'I' for Inactive)
REMARK    1  A    between atoms: C2_2  and  S1_4 
REMARK    2  A    between atoms: S1_4  and  C4_5 
REMARK    3  A    between atoms: C7_11  and  N2_12 
REMARK    4  A    between atoms: N2_12  and  C8_14 
REMARK    5  A    between atoms: N3_17  and  C11_18 
ROOT
HETATM    1  N2  UNL     1       1.265   2.003  -1.340  1.00  0.00    -0.381 N 
ATOM      2  H2  UNL     1       0.890   1.924  -2.285  1.00  0.00     0.160 HD
ENDROOT
BRANCH   1   3
HETATM    3  C7  UNL     1       2.660   1.911  -1.198  1.00  0.00     0.096 A 
HETATM    4  C6  UNL     1       3.437   3.052  -1.080  1.00  0.00     0.160 A 
HETATM    5  C5  UNL     1       4.806   2.971  -0.964  1.00  0.00     0.133 A 
HETATM    6  F1  UNL     1       2.837   4.264  -1.079  1.00  0.00    -0.202 F 
HETATM    7  N1  UNL     1       5.419   1.781  -0.962  1.00  0.00    -0.356 N 
HETATM    8  C4  UNL     1       4.717   0.651  -1.074  1.00  0.00     0.097 A 
ATOM      9  H1  UNL     1       6.434   1.737  -0.874  1.00  0.00     0.166 HD
HETATM   10  C21 UNL     1       3.324   0.714  -1.193  1.00  0.00     0.109 A 
HETATM   11  N4  UNL     1       2.636  -0.524  -1.336  1.00  0.00    -0.097 NA
BRANCH   8  12
HETATM   12  S1  UNL     1       5.580  -0.908  -1.068  1.00  0.00    -0.106 SA
BRANCH  12  13
HETATM   13  C2  UNL     1       5.733  -1.508   0.637  1.00  0.00     0.045 C 
HETATM   14  C1  UNL     1       6.635  -0.561   1.385  1.00  0.00     0.021 C 
HETATM   15  C3  UNL     1       6.208  -2.924   0.691  1.00  0.00     0.021 C 
ENDBRANCH  12  13
ENDBRANCH   8  12
ENDBRANCH   1   3
BRANCH   1  16
HETATM   16  C8  UNL     1       0.314   2.199  -0.271  1.00  0.00     0.085 C 
HETATM   17  C9  UNL     1       0.363   1.154   0.781  1.00  0.00     0.055 C 
HETATM   18  C10 UNL     1      -0.651   0.073   0.410  1.00  0.00     0.275 C 
HETATM   19  N3  UNL     1      -1.957   0.628   0.645  1.00  0.00     0.098 N 
HETATM   20  C19 UNL     1      -2.179   1.876   0.004  1.00  0.00     0.275 C 
HETATM   21  C20 UNL     1      -1.059   2.343  -0.894  1.00  0.00     0.055 C 
BRANCH  19  22
HETATM   22  C11 UNL     1      -3.017  -0.351   0.485  1.00  0.00     0.156 C 
HETATM   23  C12 UNL     1      -2.753  -1.398   1.535  1.00  0.00     0.049 C 
HETATM   24  C13 UNL     1      -4.316   0.346   0.631  1.00  0.00     0.041 C 
HETATM   25  C14 UNL     1      -5.451  -0.482   1.168  1.00  0.00     0.002 C 
HETATM   26  C15 UNL     1      -6.018  -1.452   0.200  1.00  0.00     0.000 C 
HETATM   27  C16 UNL     1      -5.071  -2.179  -0.678  1.00  0.00     0.000 C 
HETATM   28  C17 UNL     1      -4.175  -1.342  -1.521  1.00  0.00     0.002 C 
HETATM   29  C18 UNL     1      -2.863  -0.977  -0.868  1.00  0.00     0.041 C 
ENDBRANCH  19  22
ENDBRANCH   1  16
TORSDOF 5
