REMARK  12 active torsions:
REMARK  status: ('A' for Active; 'I' for Inactive)
REMARK    1  A    between atoms: C2_5  and  C3_6 
REMARK    2  A    between atoms: C4_10  and  C5_11 
REMARK    3  A    between atoms: C5_11  and  C6_12 
REMARK    4  A    between atoms: C6_12  and  N3_13 
REMARK    5  A    between atoms: C11_18  and  N4_19 
REMARK    6  A    between atoms: N4_19  and  C12_21 
REMARK    7  A    between atoms: C13_24  and  O1_25 
REMARK    8  A    between atoms: C14_27  and  C15_28 
REMARK    9  A    between atoms: N6_29  and  C16_31 
REMARK   10  A    between atoms: C16_31  and  C17_32 
REMARK   11  A    between atoms: C17_32  and  C18_34 
REMARK   12  A    between atoms: C18_34  and  O2_37 
ROOT
HETATM    1  N4  UNL     1      -1.952   2.335   0.012  1.00  0.00    -0.320 N 
ATOM      2  H4  UNL     1      -2.400   2.701   0.852  1.00  0.00     0.169 HD
ENDROOT
BRANCH   1   3
HETATM    3  C11 UNL     1      -2.619   2.315  -1.239  1.00  0.00     0.145 A 
HETATM    4  N1  UNL     1      -2.333   3.045  -2.328  1.00  0.00    -0.279 N 
HETATM    5  C1  UNL     1      -1.269   4.014  -2.443  1.00  0.00     0.179 C 
HETATM    6  N2  UNL     1      -3.169   2.760  -3.312  1.00  0.00    -0.292 N 
HETATM    7  C2  UNL     1      -4.040   1.828  -2.905  1.00  0.00     0.155 A 
ATOM      8  H2  UNL     1      -3.153   3.185  -4.239  1.00  0.00     0.187 HD
HETATM    9  C4  UNL     1      -3.698   1.536  -1.583  1.00  0.00     0.098 A 
BRANCH   7  10
HETATM   10  C3  UNL     1      -5.157   1.178  -3.615  1.00  0.00     0.435 C 
HETATM   11  F1  UNL     1      -4.978  -0.189  -3.685  1.00  0.00    -0.165 F 
HETATM   12  F2  UNL     1      -6.370   1.402  -2.996  1.00  0.00    -0.165 F 
HETATM   13  F3  UNL     1      -5.229   1.663  -4.902  1.00  0.00    -0.165 F 
ENDBRANCH   7  10
BRANCH   9  14
HETATM   14  C5  UNL     1      -4.330   0.599  -0.702  1.00  0.00    -0.038 C 
BRANCH  14  15
HETATM   15  C6  UNL     1      -4.885  -0.187   0.055  1.00  0.00     0.014 C 
BRANCH  15  16
HETATM   16  N3  UNL     1      -5.529  -1.067   0.933  1.00  0.00    -0.341 N 
HETATM   17  C7  UNL     1      -6.834  -0.923   1.558  1.00  0.00     0.133 C 
HETATM   18  C8  UNL     1      -7.133  -2.260   2.147  1.00  0.00     0.022 C 
HETATM   19  C9  UNL     1      -6.131  -3.221   1.584  1.00  0.00     0.022 C 
HETATM   20  C10 UNL     1      -4.922  -2.323   1.355  1.00  0.00     0.133 C 
ENDBRANCH  15  16
ENDBRANCH  14  15
ENDBRANCH   9  14
ENDBRANCH   1   3
BRANCH   1  21
HETATM   21  C12 UNL     1      -0.723   1.857   0.035  1.00  0.00     0.153 A 
HETATM   22  N5  UNL     1       0.098   1.771   1.086  1.00  0.00    -0.316 N 
HETATM   23  C13 UNL     1       1.284   1.265   0.906  1.00  0.00     0.161 A 
ATOM     24  H5  UNL     1      -0.198   2.094   2.007  1.00  0.00     0.170 HD
HETATM   25  C14 UNL     1       1.627   0.848  -0.347  1.00  0.00     0.074 A 
HETATM   26  S1  UNL     1       0.211   1.204  -1.236  1.00  0.00    -0.048 SA
BRANCH  23  27
HETATM   27  O1  UNL     1       2.224   1.133   1.961  1.00  0.00    -0.345 OA
ATOM     28  H1  UNL     1       3.089   0.764   1.830  1.00  0.00     0.219 HD
ENDBRANCH  23  27
BRANCH  25  29
HETATM   29  C15 UNL     1       2.878   0.252  -0.812  1.00  0.00     0.106 C 
HETATM   30  N6  UNL     1       3.819   0.070   0.018  1.00  0.00    -0.395 N 
ATOM     31  H6  UNL     1       3.661   0.351   0.986  1.00  0.00     0.159 HD
BRANCH  30  32
HETATM   32  C16 UNL     1       5.097  -0.507  -0.313  1.00  0.00     0.159 C 
BRANCH  32  33
HETATM   33  C17 UNL     1       5.779  -0.882   0.978  1.00  0.00     0.221 C 
HETATM   34  F4  UNL     1       5.928   0.273   1.721  1.00  0.00    -0.245 F 
BRANCH  33  35
HETATM   35  C18 UNL     1       7.150  -1.475   0.765  1.00  0.00     0.083 C 
HETATM   36  C19 UNL     1       7.706  -1.800   2.145  1.00  0.00     0.048 C 
HETATM   37  C20 UNL     1       8.066  -0.471   0.093  1.00  0.00     0.048 C 
BRANCH  35  38
HETATM   38  O2  UNL     1       7.099  -2.603  -0.017  1.00  0.00    -0.388 OA
ATOM     39  H2  UNL     1       7.962  -2.976  -0.151  1.00  0.00     0.210 HD
ENDBRANCH  35  38
ENDBRANCH  33  35
ENDBRANCH  32  33
ENDBRANCH  30  32
ENDBRANCH  25  29
ENDBRANCH   1  21
TORSDOF 12
