REMARK  8 active torsions:
REMARK  status: ('A' for Active; 'I' for Inactive)
REMARK    1  A    between atoms: O1_2  and  C2_3 
REMARK    2  A    between atoms: C2_3  and  C3_5 
REMARK    3  A    between atoms: C4_6  and  N1_7 
REMARK    4  A    between atoms: N1_7  and  C5_9 
REMARK    5  A    between atoms: C5_9  and  C6_13 
REMARK    6  A    between atoms: C6_13  and  C12_26 
REMARK    7  A    between atoms: N3_14  and  N4_16 
REMARK       I    between atoms: N4_16  and  C7_18 
REMARK    8  A    between atoms: C7_18  and  C8_20 
ROOT
HETATM    1  C5  UNL     1       0.596  -1.244  -0.178  1.00  0.00     0.134 C 
HETATM    2  N2  UNL     1       1.334  -0.661   0.689  1.00  0.00    -0.384 N 
ATOM      3  H21 UNL     1       2.346  -0.668   0.563  1.00  0.00     0.157 HD
ATOM      4  H22 UNL     1       0.893  -0.202   1.486  1.00  0.00     0.157 HD
ENDROOT
BRANCH   1   5
HETATM    5  N1  UNL     1      -0.817  -1.234  -0.002  1.00  0.00    -0.320 N 
ATOM      6  H1  UNL     1      -1.306  -2.123   0.102  1.00  0.00     0.169 HD
BRANCH   5   7
HETATM    7  C4  UNL     1      -1.568  -0.033   0.034  1.00  0.00     0.166 A 
HETATM    8  C3  UNL     1      -2.914   0.093   0.196  1.00  0.00     0.099 A 
HETATM    9  C15 UNL     1      -3.153   1.473   0.159  1.00  0.00    -0.012 A 
HETATM   10  C13 UNL     1      -1.942   2.106  -0.023  1.00  0.00     0.058 A 
HETATM   11  C16 UNL     1      -4.511   2.087   0.299  1.00  0.00     0.052 C 
HETATM   12  O5  UNL     1      -1.032   1.182  -0.092  1.00  0.00    -0.297 OA
HETATM   13  C14 UNL     1      -1.754   3.589  -0.118  1.00  0.00     0.077 C 
BRANCH   8  14
HETATM   14  C2  UNL     1      -3.916  -0.942   0.371  1.00  0.00     0.297 C 
HETATM   15  O2  UNL     1      -5.138  -0.583   0.506  1.00  0.00    -0.259 OA
BRANCH  14  16
HETATM   16  O1  UNL     1      -3.693  -2.293   0.409  1.00  0.00    -0.322 OA
HETATM   17  C1  UNL     1      -4.708  -3.264   0.582  1.00  0.00     0.213 C 
ENDBRANCH  14  16
ENDBRANCH   8  14
ENDBRANCH   5   7
ENDBRANCH   1   5
BRANCH   1  18
HETATM   18  C6  UNL     1       1.228  -1.902  -1.319  1.00  0.00     0.176 C 
HETATM   19  N3  UNL     1       2.501  -1.921  -1.493  1.00  0.00    -0.290 N 
ATOM     20  H3  UNL     1       2.857  -2.404  -2.318  1.00  0.00     0.187 HD
BRANCH  19  21
HETATM   21  N4  UNL     1       3.432  -1.332  -0.640  1.00  0.00    -0.264 N 
HETATM   22  C7  UNL     1       4.045  -0.089  -0.983  1.00  0.00     0.293 C 
HETATM   23  O3  UNL     1       3.745   0.481  -2.062  1.00  0.00    -0.264 OA
ATOM     24  H4  UNL     1       3.678  -1.792   0.236  1.00  0.00     0.190 HD
BRANCH  22  25
HETATM   25  C8  UNL     1       5.021   0.552  -0.113  1.00  0.00     0.146 A 
HETATM   26  C9  UNL     1       5.650   1.747  -0.380  1.00  0.00     0.046 A 
HETATM   27  C10 UNL     1       6.485   2.008   0.668  1.00  0.00     0.048 A 
HETATM   28  C11 UNL     1       6.341   0.963   1.545  1.00  0.00     0.122 A 
HETATM   29 BR1  UNL     1       7.294   0.833   3.195  1.00  0.00    -0.023 Br
HETATM   30  O4  UNL     1       5.470   0.127   1.049  1.00  0.00    -0.298 OA
ENDBRANCH  22  25
ENDBRANCH  19  21
BRANCH  18  31
HETATM   31  C12 UNL     1       0.389  -2.587  -2.340  1.00  0.00     0.437 C 
HETATM   32  F1  UNL     1      -0.489  -1.698  -2.937  1.00  0.00    -0.164 F 
HETATM   33  F2  UNL     1      -0.352  -3.567  -1.709  1.00  0.00    -0.164 F 
HETATM   34  F3  UNL     1       1.163  -3.128  -3.324  1.00  0.00    -0.164 F 
ENDBRANCH  18  31
ENDBRANCH   1  18
TORSDOF 8
