REMARK  10 active torsions:
REMARK  status: ('A' for Active; 'I' for Inactive)
REMARK    1  A    between atoms: C4_6  and  O1_7 
REMARK    2  A    between atoms: O1_7  and  C5_8 
REMARK    3  A    between atoms: C5_8  and  C6_9 
REMARK    4  A    between atoms: C6_9  and  O2_10 
REMARK    5  A    between atoms: C6_9  and  O3_12 
REMARK    6  A    between atoms: O3_12  and  C7_13 
REMARK       I    between atoms: N2_18  and  C12_19 
REMARK    7  A    between atoms: C12_19  and  O5_21 
REMARK    8  A    between atoms: O5_21  and  C13_22 
REMARK    9  A    between atoms: C13_22  and  C14_24 
REMARK   10  A    between atoms: C16_29  and  O6_31 
ROOT
HETATM    1  C7  UNL     1       0.015  -0.533  -0.393  1.00  0.00     0.162 C 
HETATM    2  C8  UNL     1      -1.115  -0.624  -1.357  1.00  0.00     0.065 C 
HETATM    3  C9  UNL     1      -2.413  -0.755  -0.590  1.00  0.00     0.033 C 
HETATM    4  C10 UNL     1      -3.543  -0.448  -1.572  1.00  0.00     0.038 C 
HETATM    5  C11 UNL     1      -2.623  -2.227  -0.205  1.00  0.00     0.038 C 
HETATM    6  N2  UNL     1      -2.503   0.095   0.569  1.00  0.00    -0.316 N 
HETATM    7  C12 UNL     1      -3.719   0.666   1.031  1.00  0.00     0.365 C 
HETATM    8  O4  UNL     1      -3.726   1.393   2.034  1.00  0.00    -0.238 OA
HETATM    9  C15 UNL     1      -1.311   0.423   1.372  1.00  0.00     0.169 C 
HETATM   10  C16 UNL     1      -0.183   0.726   0.409  1.00  0.00     0.096 C 
HETATM   11  C17 UNL     1      -0.645   1.890  -0.431  1.00  0.00     0.050 C 
ENDROOT
BRANCH   1  12
HETATM   12  O3  UNL     1       1.265  -0.689  -0.935  1.00  0.00    -0.351 OA
BRANCH  12  13
HETATM   13  C6  UNL     1       1.979  -1.774  -0.497  1.00  0.00     0.281 C 
BRANCH  13  14
HETATM   14  C5  UNL     1       3.312  -1.281   0.030  1.00  0.00     0.238 C 
BRANCH  14  15
HETATM   15  O1  UNL     1       3.966  -0.461  -0.937  1.00  0.00    -0.328 OA
BRANCH  15  16
HETATM   16  C4  UNL     1       5.197   0.113  -0.703  1.00  0.00     0.198 A 
HETATM   17  C3  UNL     1       5.910   0.909  -1.551  1.00  0.00     0.185 A 
HETATM   18  C2  UNL     1       7.074   1.249  -0.898  1.00  0.00     0.156 A 
HETATM   19  F1  UNL     1       5.588   1.321  -2.804  1.00  0.00    -0.200 F 
HETATM   20  N1  UNL     1       7.064   0.670   0.320  1.00  0.00    -0.303 N 
HETATM   21  C1  UNL     1       8.101   0.761   1.350  1.00  0.00     0.177 C 
HETATM   22  N3  UNL     1       5.940  -0.001   0.415  1.00  0.00    -0.276 N 
ATOM     23  H3  UNL     1       5.663  -0.542   1.234  1.00  0.00     0.189 HD
ENDBRANCH  15  16
ENDBRANCH  14  15
ENDBRANCH  13  14
BRANCH  13  24
HETATM   24  O2  UNL     1       2.308  -2.515  -1.660  1.00  0.00    -0.369 OA
ATOM     25  H2  UNL     1       1.473  -2.824  -1.990  1.00  0.00     0.212 HD
ENDBRANCH  13  24
ENDBRANCH  12  13
ENDBRANCH   1  12
BRANCH  10  26
HETATM   26  O6  UNL     1       0.908   1.107   1.145  1.00  0.00    -0.386 OA
ATOM     27  H6  UNL     1       0.783   1.901   1.651  1.00  0.00     0.210 HD
ENDBRANCH  10  26
BRANCH   7  28
HETATM   28  O5  UNL     1      -4.958   0.500   0.469  1.00  0.00    -0.278 OA
BRANCH  28  29
HETATM   29  C13 UNL     1      -6.160   1.006   0.845  1.00  0.00     0.283 C 
HETATM   30 CL1  UNL     1      -6.647   2.202  -0.415  1.00  0.00    -0.090 Cl
BRANCH  29  31
HETATM   31  C14 UNL     1      -7.325   0.153   1.092  1.00  0.00     0.228 C 
HETATM   32 CL2  UNL     1      -7.122  -1.049   2.371  1.00  0.00    -0.080 Cl
HETATM   33 CL3  UNL     1      -8.093  -0.510  -0.357  1.00  0.00    -0.080 Cl
HETATM   34 CL4  UNL     1      -8.583   1.277   1.759  1.00  0.00    -0.080 Cl
ENDBRANCH  29  31
ENDBRANCH  28  29
ENDBRANCH   7  28
TORSDOF 10
