REMARK  10 active torsions:
REMARK  status: ('A' for Active; 'I' for Inactive)
REMARK    1  A    between atoms: C2_2  and  C3_3 
REMARK    2  A    between atoms: C3_3  and  C4_4 
REMARK    3  A    between atoms: C4_4  and  C5_5 
REMARK    4  A    between atoms: C5_5  and  C6_6 
REMARK    5  A    between atoms: C6_6  and  N1_7 
REMARK    6  A    between atoms: N1_7  and  C7_8 
REMARK    7  A    between atoms: C7_8  and  C8_9 
REMARK    8  A    between atoms: C8_9  and  O1_10 
REMARK    9  A    between atoms: O1_10  and  C9_11 
REMARK   10  A    between atoms: C9_11  and  C10_12 
ROOT
HETATM    1  N1  UNL     1      -0.276  -0.994   0.017  1.00  0.00    -0.064 N 
HETATM    2  C13 UNL     1       0.141  -1.389   1.339  1.00  0.00     0.242 C 
HETATM    3  C14 UNL     1       0.030  -2.893   1.402  1.00  0.00     0.018 A 
HETATM    4  C15 UNL     1       1.075  -3.738   0.789  1.00  0.00     0.013 A 
HETATM    5  C16 UNL     1      -0.167  -3.361   0.016  1.00  0.00     0.018 A 
HETATM    6  C17 UNL     1      -0.003  -2.137  -0.847  1.00  0.00     0.242 C 
ENDROOT
BRANCH   1   7
HETATM    7  C6  UNL     1      -1.707  -0.776   0.107  1.00  0.00     0.237 C 
BRANCH   7   8
HETATM    8  C5  UNL     1      -2.341  -0.257  -1.141  1.00  0.00     0.028 C 
BRANCH   8   9
HETATM    9  C4  UNL     1      -3.834  -0.056  -0.975  1.00  0.00     0.002 C 
BRANCH   9  10
HETATM   10  C3  UNL     1      -4.156   0.921   0.114  1.00  0.00    -0.000 C 
BRANCH  10  11
HETATM   11  C2  UNL     1      -3.576   2.295  -0.121  1.00  0.00    -0.005 C 
HETATM   12  C1  UNL     1      -3.982   3.171   1.048  1.00  0.00     0.005 C 
ENDBRANCH  10  11
ENDBRANCH   9  10
ENDBRANCH   8   9
ENDBRANCH   7   8
ENDBRANCH   1   7
BRANCH   1  13
HETATM   13  C7  UNL     1       0.398   0.132  -0.515  1.00  0.00     0.263 C 
BRANCH  13  14
HETATM   14  C8  UNL     1       1.770   0.424   0.003  1.00  0.00     0.195 C 
BRANCH  14  15
HETATM   15  O1  UNL     1       2.688  -0.600  -0.209  1.00  0.00    -0.389 OA
BRANCH  15  16
HETATM   16  C9  UNL     1       3.907  -0.186   0.322  1.00  0.00     0.172 C 
BRANCH  16  17
HETATM   17  C10 UNL     1       4.341   1.091  -0.394  1.00  0.00     0.009 A 
HETATM   18  C11 UNL     1       5.645   1.712   0.032  1.00  0.00     0.007 A 
HETATM   19  C12 UNL     1       4.384   2.365   0.408  1.00  0.00     0.007 A 
ENDBRANCH  16  17
ENDBRANCH  15  16
ENDBRANCH  14  15
ENDBRANCH  13  14
ENDBRANCH   1  13
TORSDOF 10
