REMARK  5 active torsions:
REMARK  status: ('A' for Active; 'I' for Inactive)
REMARK       I    between atoms: C1_2  and  N1_3 
REMARK    1  A    between atoms: C1_2  and  C14_18 
REMARK    2  A    between atoms: N1_3  and  C2_5 
REMARK    3  A    between atoms: C2_5  and  C3_6 
REMARK    4  A    between atoms: C3_6  and  C4_7 
REMARK    5  A    between atoms: N2_10  and  C7_11 
ROOT
HETATM    1  C3  UNL     1       0.604  -0.354   0.905  1.00  0.00     0.026 C 
ENDROOT
BRANCH   1   2
HETATM    2  C2  UNL     1       1.540  -1.503   1.085  1.00  0.00     0.123 C 
BRANCH   2   3
HETATM    3  N1  UNL     1       2.775  -1.277   0.377  1.00  0.00    -0.357 N 
HETATM    4  C1  UNL     1       3.646  -0.216   0.663  1.00  0.00     0.247 C 
HETATM    5  O1  UNL     1       3.366   0.601   1.592  1.00  0.00    -0.268 OA
ATOM      6  H1  UNL     1       3.029  -1.922  -0.371  1.00  0.00     0.162 HD
BRANCH   4   7
HETATM    7  C14 UNL     1       4.880  -0.001  -0.067  1.00  0.00     0.006 C 
HETATM    8  C15 UNL     1       5.294  -0.768  -1.051  1.00  0.00    -0.014 C 
HETATM    9  C16 UNL     1       6.593  -0.393  -1.686  1.00  0.00     0.028 C 
HETATM   10  C17 UNL     1       6.629   1.060  -2.068  1.00  0.00     0.004 C 
HETATM   11  C18 UNL     1       6.079   1.949  -0.971  1.00  0.00     0.005 C 
HETATM   12  C19 UNL     1       5.775   1.151   0.282  1.00  0.00     0.044 C 
ENDBRANCH   4   7
ENDBRANCH   2   3
ENDBRANCH   1   2
BRANCH   1  13
HETATM   13  C4  UNL     1      -0.709  -0.581   1.639  1.00  0.00     0.017 C 
HETATM   14  C5  UNL     1      -1.381  -1.828   1.106  1.00  0.00     0.036 C 
HETATM   15  C6  UNL     1      -2.851  -1.516   1.310  1.00  0.00     0.273 C 
HETATM   16  N2  UNL     1      -2.992  -0.104   1.346  1.00  0.00     0.093 N 
HETATM   17  C13 UNL     1      -1.713   0.502   1.266  1.00  0.00     0.277 C 
BRANCH  16  18
HETATM   18  C7  UNL     1      -3.993   0.451   0.500  1.00  0.00     0.223 C 
HETATM   19  C8  UNL     1      -5.391  -0.016   0.855  1.00  0.00     0.036 C 
HETATM   20  C9  UNL     1      -6.340   1.030   0.276  1.00  0.00     0.002 C 
HETATM   21  C10 UNL     1      -6.085   1.236  -1.188  1.00  0.00     0.000 C 
HETATM   22  C11 UNL     1      -5.054   0.317  -1.756  1.00  0.00     0.002 C 
HETATM   23  C12 UNL     1      -3.793   0.222  -0.962  1.00  0.00     0.036 C 
ENDBRANCH  16  18
ENDBRANCH   1  13
TORSDOF 5
