REMARK  11 active torsions:
REMARK  status: ('A' for Active; 'I' for Inactive)
REMARK    1  A    between atoms: C2_2  and  C4_4 
REMARK    2  A    between atoms: C4_4  and  C5_5 
REMARK    3  A    between atoms: C5_5  and  C23_34 
REMARK    4  A    between atoms: N1_6  and  C6_8 
REMARK    5  A    between atoms: C6_8  and  C7_9 
REMARK    6  A    between atoms: C6_8  and  C9_12 
REMARK    7  A    between atoms: C10_13  and  N2_14 
REMARK    8  A    between atoms: N4_22  and  C16_23 
REMARK    9  A    between atoms: C22_30  and  N5_31 
REMARK   10  A    between atoms: C23_34  and  O1_35 
REMARK   11  A    between atoms: C23_34  and  O2_37 
ROOT
HETATM    1  C9  UNL     1      -0.749  -0.104   0.305  1.00  0.00     0.059 A 
HETATM    2  C10 UNL     1      -1.827   0.459  -0.299  1.00  0.00     0.131 A 
HETATM    3  N3  UNL     1      -2.583  -0.597  -0.694  1.00  0.00    -0.276 N 
ATOM      4  H3  UNL     1      -3.472  -0.507  -1.185  1.00  0.00     0.189 HD
HETATM    5  N4  UNL     1      -2.036  -1.752  -0.370  1.00  0.00    -0.237 N 
HETATM    6  C22 UNL     1      -0.882  -1.476   0.259  1.00  0.00     0.133 A 
ENDROOT
BRANCH   1   7
HETATM    7  C6  UNL     1       0.427   0.534   0.951  1.00  0.00     0.146 C 
BRANCH   7   8
HETATM    8  N1  UNL     1       1.550   0.325   0.130  1.00  0.00    -0.380 N 
HETATM    9  C5  UNL     1       2.775   0.706   0.254  1.00  0.00     0.038 C 
ATOM     10  H1  UNL     1       1.362  -0.223  -0.709  1.00  0.00     0.160 HD
BRANCH   9  11
HETATM   11  C4  UNL     1       3.642   0.252  -0.867  1.00  0.00     0.061 C 
BRANCH  11  12
HETATM   12  C2  UNL     1       4.712  -0.738  -0.575  1.00  0.00    -0.017 C 
HETATM   13  C1  UNL     1       5.406  -1.061  -1.945  1.00  0.00     0.010 C 
HETATM   14  C3  UNL     1       5.852  -0.284   0.282  1.00  0.00     0.010 C 
ENDBRANCH  11  12
ENDBRANCH   9  11
BRANCH   9  15
HETATM   15  C23 UNL     1       3.279   1.488   1.376  1.00  0.00     0.300 C 
BRANCH  15  16
HETATM   16  O1  UNL     1       3.839   0.777   2.411  1.00  0.00    -0.366 OA
ATOM     17  H1  UNL     1       4.167   1.287   3.142  1.00  0.00     0.213 HD
ENDBRANCH  15  16
BRANCH  15  18
HETATM   18  O2  UNL     1       2.384   2.394   1.944  1.00  0.00    -0.366 OA
ATOM     19  H2  UNL     1       2.712   2.904   2.675  1.00  0.00     0.213 HD
ENDBRANCH  15  18
ENDBRANCH   9  15
ENDBRANCH   7   8
BRANCH   7  20
HETATM   20  C7  UNL     1       0.709  -0.186   2.258  1.00  0.00     0.015 C 
HETATM   21  C8  UNL     1       0.005   0.051   3.330  1.00  0.00     0.083 C 
HETATM   22 CL1  UNL     1       0.257  -0.726   4.869  1.00  0.00    -0.097 Cl
ENDBRANCH   7  20
ENDBRANCH   1   7
BRANCH   2  23
HETATM   23  N2  UNL     1      -2.177   1.797  -0.527  1.00  0.00    -0.366 N 
HETATM   24  C11 UNL     1      -1.428   2.960  -0.172  1.00  0.00     0.124 C 
HETATM   25  C12 UNL     1      -2.132   4.208  -0.727  1.00  0.00     0.020 C 
HETATM   26  C13 UNL     1      -3.494   4.301  -0.121  1.00  0.00     0.003 C 
HETATM   27  C14 UNL     1      -4.227   2.984  -0.202  1.00  0.00     0.020 C 
HETATM   28  C15 UNL     1      -3.432   2.125  -1.196  1.00  0.00     0.124 C 
ENDBRANCH   2  23
BRANCH   6  29
HETATM   29  N5  UNL     1      -0.052  -2.372   0.734  1.00  0.00    -0.383 N 
ATOM     30  H52 UNL     1       0.824  -2.162   1.212  1.00  0.00     0.157 HD
ATOM     31  H51 UNL     1      -0.150  -3.387   0.700  1.00  0.00     0.157 HD
ENDBRANCH   6  29
BRANCH   5  32
HETATM   32  C16 UNL     1      -2.549  -3.072  -0.624  1.00  0.00     0.080 A 
HETATM   33  C17 UNL     1      -3.383  -3.695   0.279  1.00  0.00     0.033 A 
HETATM   34  C18 UNL     1      -3.907  -4.956   0.096  1.00  0.00     0.002 A 
HETATM   35  C19 UNL     1      -3.587  -5.653  -1.060  1.00  0.00     0.002 A 
HETATM   36  C20 UNL     1      -2.757  -5.042  -1.967  1.00  0.00     0.026 A 
HETATM   37  C21 UNL     1      -2.235  -3.775  -1.775  1.00  0.00     0.062 A 
HETATM   38 CL2  UNL     1      -1.189  -3.073  -2.976  1.00  0.00    -0.082 Cl
ENDBRANCH   5  32
TORSDOF 11
