REMARK  4 active torsions:
REMARK  status: ('A' for Active; 'I' for Inactive)
REMARK    1  A    between atoms: C3_3  and  C4_4 
REMARK       I    between atoms: C4_4  and  N1_6 
REMARK    2  A    between atoms: C7_9  and  C8_10 
REMARK    3  A    between atoms: C8_10  and  C9_11 
REMARK       I    between atoms: C9_11  and  N2_13 
REMARK    4  A    between atoms: N2_13  and  C10_15 
ROOT
HETATM    1  C1  UNL     1      -5.571  -0.804  -1.162  1.00  0.00     0.028 C 
HETATM    2  C2  UNL     1      -4.116  -1.004  -1.336  1.00  0.00     0.084 C 
HETATM    3  C3  UNL     1      -3.229  -0.292  -0.355  1.00  0.00     0.116 C 
HETATM    4  C7  UNL     1      -1.897  -1.012  -0.623  1.00  0.00     0.147 C 
HETATM    5  S1  UNL     1      -1.917  -0.927  -2.421  1.00  0.00     0.217 S 
HETATM    6  O3  UNL     1      -1.141   0.227  -2.929  1.00  0.00    -0.211 OA
HETATM    7  O4  UNL     1      -1.553  -2.231  -3.042  1.00  0.00    -0.211 OA
HETATM    8  N3  UNL     1      -3.624  -0.592  -2.646  1.00  0.00    -0.209 NA
HETATM    9  C19 UNL     1      -3.857   0.792  -2.921  1.00  0.00     0.129 C 
ENDROOT
BRANCH   4  10
HETATM   10  C8  UNL     1      -0.746  -0.259  -0.054  1.00  0.00     0.125 C 
BRANCH  10  11
HETATM   11  C9  UNL     1       0.505  -0.995  -0.338  1.00  0.00     0.219 C 
HETATM   12  O2  UNL     1       0.446  -2.087  -0.971  1.00  0.00    -0.274 OA
HETATM   13  N2  UNL     1       1.772  -0.481   0.097  1.00  0.00    -0.356 N 
ATOM     14  H2  UNL     1       1.798   0.402   0.606  1.00  0.00     0.162 HD
BRANCH  13  15
HETATM   15  C10 UNL     1       3.003  -1.171  -0.162  1.00  0.00     0.084 C 
HETATM   16  C11 UNL     1       3.679  -1.648   1.112  1.00  0.00     0.025 C 
HETATM   17  C12 UNL     1       3.631  -0.672   2.222  1.00  0.00     0.002 C 
HETATM   18  C13 UNL     1       4.393   0.587   2.074  1.00  0.00     0.000 C 
HETATM   19  C14 UNL     1       5.746   0.493   1.500  1.00  0.00     0.000 C 
HETATM   20  C15 UNL     1       6.011   1.142   0.208  1.00  0.00     0.000 C 
HETATM   21  C16 UNL     1       4.883   1.822  -0.488  1.00  0.00     0.000 C 
HETATM   22  C17 UNL     1       3.877   0.984  -1.180  1.00  0.00     0.002 C 
HETATM   23  C18 UNL     1       3.968  -0.478  -1.068  1.00  0.00     0.025 C 
ENDBRANCH  13  15
ENDBRANCH  10  11
ENDBRANCH   4  10
BRANCH   3  24
HETATM   24  C4  UNL     1      -3.643  -0.389   1.027  1.00  0.00     0.226 C 
HETATM   25  O1  UNL     1      -3.181  -1.381   1.691  1.00  0.00    -0.273 OA
HETATM   26  N1  UNL     1      -4.503   0.495   1.722  1.00  0.00    -0.360 N 
HETATM   27  C5  UNL     1      -4.862   0.241   3.130  1.00  0.00     0.152 C 
HETATM   28  C6  UNL     1      -5.082   1.699   1.175  1.00  0.00     0.152 C 
ENDBRANCH   3  24
TORSDOF 4
