REMARK  4 active torsions:
REMARK  status: ('A' for Active; 'I' for Inactive)
REMARK    1  A    between atoms: C5_6  and  C6_7 
REMARK    2  A    between atoms: C6_7  and  N1_8 
REMARK    3  A    between atoms: C12_14  and  N2_15 
REMARK    4  A    between atoms: C19_25  and  C20_26 
ROOT
HETATM    1  N1  UNL     1       0.598   0.142  -0.774  1.00  0.00    -0.064 N 
HETATM    2  C7  UNL     1       0.421  -1.077  -0.078  1.00  0.00     0.238 C 
HETATM    3  C8  UNL     1       1.599  -2.013  -0.358  1.00  0.00     0.034 C 
HETATM    4  C9  UNL     1       2.833  -1.137  -0.649  1.00  0.00     0.024 C 
HETATM    5  C10 UNL     1       2.528  -0.608  -2.063  1.00  0.00     0.034 C 
HETATM    6  C11 UNL     1       1.098  -0.189  -2.122  1.00  0.00     0.238 C 
HETATM    7  C12 UNL     1       2.783  -0.030   0.356  1.00  0.00     0.253 C 
HETATM    8  C17 UNL     1       1.717   0.931  -0.182  1.00  0.00     0.273 C 
ENDROOT
BRANCH   1   9
HETATM    9  C6  UNL     1      -0.470   1.044  -0.894  1.00  0.00     0.254 C 
BRANCH   9  10
HETATM   10  C5  UNL     1      -1.868   0.625  -1.016  1.00  0.00     0.137 C 
HETATM   11  C4  UNL     1      -2.492  -0.135   0.080  1.00  0.00     0.166 C 
HETATM   12  S1  UNL     1      -3.577  -1.538  -0.435  1.00  0.00    -0.131 SA
HETATM   13  N3  UNL     1      -3.576   0.864   0.245  1.00  0.00    -0.321 N 
HETATM   14  C2  UNL     1      -5.145  -0.917   0.266  1.00  0.00     0.033 C 
HETATM   15  C1  UNL     1      -5.761  -1.954   1.155  1.00  0.00     0.029 C 
HETATM   16  C3  UNL     1      -6.053  -0.462  -0.841  1.00  0.00     0.029 C 
HETATM   17  C19 UNL     1      -4.623   0.280   1.071  1.00  0.00     0.207 C 
HETATM   18  C18 UNL     1      -2.796   1.733  -0.557  1.00  0.00     0.230 C 
HETATM   19  O2  UNL     1      -2.884   2.966  -0.775  1.00  0.00    -0.273 OA
BRANCH  17  20
HETATM   20  C20 UNL     1      -5.670   1.296   1.258  1.00  0.00     0.198 C 
HETATM   21  O3  UNL     1      -5.611   2.436   0.771  1.00  0.00    -0.646 OA
HETATM   22  O4  UNL     1      -6.798   0.968   2.026  1.00  0.00    -0.646 OA
ENDBRANCH  17  20
ENDBRANCH   9  10
ENDBRANCH   1   9
BRANCH   7  23
HETATM   23  N2  UNL     1       3.966   0.609   0.723  1.00  0.00     0.099 N 
HETATM   24  C13 UNL     1       4.891  -0.306   1.361  1.00  0.00     0.299 C 
HETATM   25  C14 UNL     1       6.226   0.373   1.643  1.00  0.00     0.198 C 
HETATM   26  O1  UNL     1       6.875   0.647   0.443  1.00  0.00    -0.388 OA
HETATM   27  C15 UNL     1       6.002   0.755  -0.632  1.00  0.00     0.198 C 
HETATM   28  C16 UNL     1       4.683   1.408  -0.182  1.00  0.00     0.299 C 
ENDBRANCH   7  23
TORSDOF 4
