REMARK  4 active torsions:
REMARK  status: ('A' for Active; 'I' for Inactive)
REMARK    1  A    between atoms: C2_2  and  O2_4 
REMARK    2  A    between atoms: O2_4  and  C3_5 
REMARK    3  A    between atoms: C8_16  and  N4_17 
REMARK    4  A    between atoms: N4_17  and  O4_18 
REMARK       I    between atoms: N4_17  and  C9_20 
REMARK       I    between atoms: C9_20  and  N5_21 
REMARK       I    between atoms: C9_20  and  N6_25 
ROOT
HETATM    1  C3  UNL     1      -0.595  -0.808   0.211  1.00  0.00     0.195 A 
HETATM    2  C4  UNL     1      -1.571  -0.071   1.105  1.00  0.00     0.065 C 
HETATM    3  C5  UNL     1      -1.042  -2.184   0.026  1.00  0.00     0.230 A 
HETATM    4  O3  UNL     1      -2.226  -2.458  -0.397  1.00  0.00    -0.286 OA
HETATM    5  C6  UNL     1      -0.205  -3.324   0.300  1.00  0.00     0.178 A 
HETATM    6  C7  UNL     1      -0.704  -4.657   0.043  1.00  0.00     0.123 C 
HETATM    7  N1  UNL     1      -1.088  -5.742  -0.159  1.00  0.00    -0.190 NA
HETATM    8  N2  UNL     1       0.981  -3.166   0.772  1.00  0.00    -0.286 N 
ATOM      9  H2  UNL     1       1.585  -3.961   0.978  1.00  0.00     0.188 HD
HETATM   10  N3  UNL     1       1.393  -1.875   0.985  1.00  0.00    -0.283 N 
ATOM     11  H3  UNL     1       2.333  -1.777   1.368  1.00  0.00     0.188 HD
HETATM   12  C8  UNL     1       0.775  -0.777   0.775  1.00  0.00     0.166 A 
ENDROOT
BRANCH   1  13
HETATM   13  O2  UNL     1      -0.479  -0.100  -1.013  1.00  0.00    -0.294 OA
BRANCH  13  14
HETATM   14  C2  UNL     1      -1.452   0.213  -1.914  1.00  0.00     0.256 C 
HETATM   15  C1  UNL     1      -1.031   0.967  -3.141  1.00  0.00     0.126 C 
HETATM   16  O1  UNL     1      -2.629  -0.116  -1.715  1.00  0.00    -0.266 OA
ENDBRANCH  13  14
ENDBRANCH   1  13
BRANCH  12  17
HETATM   17  N4  UNL     1       1.477   0.432   1.128  1.00  0.00    -0.188 N 
HETATM   18  C9  UNL     1       1.561   1.634   0.400  1.00  0.00     0.507 C 
HETATM   19  N5  UNL     1       2.606   2.478   1.013  1.00  0.00    -0.031 N 
HETATM   20  N6  UNL     1       0.353   2.453   0.401  1.00  0.00    -0.031 N 
ATOM     21  H53 UNL     1       2.451   2.633   2.009  1.00  0.00     0.279 HD
ATOM     22  H52 UNL     1       3.504   2.000   1.085  1.00  0.00     0.279 HD
ATOM     23  H51 UNL     1       2.667   3.349   0.486  1.00  0.00     0.279 HD
ATOM     24  H63 UNL     1      -0.443   1.903   0.077  1.00  0.00     0.279 HD
ATOM     25  H62 UNL     1       0.061   2.644   1.359  1.00  0.00     0.279 HD
ATOM     26  H61 UNL     1       0.414   3.324  -0.126  1.00  0.00     0.279 HD
BRANCH  17  27
HETATM   27  O4  UNL     1       2.130   0.367   2.341  1.00  0.00    -0.282 OA
ATOM     28  H4  UNL     1       2.593   1.164   2.574  1.00  0.00     0.245 HD
ENDBRANCH  17  27
ENDBRANCH  12  17
TORSDOF 4
