REMARK  13 active torsions:
REMARK  status: ('A' for Active; 'I' for Inactive)
REMARK    1  A    between atoms: C2_2  and  C3_3 
REMARK    2  A    between atoms: C3_3  and  N1_4 
REMARK    3  A    between atoms: N1_4  and  C4_6 
REMARK    4  A    between atoms: C5_9  and  N3_10 
REMARK    5  A    between atoms: N3_10  and  C6_12 
REMARK    6  A    between atoms: C6_12  and  C7_13 
REMARK    7  A    between atoms: C9_17  and  N5_18 
REMARK    8  A    between atoms: N5_18  and  C10_20 
REMARK    9  A    between atoms: C10_20  and  C11_21 
REMARK   10  A    between atoms: C11_21  and  C12_22 
REMARK   11  A    between atoms: C12_22  and  N6_23 
REMARK   12  A    between atoms: N6_23  and  C13_26 
REMARK   13  A    between atoms: C13_26  and  C14_27 
ROOT
HETATM    1  C4  UNL     1      -2.267  -1.067  -0.118  1.00  0.00     0.707 A 
HETATM    2  N2  UNL     1      -3.105  -0.045  -0.245  1.00  0.00    -0.022 N 
ATOM      3  H2  UNL     1      -4.112  -0.206  -0.247  1.00  0.00     0.203 HD
HETATM    4  C5  UNL     1      -2.620   1.203  -0.371  1.00  0.00     0.707 A 
HETATM    5  N4  UNL     1      -1.295   1.416  -0.368  1.00  0.00    -0.022 N 
ATOM      6  H4  UNL     1      -0.928   2.363  -0.463  1.00  0.00     0.203 HD
HETATM    7  C9  UNL     1      -0.439   0.358  -0.237  1.00  0.00     0.707 A 
HETATM    8  N8  UNL     1      -0.950  -0.875  -0.113  1.00  0.00    -0.022 N 
ATOM      9  H8  UNL     1      -0.323  -1.674  -0.014  1.00  0.00     0.203 HD
ENDROOT
BRANCH   7  10
HETATM   10  N5  UNL     1       0.842   0.569  -0.233  1.00  0.00    -0.225 N 
ATOM     11  H5  UNL     1       1.216   1.513  -0.327  1.00  0.00     0.177 HD
BRANCH  10  12
HETATM   12  C10 UNL     1       1.725  -0.565  -0.092  1.00  0.00     0.139 C 
BRANCH  12  13
HETATM   13  C11 UNL     1       3.156  -0.023   0.022  1.00  0.00     0.048 C 
BRANCH  13  14
HETATM   14  C12 UNL     1       4.080  -1.188   0.170  1.00  0.00     0.234 C 
BRANCH  14  15
HETATM   15  N6  UNL     1       5.436  -0.716   0.291  1.00  0.00    -0.071 N 
ATOM     16  H62 UNL     1       5.534  -0.068   1.073  1.00  0.00     0.277 HD
ATOM     17  H61 UNL     1       6.058  -1.456   0.616  1.00  0.00     0.277 HD
BRANCH  15  18
HETATM   18  C13 UNL     1       5.912  -0.135  -0.930  1.00  0.00     0.276 C 
BRANCH  18  19
HETATM   19  C14 UNL     1       7.312   0.299  -0.693  1.00  0.00     0.080 C 
HETATM   20  N7  UNL     1       7.565   1.455  -0.233  1.00  0.00    -0.410 N 
ATOM     21  H72 UNL     1       6.786   2.081  -0.029  1.00  0.00     0.155 HD
ATOM     22  H71 UNL     1       8.527   1.753  -0.070  1.00  0.00     0.155 HD
ENDBRANCH  18  19
ENDBRANCH  15  18
ENDBRANCH  14  15
ENDBRANCH  13  14
ENDBRANCH  12  13
ENDBRANCH  10  12
ENDBRANCH   7  10
BRANCH   4  23
HETATM   23  N3  UNL     1      -3.475   2.136  -0.489  1.00  0.00    -0.222 N 
ATOM     24  H3  UNL     1      -4.470   1.910  -0.484  1.00  0.00     0.178 HD
BRANCH  23  25
HETATM   25  C6  UNL     1      -3.062   3.503  -0.629  1.00  0.00     0.164 C 
BRANCH  25  26
HETATM   26  C7  UNL     1      -2.757   4.028   0.728  1.00  0.00    -0.017 C 
HETATM   27  C8  UNL     1      -3.419   5.063   1.212  1.00  0.00     0.008 C 
ENDBRANCH  25  26
ENDBRANCH  23  25
ENDBRANCH   4  23
BRANCH   1  28
HETATM   28  N1  UNL     1      -2.698  -2.276   0.003  1.00  0.00    -0.222 N 
ATOM     29  H1  UNL     1      -2.019  -3.031   0.098  1.00  0.00     0.178 HD
BRANCH  28  30
HETATM   30  C3  UNL     1      -4.108  -2.604   0.010  1.00  0.00     0.164 C 
BRANCH  30  31
HETATM   31  C2  UNL     1      -4.250  -4.071   0.089  1.00  0.00    -0.017 C 
HETATM   32  C1  UNL     1      -3.173  -4.829   0.140  1.00  0.00     0.008 C 
ENDBRANCH  30  31
ENDBRANCH  28  30
ENDBRANCH   1  28
TORSDOF 13
