REMARK  6 active torsions:
REMARK  status: ('A' for Active; 'I' for Inactive)
REMARK    1  A    between atoms: C3_4  and  C4_5 
REMARK       I    between atoms: C4_5  and  N1_7 
REMARK    2  A    between atoms: N1_7  and  C5_9 
REMARK    3  A    between atoms: C5_9  and  C7_11 
REMARK    4  A    between atoms: C13_18  and  C14_19 
REMARK    5  A    between atoms: C17_22  and  C18_23 
REMARK    6  A    between atoms: C18_23  and  C19_24 
ROOT
HETATM    1  C1  UNL     1       2.208  -3.877   1.200  1.00  0.00     0.057 C 
HETATM    2  C2  UNL     1       1.110  -2.920   0.829  1.00  0.00    -0.014 A 
HETATM    3  S1  UNL     1      -0.556  -3.263   0.759  1.00  0.00    -0.089 SA
HETATM    4  C3  UNL     1      -1.134  -1.735   0.307  1.00  0.00     0.073 A 
HETATM    5  C12 UNL     1       0.015  -0.978   0.219  1.00  0.00     0.033 A 
HETATM    6  C13 UNL     1       1.178  -1.586   0.487  1.00  0.00    -0.040 A 
ENDROOT
BRANCH   4   7
HETATM    7  C4  UNL     1      -2.515  -1.265   0.012  1.00  0.00     0.262 C 
HETATM    8  O1  UNL     1      -3.410  -2.119   0.042  1.00  0.00    -0.267 OA
HETATM    9  N1  UNL     1      -2.786   0.079  -0.284  1.00  0.00    -0.329 N 
ATOM     10  H1  UNL     1      -1.974   0.696  -0.276  1.00  0.00     0.168 HD
BRANCH   9  11
HETATM   11  C5  UNL     1      -4.000   0.701  -0.588  1.00  0.00    -0.004 C 
HETATM   12  C6  UNL     1      -4.145   1.084  -2.063  1.00  0.00     0.064 C 
BRANCH  11  13
HETATM   13  C7  UNL     1      -5.100   1.064   0.295  1.00  0.00     0.011 C 
HETATM   14  C8  UNL     1      -5.348   2.562   0.442  1.00  0.00     0.023 C 
HETATM   15  C9  UNL     1      -6.435   0.474  -0.230  1.00  0.00     0.018 C 
HETATM   16  C10 UNL     1      -6.853   0.180   1.195  1.00  0.00     0.022 C 
HETATM   17  C11 UNL     1      -5.370   0.358   1.563  1.00  0.00     0.096 C 
HETATM   18 CL1  UNL     1      -5.316   1.393   3.041  1.00  0.00    -0.124 Cl
ENDBRANCH  11  13
ENDBRANCH   9  11
ENDBRANCH   4   7
BRANCH   6  19
HETATM   19  C14 UNL     1       2.547  -0.939   0.413  1.00  0.00     0.019 C 
HETATM   20  C15 UNL     1       2.509   0.546   0.288  1.00  0.00     0.010 C 
HETATM   21  C16 UNL     1       3.768   1.036  -0.468  1.00  0.00     0.006 C 
HETATM   22  C17 UNL     1       4.918   0.217   0.040  1.00  0.00    -0.005 C 
HETATM   23  C20 UNL     1       4.772  -1.176  -0.539  1.00  0.00     0.006 C 
HETATM   24  C21 UNL     1       3.296  -1.481  -0.804  1.00  0.00     0.010 C 
BRANCH  22  25
HETATM   25  C18 UNL     1       6.259   0.828  -0.177  1.00  0.00     0.117 C 
BRANCH  25  26
HETATM   26  C19 UNL     1       6.477   2.125   0.490  1.00  0.00     0.172 C 
HETATM   27  O2  UNL     1       5.577   2.554   1.276  1.00  0.00    -0.648 OA
HETATM   28  O3  UNL     1       7.616   2.898   0.300  1.00  0.00    -0.648 OA
ENDBRANCH  25  26
ENDBRANCH  22  25
ENDBRANCH   6  19
TORSDOF 6
