REMARK  17 active torsions:
REMARK  status: ('A' for Active; 'I' for Inactive)
REMARK    1  A    between atoms: C2_2  and  C3_3 
REMARK    2  A    between atoms: C3_3  and  C4_4 
REMARK    3  A    between atoms: C4_4  and  C5_5 
REMARK    4  A    between atoms: C5_5  and  C6_6 
REMARK    5  A    between atoms: C6_6  and  C7_7 
REMARK    6  A    between atoms: N1_9  and  O1_11 
REMARK    7  A    between atoms: O1_11  and  C9_12 
REMARK    8  A    between atoms: C9_12  and  C10_13 
REMARK    9  A    between atoms: C9_12  and  O3_16 
REMARK   10  A    between atoms: C10_13  and  O2_14 
REMARK   11  A    between atoms: O3_16  and  C11_17 
REMARK   12  A    between atoms: C11_17  and  C12_18 
REMARK   13  A    between atoms: C12_18  and  O4_19 
REMARK   14  A    between atoms: C12_18  and  C13_21 
REMARK   15  A    between atoms: C13_21  and  O5_22 
REMARK   16  A    between atoms: O5_22  and  C14_23 
REMARK   17  A    between atoms: C14_23  and  C15_24 
ROOT
HETATM    1  C9  UNL     1       0.063  -1.109   0.378  1.00  0.00     0.311 C 
ENDROOT
BRANCH   1   2
HETATM    2  O1  UNL     1      -0.823  -0.601  -0.587  1.00  0.00    -0.246 OA
BRANCH   2   3
HETATM    3  N1  UNL     1      -1.377   0.622  -0.628  1.00  0.00    -0.272 N 
HETATM    4  C5  UNL     1      -2.617   0.955  -0.408  1.00  0.00     0.010 C 
ATOM      5  H1  UNL     1      -0.746   1.388  -0.861  1.00  0.00     0.193 HD
BRANCH   4   6
HETATM    6  C4  UNL     1      -3.634  -0.044  -0.066  1.00  0.00     0.054 C 
BRANCH   6   7
HETATM    7  C3  UNL     1      -4.199   0.193   1.339  1.00  0.00     0.005 C 
BRANCH   7   8
HETATM    8  C2  UNL     1      -5.233  -0.924   1.557  1.00  0.00    -0.004 C 
HETATM    9  C1  UNL     1      -5.796  -0.704   2.953  1.00  0.00     0.005 C 
ENDBRANCH   7   8
ENDBRANCH   6   7
ENDBRANCH   4   6
BRANCH   4  10
HETATM   10  C6  UNL     1      -2.929   2.386  -0.516  1.00  0.00     0.054 C 
BRANCH  10  11
HETATM   11  C7  UNL     1      -3.788   2.788  -1.647  1.00  0.00     0.001 C 
HETATM   12  C8  UNL     1      -5.159   2.228  -1.722  1.00  0.00     0.005 C 
ENDBRANCH  10  11
ENDBRANCH   4  10
ENDBRANCH   2   3
ENDBRANCH   1   2
BRANCH   1  13
HETATM   13  C10 UNL     1      -0.150  -2.552   0.735  1.00  0.00     0.227 C 
BRANCH  13  14
HETATM   14  O2  UNL     1      -1.381  -2.846   1.268  1.00  0.00    -0.396 OA
ATOM     15  H2  UNL     1      -1.516  -3.759   1.494  1.00  0.00     0.209 HD
ENDBRANCH  13  14
ENDBRANCH   1  13
BRANCH   1  16
HETATM   16  O3  UNL     1       1.390  -0.974  -0.131  1.00  0.00    -0.354 OA
BRANCH  16  17
HETATM   17  C11 UNL     1       2.119  -0.141   0.681  1.00  0.00     0.205 C 
BRANCH  17  18
HETATM   18  C12 UNL     1       3.550   0.042   0.161  1.00  0.00     0.165 C 
BRANCH  18  19
HETATM   19  O4  UNL     1       4.129   0.920   1.117  1.00  0.00    -0.391 OA
ATOM     20  H4  UNL     1       5.015   1.033   0.795  1.00  0.00     0.210 HD
ENDBRANCH  18  19
BRANCH  18  21
HETATM   21  C13 UNL     1       3.545   0.745  -1.146  1.00  0.00     0.201 C 
BRANCH  21  22
HETATM   22  O5  UNL     1       4.677   1.115  -1.688  1.00  0.00    -0.384 OA
BRANCH  22  23
HETATM   23  C14 UNL     1       5.667   0.397  -2.181  1.00  0.00     0.206 C 
BRANCH  23  24
HETATM   24  C15 UNL     1       6.416  -0.556  -1.279  1.00  0.00    -0.028 A 
HETATM   25  C16 UNL     1       7.219  -0.170  -0.255  1.00  0.00     0.017 A 
HETATM   26  C17 UNL     1       7.864  -1.136   0.451  1.00  0.00     0.050 A 
HETATM   27  S1  UNL     1       7.353  -2.572  -0.312  1.00  0.00    -0.113 SA
HETATM   28  C18 UNL     1       6.336  -1.912  -1.502  1.00  0.00     0.058 A 
ENDBRANCH  23  24
ENDBRANCH  22  23
ENDBRANCH  21  22
ENDBRANCH  18  21
ENDBRANCH  17  18
ENDBRANCH  16  17
ENDBRANCH   1  16
TORSDOF 17
