REMARK  14 active torsions:
REMARK  status: ('A' for Active; 'I' for Inactive)
REMARK    1  A    between atoms: C2_2  and  C3_3 
REMARK    2  A    between atoms: C3_3  and  C4_4 
REMARK    3  A    between atoms: C4_4  and  C5_5 
REMARK    4  A    between atoms: C5_5  and  C6_6 
REMARK    5  A    between atoms: C6_6  and  C7_7 
REMARK    6  A    between atoms: C7_7  and  C8_8 
REMARK    7  A    between atoms: C8_8  and  N1_9 
REMARK    8  A    between atoms: C10_16  and  N4_17 
REMARK    9  A    between atoms: N4_17  and  C11_19 
REMARK   10  A    between atoms: C12_23  and  C13_24 
REMARK   11  A    between atoms: C13_24  and  O1_25 
REMARK   12  A    between atoms: C14_27  and  O2_28 
REMARK   13  A    between atoms: C15_30  and  O3_31 
REMARK   14  A    between atoms: C16_33  and  O4_34 
ROOT
HETATM    1  N4  UNL     1      -2.851   0.085   0.322  1.00  0.00    -0.192 N 
ATOM      2  H4  UNL     1      -2.417   0.029   1.244  1.00  0.00     0.180 HD
ENDROOT
BRANCH   1   3
HETATM    3  C10 UNL     1      -1.997   0.031  -0.607  1.00  0.00     0.709 A 
HETATM    4  N3  UNL     1      -2.156   0.071  -1.922  1.00  0.00    -0.117 N 
HETATM    5  N2  UNL     1      -0.956  -0.021  -2.472  1.00  0.00    -0.117 N 
ATOM      6  H3  UNL     1      -3.042   0.157  -2.420  1.00  0.00     0.206 HD
HETATM    7  C9  UNL     1      -0.027  -0.120  -1.511  1.00  0.00     0.707 A 
ATOM      8  H2  UNL     1      -0.767  -0.017  -3.474  1.00  0.00     0.206 HD
HETATM    9  N1  UNL     1       1.259  -0.227  -1.691  1.00  0.00    -0.224 N 
HETATM   10  N6  UNL     1      -0.655  -0.090  -0.340  1.00  0.00    -0.020 N 
ATOM     11  H1  UNL     1       1.655  -0.242  -2.631  1.00  0.00     0.177 HD
ATOM     12  H6  UNL     1      -0.222  -0.146   0.582  1.00  0.00     0.203 HD
BRANCH   9  13
HETATM   13  C8  UNL     1       2.111  -0.324  -0.529  1.00  0.00     0.138 C 
BRANCH  13  14
HETATM   14  C7  UNL     1       3.491  -0.733  -0.999  1.00  0.00     0.020 C 
BRANCH  14  15
HETATM   15  C6  UNL     1       4.435  -0.850   0.201  1.00  0.00     0.002 C 
BRANCH  15  16
HETATM   16  C5  UNL     1       5.791  -1.259  -0.332  1.00  0.00     0.000 C 
BRANCH  16  17
HETATM   17  C4  UNL     1       6.814  -1.409   0.745  1.00  0.00     0.000 C 
BRANCH  17  18
HETATM   18  C3  UNL     1       7.056  -0.159   1.526  1.00  0.00    -0.000 C 
BRANCH  18  19
HETATM   19  C2  UNL     1       7.545   0.984   0.662  1.00  0.00    -0.005 C 
HETATM   20  C1  UNL     1       8.836   0.641  -0.018  1.00  0.00     0.005 C 
ENDBRANCH  18  19
ENDBRANCH  17  18
ENDBRANCH  16  17
ENDBRANCH  15  16
ENDBRANCH  14  15
ENDBRANCH  13  14
ENDBRANCH   9  13
ENDBRANCH   1   3
BRANCH   1  21
HETATM   21  C11 UNL     1      -4.233   0.202   0.403  1.00  0.00     0.331 C 
HETATM   22  N5  UNL     1      -4.978   0.161  -0.814  1.00  0.00    -0.042 N 
HETATM   23  C12 UNL     1      -6.368  -0.136  -0.578  1.00  0.00     0.242 C 
ATOM     24  H52 UNL     1      -4.867   1.023  -1.347  1.00  0.00     0.280 HD
ATOM     25  H51 UNL     1      -4.566  -0.492  -1.480  1.00  0.00     0.280 HD
HETATM   26  C14 UNL     1      -6.827   0.179   0.812  1.00  0.00     0.182 C 
HETATM   27  C15 UNL     1      -6.117   1.282   1.493  1.00  0.00     0.181 C 
HETATM   28  C16 UNL     1      -4.693   1.499   1.097  1.00  0.00     0.200 C 
BRANCH  23  29
HETATM   29  C13 UNL     1      -6.576  -1.615  -0.832  1.00  0.00     0.199 C 
BRANCH  29  30
HETATM   30  O1  UNL     1      -6.241  -1.942  -2.148  1.00  0.00    -0.399 OA
ATOM     31  H1  UNL     1      -6.371  -2.869  -2.307  1.00  0.00     0.209 HD
ENDBRANCH  29  30
ENDBRANCH  23  29
BRANCH  26  32
HETATM   32  O2  UNL     1      -8.202   0.469   0.734  1.00  0.00    -0.391 OA
ATOM     33  H2  UNL     1      -8.493   0.669   1.616  1.00  0.00     0.210 HD
ENDBRANCH  26  32
BRANCH  27  34
HETATM   34  O3  UNL     1      -6.777   2.515   1.394  1.00  0.00    -0.390 OA
ATOM     35  H3  UNL     1      -6.321   3.224   1.832  1.00  0.00     0.210 HD
ENDBRANCH  27  34
BRANCH  28  36
HETATM   36  O4  UNL     1      -4.650   2.563   0.205  1.00  0.00    -0.389 OA
ATOM     37  H4  UNL     1      -4.934   3.362   0.633  1.00  0.00     0.210 HD
ENDBRANCH  28  36
ENDBRANCH   1  21
TORSDOF 14
