REMARK  3 active torsions:
REMARK  status: ('A' for Active; 'I' for Inactive)
REMARK    1  A    between atoms: O1_1  and  C1_3 
REMARK    2  A    between atoms: C5_8  and  C6_9 
REMARK    3  A    between atoms: C6_9  and  C7_10 
ROOT
HETATM    1  C1  UNL     1      -1.825  -1.136   0.564  1.00  0.00     0.147 C 
HETATM    2  C2  UNL     1      -3.117  -0.411   0.849  1.00  0.00     0.036 C 
HETATM    3  C3  UNL     1      -3.172   0.886   0.096  1.00  0.00     0.029 C 
HETATM    4  C4  UNL     1      -2.242   0.938  -1.077  1.00  0.00     0.168 C 
HETATM    5  O2  UNL     1      -0.932   0.653  -0.787  1.00  0.00    -0.383 OA
HETATM    6  C5  UNL     1      -0.712  -0.156   0.282  1.00  0.00     0.155 C 
ENDROOT
BRANCH   6   7
HETATM    7  C6  UNL     1       0.567  -0.960   0.176  1.00  0.00     0.086 C 
BRANCH   7   8
HETATM    8  C7  UNL     1       1.749  -0.074  -0.106  1.00  0.00    -0.016 C 
HETATM    9  N1  UNL     1       1.782   1.171  -0.257  1.00  0.00    -0.396 N 
HETATM   10  C8  UNL     1       3.112   1.662  -0.514  1.00  0.00     0.119 C 
ATOM     11  H1  UNL     1       0.958   1.770  -0.204  1.00  0.00     0.159 HD
HETATM   12  C9  UNL     1       3.951   0.561   0.158  1.00  0.00     0.025 C 
HETATM   13  C10 UNL     1       3.116  -0.631  -0.254  1.00  0.00     0.054 C 
ENDBRANCH   7   8
ENDBRANCH   6   7
BRANCH   1  14
HETATM   14  O1  UNL     1      -1.924  -1.980  -0.530  1.00  0.00    -0.393 OA
ATOM     15  H1  UNL     1      -1.110  -2.437  -0.709  1.00  0.00     0.210 HD
ENDBRANCH   1  14
TORSDOF 3
