REMARK  9 active torsions:
REMARK  status: ('A' for Active; 'I' for Inactive)
REMARK    1  A    between atoms: C2_2  and  C3_3 
REMARK    2  A    between atoms: C3_3  and  O1_4 
REMARK    3  A    between atoms: C3_3  and  C4_6 
REMARK    4  A    between atoms: C4_6  and  O2_7 
REMARK    5  A    between atoms: C4_6  and  C5_9 
REMARK    6  A    between atoms: C5_9  and  N1_10 
REMARK    7  A    between atoms: C5_9  and  C6_14 
REMARK    8  A    between atoms: C15_23  and  C16_24 
REMARK    9  A    between atoms: C16_24  and  O3_26 
ROOT
HETATM    1  C6  UNL     1       1.461  -0.173   0.368  1.00  0.00     0.035 C 
HETATM    2  C7  UNL     1       0.419  -1.215   0.017  1.00  0.00     0.043 C 
HETATM    3  C8  UNL     1      -0.605  -0.164   0.367  1.00  0.00    -0.068 C 
HETATM    4  C9  UNL     1      -1.862  -0.268   0.722  1.00  0.00    -0.072 C 
HETATM    5  C10 UNL     1      -2.683  -1.497   0.891  1.00  0.00     0.040 C 
HETATM    6  C11 UNL     1      -4.019  -1.011   1.410  1.00  0.00    -0.003 C 
HETATM    7  C12 UNL     1      -3.536   0.212   2.219  1.00  0.00     0.014 C 
HETATM    8  C13 UNL     1      -2.776   0.848   1.034  1.00  0.00     0.016 C 
HETATM    9  C14 UNL     1      -3.891   0.866   0.008  1.00  0.00     0.016 C 
HETATM   10  C15 UNL     1      -4.795  -0.308   0.351  1.00  0.00     0.019 C 
HETATM   11  C18 UNL     1       0.458   0.874   0.117  1.00  0.00    -0.018 C 
HETATM   12  C19 UNL     1       0.355   1.946   1.190  1.00  0.00     0.020 C 
HETATM   13  C20 UNL     1       0.241   1.442  -1.236  1.00  0.00     0.020 C 
ENDROOT
BRANCH   1  14
HETATM   14  C5  UNL     1       2.703  -0.300  -0.419  1.00  0.00     0.220 C 
BRANCH  14  15
HETATM   15  C4  UNL     1       3.731   0.722  -0.065  1.00  0.00     0.177 C 
BRANCH  15  16
HETATM   16  C3  UNL     1       5.140   0.367  -0.484  1.00  0.00     0.148 C 
BRANCH  16  17
HETATM   17  C2  UNL     1       5.609  -0.961   0.061  1.00  0.00     0.030 C 
HETATM   18  C1  UNL     1       7.091  -1.062  -0.325  1.00  0.00     0.007 C 
ENDBRANCH  16  17
BRANCH  16  19
HETATM   19  O1  UNL     1       5.956   1.335   0.154  1.00  0.00    -0.393 OA
ATOM     20  H1  UNL     1       5.661   2.170  -0.189  1.00  0.00     0.210 HD
ENDBRANCH  16  19
ENDBRANCH  15  16
BRANCH  15  21
HETATM   21  O2  UNL     1       3.493   1.998  -0.506  1.00  0.00    -0.391 OA
ATOM     22  H2  UNL     1       2.608   2.221  -0.243  1.00  0.00     0.210 HD
ENDBRANCH  15  21
ENDBRANCH  14  15
BRANCH  14  23
HETATM   23  N1  UNL     1       2.517  -0.462  -1.844  1.00  0.00    -0.072 N 
ATOM     24  H13 UNL     1       2.303   0.433  -2.284  1.00  0.00     0.274 HD
ATOM     25  H12 UNL     1       3.404  -0.669  -2.303  1.00  0.00     0.274 HD
ATOM     26  H11 UNL     1       1.814  -1.161  -2.086  1.00  0.00     0.274 HD
ENDBRANCH  14  23
ENDBRANCH   1  14
BRANCH  10  27
HETATM   27  C16 UNL     1      -5.159  -1.119  -0.844  1.00  0.00     0.118 C 
HETATM   28  C17 UNL     1      -5.946  -0.182  -1.775  1.00  0.00     0.040 C 
BRANCH  27  29
HETATM   29  O3  UNL     1      -6.077  -2.109  -0.468  1.00  0.00    -0.396 OA
ATOM     30  H3  UNL     1      -6.309  -2.626  -1.230  1.00  0.00     0.210 HD
ENDBRANCH  27  29
ENDBRANCH  10  27
TORSDOF 9
