REMARK  3 active torsions:
REMARK  status: ('A' for Active; 'I' for Inactive)
REMARK    1  A    between atoms: N1_2  and  C4_5 
REMARK    2  A    between atoms: C4_5  and  N2_6 
REMARK    3  A    between atoms: N2_6  and  N3_7 
ROOT
HETATM    1  C4  UNL     1       0.635   0.923  -0.109  1.00  0.00     0.369 C 
ENDROOT
BRANCH   1   2
HETATM    2  N1  UNL     1      -0.474   0.006   0.040  1.00  0.00    -0.064 N 
HETATM    3  C1  UNL     1      -0.948   0.008   1.404  1.00  0.00     0.273 C 
HETATM    4  C2  UNL     1      -1.612   0.412  -0.785  1.00  0.00     0.273 C 
HETATM    5  C3  UNL     1      -0.106  -1.318  -0.416  1.00  0.00     0.273 C 
ENDBRANCH   1   2
BRANCH   1   6
HETATM    6  N2  UNL     1       1.852   0.248  -0.555  1.00  0.00    -0.120 NA
BRANCH   6   7
HETATM    7  N3  UNL     1       2.678  -0.063   0.543  1.00  0.00    -0.347 N 
ATOM      8  H32 UNL     1       2.445   0.159   1.511  1.00  0.00     0.172 HD
ATOM      9  H31 UNL     1       3.527  -0.534   0.232  1.00  0.00     0.172 HD
ENDBRANCH   6   7
ENDBRANCH   1   6
TORSDOF 3
