REMARK  16 active torsions:
REMARK  status: ('A' for Active; 'I' for Inactive)
REMARK    1  A    between atoms: C4_4  and  N1_5 
REMARK    2  A    between atoms: N1_5  and  C5_7 
REMARK    3  A    between atoms: N2_10  and  O1_11 
REMARK    4  A    between atoms: C10_15  and  C11_16 
REMARK       I    between atoms: C11_16  and  N3_18 
REMARK    5  A    between atoms: N3_18  and  C12_20 
REMARK    6  A    between atoms: C12_20  and  C13_21 
REMARK    7  A    between atoms: C13_21  and  C14_22 
REMARK    8  A    between atoms: C14_22  and  C15_23 
REMARK    9  A    between atoms: C15_23  and  N4_24 
REMARK       I    between atoms: N4_24  and  C16_26 
REMARK   10  A    between atoms: N6_28  and  C17_30 
REMARK   11  A    between atoms: C17_30  and  C18_31 
REMARK   12  A    between atoms: C18_31  and  C19_32 
REMARK   13  A    between atoms: C19_32  and  C20_33 
REMARK   14  A    between atoms: C20_33  and  N7_35 
REMARK   15  A    between atoms: N7_35  and  S1_37 
REMARK   16  A    between atoms: C23_41  and  N8_42 
ROOT
HETATM    1  C11 UNL     1      -3.853   1.490  -0.088  1.00  0.00     0.257 C 
HETATM    2  O2  UNL     1      -3.543   0.246  -0.103  1.00  0.00    -0.267 OA
HETATM    3  N3  UNL     1      -2.780   2.397  -0.023  1.00  0.00    -0.357 N 
ATOM      4  H3  UNL     1      -2.959   3.401  -0.020  1.00  0.00     0.162 HD
ENDROOT
BRANCH   1   5
HETATM    5  C10 UNL     1      -5.278   1.792  -0.144  1.00  0.00     0.102 A 
HETATM    6  C4  UNL     1      -6.179   0.748  -0.334  1.00  0.00     0.054 A 
HETATM    7  C3  UNL     1      -7.530   1.066  -0.263  1.00  0.00     0.055 A 
HETATM    8  C2  UNL     1      -7.972   2.337  -0.020  1.00  0.00     0.009 A 
HETATM    9  C1  UNL     1      -9.446   2.568   0.036  1.00  0.00     0.068 C 
HETATM   10  N9  UNL     1      -7.102   3.316   0.155  1.00  0.00    -0.346 N 
HETATM   11  C23 UNL     1      -5.766   3.083   0.101  1.00  0.00     0.117 A 
ATOM     12  H9  UNL     1      -7.440   4.262   0.333  1.00  0.00     0.167 HD
BRANCH   6  13
HETATM   13  N1  UNL     1      -5.804  -0.546  -0.734  1.00  0.00    -0.355 N 
ATOM     14  H1  UNL     1      -4.928  -0.671  -1.241  1.00  0.00     0.166 HD
BRANCH  13  15
HETATM   15  C5  UNL     1      -6.604  -1.684  -0.456  1.00  0.00     0.035 A 
HETATM   16  C6  UNL     1      -7.435  -1.859   0.617  1.00  0.00     0.049 A 
HETATM   17  C7  UNL     1      -8.183  -3.013   0.782  1.00  0.00     0.124 A 
HETATM   18  N2  UNL     1      -8.135  -4.029  -0.101  1.00  0.00    -0.247 N 
HETATM   19  C8  UNL     1      -7.327  -3.887  -1.165  1.00  0.00     0.124 A 
HETATM   20  C9  UNL     1      -6.570  -2.755  -1.362  1.00  0.00     0.049 A 
BRANCH  18  21
HETATM   21  O1  UNL     1      -8.874  -5.169   0.062  1.00  0.00    -0.284 OA
ATOM     22  H1  UNL     1      -8.840  -5.886  -0.561  1.00  0.00     0.245 HD
ENDBRANCH  18  21
ENDBRANCH  13  15
ENDBRANCH   6  13
BRANCH  11  23
HETATM   23  N8  UNL     1      -4.975   4.073   0.286  1.00  0.00    -0.385 N 
ATOM     24  H82 UNL     1      -3.971   3.898   0.245  1.00  0.00     0.157 HD
ATOM     25  H81 UNL     1      -5.330   5.012   0.464  1.00  0.00     0.157 HD
ENDBRANCH  11  23
ENDBRANCH   1   5
BRANCH   3  26
HETATM   26  C12 UNL     1      -1.400   1.896   0.041  1.00  0.00     0.123 C 
BRANCH  26  27
HETATM   27  C13 UNL     1      -1.138   1.113   1.278  1.00  0.00     0.021 C 
BRANCH  27  28
HETATM   28  C14 UNL     1       0.315   0.649   1.275  1.00  0.00     0.021 C 
BRANCH  28  29
HETATM   29  C15 UNL     1       0.630  -0.218   0.088  1.00  0.00     0.122 C 
BRANCH  29  30
HETATM   30  N4  UNL     1       2.015  -0.616   0.149  1.00  0.00    -0.365 N 
HETATM   31  C16 UNL     1       3.033   0.347  -0.041  1.00  0.00     0.183 C 
HETATM   32  N5  UNL     1       2.656   1.610  -0.638  1.00  0.00    -0.064 NA
HETATM   33  N6  UNL     1       4.249   0.151   0.275  1.00  0.00    -0.365 N 
ATOM     34  H6  UNL     1       4.888   0.924   0.088  1.00  0.00     0.162 HD
ATOM     35  H4  UNL     1       2.260  -1.590   0.329  1.00  0.00     0.162 HD
BRANCH  33  36
HETATM   36  C17 UNL     1       4.830  -1.010   0.856  1.00  0.00     0.122 C 
BRANCH  36  37
HETATM   37  C18 UNL     1       6.038  -1.487   0.044  1.00  0.00     0.022 C 
BRANCH  37  38
HETATM   38  C19 UNL     1       7.026  -0.340   0.061  1.00  0.00     0.027 C 
BRANCH  38  39
HETATM   39  C20 UNL     1       8.278  -0.685  -0.732  1.00  0.00     0.088 C 
HETATM   40  C21 UNL     1       7.883  -0.974  -2.173  1.00  0.00     0.033 C 
BRANCH  39  41
HETATM   41  N7  UNL     1       9.225   0.383  -0.740  1.00  0.00    -0.315 N 
ATOM     42  H7  UNL     1       9.000   1.318  -1.080  1.00  0.00     0.172 HD
BRANCH  41  43
HETATM   43  S1  UNL     1      10.760  -0.032  -0.135  1.00  0.00     0.223 S 
HETATM   44  C22 UNL     1      10.714  -0.546   1.562  1.00  0.00     0.185 C 
HETATM   45  O3  UNL     1      11.618   1.226  -0.180  1.00  0.00    -0.206 OA
HETATM   46  O4  UNL     1      11.413  -1.086  -0.942  1.00  0.00    -0.206 OA
ENDBRANCH  41  43
ENDBRANCH  39  41
ENDBRANCH  38  39
ENDBRANCH  37  38
ENDBRANCH  36  37
ENDBRANCH  33  36
ENDBRANCH  29  30
ENDBRANCH  28  29
ENDBRANCH  27  28
ENDBRANCH  26  27
ENDBRANCH   3  26
TORSDOF 16
