REMARK  8 active torsions:
REMARK  status: ('A' for Active; 'I' for Inactive)
REMARK       I    between atoms: C2_2  and  N1_4 
REMARK    1  A    between atoms: N1_4  and  C3_6 
REMARK    2  A    between atoms: C6_13  and  C7_14 
REMARK    3  A    between atoms: C7_14  and  C8_15 
REMARK    4  A    between atoms: C8_15  and  O3_16 
REMARK    5  A    between atoms: O3_16  and  C9_17 
REMARK    6  A    between atoms: C14_22  and  C15_23 
REMARK    7  A    between atoms: C15_23  and  C16_24 
REMARK    8  A    between atoms: C16_24  and  C17_25 
ROOT
HETATM    1  C17 UNL     1      -5.857   2.156  -0.691  1.00  0.00     0.151 C 
HETATM    2  C18 UNL     1      -6.890   1.117  -0.702  1.00  0.00     0.062 C 
HETATM    3  N3  UNL     1      -7.713   0.307  -0.729  1.00  0.00    -0.197 NA
ENDROOT
BRANCH   1   4
HETATM    4  C16 UNL     1      -4.621   1.827  -1.415  1.00  0.00    -0.012 C 
BRANCH   4   5
HETATM    5  C15 UNL     1      -3.743   0.751  -1.031  1.00  0.00     0.002 C 
BRANCH   5   6
HETATM    6  C14 UNL     1      -3.600  -0.004  -0.003  1.00  0.00    -0.052 C 
HETATM    7  C9  UNL     1      -2.480  -1.054  -0.067  1.00  0.00     0.150 C 
HETATM    8  C10 UNL     1      -3.213  -2.376   0.002  1.00  0.00     0.036 C 
HETATM    9  C11 UNL     1      -4.079  -2.521   1.202  1.00  0.00     0.003 C 
HETATM   10  C12 UNL     1      -4.953  -1.367   1.521  1.00  0.00     0.004 C 
HETATM   11  C13 UNL     1      -4.291  -0.019   1.264  1.00  0.00     0.037 C 
BRANCH   7  12
HETATM   12  O3  UNL     1      -1.724  -0.828   1.079  1.00  0.00    -0.381 OA
BRANCH  12  13
HETATM   13  C8  UNL     1      -0.401  -0.571   0.817  1.00  0.00     0.173 C 
BRANCH  13  14
HETATM   14  C7  UNL     1      -0.179   0.641  -0.043  1.00  0.00     0.072 C 
BRANCH  14  15
HETATM   15  C6  UNL     1       1.310   0.788  -0.239  1.00  0.00    -0.012 A 
HETATM   16  S1  UNL     1       2.158   1.980  -1.123  1.00  0.00    -0.087 SA
HETATM   17  C5  UNL     1       3.750   1.441  -0.846  1.00  0.00     0.101 A 
HETATM   18  C4  UNL     1       5.022   1.889  -1.238  1.00  0.00     0.279 A 
HETATM   19  C20 UNL     1       3.574   0.333  -0.063  1.00  0.00     0.072 A 
HETATM   20  N2  UNL     1       6.130   1.224  -0.844  1.00  0.00    -0.155 N 
HETATM   21  O2  UNL     1       5.071   2.910  -1.953  1.00  0.00    -0.266 OA
HETATM   22  C3  UNL     1       5.915   0.151  -0.082  1.00  0.00     0.688 A 
ATOM     23  H2  UNL     1       7.068   1.523  -1.111  1.00  0.00     0.187 HD
HETATM   24  N4  UNL     1       4.737  -0.307   0.311  1.00  0.00    -0.190 N 
ATOM     25  H4  UNL     1       4.689  -1.141   0.896  1.00  0.00     0.184 HD
HETATM   26  C19 UNL     1       2.311  -0.001   0.250  1.00  0.00     0.046 A 
BRANCH  22  27
HETATM   27  N1  UNL     1       6.988  -0.498   0.304  1.00  0.00    -0.160 N 
HETATM   28  C2  UNL     1       8.280  -0.096  -0.057  1.00  0.00     0.231 C 
HETATM   29  C1  UNL     1       9.020  -0.897  -1.075  1.00  0.00     0.118 C 
HETATM   30  O1  UNL     1       8.839   0.928   0.455  1.00  0.00    -0.273 OA
ATOM     31  H1  UNL     1       6.877  -1.326   0.889  1.00  0.00     0.187 HD
ENDBRANCH  22  27
ENDBRANCH  14  15
ENDBRANCH  13  14
ENDBRANCH  12  13
ENDBRANCH   7  12
ENDBRANCH   5   6
ENDBRANCH   4   5
ENDBRANCH   1   4
TORSDOF 8
