REMARK  10 active torsions:
REMARK  status: ('A' for Active; 'I' for Inactive)
REMARK    1  A    between atoms: O1_2  and  C2_3 
REMARK    2  A    between atoms: C4_5  and  N1_6 
REMARK    3  A    between atoms: N1_6  and  C5_8 
REMARK    4  A    between atoms: C8_11  and  C9_12 
REMARK    5  A    between atoms: C11_21  and  N4_22 
REMARK    6  A    between atoms: N4_22  and  C12_24 
REMARK    7  A    between atoms: C12_24  and  C13_25 
REMARK    8  A    between atoms: C13_25  and  C14_26 
REMARK    9  A    between atoms: C14_26  and  N5_27 
REMARK   10  A    between atoms: N5_27  and  C15_29 
ROOT
HETATM    1  C15 UNL     1       4.542  -1.865   0.056  1.00  0.00     0.100 A 
HETATM    2  C16 UNL     1       5.110  -0.638   0.324  1.00  0.00     0.050 A 
HETATM    3  C17 UNL     1       6.455  -0.535   0.679  1.00  0.00     0.028 A 
HETATM    4  C18 UNL     1       7.188  -1.682   0.755  1.00  0.00     0.060 A 
HETATM    5  C19 UNL     1       8.586  -1.661   1.116  1.00  0.00     0.101 C 
HETATM    6  N6  UNL     1       9.704  -1.645   1.389  1.00  0.00    -0.191 NA
HETATM    7  C20 UNL     1       6.581  -2.886   0.480  1.00  0.00     0.112 A 
HETATM    8  N7  UNL     1       5.293  -2.995   0.138  1.00  0.00    -0.351 N 
ATOM      9  H7  UNL     1       4.882  -3.908  -0.057  1.00  0.00     0.166 HD
ENDROOT
BRANCH   1  10
HETATM   10  N5  UNL     1       3.298  -1.945  -0.283  1.00  0.00    -0.376 N 
ATOM     11  H5  UNL     1       2.913  -2.870  -0.473  1.00  0.00     0.161 HD
BRANCH  10  12
HETATM   12  C14 UNL     1       2.433  -0.825  -0.408  1.00  0.00     0.123 C 
BRANCH  12  13
HETATM   13  C13 UNL     1       2.623  -0.071  -1.702  1.00  0.00     0.040 C 
BRANCH  13  14
HETATM   14  C12 UNL     1       1.611   1.071  -1.675  1.00  0.00     0.139 C 
BRANCH  14  15
HETATM   15  N4  UNL     1       0.291   0.496  -1.621  1.00  0.00    -0.226 N 
ATOM     16  H4  UNL     1       0.156  -0.499  -1.798  1.00  0.00     0.177 HD
BRANCH  15  17
HETATM   17  C11 UNL     1      -0.715   1.249  -1.347  1.00  0.00     0.681 A 
HETATM   18  N3  UNL     1      -1.968   0.705  -1.299  1.00  0.00    -0.177 N 
HETATM   19  C4  UNL     1      -3.080   1.400  -1.031  1.00  0.00     0.126 A 
ATOM     20  H3  UNL     1      -2.062  -0.295  -1.479  1.00  0.00     0.186 HD
HETATM   21  C3  UNL     1      -2.941   2.747  -0.789  1.00  0.00     0.105 A 
HETATM   22  C2  UNL     1      -1.680   3.356  -0.824  1.00  0.00     0.160 A 
HETATM   23  N8  UNL     1      -0.636   2.577  -1.100  1.00  0.00    -0.171 N 
ATOM     24  H8  UNL     1       0.287   3.011  -1.127  1.00  0.00     0.186 HD
BRANCH  19  25
HETATM   25  N1  UNL     1      -4.363   0.774  -1.006  1.00  0.00    -0.328 N 
ATOM     26  H1  UNL     1      -5.047   1.027  -1.719  1.00  0.00     0.169 HD
BRANCH  25  27
HETATM   27  C5  UNL     1      -4.686  -0.090  -0.125  1.00  0.00     0.106 A 
HETATM   28  C6  UNL     1      -3.854  -0.514   0.883  1.00  0.00     0.049 A 
HETATM   29  C7  UNL     1      -4.298  -1.456   1.781  1.00  0.00     0.021 A 
HETATM   30  C8  UNL     1      -5.566  -1.951   1.644  1.00  0.00     0.063 A 
HETATM   31  C10 UNL     1      -6.377  -1.508   0.624  1.00  0.00     0.106 A 
HETATM   32  N2  UNL     1      -5.951  -0.595  -0.247  1.00  0.00    -0.351 N 
ATOM     33  H2  UNL     1      -6.563  -0.275  -0.998  1.00  0.00     0.166 HD
BRANCH  30  34
HETATM   34  C9  UNL     1      -6.101  -2.980   2.596  1.00  0.00     0.418 C 
HETATM   35  F1  UNL     1      -7.368  -3.371   2.257  1.00  0.00    -0.166 F 
HETATM   36  F2  UNL     1      -5.307  -4.102   2.599  1.00  0.00    -0.166 F 
HETATM   37  F3  UNL     1      -6.153  -2.410   3.858  1.00  0.00    -0.166 F 
ENDBRANCH  30  34
ENDBRANCH  25  27
ENDBRANCH  19  25
BRANCH  22  38
HETATM   38  O1  UNL     1      -1.622   4.678  -0.579  1.00  0.00    -0.340 OA
HETATM   39  C1  UNL     1      -0.586   5.584  -0.516  1.00  0.00     0.211 C 
ENDBRANCH  22  38
ENDBRANCH  15  17
ENDBRANCH  14  15
ENDBRANCH  13  14
ENDBRANCH  12  13
ENDBRANCH  10  12
ENDBRANCH   1  10
TORSDOF 10
