REMARK  10 active torsions:
REMARK  status: ('A' for Active; 'I' for Inactive)
REMARK    1  A    between atoms: C2_2  and  N1_3 
REMARK    2  A    between atoms: N1_3  and  C3_5 
REMARK    3  A    between atoms: C4_8  and  C5_9 
REMARK    4  A    between atoms: C9_13  and  C10_14 
REMARK    5  A    between atoms: C12_21  and  N4_22 
REMARK    6  A    between atoms: N4_22  and  C13_24 
REMARK    7  A    between atoms: C15_26  and  N5_27 
REMARK    8  A    between atoms: N5_27  and  C16_29 
REMARK    9  A    between atoms: C16_29  and  C17_30 
REMARK   10  A    between atoms: C17_30  and  N6_31 
ROOT
HETATM    1  C3  UNL     1      -2.427   1.749  -0.066  1.00  0.00     0.694 A 
HETATM    2  N2  UNL     1      -3.333   0.766  -0.339  1.00  0.00    -0.175 N 
ATOM      3  H2  UNL     1      -4.300   1.028  -0.532  1.00  0.00     0.186 HD
HETATM    4  C4  UNL     1      -2.996  -0.545  -0.363  1.00  0.00     0.146 A 
HETATM    5  N3  UNL     1      -1.722  -0.813  -0.103  1.00  0.00    -0.174 N 
ATOM      6  H3  UNL     1      -1.437  -1.792  -0.111  1.00  0.00     0.186 HD
HETATM    7  C12 UNL     1      -0.773   0.109   0.172  1.00  0.00     0.700 A 
HETATM    8  N9  UNL     1      -1.136   1.417   0.186  1.00  0.00    -0.022 N 
ATOM      9  H9  UNL     1      -0.446   2.142   0.384  1.00  0.00     0.203 HD
ENDROOT
BRANCH   7  10
HETATM   10  N4  UNL     1       0.431  -0.244   0.356  1.00  0.00    -0.176 N 
ATOM     11  H4  UNL     1       0.623  -1.243   0.287  1.00  0.00     0.186 HD
BRANCH  10  12
HETATM   12  C13 UNL     1       1.521   0.573   0.641  1.00  0.00     0.125 A 
HETATM   13  C14 UNL     1       2.649   0.721  -0.183  1.00  0.00     0.097 A 
HETATM   14  C15 UNL     1       3.700   1.526   0.134  1.00  0.00     0.109 A 
HETATM   15  N7  UNL     1       3.571   2.191   1.333  1.00  0.00    -0.338 N 
HETATM   16  C20 UNL     1       2.504   2.051   2.115  1.00  0.00     0.183 A 
ATOM     17  H7  UNL     1       4.321   2.814   1.632  1.00  0.00     0.168 HD
HETATM   18  N8  UNL     1       1.446   1.262   1.828  1.00  0.00    -0.338 N 
ATOM     19  H8  UNL     1       0.643   1.183   2.452  1.00  0.00     0.168 HD
BRANCH  14  20
HETATM   20  N5  UNL     1       4.763   1.611  -0.527  1.00  0.00    -0.351 N 
ATOM     21  H5  UNL     1       5.438   2.269  -0.139  1.00  0.00     0.166 HD
BRANCH  20  22
HETATM   22  C16 UNL     1       5.196   0.981  -1.685  1.00  0.00     0.106 C 
BRANCH  22  23
HETATM   23  C17 UNL     1       6.663   0.550  -1.638  1.00  0.00     0.101 C 
BRANCH  23  24
HETATM   24  N6  UNL     1       6.936  -0.397  -0.631  1.00  0.00    -0.397 N 
HETATM   25  C18 UNL     1       6.870   0.006   0.731  1.00  0.00     0.148 C 
HETATM   26  C19 UNL     1       6.587  -1.746  -0.916  1.00  0.00     0.148 C 
ENDBRANCH  23  24
ENDBRANCH  22  23
ENDBRANCH  20  22
ENDBRANCH  14  20
ENDBRANCH  10  12
ENDBRANCH   7  10
BRANCH   4  27
HETATM   27  C5  UNL     1      -3.965  -1.599  -0.554  1.00  0.00     0.010 A 
HETATM   28  C6  UNL     1      -4.697  -1.769  -1.727  1.00  0.00     0.015 A 
HETATM   29  C7  UNL     1      -5.672  -2.728  -1.896  1.00  0.00     0.002 A 
HETATM   30  C8  UNL     1      -5.955  -3.588  -0.822  1.00  0.00     0.016 A 
HETATM   31  C9  UNL     1      -5.261  -3.441   0.354  1.00  0.00     0.048 A 
HETATM   32  C11 UNL     1      -4.295  -2.486   0.495  1.00  0.00     0.031 A 
BRANCH  31  33
HETATM   33  C10 UNL     1      -5.609  -4.366   1.482  1.00  0.00     0.417 C 
HETATM   34  F1  UNL     1      -5.117  -5.621   1.222  1.00  0.00    -0.166 F 
HETATM   35  F2  UNL     1      -5.185  -3.887   2.672  1.00  0.00    -0.166 F 
HETATM   36  F3  UNL     1      -7.014  -4.481   1.428  1.00  0.00    -0.166 F 
ENDBRANCH  31  33
ENDBRANCH   4  27
BRANCH   1  37
HETATM   37  N1  UNL     1      -2.741   2.976   0.064  1.00  0.00    -0.226 N 
ATOM     38  H1  UNL     1      -2.057   3.705   0.266  1.00  0.00     0.177 HD
BRANCH  37  39
HETATM   39  C2  UNL     1      -4.185   3.252  -0.103  1.00  0.00     0.133 C 
HETATM   40  C1  UNL     1      -4.519   4.689  -0.113  1.00  0.00     0.027 C 
ENDBRANCH  37  39
ENDBRANCH   1  37
TORSDOF 10
