REMARK  1 active torsions:
REMARK  status: ('A' for Active; 'I' for Inactive)
REMARK    1  A    between atoms: C3_4  and  C4_5 
ROOT
HETATM    1  C4  UNL     1       0.556   0.133   0.231  1.00  0.00    -0.012 C 
HETATM    2  C5  UNL     1       0.099  -1.321   0.365  1.00  0.00     0.017 C 
HETATM    3  C6  UNL     1      -1.378  -1.421   0.106  1.00  0.00    -0.013 C 
HETATM    4  C7  UNL     1      -1.661  -0.945  -1.289  1.00  0.00     0.009 C 
HETATM    5  C8  UNL     1      -1.214   0.488  -1.399  1.00  0.00    -0.013 C 
HETATM    6  C9  UNL     1      -1.914   1.386  -0.429  1.00  0.00     0.009 C 
HETATM    7  C10 UNL     1      -1.679   0.885   0.980  1.00  0.00    -0.013 C 
HETATM    8  C11 UNL     1      -2.078  -0.562   1.142  1.00  0.00     0.009 C 
HETATM    9  C12 UNL     1      -0.189   0.990   1.240  1.00  0.00     0.017 C 
HETATM   10  C13 UNL     1       0.281   0.573  -1.165  1.00  0.00     0.017 C 
ENDROOT
BRANCH   1  11
HETATM   11  C3  UNL     1       2.011   0.165   0.606  1.00  0.00     0.145 C 
HETATM   12  C2  UNL     1       2.925  -0.670  -0.220  1.00  0.00     0.110 C 
HETATM   13  C1  UNL     1       3.798   0.523  -0.089  1.00  0.00     0.115 C 
HETATM   14  S1  UNL     1       5.378   0.844  -0.281  1.00  0.00    -0.058 SA
HETATM   15  O1  UNL     1       2.720   1.316   0.277  1.00  0.00    -0.337 OA
ENDBRANCH   1  11
TORSDOF 1
