REMARK  9 active torsions:
REMARK  status: ('A' for Active; 'I' for Inactive)
REMARK    1  A    between atoms: O1_2  and  C2_3 
REMARK    2  A    between atoms: C15_17  and  O3_18 
REMARK    3  A    between atoms: O3_18  and  C16_19 
REMARK    4  A    between atoms: C16_19  and  C17_20 
REMARK    5  A    between atoms: C17_20  and  O4_21 
REMARK    6  A    between atoms: C18_23  and  O5_24 
REMARK    7  A    between atoms: C18_23  and  C19_26 
REMARK    8  A    between atoms: C19_26  and  N1_27 
REMARK    9  A    between atoms: N1_27  and  C20_29 
ROOT
HETATM    1  C2  UNL     1       4.814   0.141   0.346  1.00  0.00     0.198 A 
HETATM    2  C3  UNL     1       4.686   0.790  -0.992  1.00  0.00     0.156 A 
HETATM    3  O2  UNL     1       5.278   1.768  -1.344  1.00  0.00    -0.295 OA
HETATM    4  C4  UNL     1       3.699   0.022  -1.822  1.00  0.00     0.087 A 
HETATM    5  C5  UNL     1       3.138  -1.047  -0.950  1.00  0.00     0.008 A 
HETATM    6  C6  UNL     1       1.635  -0.935  -0.753  1.00  0.00    -0.001 C 
HETATM    7  C7  UNL     1       0.893  -0.967  -2.041  1.00  0.00     0.033 C 
HETATM    8  C8  UNL     1      -0.554  -0.883  -1.737  1.00  0.00    -0.020 C 
HETATM    9  C9  UNL     1      -1.023  -0.006  -0.840  1.00  0.00    -0.037 C 
HETATM   10  C10 UNL     1      -0.061   0.861  -0.170  1.00  0.00    -0.014 C 
HETATM   11  C11 UNL     1       0.037   2.128  -1.041  1.00  0.00     0.020 C 
HETATM   12  C12 UNL     1      -0.558   1.195   1.207  1.00  0.00     0.014 C 
HETATM   13  C13 UNL     1      -1.673   2.172   1.286  1.00  0.00     0.004 C 
HETATM   14  C14 UNL     1      -2.849   1.937   0.422  1.00  0.00     0.035 C 
HETATM   15  C15 UNL     1      -3.248   0.490   0.249  1.00  0.00     0.162 C 
HETATM   16  C18 UNL     1      -2.510  -0.207  -0.844  1.00  0.00     0.123 C 
HETATM   17  C21 UNL     1       1.324   0.323  -0.020  1.00  0.00     0.003 C 
HETATM   18  C22 UNL     1       1.775   0.108   1.409  1.00  0.00     0.007 C 
HETATM   19  C23 UNL     1       2.880  -0.916   1.536  1.00  0.00     0.013 C 
HETATM   20  C24 UNL     1       3.811  -0.976   0.383  1.00  0.00    -0.006 A 
HETATM   21  C25 UNL     1       4.619  -2.276   0.535  1.00  0.00     0.018 C 
ENDROOT
BRANCH  16  22
HETATM   22  O5  UNL     1      -2.671  -1.570  -0.687  1.00  0.00    -0.381 OA
ATOM     23  H5  UNL     1      -3.612  -1.697  -0.690  1.00  0.00     0.211 HD
ENDBRANCH  16  22
BRANCH  16  24
HETATM   24  C19 UNL     1      -3.053   0.219  -2.191  1.00  0.00     0.167 C 
BRANCH  24  25
HETATM   25  N1  UNL     1      -4.420  -0.029  -2.460  1.00  0.00    -0.365 N 
ATOM     26  H1  UNL     1      -4.989   0.807  -2.593  1.00  0.00     0.161 HD
BRANCH  25  27
HETATM   27  C20 UNL     1      -5.117  -1.239  -2.573  1.00  0.00     0.348 C 
HETATM   28  O6  UNL     1      -4.590  -2.349  -2.452  1.00  0.00    -0.284 OA
ENDBRANCH  25  27
ENDBRANCH  24  25
ENDBRANCH  16  24
BRANCH  15  29
HETATM   29  O3  UNL     1      -3.233  -0.119   1.478  1.00  0.00    -0.380 OA
BRANCH  29  30
HETATM   30  C16 UNL     1      -4.407  -0.445   2.060  1.00  0.00     0.194 C 
BRANCH  30  31
HETATM   31  C17 UNL     1      -5.320  -1.378   1.345  1.00  0.00     0.190 C 
BRANCH  31  32
HETATM   32  O4  UNL     1      -6.450  -1.532   2.193  1.00  0.00    -0.399 OA
ATOM     33  H4  UNL     1      -7.033  -2.128   1.737  1.00  0.00     0.209 HD
ENDBRANCH  31  32
ENDBRANCH  30  31
ENDBRANCH  29  30
ENDBRANCH  15  29
BRANCH   1  34
HETATM   34  O1  UNL     1       4.634   1.057   1.378  1.00  0.00    -0.382 OA
HETATM   35  C1  UNL     1       5.814   1.225   2.134  1.00  0.00     0.202 C 
ENDBRANCH   1  34
TORSDOF 9
