REMARK  8 active torsions:
REMARK  status: ('A' for Active; 'I' for Inactive)
REMARK    1  A    between atoms: C4_4  and  S1_5 
REMARK    2  A    between atoms: S1_5  and  N1_6 
REMARK    3  A    between atoms: N1_6  and  C5_8 
REMARK    4  A    between atoms: C6_11  and  C7_12 
REMARK    5  A    between atoms: C11_16  and  C12_17 
REMARK    6  A    between atoms: C12_17  and  N3_18 
REMARK    7  A    between atoms: N4_20  and  N5_22 
REMARK    8  A    between atoms: N6_25  and  O1_27 
ROOT
HETATM    1  C1  UNL     1       5.650  -1.936  -1.466  1.00  0.00     0.050 C 
HETATM    2  C2  UNL     1       5.443  -0.823  -0.510  1.00  0.00    -0.038 A 
HETATM    3  C3  UNL     1       4.474  -0.916   0.499  1.00  0.00     0.030 A 
HETATM    4  C4  UNL     1       4.253   0.080   1.387  1.00  0.00     0.045 A 
HETATM    5  C14 UNL     1       5.009   1.230   1.305  1.00  0.00     0.075 A 
HETATM    6 CL2  UNL     1       4.706   2.531   2.457  1.00  0.00    -0.081 Cl
HETATM    7  C15 UNL     1       5.960   1.342   0.330  1.00  0.00     0.078 A 
HETATM    8 CL3  UNL     1       6.924   2.817   0.207  1.00  0.00    -0.081 Cl
HETATM    9  C16 UNL     1       6.201   0.336  -0.591  1.00  0.00     0.074 A 
HETATM   10  C17 UNL     1       7.193   0.474  -1.615  1.00  0.00     0.102 C 
HETATM   11  N7  UNL     1       7.980   0.598  -2.451  1.00  0.00    -0.191 NA
ENDROOT
BRANCH   4  12
HETATM   12  S1  UNL     1       2.936  -0.011   2.605  1.00  0.00    -0.011 SA
BRANCH  12  13
HETATM   13  N1  UNL     1       1.653   1.069   2.019  1.00  0.00    -0.306 N 
ATOM     14  H1  UNL     1       1.732   2.081   2.123  1.00  0.00     0.176 HD
BRANCH  13  15
HETATM   15  C5  UNL     1       0.605   0.532   1.450  1.00  0.00     0.156 A 
HETATM   16  N2  UNL     1      -0.460   1.163   0.943  1.00  0.00    -0.338 N 
HETATM   17  C6  UNL     1      -1.426   0.466   0.413  1.00  0.00     0.037 A 
ATOM     18  H2  UNL     1      -0.516   2.181   0.971  1.00  0.00     0.168 HD
HETATM   19  C11 UNL     1      -1.255  -0.931   0.429  1.00  0.00     0.078 A 
HETATM   20  S2  UNL     1       0.253  -1.109   1.187  1.00  0.00    -0.048 SA
BRANCH  17  21
HETATM   21  C7  UNL     1      -2.745   1.032  -0.069  1.00  0.00     0.041 A 
HETATM   22  C8  UNL     1      -3.008   1.782  -1.290  1.00  0.00     0.016 A 
HETATM   23  C9  UNL     1      -2.638   2.581  -0.140  1.00  0.00    -0.008 A 
HETATM   24  C10 UNL     1      -3.566   3.385   0.699  1.00  0.00     0.011 C 
ENDBRANCH  17  21
BRANCH  19  25
HETATM   25  C12 UNL     1      -2.122  -1.976  -0.149  1.00  0.00     0.160 C 
HETATM   26  N6  UNL     1      -1.522  -2.988  -0.631  1.00  0.00    -0.251 N 
ATOM     27  H6  UNL     1      -0.508  -2.925  -0.543  1.00  0.00     0.196 HD
BRANCH  25  28
HETATM   28  N3  UNL     1      -3.524  -1.899  -0.192  1.00  0.00    -0.268 N 
HETATM   29  N4  UNL     1      -4.289  -2.579   0.572  1.00  0.00    -0.229 N 
ATOM     30  H4  UNL     1      -3.922  -3.226   1.270  1.00  0.00     0.209 HD
ATOM     31  H3  UNL     1      -3.953  -1.267  -0.868  1.00  0.00     0.190 HD
BRANCH  29  32
HETATM   32  N5  UNL     1      -5.672  -2.379   0.389  1.00  0.00    -0.223 N 
HETATM   33  C13 UNL     1      -6.148  -1.025   0.311  1.00  0.00     0.195 C 
HETATM   34 CL1  UNL     1      -6.796  -3.701   0.272  1.00  0.00     0.031 Cl
ENDBRANCH  29  32
ENDBRANCH  25  28
BRANCH  26  35
HETATM   35  O1  UNL     1      -1.915  -4.100  -1.218  1.00  0.00    -0.288 OA
ATOM     36  H1  UNL     1      -1.467  -4.856  -1.578  1.00  0.00     0.244 HD
ENDBRANCH  26  35
ENDBRANCH  19  25
ENDBRANCH  13  15
ENDBRANCH  12  13
ENDBRANCH   4  12
TORSDOF 8
