REMARK  6 active torsions:
REMARK  status: ('A' for Active; 'I' for Inactive)
REMARK    1  A    between atoms: C1_2  and  C2_3 
REMARK    2  A    between atoms: C4_5  and  C5_6 
REMARK    3  A    between atoms: C5_6  and  N1_7 
REMARK    4  A    between atoms: N1_7  and  C6_9 
REMARK    5  A    between atoms: C6_9  and  N2_11 
REMARK    6  A    between atoms: N2_11  and  C7_13 
ROOT
HETATM    1  N1  UNL     1       0.296   1.269   0.329  1.00  0.00    -0.367 N 
ATOM      2  H1  UNL     1       1.127   1.861   0.331  1.00  0.00     0.161 HD
ENDROOT
BRANCH   1   3
HETATM    3  C5  UNL     1       0.514  -0.122   0.629  1.00  0.00     0.127 C 
BRANCH   3   4
HETATM    4  C4  UNL     1       2.010  -0.421   0.753  1.00  0.00     0.015 A 
HETATM    5  C2  UNL     1       2.890  -0.159  -0.431  1.00  0.00     0.053 A 
HETATM    6  C3  UNL     1       2.486  -1.545  -0.177  1.00  0.00     0.019 A 
BRANCH   5   7
HETATM    7  C1  UNL     1       4.316   0.174  -0.228  1.00  0.00     0.236 C 
HETATM    8  O1  UNL     1       5.003  -0.419   0.574  1.00  0.00    -0.306 OA
ENDBRANCH   5   7
ENDBRANCH   3   4
ENDBRANCH   1   3
BRANCH   1   9
HETATM    9  C6  UNL     1      -0.898   1.904   0.038  1.00  0.00     0.167 C 
HETATM   10  S1  UNL     1      -0.835   3.544  -0.253  1.00  0.00    -0.041 SA
BRANCH   9  11
HETATM   11  N2  UNL     1      -2.154   1.310  -0.036  1.00  0.00    -0.363 N 
ATOM     12  H2  UNL     1      -2.924   1.939  -0.262  1.00  0.00     0.162 HD
BRANCH  11  13
HETATM   13  C7  UNL     1      -2.518  -0.066   0.162  1.00  0.00     0.084 A 
HETATM   14  C8  UNL     1      -4.020  -0.368  -0.106  1.00  0.00     0.027 A 
HETATM   15  C9  UNL     1      -2.956  -0.961  -0.920  1.00  0.00     0.027 A 
ENDBRANCH  11  13
ENDBRANCH   9  11
ENDBRANCH   1   9
TORSDOF 6
