REMARK  10 active torsions:
REMARK  status: ('A' for Active; 'I' for Inactive)
REMARK    1  A    between atoms: C2_2  and  S1_3 
REMARK    2  A    between atoms: C2_2  and  C12_19 
REMARK    3  A    between atoms: S1_3  and  C3_4 
REMARK    4  A    between atoms: C3_4  and  O1_5 
REMARK    5  A    between atoms: C3_4  and  N1_7 
REMARK    6  A    between atoms: N2_10  and  S2_11 
REMARK    7  A    between atoms: S2_11  and  C6_13 
REMARK       I    between atoms: C12_19  and  N3_21 
REMARK    8  A    between atoms: N3_21  and  C13_23 
REMARK    9  A    between atoms: C15_25  and  N4_26 
REMARK   10  A    between atoms: C18_34  and  N7_35 
ROOT
HETATM    1  C12 UNL     1       2.133  -0.444  -0.217  1.00  0.00     0.236 C 
HETATM    2  O3  UNL     1       2.458   0.700   0.153  1.00  0.00    -0.272 OA
HETATM    3  N3  UNL     1       3.071  -1.351  -0.709  1.00  0.00    -0.323 N 
ATOM      4  H3  UNL     1       2.692  -2.258  -0.979  1.00  0.00     0.169 HD
ENDROOT
BRANCH   3   5
HETATM    5  C13 UNL     1       4.463  -1.209  -0.891  1.00  0.00     0.079 A 
HETATM    6  C14 UNL     1       5.186  -0.073  -0.603  1.00  0.00     0.071 A 
HETATM    7  C15 UNL     1       6.540  -0.035  -0.818  1.00  0.00     0.144 A 
HETATM    8  C19 UNL     1       7.190  -1.122  -1.320  1.00  0.00     0.276 A 
HETATM    9  O5  UNL     1       8.450  -1.088  -1.520  1.00  0.00    -0.266 OA
HETATM   10  N8  UNL     1       6.472  -2.203  -1.589  1.00  0.00    -0.308 N 
HETATM   11  C20 UNL     1       5.155  -2.304  -1.403  1.00  0.00     0.146 A 
ATOM     12  H8  UNL     1       6.961  -3.015  -1.965  1.00  0.00     0.170 HD
HETATM   13  N9  UNL     1       4.463  -3.526  -1.725  1.00  0.00    -0.080 NA
BRANCH   7  14
HETATM   14  N4  UNL     1       7.273   1.158  -0.512  1.00  0.00    -0.081 N 
HETATM   15  N5  UNL     1       7.430   2.108  -1.424  1.00  0.00    -0.285 N 
HETATM   16  C16 UNL     1       8.118   3.224  -1.134  1.00  0.00     0.183 A 
ATOM     17  H5  UNL     1       7.025   1.990  -2.353  1.00  0.00     0.187 HD
HETATM   18  C17 UNL     1       8.661   3.371   0.124  1.00  0.00     0.276 A 
HETATM   19  O4  UNL     1       9.303   4.405   0.402  1.00  0.00    -0.266 OA
HETATM   20  N6  UNL     1       8.503   2.408   1.048  1.00  0.00    -0.153 N 
HETATM   21  C18 UNL     1       7.798   1.292   0.717  1.00  0.00     0.700 A 
ATOM     22  H6  UNL     1       8.904   2.512   1.980  1.00  0.00     0.187 HD
BRANCH  21  23
HETATM   23  N7  UNL     1       7.639   0.358   1.603  1.00  0.00    -0.233 N 
ATOM     24  H72 UNL     1       7.111  -0.478   1.355  1.00  0.00     0.174 HD
ATOM     25  H71 UNL     1       8.038   0.460   2.536  1.00  0.00     0.174 HD
ENDBRANCH  21  23
ENDBRANCH   7  14
ENDBRANCH   3   5
BRANCH   1  26
HETATM   26  C2  UNL     1       0.669  -0.796  -0.103  1.00  0.00     0.144 C 
HETATM   27  C1  UNL     1       0.574  -2.021   0.803  1.00  0.00     0.032 C 
BRANCH  26  28
HETATM   28  S1  UNL     1      -0.018  -1.242  -1.681  1.00  0.00    -0.073 SA
BRANCH  28  29
HETATM   29  C3  UNL     1      -1.745  -1.492  -1.678  1.00  0.00     0.178 C 
BRANCH  29  30
HETATM   30  O1  UNL     1      -2.177  -2.170  -2.722  1.00  0.00    -0.341 OA
ATOM     31  H1  UNL     1      -3.117  -2.306  -2.720  1.00  0.00     0.220 HD
ENDBRANCH  29  30
BRANCH  29  32
HETATM   32  N1  UNL     1      -2.718  -1.100  -0.761  1.00  0.00    -0.353 N 
HETATM   33  C4  UNL     1      -4.107  -1.549  -1.004  1.00  0.00     0.146 C 
HETATM   34  C5  UNL     1      -4.915  -0.314  -1.309  1.00  0.00     0.152 C 
HETATM   35  N2  UNL     1      -4.685   0.667  -0.299  1.00  0.00    -0.328 N 
HETATM   36  C10 UNL     1      -3.963   0.251   0.837  1.00  0.00     0.152 C 
HETATM   37  C11 UNL     1      -2.560  -0.266   0.382  1.00  0.00     0.146 C 
BRANCH  35  38
HETATM   38  S2  UNL     1      -5.845   1.872  -0.114  1.00  0.00     0.120 S 
HETATM   39  O2  UNL     1      -5.181   3.342   0.358  1.00  0.00    -0.235 OA
BRANCH  38  40
HETATM   40  C6  UNL     1      -7.236   1.418   0.850  1.00  0.00     0.046 C 
HETATM   41  C7  UNL     1      -6.895   1.017   2.268  1.00  0.00     0.030 C 
HETATM   42  C8  UNL     1      -8.207   2.591   0.952  1.00  0.00     0.030 C 
HETATM   43  C9  UNL     1      -7.965   0.287   0.191  1.00  0.00     0.030 C 
ENDBRANCH  38  40
ENDBRANCH  35  38
ENDBRANCH  29  32
ENDBRANCH  28  29
ENDBRANCH  26  28
ENDBRANCH   1  26
TORSDOF 10
