REMARK  13 active torsions:
REMARK  status: ('A' for Active; 'I' for Inactive)
REMARK    1  A    between atoms: C4_5  and  C5_6 
REMARK    2  A    between atoms: C5_6  and  C6_7 
REMARK    3  A    between atoms: C6_7  and  C7_8 
REMARK    4  A    between atoms: C7_8  and  C8_9 
REMARK    5  A    between atoms: C9_11  and  N2_12 
REMARK    6  A    between atoms: C12_17  and  N4_18 
REMARK    7  A    between atoms: C18_31  and  O3_32 
REMARK    8  A    between atoms: C19_34  and  C20_35 
REMARK    9  A    between atoms: C20_35  and  C21_36 
REMARK   10  A    between atoms: C21_36  and  N7_37 
REMARK   11  A    between atoms: C21_36  and  C22_41 
REMARK   12  A    between atoms: C22_41  and  O4_42 
REMARK   13  A    between atoms: C22_41  and  O5_44 
ROOT
HETATM    1  C8  UNL     1       0.970   0.991  -2.999  1.00  0.00     0.142 C 
HETATM    2  O1  UNL     1       1.829   1.917  -2.382  1.00  0.00    -0.357 OA
HETATM    3  C9  UNL     1       1.015   2.779  -1.632  1.00  0.00     0.260 C 
HETATM    4  C15 UNL     1      -0.335   2.177  -1.540  1.00  0.00     0.185 C 
HETATM    5  O2  UNL     1      -0.933   2.129  -0.288  1.00  0.00    -0.340 OA
HETATM    6  C16 UNL     1      -1.995   1.234  -0.149  1.00  0.00     0.078 A 
HETATM    7  C17 UNL     1      -2.868   1.290   0.897  1.00  0.00     0.074 A 
HETATM    8  C18 UNL     1      -3.939   0.400   1.052  1.00  0.00     0.074 A 
HETATM    9  C19 UNL     1      -4.124  -0.579   0.110  1.00  0.00    -0.022 A 
HETATM   10  C23 UNL     1      -3.241  -0.658  -0.973  1.00  0.00     0.020 A 
HETATM   11  C24 UNL     1      -2.197   0.239  -1.092  1.00  0.00    -0.024 A 
HETATM   12  C25 UNL     1      -1.291   0.084  -2.289  1.00  0.00     0.051 C 
HETATM   13  C26 UNL     1      -0.005   0.716  -1.908  1.00  0.00     0.054 C 
ENDROOT
BRANCH   3  14
HETATM   14  N2  UNL     1       1.594   3.143  -0.374  1.00  0.00    -0.297 N 
HETATM   15  C10 UNL     1       1.873   2.367   0.687  1.00  0.00     0.188 A 
HETATM   16  N3  UNL     1       2.416   3.087   1.683  1.00  0.00    -0.346 N 
HETATM   17  C11 UNL     1       2.500   4.351   1.285  1.00  0.00     0.122 A 
ATOM     18  H3  UNL     1       2.713   2.725   2.589  1.00  0.00     0.167 HD
HETATM   19  C12 UNL     1       2.971   5.506   1.897  1.00  0.00     0.131 A 
HETATM   20  C14 UNL     1       1.990   4.388   0.006  1.00  0.00     0.142 A 
HETATM   21  N5  UNL     1       2.916   6.658   1.208  1.00  0.00    -0.337 N 
HETATM   22  C13 UNL     1       2.420   6.704  -0.041  1.00  0.00     0.183 A 
ATOM     23  H5  UNL     1       3.258   7.516   1.641  1.00  0.00     0.168 HD
HETATM   24  N6  UNL     1       1.966   5.582  -0.625  1.00  0.00    -0.336 N 
ATOM     25  H6  UNL     1       1.592   5.634  -1.573  1.00  0.00     0.168 HD
BRANCH  19  26
HETATM   26  N4  UNL     1       3.444   5.446   3.094  1.00  0.00    -0.383 N 
ATOM     27  H42 UNL     1       3.486   4.571   3.617  1.00  0.00     0.157 HD
ATOM     28  H41 UNL     1       3.790   6.294   3.543  1.00  0.00     0.157 HD
ENDBRANCH  19  26
ENDBRANCH   3  14
BRANCH   1  29
HETATM   29  C7  UNL     1       1.679  -0.195  -3.520  1.00  0.00     0.127 C 
BRANCH  29  30
HETATM   30  C6  UNL     1       2.347  -0.861  -2.399  1.00  0.00    -0.097 C 
BRANCH  30  31
HETATM   31  C5  UNL     1       2.904  -1.428  -1.487  1.00  0.00    -0.049 C 
BRANCH  31  32
HETATM   32  C4  UNL     1       3.575  -2.117  -0.420  1.00  0.00     0.088 A 
HETATM   33  C3  UNL     1       2.918  -2.635   0.678  1.00  0.00     0.056 A 
HETATM   34  C2  UNL     1       3.590  -3.297   1.693  1.00  0.00     0.094 A 
HETATM   35  N1  UNL     1       4.923  -3.453   1.630  1.00  0.00    -0.357 N 
HETATM   36  C1  UNL     1       5.658  -4.151   2.693  1.00  0.00     0.156 C 
HETATM   37  C27 UNL     1       5.565  -2.949   0.560  1.00  0.00     0.183 A 
HETATM   38  N8  UNL     1       4.922  -2.304  -0.432  1.00  0.00    -0.345 N 
ATOM     39  H8  UNL     1       5.463  -1.944  -1.218  1.00  0.00     0.167 HD
ENDBRANCH  31  32
ENDBRANCH  30  31
ENDBRANCH  29  30
ENDBRANCH   1  29
BRANCH   8  40
HETATM   40  O3  UNL     1      -4.798   0.497   2.127  1.00  0.00    -0.360 OA
ATOM     41  H3  UNL     1      -5.524  -0.106   2.232  1.00  0.00     0.217 HD
ENDBRANCH   8  40
BRANCH   9  42
HETATM   42  C20 UNL     1      -5.211  -1.553   0.220  1.00  0.00     0.079 C 
BRANCH  42  43
HETATM   43  C21 UNL     1      -4.976  -2.662   1.192  1.00  0.00     0.242 C 
BRANCH  43  44
HETATM   44  N7  UNL     1      -6.150  -3.546   1.188  1.00  0.00    -0.070 N 
ATOM     45  H73 UNL     1      -7.018  -3.043   1.371  1.00  0.00     0.274 HD
ATOM     46  H72 UNL     1      -6.379  -3.887   0.254  1.00  0.00     0.274 HD
ATOM     47  H71 UNL     1      -5.989  -4.304   1.852  1.00  0.00     0.274 HD
ENDBRANCH  43  44
BRANCH  43  48
HETATM   48  C22 UNL     1      -3.825  -3.571   0.732  1.00  0.00     0.284 C 
BRANCH  48  49
HETATM   49  O4  UNL     1      -3.684  -4.631   1.621  1.00  0.00    -0.369 OA
ATOM     50  H4  UNL     1      -2.973  -5.193   1.337  1.00  0.00     0.212 HD
ENDBRANCH  48  49
BRANCH  48  51
HETATM   51  O5  UNL     1      -4.060  -4.102  -0.521  1.00  0.00    -0.369 OA
ATOM     52  H5  UNL     1      -3.349  -4.664  -0.805  1.00  0.00     0.212 HD
ENDBRANCH  48  51
ENDBRANCH  43  48
ENDBRANCH  42  43
ENDBRANCH   9  42
TORSDOF 13
