REMARK  5 active torsions:
REMARK  status: ('A' for Active; 'I' for Inactive)
REMARK    1  A    between atoms: C1_2  and  C2_4 
REMARK    2  A    between atoms: C2_4  and  N1_5 
REMARK       I    between atoms: N1_5  and  C3_7 
REMARK       I    between atoms: C3_7  and  N2_9 
REMARK    3  A    between atoms: C7_13  and  C8_14 
REMARK    4  A    between atoms: C8_14  and  C9_15 
REMARK    5  A    between atoms: C9_15  and  C10_16 
ROOT
HETATM    1  N1  UNL     1       3.697   0.580   0.316  1.00  0.00    -0.333 N 
ATOM      2  H1  UNL     1       4.369  -0.167   0.493  1.00  0.00     0.164 HD
HETATM    3  C3  UNL     1       2.335   0.270   0.059  1.00  0.00     0.319 C 
HETATM    4  O3  UNL     1       1.547   1.221  -0.153  1.00  0.00    -0.247 OA
HETATM    5  N2  UNL     1       1.869  -1.069   0.040  1.00  0.00    -0.330 N 
HETATM    6  C4  UNL     1       2.693  -2.247   0.275  1.00  0.00     0.128 C 
HETATM    7  C5  UNL     1       1.760  -3.223   0.999  1.00  0.00     0.022 C 
HETATM    8  C6  UNL     1       0.404  -2.507   1.014  1.00  0.00     0.027 C 
HETATM    9  C7  UNL     1       0.564  -1.591  -0.195  1.00  0.00     0.089 C 
ENDROOT
BRANCH   9  10
HETATM   10  C8  UNL     1      -0.534  -0.595  -0.341  1.00  0.00     0.026 C 
BRANCH  10  11
HETATM   11  C9  UNL     1      -1.816  -1.381  -0.576  1.00  0.00     0.006 C 
BRANCH  11  12
HETATM   12  C10 UNL     1      -3.008  -0.482  -0.745  1.00  0.00    -0.014 C 
HETATM   13  C11 UNL     1      -2.894   0.459  -1.895  1.00  0.00     0.004 C 
HETATM   14  C12 UNL     1      -4.127   1.364  -1.863  1.00  0.00     0.000 C 
HETATM   15  C13 UNL     1      -4.079   2.245  -0.655  1.00  0.00     0.000 C 
HETATM   16  C14 UNL     1      -3.195   1.718   0.438  1.00  0.00     0.000 C 
HETATM   17  C15 UNL     1      -3.251   0.217   0.566  1.00  0.00     0.004 C 
ENDBRANCH  11  12
ENDBRANCH  10  11
ENDBRANCH   9  10
BRANCH   1  18
HETATM   18  C2  UNL     1       4.122   1.953   0.325  1.00  0.00     0.237 C 
BRANCH  18  19
HETATM   19  C1  UNL     1       5.561   2.021   0.611  1.00  0.00     0.191 C 
HETATM   20  O1  UNL     1       6.211   0.966   0.800  1.00  0.00    -0.647 OA
HETATM   21  O2  UNL     1       6.185   3.250   0.668  1.00  0.00    -0.647 OA
ENDBRANCH  18  19
ENDBRANCH   1  18
TORSDOF 5
