REMARK  4 active torsions:
REMARK  status: ('A' for Active; 'I' for Inactive)
REMARK    1  A    between atoms: N2_5  and  C3_6 
REMARK    2  A    between atoms: C3_6  and  C4_7 
REMARK    3  A    between atoms: C4_7  and  C5_8 
REMARK       I    between atoms: C5_8  and  N3_10 
REMARK    4  A    between atoms: N3_10  and  C6_12 
ROOT
HETATM    1  C3  UNL     1      -0.669   0.189   0.085  1.00  0.00     0.045 C 
HETATM    2  C9  UNL     1      -1.510   0.568  -0.861  1.00  0.00    -0.055 C 
HETATM    3  C10 UNL     1      -1.117   1.714  -1.772  1.00  0.00     0.036 C 
HETATM    4  C11 UNL     1      -2.090   1.839  -2.904  1.00  0.00     0.004 C 
HETATM    5  C12 UNL     1      -3.522   1.999  -2.442  1.00  0.00     0.001 C 
HETATM    6  C13 UNL     1      -3.872   1.093  -1.311  1.00  0.00     0.004 C 
HETATM    7  C14 UNL     1      -2.839  -0.007  -1.106  1.00  0.00     0.036 C 
ENDROOT
BRANCH   1   8
HETATM    8  N2  UNL     1      -1.030  -0.882   0.935  1.00  0.00    -0.263 N 
HETATM    9  N1  UNL     1      -1.253  -0.765   2.264  1.00  0.00    -0.297 N 
HETATM   10  C2  UNL     1      -1.573  -1.930   2.799  1.00  0.00     0.046 A 
ATOM     11  H1  UNL     1      -1.183   0.109   2.785  1.00  0.00     0.187 HD
HETATM   12  C1  UNL     1      -1.898  -2.270   4.220  1.00  0.00     0.071 C 
HETATM   13  C17 UNL     1      -1.569  -2.875   1.801  1.00  0.00     0.081 A 
HETATM   14  C15 UNL     1      -1.220  -2.168   0.639  1.00  0.00     0.054 A 
HETATM   15 CL1  UNL     1      -1.910  -4.589   1.883  1.00  0.00    -0.080 Cl
HETATM   16  C16 UNL     1      -1.103  -2.834  -0.689  1.00  0.00     0.072 C 
ENDBRANCH   1   8
BRANCH   1  17
HETATM   17  C4  UNL     1       0.586   0.901   0.283  1.00  0.00     0.162 C 
BRANCH  17  18
HETATM   18  C5  UNL     1       1.830   0.141   0.124  1.00  0.00     0.223 C 
HETATM   19  O1  UNL     1       1.934  -1.076  -0.162  1.00  0.00    -0.273 OA
HETATM   20  N3  UNL     1       3.060   0.834   0.308  1.00  0.00    -0.353 N 
ATOM     21  H3  UNL     1       3.023   1.826   0.542  1.00  0.00     0.163 HD
BRANCH  20  22
HETATM   22  C6  UNL     1       4.350   0.214   0.182  1.00  0.00     0.135 C 
HETATM   23  C7  UNL     1       5.359   0.953  -0.651  1.00  0.00     0.259 C 
HETATM   24  N4  UNL     1       5.940   1.469   0.575  1.00  0.00    -0.071 N 
HETATM   25  C8  UNL     1       5.217   0.529   1.382  1.00  0.00     0.259 C 
ATOM     26  H42 UNL     1       6.955   1.516   0.660  1.00  0.00     0.277 HD
ATOM     27  H41 UNL     1       5.857   2.465   0.781  1.00  0.00     0.277 HD
ENDBRANCH  20  22
ENDBRANCH  17  18
ENDBRANCH   1  17
TORSDOF 4
