REMARK  4 active torsions:
REMARK  status: ('A' for Active; 'I' for Inactive)
REMARK    1  A    between atoms: C1_2  and  C2_3 
REMARK       I    between atoms: C1_2  and  N2_12 
REMARK    2  A    between atoms: C2_3  and  N1_4 
REMARK    3  A    between atoms: N1_4  and  C3_6 
REMARK    4  A    between atoms: N2_12  and  C9_14 
ROOT
HETATM    1  O1  UNL     1      -0.266  -2.816  -1.882  1.00  0.00    -0.267 OA
HETATM    2  C1  UNL     1      -0.772  -2.217  -0.870  1.00  0.00     0.260 C 
HETATM    3  N2  UNL     1      -0.056  -1.269  -0.155  1.00  0.00    -0.322 N 
ATOM      4  H2  UNL     1      -0.523  -0.851   0.650  1.00  0.00     0.169 HD
ENDROOT
BRANCH   3   5
HETATM    5  C9  UNL     1       1.257  -0.825  -0.432  1.00  0.00     0.039 A 
HETATM    6  C10 UNL     1       1.938  -1.002  -1.608  1.00  0.00     0.056 A 
HETATM    7  C11 UNL     1       3.241  -0.561  -1.815  1.00  0.00     0.072 A 
HETATM    8 CL1  UNL     1       4.064  -0.812  -3.334  1.00  0.00    -0.081 Cl
HETATM    9  C12 UNL     1       3.872   0.080  -0.796  1.00  0.00     0.123 A 
HETATM   10  C13 UNL     1       3.247   0.301   0.436  1.00  0.00     0.105 A 
HETATM   11  O3  UNL     1       5.167   0.490  -1.076  1.00  0.00    -0.346 OA
HETATM   12  C14 UNL     1       1.974  -0.155   0.573  1.00  0.00     0.069 A 
HETATM   13  O2  UNL     1       3.741   0.937   1.585  1.00  0.00    -0.348 OA
HETATM   14  C15 UNL     1       5.111   1.099   1.877  1.00  0.00     0.178 C 
HETATM   15  C16 UNL     1       5.862   1.855   0.815  1.00  0.00     0.053 C 
HETATM   16  C17 UNL     1       6.236   1.012  -0.369  1.00  0.00     0.178 C 
ENDBRANCH   3   5
BRANCH   2  17
HETATM   17  C2  UNL     1      -2.146  -2.597  -0.511  1.00  0.00     0.158 C 
BRANCH  17  18
HETATM   18  N1  UNL     1      -2.695  -1.841   0.542  1.00  0.00    -0.390 N 
ATOM     19  H1  UNL     1      -2.808  -2.239   1.474  1.00  0.00     0.159 HD
BRANCH  18  20
HETATM   20  C3  UNL     1      -3.088  -0.498   0.260  1.00  0.00     0.081 C 
HETATM   21  C4  UNL     1      -4.217  -0.597  -0.777  1.00  0.00     0.025 C 
HETATM   22  C5  UNL     1      -5.092   0.628  -0.766  1.00  0.00     0.002 C 
HETATM   23  C6  UNL     1      -4.463   1.807  -0.082  1.00  0.00     0.000 C 
HETATM   24  C7  UNL     1      -4.100   1.514   1.356  1.00  0.00     0.002 C 
HETATM   25  C8  UNL     1      -3.768   0.048   1.524  1.00  0.00     0.025 C 
ENDBRANCH  18  20
ENDBRANCH  17  18
ENDBRANCH   2  17
TORSDOF 4
