REMARK  9 active torsions:
REMARK  status: ('A' for Active; 'I' for Inactive)
REMARK    1  A    between atoms: N1_2  and  C2_4 
REMARK    2  A    between atoms: C2_4  and  C3_5 
REMARK    3  A    between atoms: C2_4  and  C20_41 
REMARK       I    between atoms: C3_5  and  N2_7 
REMARK    4  A    between atoms: C6_11  and  O2_12 
REMARK    5  A    between atoms: C7_14  and  N3_15 
REMARK    6  A    between atoms: N4_20  and  O3_22 
REMARK    7  A    between atoms: C14_26  and  O5_27 
REMARK    8  A    between atoms: C17_33  and  N7_34 
REMARK    9  A    between atoms: C20_41  and  O6_44 
ROOT
HETATM    1  C3  UNL     1      -3.083   0.933  -1.088  1.00  0.00     0.247 C 
HETATM    2  O1  UNL     1      -2.990   0.793  -2.292  1.00  0.00    -0.271 OA
HETATM    3  N2  UNL     1      -2.275   0.206  -0.181  1.00  0.00    -0.325 N 
ATOM      4  H2  UNL     1      -2.396   0.513   0.784  1.00  0.00     0.168 HD
HETATM    5  C4  UNL     1      -1.387  -0.793  -0.297  1.00  0.00     0.060 C 
HETATM    6  C5  UNL     1       0.038  -0.904  -0.043  1.00  0.00     0.054 A 
HETATM    7  C6  UNL     1       1.151  -0.075   0.179  1.00  0.00     0.110 A 
HETATM    8  C7  UNL     1       2.357  -0.553   0.617  1.00  0.00     0.107 A 
HETATM    9  C14 UNL     1       2.476  -1.937   0.864  1.00  0.00     0.122 A 
HETATM   10  C15 UNL     1       1.400  -2.767   0.643  1.00  0.00     0.109 A 
HETATM   11  N5  UNL     1       1.548  -4.131   0.953  1.00  0.00    -0.097 NA
HETATM   12  C16 UNL     1       0.193  -2.287   0.185  1.00  0.00     0.075 A 
HETATM   13  N6  UNL     1      -0.929  -2.960  -0.409  1.00  0.00    -0.331 N 
HETATM   14  C17 UNL     1      -1.638  -4.142  -0.468  1.00  0.00     0.295 C 
HETATM   15  C18 UNL     1      -2.667  -4.174  -1.552  1.00  0.00     0.130 C 
HETATM   16  S1  UNL     1      -3.080  -2.424  -1.755  1.00  0.00    -0.134 SA
HETATM   17  C19 UNL     1      -1.452  -1.868  -1.335  1.00  0.00     0.200 C 
ENDROOT
BRANCH   1  18
HETATM   18  C2  UNL     1      -4.104   1.904  -0.502  1.00  0.00     0.203 C 
BRANCH  18  19
HETATM   19  N1  UNL     1      -3.531   2.821   0.357  1.00  0.00    -0.411 N 
HETATM   20  C1  UNL     1      -3.727   4.207   0.180  1.00  0.00     0.141 C 
ATOM     21  H1  UNL     1      -2.956   2.491   1.132  1.00  0.00     0.153 HD
ENDBRANCH  18  19
BRANCH  18  22
HETATM   22  C20 UNL     1      -5.300   1.180  -0.006  1.00  0.00     0.079 C 
HETATM   23  C21 UNL     1      -6.298   2.126   0.578  1.00  0.00     0.048 C 
HETATM   24  C22 UNL     1      -5.035   0.122   1.060  1.00  0.00     0.048 C 
BRANCH  22  25
HETATM   25  O6  UNL     1      -5.885   0.453  -1.097  1.00  0.00    -0.388 OA
ATOM     26  H6  UNL     1      -6.651  -0.011  -0.779  1.00  0.00     0.210 HD
ENDBRANCH  22  25
ENDBRANCH  18  22
ENDBRANCH   1  18
BRANCH   7  27
HETATM   27  O2  UNL     1       0.956   1.258  -0.082  1.00  0.00    -0.357 OA
ATOM     28  H2  UNL     1       1.708   1.818   0.068  1.00  0.00     0.217 HD
ENDBRANCH   7  27
BRANCH   8  29
HETATM   29  N3  UNL     1       3.563   0.165   0.679  1.00  0.00    -0.308 N 
HETATM   30  C8  UNL     1       4.788  -0.450   0.086  1.00  0.00     0.133 C 
HETATM   31  C9  UNL     1       5.378   0.437  -0.979  1.00  0.00     0.026 C 
HETATM   32  C10 UNL     1       5.643   1.819  -0.518  1.00  0.00     0.066 C 
HETATM   33  C11 UNL     1       4.814   2.255   0.613  1.00  0.00     0.100 C 
HETATM   34  N4  UNL     1       5.009   3.422   1.114  1.00  0.00    -0.266 N 
HETATM   35  C13 UNL     1       3.775   1.426   1.245  1.00  0.00     0.272 C 
ATOM     36  H4  UNL     1       4.449   3.756   1.898  1.00  0.00     0.194 HD
HETATM   37  O4  UNL     1       3.108   1.826   2.248  1.00  0.00    -0.266 OA
BRANCH  34  38
HETATM   38  O3  UNL     1       5.997   4.211   0.562  1.00  0.00    -0.285 OA
HETATM   39  C12 UNL     1       7.301   4.163   1.149  1.00  0.00     0.237 C 
ENDBRANCH  34  38
ENDBRANCH   8  29
BRANCH  14  40
HETATM   40  N7  UNL     1      -0.706  -5.247  -0.832  1.00  0.00    -0.057 N 
ATOM     41  H73 UNL     1      -0.195  -5.057  -1.694  1.00  0.00     0.276 HD
ATOM     42  H72 UNL     1       0.094  -5.304  -0.202  1.00  0.00     0.276 HD
ATOM     43  H71 UNL     1      -1.230  -6.121  -0.876  1.00  0.00     0.276 HD
ENDBRANCH  14  40
BRANCH   9  44
HETATM   44  O5  UNL     1       3.666  -2.446   1.335  1.00  0.00    -0.357 OA
ATOM     45  H5  UNL     1       3.746  -3.378   1.501  1.00  0.00     0.218 HD
ENDBRANCH   9  44
TORSDOF 9
