REMARK  3 active torsions:
REMARK  status: ('A' for Active; 'I' for Inactive)
REMARK    1  A    between atoms: C3_7  and  C4_8 
REMARK       I    between atoms: C4_8  and  N3_10 
REMARK    2  A    between atoms: C11_21  and  C12_22 
REMARK    3  A    between atoms: C15_31  and  N9_32 
ROOT
HETATM    1  C1  UNL     1      -2.395   3.953  -2.041  1.00  0.00     0.165 C 
HETATM    2  N1  UNL     1      -1.336   2.988  -1.840  1.00  0.00    -0.230 N 
ATOM      3  H1  UNL     1      -0.369   3.232  -2.053  1.00  0.00     0.177 HD
HETATM    4  C2  UNL     1      -1.634   1.798  -1.382  1.00  0.00     0.679 A 
HETATM    5  N2  UNL     1      -0.653   0.900  -1.194  1.00  0.00    -0.185 N 
ATOM      6  H2  UNL     1       0.316   1.139  -1.405  1.00  0.00     0.184 HD
HETATM    7  C3  UNL     1      -0.973  -0.338  -0.716  1.00  0.00     0.135 A 
HETATM    8  C11 UNL     1      -2.269  -0.682  -0.424  1.00  0.00     0.086 A 
HETATM    9  C15 UNL     1      -3.248   0.286  -0.637  1.00  0.00     0.131 A 
HETATM   10  N10 UNL     1      -2.902   1.509  -1.113  1.00  0.00    -0.176 N 
ATOM     11  H10 UNL     1      -3.623   2.214  -1.266  1.00  0.00     0.186 HD
ENDROOT
BRANCH   7  12
HETATM   12  C4  UNL     1       0.106  -1.285  -0.522  1.00  0.00     0.275 C 
HETATM   13  O1  UNL     1      -0.177  -2.435  -0.087  1.00  0.00    -0.266 OA
HETATM   14  N3  UNL     1       1.435  -0.960  -0.803  1.00  0.00    -0.306 N 
HETATM   15  C5  UNL     1       2.317  -0.392  -0.097  1.00  0.00     0.132 A 
ATOM     16  H3  UNL     1       1.747  -1.226  -1.737  1.00  0.00     0.170 HD
HETATM   17  C6  UNL     1       3.631  -0.138  -0.546  1.00  0.00     0.007 A 
HETATM   18  N5  UNL     1       2.237   0.077   1.154  1.00  0.00    -0.280 N 
HETATM   19  C7  UNL     1       4.139  -0.505  -1.897  1.00  0.00     0.054 C 
HETATM   20  C8  UNL     1       4.303   0.485   0.473  1.00  0.00     0.032 A 
HETATM   21  C9  UNL     1       5.731   0.941   0.441  1.00  0.00     0.070 C 
HETATM   22  N4  UNL     1       3.428   0.594   1.474  1.00  0.00    -0.301 N 
ATOM     23  H4  UNL     1       3.642   1.021   2.375  1.00  0.00     0.187 HD
HETATM   24  C10 UNL     1       1.080   0.059   2.068  1.00  0.00     0.179 C 
ENDBRANCH   7  12
BRANCH   8  25
HETATM   25  C12 UNL     1      -2.684  -1.973   0.087  1.00  0.00     0.140 A 
HETATM   26  N6  UNL     1      -3.060  -3.087  -0.604  1.00  0.00    -0.316 N 
HETATM   27  C13 UNL     1      -3.385  -4.080   0.220  1.00  0.00     0.195 A 
ATOM     28  H6  UNL     1      -3.088  -3.151  -1.622  1.00  0.00     0.170 HD
HETATM   29 CL1  UNL     1      -3.928  -5.700  -0.179  1.00  0.00    -0.043 Cl
HETATM   30  N7  UNL     1      -3.219  -3.607   1.461  1.00  0.00    -0.272 N 
HETATM   31  N8  UNL     1      -2.802  -2.354   1.391  1.00  0.00    -0.278 N 
ATOM     32  H7  UNL     1      -3.387  -4.129   2.321  1.00  0.00     0.189 HD
HETATM   33  C14 UNL     1      -2.527  -1.542   2.538  1.00  0.00     0.179 C 
ENDBRANCH   8  25
BRANCH   9  34
HETATM   34  N9  UNL     1      -4.483   0.063  -0.396  1.00  0.00    -0.384 N 
ATOM     35  H92 UNL     1      -4.743  -0.856  -0.038  1.00  0.00     0.157 HD
ATOM     36  H91 UNL     1      -5.200   0.772  -0.552  1.00  0.00     0.157 HD
ENDBRANCH   9  34
TORSDOF 3
