REMARK  3 active torsions:
REMARK  status: ('A' for Active; 'I' for Inactive)
REMARK    1  A    between atoms: N1_1  and  C1_4 
REMARK    2  A    between atoms: C2_7  and  C3_8 
REMARK    3  A    between atoms: C5_10  and  C6_11 
ROOT
HETATM    1  C3  UNL     1      -0.113  -0.267   0.974  1.00  0.00     0.082 A 
HETATM    2  C4  UNL     1       1.069  -0.222   0.276  1.00  0.00     0.068 A 
HETATM    3  C5  UNL     1       2.285  -0.544   0.890  1.00  0.00     0.097 A 
HETATM    4  N7  UNL     1       2.281  -0.901   2.179  1.00  0.00    -0.283 N 
ATOM      5  H7  UNL     1       3.152  -1.142   2.652  1.00  0.00     0.188 HD
HETATM    6  N8  UNL     1       1.136  -0.937   2.827  1.00  0.00    -0.242 N 
ATOM      7  H8  UNL     1       1.141  -1.210   3.810  1.00  0.00     0.208 HD
HETATM    8  N9  UNL     1      -0.019  -0.636   2.263  1.00  0.00    -0.284 N 
ATOM      9  H9  UNL     1      -0.869  -0.685   2.825  1.00  0.00     0.188 HD
ENDROOT
BRANCH   1  10
HETATM   10  C2  UNL     1      -1.413   0.054   0.405  1.00  0.00     0.121 A 
HETATM   11  N2  UNL     1      -1.579   0.429  -0.875  1.00  0.00    -0.186 N 
HETATM   12  C1  UNL     1      -2.780   0.721  -1.383  1.00  0.00     0.679 A 
ATOM     13  H2  UNL     1      -0.760   0.493  -1.480  1.00  0.00     0.184 HD
HETATM   14  N10 UNL     1      -3.875   0.646  -0.617  1.00  0.00    -0.154 N 
HETATM   15  C8  UNL     1      -3.818   0.278   0.684  1.00  0.00     0.300 A 
ATOM     16  H10 UNL     1      -4.781   0.873  -1.027  1.00  0.00     0.187 HD
HETATM   17  C7  UNL     1      -2.567  -0.017   1.183  1.00  0.00     0.214 A 
HETATM   18  O1  UNL     1      -4.839   0.203   1.416  1.00  0.00    -0.264 OA
HETATM   19  F1  UNL     1      -2.471  -0.390   2.485  1.00  0.00    -0.198 F 
BRANCH  12  20
HETATM   20  N1  UNL     1      -2.927   1.080  -2.612  1.00  0.00    -0.234 N 
ATOM     21  H12 UNL     1      -2.093   1.137  -3.196  1.00  0.00     0.174 HD
ATOM     22  H11 UNL     1      -3.844   1.303  -3.000  1.00  0.00     0.174 HD
ENDBRANCH  12  20
ENDBRANCH   1  10
BRANCH   3  23
HETATM   23  C6  UNL     1       3.522  -0.481   0.101  1.00  0.00     0.159 A 
HETATM   24  N3  UNL     1       4.747  -0.765   0.573  1.00  0.00    -0.268 N 
HETATM   25  N4  UNL     1       5.649  -0.609  -0.399  1.00  0.00    -0.007 NA
ATOM     26  H3  UNL     1       4.956  -1.055   1.528  1.00  0.00     0.185 HD
HETATM   27  N5  UNL     1       4.976  -0.225  -1.479  1.00  0.00    -0.007 NA
HETATM   28  N6  UNL     1       3.671  -0.142  -1.187  1.00  0.00    -0.268 N 
ATOM     29  H6  UNL     1       2.926   0.130  -1.829  1.00  0.00     0.185 HD
ENDBRANCH   3  23
TORSDOF 3
