REMARK  8 active torsions:
REMARK  status: ('A' for Active; 'I' for Inactive)
REMARK    1  A    between atoms: O1_2  and  C2_3 
REMARK    2  A    between atoms: C3_6  and  N2_7 
REMARK    3  A    between atoms: C4_12  and  C5_13 
REMARK    4  A    between atoms: C6_14  and  C7_15 
REMARK    5  A    between atoms: C7_15  and  O2_16 
REMARK    6  A    between atoms: C7_15  and  C8_18 
REMARK    7  A    between atoms: C8_18  and  O3_20 
REMARK    8  A    between atoms: C10_23  and  N4_24 
ROOT
HETATM    1  C2  UNL     1       3.011   0.287   0.193  1.00  0.00     0.193 A 
HETATM    2  N1  UNL     1       3.213   1.336  -0.635  1.00  0.00    -0.168 N 
ATOM      3  H1  UNL     1       4.159   1.600  -0.909  1.00  0.00     0.186 HD
HETATM    4  C3  UNL     1       2.161   2.026  -1.093  1.00  0.00     0.678 A 
HETATM    5  N3  UNL     1       0.903   1.662  -0.719  1.00  0.00    -0.181 N 
ATOM      6  H3  UNL     1       0.115   2.201  -1.079  1.00  0.00     0.185 HD
HETATM    7  C4  UNL     1       0.651   0.634   0.096  1.00  0.00     0.140 A 
HETATM    8  C10 UNL     1       1.740  -0.085   0.574  1.00  0.00     0.190 A 
ENDROOT
BRANCH   7   9
HETATM    9  C5  UNL     1      -0.673   0.240   0.494  1.00  0.00    -0.043 C 
HETATM   10  C6  UNL     1      -1.781  -0.110   0.819  1.00  0.00    -0.062 C 
BRANCH  10  11
HETATM   11  C7  UNL     1      -3.116  -0.560   1.213  1.00  0.00     0.263 C 
BRANCH  11  12
HETATM   12  O2  UNL     1      -3.697   0.320   2.099  1.00  0.00    -0.378 OA
ATOM     13  H2  UNL     1      -4.564   0.028   2.355  1.00  0.00     0.211 HD
ENDBRANCH  11  12
BRANCH  11  14
HETATM   14  C8  UNL     1      -3.946  -0.641  -0.047  1.00  0.00     0.236 C 
HETATM   15  C9  UNL     1      -4.233   0.734  -0.588  1.00  0.00     0.088 C 
HETATM   16  F1  UNL     1      -5.181  -1.199   0.317  1.00  0.00    -0.208 F 
BRANCH  14  17
HETATM   17  O3  UNL     1      -3.402  -1.509  -0.974  1.00  0.00    -0.359 OA
ATOM     18  H3  UNL     1      -3.924  -1.560  -1.766  1.00  0.00     0.213 HD
ENDBRANCH  14  17
ENDBRANCH  11  14
ENDBRANCH  10  11
ENDBRANCH   7   9
BRANCH   8  19
HETATM   19  N4  UNL     1       1.567  -1.182   1.438  1.00  0.00    -0.108 N 
HETATM   20  O4  UNL     1       1.853  -1.076   2.631  1.00  0.00    -0.532 OA
HETATM   21  O5  UNL     1       1.085  -2.355   0.947  1.00  0.00    -0.532 OA
ENDBRANCH   8  19
BRANCH   4  22
HETATM   22  N2  UNL     1       2.360   3.025  -1.883  1.00  0.00    -0.234 N 
ATOM     23  H22 UNL     1       3.302   3.298  -2.163  1.00  0.00     0.174 HD
ATOM     24  H21 UNL     1       1.559   3.551  -2.232  1.00  0.00     0.174 HD
ENDBRANCH   4  22
BRANCH   1  25
HETATM   25  O1  UNL     1       4.123  -0.405   0.648  1.00  0.00    -0.338 OA
HETATM   26  C1  UNL     1       4.636  -1.427  -0.202  1.00  0.00     0.211 C 
ENDBRANCH   1  25
TORSDOF 8
