REMARK  3 active torsions:
REMARK  status: ('A' for Active; 'I' for Inactive)
REMARK    1  A    between atoms: C4_11  and  C6_13 
REMARK    2  A    between atoms: C6_13  and  N3_14 
REMARK    3  A    between atoms: C10_25  and  N7_26 
ROOT
HETATM    1  N3  UNL     1       0.578   0.213   1.029  1.00  0.00     0.112 N 
HETATM    2  C7  UNL     1       1.058   1.586   1.381  1.00  0.00     0.397 C 
HETATM    3  N4  UNL     1       2.052   2.018   0.422  1.00  0.00    -0.350 N 
ATOM      4  H4  UNL     1       1.949   2.856  -0.150  1.00  0.00     0.162 HD
HETATM    5  C8  UNL     1       3.191   1.160   0.352  1.00  0.00     0.116 A 
HETATM    6  N5  UNL     1       4.417   1.614   0.011  1.00  0.00    -0.318 N 
ATOM      7  H5  UNL     1       4.541   2.601  -0.215  1.00  0.00     0.170 HD
HETATM    8  C9  UNL     1       5.474   0.789  -0.035  1.00  0.00     0.182 A 
HETATM    9 CL1  UNL     1       7.060   1.357  -0.455  1.00  0.00    -0.045 Cl
HETATM   10  N6  UNL     1       5.299  -0.504   0.263  1.00  0.00    -0.319 N 
ATOM     11  H6  UNL     1       6.105  -1.129   0.227  1.00  0.00     0.170 HD
HETATM   12  C10 UNL     1       4.083  -1.020   0.614  1.00  0.00     0.112 A 
HETATM   13  C11 UNL     1       2.998  -0.151   0.658  1.00  0.00     0.058 A 
HETATM   14  C12 UNL     1       1.682  -0.689   1.034  1.00  0.00     0.321 C 
ENDROOT
BRANCH   1  15
HETATM   15  C6  UNL     1      -0.127   0.399  -0.189  1.00  0.00     0.311 C 
BRANCH  15  16
HETATM   16  C4  UNL     1      -1.120  -0.615  -0.608  1.00  0.00     0.186 C 
HETATM   17  S1  UNL     1      -1.779  -0.024  -2.180  1.00  0.00     0.252 S 
HETATM   18  N2  UNL     1      -2.470   1.507  -1.836  1.00  0.00    -0.249 N 
HETATM   19  O2  UNL     1      -2.794  -0.982  -2.732  1.00  0.00    -0.204 OA
HETATM   20  O3  UNL     1      -0.567   0.098  -3.096  1.00  0.00    -0.204 OA
HETATM   21  C3  UNL     1      -3.363   1.822  -0.795  1.00  0.00     0.270 C 
ATOM     22  H2  UNL     1      -2.205   2.274  -2.454  1.00  0.00     0.182 HD
HETATM   23  C2  UNL     1      -4.115   0.918   0.056  1.00  0.00     0.168 C 
HETATM   24  O1  UNL     1      -3.521   3.050  -0.583  1.00  0.00    -0.266 OA
HETATM   25  N1  UNL     1      -3.478  -0.222   0.578  1.00  0.00    -0.326 N 
HETATM   26  C1  UNL     1      -4.349  -1.021   1.461  1.00  0.00     0.159 C 
HETATM   27  C13 UNL     1      -2.190  -0.731   0.417  1.00  0.00     0.250 C 
HETATM   28  O4  UNL     1      -1.818  -1.485   1.382  1.00  0.00    -0.271 OA
HETATM   29  C5  UNL     1      -0.648  -2.010  -0.881  1.00  0.00     0.046 C 
ENDBRANCH  15  16
ENDBRANCH   1  15
BRANCH  12  30
HETATM   30  N7  UNL     1       3.931  -2.249   0.892  1.00  0.00    -0.385 N 
ATOM     31  H72 UNL     1       4.727  -2.886   0.860  1.00  0.00     0.157 HD
ATOM     32  H71 UNL     1       3.024  -2.634   1.154  1.00  0.00     0.157 HD
ENDBRANCH  12  30
TORSDOF 3
