REMARK  8 active torsions:
REMARK  status: ('A' for Active; 'I' for Inactive)
REMARK    1  A    between atoms: C2_2  and  C3_3 
REMARK    2  A    between atoms: C3_3  and  C5_5 
REMARK    3  A    between atoms: C5_5  and  O1_6 
REMARK    4  A    between atoms: C5_5  and  C6_8 
REMARK    5  A    between atoms: N1_9  and  O2_11 
REMARK    6  A    between atoms: O2_11  and  C7_12 
REMARK    7  A    between atoms: C10_16  and  O4_17 
REMARK    8  A    between atoms: C11_19  and  O5_20 
ROOT
HETATM    1  C7  UNL     1      -1.501   0.167  -0.293  1.00  0.00     0.295 C 
HETATM    2  O3  UNL     1      -2.071  -0.335  -1.422  1.00  0.00    -0.351 OA
HETATM    3  C8  UNL     1      -3.383  -0.683  -1.350  1.00  0.00     0.152 C 
HETATM    4  C9  UNL     1      -3.645  -1.979  -0.614  1.00  0.00     0.042 C 
HETATM    5  C10 UNL     1      -4.286   0.386  -0.789  1.00  0.00     0.176 C 
HETATM    6  C11 UNL     1      -3.767   0.851   0.551  1.00  0.00     0.158 C 
HETATM    7  C12 UNL     1      -2.323   1.253   0.360  1.00  0.00     0.070 C 
HETATM    8  C13 UNL     1      -1.764   1.620   1.701  1.00  0.00     0.017 C 
ENDROOT
BRANCH   1   9
HETATM    9  O2  UNL     1      -0.268   0.788  -0.687  1.00  0.00    -0.248 OA
BRANCH   9  10
HETATM   10  N1  UNL     1       0.938   0.439  -0.188  1.00  0.00    -0.276 N 
HETATM   11  C6  UNL     1       1.475  -0.728  -0.264  1.00  0.00     0.119 C 
ATOM     12  H1  UNL     1       1.470   1.165   0.292  1.00  0.00     0.193 HD
BRANCH  11  13
HETATM   13  C5  UNL     1       2.822  -0.883   0.363  1.00  0.00     0.162 C 
BRANCH  13  14
HETATM   14  C3  UNL     1       3.796  -0.110  -0.473  1.00  0.00     0.015 C 
HETATM   15  C4  UNL     1       3.835  -0.789  -1.847  1.00  0.00     0.012 C 
BRANCH  14  16
HETATM   16  C2  UNL     1       5.201  -0.153   0.066  1.00  0.00     0.002 C 
HETATM   17  C1  UNL     1       5.343   0.475   1.416  1.00  0.00     0.005 C 
ENDBRANCH  14  16
ENDBRANCH  13  14
BRANCH  13  18
HETATM   18  O1  UNL     1       2.727  -0.432   1.665  1.00  0.00    -0.390 OA
ATOM     19  H1  UNL     1       2.109  -0.922   2.195  1.00  0.00     0.210 HD
ENDBRANCH  13  18
ENDBRANCH  11  13
ENDBRANCH   9  10
ENDBRANCH   1   9
BRANCH   6  20
HETATM   20  O5  UNL     1      -4.459   1.992   0.968  1.00  0.00    -0.392 OA
ATOM     21  H5  UNL     1      -4.133   2.284   1.811  1.00  0.00     0.210 HD
ENDBRANCH   6  20
BRANCH   5  22
HETATM   22  O4  UNL     1      -5.539  -0.192  -0.589  1.00  0.00    -0.390 OA
ATOM     23  H4  UNL     1      -6.108   0.482  -0.235  1.00  0.00     0.210 HD
ENDBRANCH   5  22
TORSDOF 8
