REMARK  11 active torsions:
REMARK  status: ('A' for Active; 'I' for Inactive)
REMARK    1  A    between atoms: C2_2  and  N1_4 
REMARK    2  A    between atoms: N1_4  and  C4_6 
REMARK    3  A    between atoms: C5_9  and  N3_10 
REMARK    4  A    between atoms: C6_15  and  N5_16 
REMARK    5  A    between atoms: N5_16  and  C7_18 
REMARK    6  A    between atoms: C7_18  and  C8_19 
REMARK    7  A    between atoms: C8_19  and  C9_20 
REMARK    8  A    between atoms: C9_20  and  C10_21 
REMARK    9  A    between atoms: C10_21  and  N6_22 
REMARK   10  A    between atoms: N6_22  and  C12_24 
REMARK   11  A    between atoms: C15_30  and  O1_31 
ROOT
HETATM    1  C4  UNL     1      -4.633  -0.353  -0.443  1.00  0.00     0.707 A 
HETATM    2  N2  UNL     1      -4.671   0.921  -0.031  1.00  0.00    -0.022 N 
ATOM      3  H2  UNL     1      -5.556   1.330   0.268  1.00  0.00     0.203 HD
HETATM    4  C5  UNL     1      -3.544   1.670  -0.008  1.00  0.00     0.705 A 
HETATM    5  N4  UNL     1      -2.357   1.141  -0.404  1.00  0.00    -0.022 N 
ATOM      6  H4  UNL     1      -1.515   1.716  -0.384  1.00  0.00     0.203 HD
HETATM    7  C6  UNL     1      -2.284  -0.132  -0.821  1.00  0.00     0.707 A 
HETATM    8  N8  UNL     1      -3.410  -0.842  -0.831  1.00  0.00    -0.022 N 
ATOM      9  H8  UNL     1      -3.361  -1.811  -1.147  1.00  0.00     0.203 HD
ENDROOT
BRANCH   7  10
HETATM   10  N5  UNL     1      -1.193  -0.664  -1.197  1.00  0.00    -0.225 N 
ATOM     11  H5  UNL     1      -1.272  -1.638  -1.490  1.00  0.00     0.177 HD
BRANCH  10  12
HETATM   12  C7  UNL     1       0.108  -0.130  -1.276  1.00  0.00     0.138 C 
BRANCH  12  13
HETATM   13  C8  UNL     1       0.832  -0.132   0.073  1.00  0.00     0.022 C 
BRANCH  13  14
HETATM   14  C9  UNL     1       2.215   0.434  -0.213  1.00  0.00     0.032 C 
BRANCH  14  15
HETATM   15  C10 UNL     1       2.975   0.454   1.082  1.00  0.00     0.272 C 
BRANCH  15  16
HETATM   16  N6  UNL     1       4.324   0.932   0.975  1.00  0.00     0.093 N 
HETATM   17  C11 UNL     1       4.192   2.368   0.654  1.00  0.00     0.310 C 
BRANCH  16  18
HETATM   18  C12 UNL     1       5.064   0.372  -0.108  1.00  0.00     0.278 C 
HETATM   19  C13 UNL     1       6.519   0.731  -0.026  1.00  0.00     0.270 C 
HETATM   20  N7  UNL     1       7.120  -0.477   0.566  1.00  0.00    -0.070 N 
HETATM   21  C14 UNL     1       6.557  -1.501  -0.312  1.00  0.00     0.266 C 
ATOM     22  H72 UNL     1       8.137  -0.473   0.648  1.00  0.00     0.277 HD
ATOM     23  H71 UNL     1       6.958  -0.610   1.564  1.00  0.00     0.277 HD
HETATM   24  C15 UNL     1       5.079  -1.079  -0.301  1.00  0.00     0.178 C 
BRANCH  24  25
HETATM   25  O1  UNL     1       4.454  -1.886   0.591  1.00  0.00    -0.392 OA
ATOM     26  H1  UNL     1       4.464  -2.828   0.466  1.00  0.00     0.210 HD
ENDBRANCH  24  25
ENDBRANCH  16  18
ENDBRANCH  15  16
ENDBRANCH  14  15
ENDBRANCH  13  14
ENDBRANCH  12  13
ENDBRANCH  10  12
ENDBRANCH   7  10
BRANCH   4  27
HETATM   27  N3  UNL     1      -3.620   2.895   0.397  1.00  0.00    -0.234 N 
ATOM     28  H32 UNL     1      -4.511   3.292   0.694  1.00  0.00     0.174 HD
ATOM     29  H31 UNL     1      -2.771   3.459   0.414  1.00  0.00     0.174 HD
ENDBRANCH   4  27
BRANCH   1  30
HETATM   30  N1  UNL     1      -5.633  -1.100  -0.488  1.00  0.00    -0.221 N 
ATOM     31  H1  UNL     1      -5.330  -2.010  -0.836  1.00  0.00     0.178 HD
BRANCH  30  32
HETATM   32  C2  UNL     1      -6.975  -1.168  -0.251  1.00  0.00     0.091 C 
HETATM   33  C1  UNL     1      -7.616  -0.154   0.674  1.00  0.00     0.032 C 
HETATM   34  C3  UNL     1      -7.410  -2.545   0.326  1.00  0.00     0.032 C 
ENDBRANCH  30  32
ENDBRANCH   1  30
TORSDOF 11
