REMARK  7 active torsions:
REMARK  status: ('A' for Active; 'I' for Inactive)
REMARK    1  A    between atoms: C2_2  and  C3_3 
REMARK    2  A    between atoms: C2_2  and  C17_24 
REMARK    3  A    between atoms: C4_5  and  C5_6 
REMARK    4  A    between atoms: N1_8  and  O1_10 
REMARK    5  A    between atoms: C8_13  and  C9_14 
REMARK    6  A    between atoms: C13_18  and  O2_19 
REMARK    7  A    between atoms: O2_19  and  C14_20 
ROOT
HETATM    1  C3  UNL     1      -1.095   0.272   0.440  1.00  0.00     0.023 A 
HETATM    2  S1  UNL     1      -1.816   1.638   1.199  1.00  0.00    -0.087 SA
HETATM    3  C4  UNL     1      -0.618   2.815   0.841  1.00  0.00     0.030 A 
HETATM    4  C7  UNL     1       0.301   2.097   0.140  1.00  0.00     0.034 A 
HETATM    5  C8  UNL     1       0.051   0.775  -0.068  1.00  0.00    -0.007 A 
ENDROOT
BRANCH   5   6
HETATM    6  C9  UNL     1       0.994  -0.060  -0.893  1.00  0.00    -0.022 A 
HETATM    7  C10 UNL     1       0.533  -0.735  -2.003  1.00  0.00     0.012 A 
HETATM    8  C11 UNL     1       1.438  -1.481  -2.730  1.00  0.00     0.004 A 
HETATM    9  C12 UNL     1       2.766  -1.556  -2.363  1.00  0.00     0.037 A 
HETATM   10  C13 UNL     1       3.244  -0.888  -1.255  1.00  0.00     0.080 A 
HETATM   11  C16 UNL     1       2.327  -0.146  -0.539  1.00  0.00     0.049 A 
BRANCH  10  12
HETATM   12  O2  UNL     1       4.582  -0.950  -0.865  1.00  0.00    -0.279 OA
BRANCH  12  13
HETATM   13  C14 UNL     1       5.052  -1.928   0.014  1.00  0.00     0.260 C 
HETATM   14  C15 UNL     1       6.493  -1.973   0.416  1.00  0.00     0.126 C 
HETATM   15  O3  UNL     1       4.203  -2.753   0.439  1.00  0.00    -0.265 OA
ENDBRANCH  12  13
ENDBRANCH  10  12
ENDBRANCH   5   6
BRANCH   1  16
HETATM   16  C2  UNL     1      -1.682  -1.091   0.394  1.00  0.00    -0.042 C 
HETATM   17  C1  UNL     1      -0.858  -2.097   0.579  1.00  0.00     0.021 C 
BRANCH  16  18
HETATM   18  C17 UNL     1      -3.131  -1.267   0.146  1.00  0.00    -0.024 C 
HETATM   19  C18 UNL     1      -3.966  -0.583   1.216  1.00  0.00     0.019 C 
HETATM   20  C19 UNL     1      -3.553  -0.652  -1.175  1.00  0.00     0.019 C 
HETATM   21  C20 UNL     1      -3.463  -2.734   0.172  1.00  0.00     0.019 C 
ENDBRANCH  16  18
ENDBRANCH   1  16
BRANCH   3  22
HETATM   22  C5  UNL     1      -0.636   4.243   1.226  1.00  0.00     0.045 C 
HETATM   23  C6  UNL     1      -1.847   4.677   2.015  1.00  0.00     0.071 C 
HETATM   24  N1  UNL     1       0.274   5.031   0.926  1.00  0.00    -0.273 N 
ATOM     25  H1  UNL     1       0.134   5.986   1.255  1.00  0.00     0.194 HD
BRANCH  24  26
HETATM   26  O1  UNL     1       1.400   4.838   0.248  1.00  0.00    -0.290 OA
ATOM     27  H1  UNL     1       2.097   5.441   0.018  1.00  0.00     0.244 HD
ENDBRANCH  24  26
ENDBRANCH   3  22
TORSDOF 7
