REMARK  1 active torsions:
REMARK  status: ('A' for Active; 'I' for Inactive)
REMARK    1  A    between atoms: C5_7  and  C6_9 
ROOT
HETATM    1  C1  UNL     1       0.224  -1.248   1.102  1.00  0.00     0.277 C 
HETATM    2  N1  UNL     1      -0.147  -0.320   0.037  1.00  0.00    -0.019 N 
HETATM    3  C2  UNL     1      -0.913  -1.127  -0.928  1.00  0.00     0.277 C 
HETATM    4  C3  UNL     1      -1.071   0.597   0.614  1.00  0.00     0.252 C 
HETATM    5  C4  UNL     1      -1.430   1.647  -0.379  1.00  0.00     0.107 C 
HETATM    6  S1  UNL     1       0.265   1.991  -1.009  1.00  0.00    -0.086 SA
HETATM    7  C5  UNL     1       0.915   0.323  -0.594  1.00  0.00     0.412 C 
HETATM    8  F1  UNL     1       1.164  -0.288  -1.822  1.00  0.00    -0.189 F 
ENDROOT
BRANCH   7   9
HETATM    9  C6  UNL     1       2.202   0.462   0.107  1.00  0.00     0.462 C 
HETATM   10  F2  UNL     1       2.736  -0.762   0.432  1.00  0.00    -0.165 F 
HETATM   11  F3  UNL     1       2.178   1.329   1.185  1.00  0.00    -0.165 F 
HETATM   12  F4  UNL     1       3.122   1.025  -0.791  1.00  0.00    -0.165 F 
ENDBRANCH   7   9
TORSDOF 1
