REMARK  5 active torsions:
REMARK  status: ('A' for Active; 'I' for Inactive)
REMARK    1  A    between atoms: O1_2  and  C2_3 
REMARK    2  A    between atoms: C2_3  and  C3_4 
REMARK    3  A    between atoms: C3_4  and  N1_5 
REMARK    4  A    between atoms: C9_11  and  N2_12 
REMARK    5  A    between atoms: N2_12  and  C10_15 
ROOT
HETATM    1  N1  UNL     1       3.010  -0.287   0.087  1.00  0.00    -0.391 N 
HETATM    2  C4  UNL     1       2.700  -0.332  -1.288  1.00  0.00     0.126 C 
HETATM    3  C5  UNL     1       1.500  -1.214  -1.602  1.00  0.00     0.006 C 
HETATM    4  C6  UNL     1       1.429  -2.251  -0.478  1.00  0.00     0.018 C 
HETATM    5  C7  UNL     1       0.867  -1.355   0.638  1.00  0.00     0.055 C 
HETATM    6  C8  UNL     1       1.934  -0.348   0.994  1.00  0.00     0.065 C 
HETATM    7  C9  UNL     1      -0.312  -0.805  -0.073  1.00  0.00     0.195 C 
HETATM    8  C18 UNL     1       0.267  -0.357  -1.393  1.00  0.00     0.040 C 
ENDROOT
BRANCH   7   9
HETATM    9  N2  UNL     1      -1.065   0.210   0.589  1.00  0.00    -0.066 N 
ATOM     10  H22 UNL     1      -1.208   0.023   1.581  1.00  0.00     0.278 HD
ATOM     11  H21 UNL     1      -0.553   1.086   0.697  1.00  0.00     0.278 HD
BRANCH   9  12
HETATM   12  C10 UNL     1      -2.300   0.357  -0.149  1.00  0.00     0.190 C 
HETATM   13  C11 UNL     1      -3.031   1.634   0.071  1.00  0.00     0.038 C 
HETATM   14  C12 UNL     1      -4.447   1.410  -0.487  1.00  0.00    -0.013 C 
HETATM   15  C13 UNL     1      -4.403   0.370  -1.611  1.00  0.00     0.005 C 
HETATM   16  C17 UNL     1      -5.222   0.748   0.647  1.00  0.00     0.005 C 
HETATM   17  C14 UNL     1      -4.096  -1.013  -1.032  1.00  0.00     0.007 C 
HETATM   18  C15 UNL     1      -3.285  -0.761   0.228  1.00  0.00     0.016 C 
HETATM   19  C16 UNL     1      -4.278  -0.242   1.277  1.00  0.00     0.007 C 
ENDBRANCH   9  12
ENDBRANCH   7   9
BRANCH   1  20
HETATM   20  C3  UNL     1       4.298  -0.671   0.501  1.00  0.00     0.148 C 
BRANCH  20  21
HETATM   21  C2  UNL     1       5.375   0.327   0.050  1.00  0.00     0.186 C 
BRANCH  21  22
HETATM   22  O1  UNL     1       5.110   1.586   0.597  1.00  0.00    -0.394 OA
HETATM   23  C1  UNL     1       6.112   2.442   0.151  1.00  0.00     0.201 C 
ENDBRANCH  21  22
ENDBRANCH  20  21
ENDBRANCH   1  20
TORSDOF 5
