REMARK  4 active torsions:
REMARK  status: ('A' for Active; 'I' for Inactive)
REMARK       I    between atoms: C1_2  and  N1_3 
REMARK    1  A    between atoms: C1_2  and  O2_12 
REMARK    2  A    between atoms: N1_3  and  C2_5 
REMARK    3  A    between atoms: O2_12  and  N2_13 
REMARK       I    between atoms: N2_13  and  C9_15 
REMARK    4  A    between atoms: C9_15  and  C10_17 
ROOT
HETATM    1  O1  UNL     1       0.985   0.190  -0.858  1.00  0.00    -0.236 OA
HETATM    2  C1  UNL     1       0.934  -0.058   0.386  1.00  0.00     0.383 C 
HETATM    3  N1  UNL     1      -0.295  -0.164   1.079  1.00  0.00    -0.331 N 
ATOM      4  H1  UNL     1      -0.299  -0.365   2.079  1.00  0.00     0.165 HD
ENDROOT
BRANCH   2   5
HETATM    5  O2  UNL     1       2.159  -0.219   1.027  1.00  0.00    -0.178 OA
BRANCH   5   6
HETATM    6  N2  UNL     1       3.366  -0.127   0.405  1.00  0.00    -0.224 N 
HETATM    7  C9  UNL     1       4.023   1.118   0.227  1.00  0.00     0.245 C 
HETATM    8  O3  UNL     1       3.503   2.159   0.640  1.00  0.00    -0.271 OA
ATOM      9  H2  UNL     1       3.811  -0.977   0.057  1.00  0.00     0.198 HD
BRANCH   7  10
HETATM   10  C10 UNL     1       5.336   1.144  -0.461  1.00  0.00     0.080 A 
HETATM   11  C11 UNL     1       6.225  -0.050  -0.365  1.00  0.00     0.015 A 
HETATM   12  C12 UNL     1       5.434   0.192  -1.613  1.00  0.00     0.015 A 
ENDBRANCH   7  10
ENDBRANCH   5   6
ENDBRANCH   2   5
BRANCH   3  13
HETATM   13  C2  UNL     1      -1.544   0.011   0.374  1.00  0.00     0.086 C 
HETATM   14  C3  UNL     1      -2.336   1.073   1.054  1.00  0.00     0.025 C 
HETATM   15  C4  UNL     1      -3.816   0.952   0.900  1.00  0.00     0.002 C 
HETATM   16  C5  UNL     1      -4.273   0.525  -0.449  1.00  0.00     0.000 C 
HETATM   17  C6  UNL     1      -4.437  -0.989  -0.575  1.00  0.00     0.000 C 
HETATM   18  C7  UNL     1      -3.039  -1.538  -0.794  1.00  0.00     0.002 C 
HETATM   19  C8  UNL     1      -2.272  -1.336   0.493  1.00  0.00     0.025 C 
ENDBRANCH   3  13
TORSDOF 4
