REMARK  6 active torsions:
REMARK  status: ('A' for Active; 'I' for Inactive)
REMARK    1  A    between atoms: C2_2  and  C4_4 
REMARK    2  A    between atoms: C5_5  and  O1_6 
REMARK    3  A    between atoms: C7_8  and  O2_9 
REMARK    4  A    between atoms: C12_16  and  O4_17 
REMARK    5  A    between atoms: C15_20  and  O5_21 
REMARK    6  A    between atoms: C17_23  and  O6_24 
ROOT
HETATM    1  C4  UNL     1       2.283  -0.634   0.845  1.00  0.00     0.040 A 
HETATM    2  C5  UNL     1       3.102  -0.041   1.797  1.00  0.00     0.114 A 
HETATM    3  C7  UNL     1       2.781   1.098   2.481  1.00  0.00     0.101 A 
HETATM    4  C8  UNL     1       1.576   1.693   2.209  1.00  0.00     0.057 A 
HETATM    5  C9  UNL     1       0.721   1.172   1.291  1.00  0.00     0.053 A 
HETATM    6  C10 UNL     1      -0.489   1.773   1.024  1.00  0.00     0.201 A 
HETATM    7  O3  UNL     1      -0.840   2.825   1.621  1.00  0.00    -0.286 OA
HETATM    8  C11 UNL     1      -1.291   1.175   0.082  1.00  0.00     0.085 A 
HETATM    9  C12 UNL     1      -2.506   1.761  -0.198  1.00  0.00     0.088 A 
HETATM   10  C14 UNL     1      -3.312   1.162  -1.143  1.00  0.00     0.077 A 
HETATM   11  C15 UNL     1      -2.905   0.004  -1.788  1.00  0.00     0.107 A 
HETATM   12  C17 UNL     1      -1.709  -0.577  -1.516  1.00  0.00     0.136 A 
HETATM   13  C19 UNL     1      -0.875   0.021  -0.555  1.00  0.00     0.129 A 
HETATM   14  O7  UNL     1       0.277  -0.523  -0.279  1.00  0.00    -0.305 OA
HETATM   15  C20 UNL     1       1.064   0.014   0.607  1.00  0.00     0.104 A 
ENDROOT
BRANCH   1  16
HETATM   16  C2  UNL     1       2.674  -1.861   0.194  1.00  0.00    -0.055 C 
HETATM   17  C1  UNL     1       2.406  -2.076  -1.076  1.00  0.00     0.019 C 
HETATM   18  C3  UNL     1       3.361  -2.975   0.913  1.00  0.00     0.048 C 
ENDBRANCH   1  16
BRANCH   2  19
HETATM   19  O1  UNL     1       4.337  -0.660   2.065  1.00  0.00    -0.352 OA
HETATM   20  C6  UNL     1       5.421  -0.186   1.249  1.00  0.00     0.210 C 
ENDBRANCH   2  19
BRANCH   3  21
HETATM   21  O2  UNL     1       3.624   1.665   3.429  1.00  0.00    -0.358 OA
ATOM     22  H2  UNL     1       3.401   2.457   3.904  1.00  0.00     0.217 HD
ENDBRANCH   3  21
BRANCH  12  23
HETATM   23  O6  UNL     1      -1.254  -1.745  -2.139  1.00  0.00    -0.351 OA
HETATM   24  C18 UNL     1      -1.543  -3.023  -1.589  1.00  0.00     0.210 C 
ENDBRANCH  12  23
BRANCH   9  25
HETATM   25  O4  UNL     1      -2.840   2.912   0.485  1.00  0.00    -0.355 OA
HETATM   26  C13 UNL     1      -4.026   3.633   0.325  1.00  0.00     0.210 C 
ENDBRANCH   9  25
BRANCH  11  27
HETATM   27  O5  UNL     1      -3.752  -0.553  -2.725  1.00  0.00    -0.353 OA
HETATM   28  C16 UNL     1      -5.010  -0.006  -3.062  1.00  0.00     0.210 C 
ENDBRANCH  11  27
TORSDOF 6
