REMARK  9 active torsions:
REMARK  status: ('A' for Active; 'I' for Inactive)
REMARK    1  A    between atoms: C2_2  and  C3_3 
REMARK    2  A    between atoms: C8_8  and  N1_9 
REMARK    3  A    between atoms: N1_9  and  C9_10 
REMARK    4  A    between atoms: C10_13  and  N3_14 
REMARK    5  A    between atoms: N3_14  and  C11_16 
REMARK    6  A    between atoms: C11_16  and  C12_17 
REMARK    7  A    between atoms: C12_17  and  C13_18 
REMARK    8  A    between atoms: C19_26  and  N5_27 
REMARK    9  A    between atoms: N5_27  and  C20_29 
ROOT
HETATM    1  C9  UNL     1      -1.029  -0.313   0.156  1.00  0.00     0.288 A 
HETATM    2  N2  UNL     1       0.104  -1.060   0.420  1.00  0.00    -0.148 N 
ATOM      3  H2  UNL     1      -0.019  -2.035   0.693  1.00  0.00     0.188 HD
HETATM    4  C10 UNL     1       1.341  -0.588   0.340  1.00  0.00     0.696 A 
HETATM    5  N4  UNL     1       1.460   0.711  -0.024  1.00  0.00    -0.022 N 
ATOM      6  H4  UNL     1       2.394   1.114  -0.096  1.00  0.00     0.203 HD
HETATM    7  C19 UNL     1       0.409   1.485  -0.292  1.00  0.00     0.702 A 
HETATM    8  N8  UNL     1      -0.821   1.002  -0.209  1.00  0.00    -0.148 N 
ATOM      9  H8  UNL     1      -1.618   1.604  -0.416  1.00  0.00     0.188 HD
ENDROOT
BRANCH   7  10
HETATM   10  N5  UNL     1       0.589   2.707  -0.632  1.00  0.00    -0.174 N 
ATOM     11  H5  UNL     1       1.546   3.054  -0.689  1.00  0.00     0.186 HD
BRANCH  10  12
HETATM   12  C20 UNL     1      -0.452   3.592  -0.929  1.00  0.00     0.148 A 
HETATM   13  N6  UNL     1      -1.335   3.642  -1.937  1.00  0.00    -0.284 N 
HETATM   14  N7  UNL     1      -2.145   4.670  -1.803  1.00  0.00    -0.298 N 
ATOM     15  H6  UNL     1      -1.374   2.972  -2.705  1.00  0.00     0.188 HD
HETATM   16  C21 UNL     1      -1.833   5.360  -0.685  1.00  0.00     0.062 A 
ATOM     17  H7  UNL     1      -2.898   4.910  -2.448  1.00  0.00     0.187 HD
HETATM   18  C22 UNL     1      -2.365   6.493  -0.105  1.00  0.00     0.032 A 
HETATM   19  C26 UNL     1      -0.757   4.688  -0.115  1.00  0.00     0.038 A 
HETATM   20  C23 UNL     1      -1.796   6.944   1.066  1.00  0.00     0.002 A 
HETATM   21  C24 UNL     1      -0.732   6.293   1.644  1.00  0.00     0.001 A 
HETATM   22  C25 UNL     1      -0.214   5.157   1.043  1.00  0.00     0.017 A 
ENDBRANCH  10  12
ENDBRANCH   7  10
BRANCH   4  23
HETATM   23  N3  UNL     1       2.424  -1.214   0.567  1.00  0.00    -0.225 N 
ATOM     24  H3  UNL     1       3.305  -0.710   0.462  1.00  0.00     0.177 HD
BRANCH  23  25
HETATM   25  C11 UNL     1       2.472  -2.575   0.958  1.00  0.00     0.142 C 
BRANCH  25  26
HETATM   26  C12 UNL     1       3.293  -3.429  -0.021  1.00  0.00     0.058 C 
BRANCH  26  27
HETATM   27  C13 UNL     1       4.658  -2.854  -0.018  1.00  0.00    -0.057 A 
HETATM   28  C14 UNL     1       5.575  -3.328   0.888  1.00  0.00     0.007 A 
HETATM   29  C15 UNL     1       6.838  -2.802   0.896  1.00  0.00     0.001 A 
HETATM   30  C16 UNL     1       7.174  -1.807  -0.000  1.00  0.00     0.000 A 
HETATM   31  C17 UNL     1       6.248  -1.344  -0.900  1.00  0.00     0.001 A 
HETATM   32  C18 UNL     1       4.971  -1.858  -0.926  1.00  0.00     0.007 A 
ENDBRANCH  26  27
ENDBRANCH  25  26
ENDBRANCH  23  25
ENDBRANCH   4  23
BRANCH   1  33
HETATM   33  N1  UNL     1      -2.139  -0.731   0.225  1.00  0.00    -0.370 NA
BRANCH  33  34
HETATM   34  C8  UNL     1      -3.374  -1.129   0.283  1.00  0.00     0.117 A 
HETATM   35  C3  UNL     1      -3.819  -2.293  -0.395  1.00  0.00    -0.018 A 
HETATM   36  C4  UNL     1      -5.128  -2.655  -0.297  1.00  0.00     0.010 A 
HETATM   37  C5  UNL     1      -6.030  -1.929   0.439  1.00  0.00     0.001 A 
HETATM   38  C6  UNL     1      -5.645  -0.792   1.115  1.00  0.00     0.003 A 
HETATM   39  C7  UNL     1      -4.336  -0.411   1.028  1.00  0.00     0.045 A 
BRANCH  35  40
HETATM   40  C2  UNL     1      -2.811  -3.051  -1.179  1.00  0.00     0.037 C 
HETATM   41  C1  UNL     1      -2.454  -2.395  -2.481  1.00  0.00     0.010 C 
ENDBRANCH  35  40
ENDBRANCH  33  34
ENDBRANCH   1  33
TORSDOF 9
