REMARK  7 active torsions:
REMARK  status: ('A' for Active; 'I' for Inactive)
REMARK    1  A    between atoms: C2_2  and  C3_3 
REMARK    2  A    between atoms: C2_2  and  N2_13 
REMARK    3  A    between atoms: C3_3  and  N1_4 
REMARK       I    between atoms: N1_4  and  C4_6 
REMARK    4  A    between atoms: C4_6  and  O2_8 
REMARK    5  A    between atoms: O2_8  and  C5_9 
REMARK    6  A    between atoms: N2_13  and  S1_15 
REMARK    7  A    between atoms: S1_15  and  C9_18 
ROOT
HETATM    1  C1  UNL     1      -1.604   2.693   0.520  1.00  0.00     0.034 C 
HETATM    2  C2  UNL     1      -1.141   1.243   0.220  1.00  0.00     0.107 C 
ENDROOT
BRANCH   2   3
HETATM    3  C3  UNL     1       0.370   1.377   0.164  1.00  0.00     0.150 C 
BRANCH   3   4
HETATM    4  N1  UNL     1       1.111   0.204  -0.102  1.00  0.00    -0.335 N 
HETATM    5  C4  UNL     1       2.529   0.301  -0.157  1.00  0.00     0.361 C 
HETATM    6  O1  UNL     1       3.143   1.388   0.020  1.00  0.00    -0.238 OA
ATOM      7  H1  UNL     1       0.641  -0.689  -0.251  1.00  0.00     0.164 HD
BRANCH   5   8
HETATM    8  O2  UNL     1       3.322  -0.807  -0.413  1.00  0.00    -0.294 OA
BRANCH   8   9
HETATM    9  C5  UNL     1       4.735  -0.697  -0.466  1.00  0.00     0.061 C 
HETATM   10  C6  UNL     1       5.194   0.256  -1.534  1.00  0.00     0.046 C 
HETATM   11  C7  UNL     1       5.324  -0.341   0.881  1.00  0.00     0.046 C 
HETATM   12  C8  UNL     1       5.251  -2.084  -0.844  1.00  0.00     0.046 C 
ENDBRANCH   8   9
ENDBRANCH   5   8
ENDBRANCH   3   4
ENDBRANCH   2   3
BRANCH   2  13
HETATM   13  N2  UNL     1      -1.570   0.327   1.207  1.00  0.00    -0.309 N 
ATOM     14  H2  UNL     1      -1.278   0.456   2.176  1.00  0.00     0.172 HD
BRANCH  13  15
HETATM   15  S1  UNL     1      -2.542  -0.954   0.808  1.00  0.00     0.260 S 
HETATM   16  O3  UNL     1      -1.809  -1.877  -0.180  1.00  0.00    -0.200 OA
HETATM   17  O4  UNL     1      -2.742  -1.905   2.021  1.00  0.00    -0.200 OA
BRANCH  15  18
HETATM   18  C9  UNL     1      -4.127  -0.666   0.165  1.00  0.00     0.101 A 
HETATM   19  C10 UNL     1      -4.738   0.546   0.098  1.00  0.00     0.027 A 
HETATM   20  C11 UNL     1      -6.024   0.653  -0.411  1.00  0.00     0.002 A 
HETATM   21  C12 UNL     1      -6.673  -0.475  -0.845  1.00  0.00     0.002 A 
HETATM   22  C13 UNL     1      -6.082  -1.716  -0.790  1.00  0.00     0.025 A 
HETATM   23  C14 UNL     1      -4.815  -1.808  -0.287  1.00  0.00     0.057 A 
HETATM   24 CL1  UNL     1      -4.081  -3.397  -0.225  1.00  0.00    -0.083 Cl
ENDBRANCH  15  18
ENDBRANCH  13  15
ENDBRANCH   2  13
TORSDOF 7
