REMARK  5 active torsions:
REMARK  status: ('A' for Active; 'I' for Inactive)
REMARK    1  A    between atoms: C1_2  and  C2_4 
REMARK    2  A    between atoms: C2_4  and  C10_18 
REMARK    3  A    between atoms: N2_5  and  N3_7 
REMARK       I    between atoms: N3_7  and  C3_9 
REMARK    4  A    between atoms: C3_9  and  C4_11 
REMARK    5  A    between atoms: C14_22  and  N4_23 
ROOT
HETATM    1  C2  UNL     1       1.224  -0.886  -0.674  1.00  0.00     0.123 C 
HETATM    2  N2  UNL     1       0.470  -0.263   0.153  1.00  0.00    -0.292 N 
ATOM      3  H2  UNL     1       0.943   0.461   0.695  1.00  0.00     0.187 HD
ENDROOT
BRANCH   1   4
HETATM    4  C1  UNL     1       0.735  -1.940  -1.525  1.00  0.00     0.283 C 
HETATM    5  N1  UNL     1      -0.661  -2.309  -1.445  1.00  0.00    -0.056 NA
HETATM    6  O1  UNL     1       1.378  -2.604  -2.355  1.00  0.00    -0.269 OA
ENDBRANCH   1   4
BRANCH   1   7
HETATM    7  C10 UNL     1       2.639  -0.488  -0.735  1.00  0.00    -0.001 A 
HETATM    8  C11 UNL     1       3.579  -1.024  -1.537  1.00  0.00     0.014 A 
HETATM    9  C12 UNL     1       4.917  -0.584  -1.534  1.00  0.00     0.003 A 
HETATM   10  C13 UNL     1       5.309   0.425  -0.695  1.00  0.00     0.036 A 
HETATM   11  C14 UNL     1       4.367   0.989   0.134  1.00  0.00     0.103 A 
HETATM   12  C15 UNL     1       3.070   0.542   0.112  1.00  0.00     0.050 A 
BRANCH  11  13
HETATM   13  N4  UNL     1       4.757   2.031   1.006  1.00  0.00    -0.116 N 
HETATM   14  O3  UNL     1       5.939   2.412   1.001  1.00  0.00    -0.532 OA
HETATM   15  O4  UNL     1       3.875   2.629   1.849  1.00  0.00    -0.532 OA
ENDBRANCH  11  13
ENDBRANCH   1   7
BRANCH   2  16
HETATM   16  N3  UNL     1      -0.837  -0.401   0.428  1.00  0.00    -0.265 N 
HETATM   17  C3  UNL     1      -1.754   0.723   0.412  1.00  0.00     0.271 C 
HETATM   18  O2  UNL     1      -1.246   1.833   0.122  1.00  0.00    -0.266 OA
ATOM     19  H3  UNL     1      -1.197  -1.328   0.656  1.00  0.00     0.190 HD
BRANCH  17  20
HETATM   20  C4  UNL     1      -3.148   0.653   0.699  1.00  0.00     0.055 A 
HETATM   21  C5  UNL     1      -3.548   0.774   2.019  1.00  0.00     0.019 A 
HETATM   22  C6  UNL     1      -4.873   0.702   2.387  1.00  0.00     0.001 A 
HETATM   23  C7  UNL     1      -5.841   0.504   1.425  1.00  0.00     0.002 A 
HETATM   24  C8  UNL     1      -5.465   0.380   0.091  1.00  0.00     0.025 A 
HETATM   25  C9  UNL     1      -4.109   0.458  -0.253  1.00  0.00     0.049 A 
HETATM   26 CL1  UNL     1      -3.635   0.325  -1.924  1.00  0.00    -0.083 Cl
ENDBRANCH  17  20
ENDBRANCH   2  16
TORSDOF 5
