REMARK  4 active torsions:
REMARK  status: ('A' for Active; 'I' for Inactive)
REMARK    1  A    between atoms: C2_2  and  C3_3 
REMARK    2  A    between atoms: C11_11  and  C12_12 
REMARK    3  A    between atoms: C12_12  and  O1_13 
REMARK    4  A    between atoms: C13_15  and  C14_16 
REMARK       I    between atoms: C14_16  and  N1_18 
ROOT
HETATM    1  C3  UNL     1       2.268  -0.895  -0.074  1.00  0.00     0.002 C 
HETATM    2  C4  UNL     1       1.935   0.524  -0.148  1.00  0.00     0.001 C 
HETATM    3  C5  UNL     1       1.818   1.108   1.233  1.00  0.00     0.033 C 
HETATM    4  C6  UNL     1       0.561   1.833   1.523  1.00  0.00    -0.023 C 
HETATM    5  C7  UNL     1      -0.542   1.792   0.776  1.00  0.00    -0.078 C 
HETATM    6  C8  UNL     1      -1.696   2.593   1.237  1.00  0.00     0.044 C 
HETATM    7  C9  UNL     1      -0.545   0.957  -0.491  1.00  0.00    -0.002 C 
HETATM    8  C10 UNL     1      -1.327   1.879  -1.456  1.00  0.00     0.021 C 
HETATM    9  C11 UNL     1       0.867   1.022  -1.006  1.00  0.00     0.027 C 
HETATM   10  C13 UNL     1      -1.236  -0.310  -0.439  1.00  0.00     0.102 C 
HETATM   11  C17 UNL     1      -0.605  -1.626  -0.527  1.00  0.00     0.074 C 
HETATM   12  C18 UNL     1       0.421  -1.916  -1.503  1.00  0.00     0.137 C 
HETATM   13  O3  UNL     1       0.484  -2.061  -2.737  1.00  0.00    -0.297 OA
HETATM   14  C19 UNL     1       1.385  -1.978  -0.441  1.00  0.00     0.064 C 
HETATM   15  C20 UNL     1       0.244  -2.130   0.576  1.00  0.00     0.005 C 
HETATM   16  C21 UNL     1       0.005  -3.591   0.991  1.00  0.00     0.011 C 
ENDROOT
BRANCH  10  17
HETATM   17  C14 UNL     1      -2.124  -0.401   0.787  1.00  0.00     0.225 C 
HETATM   18  O2  UNL     1      -1.600  -0.302   1.950  1.00  0.00    -0.273 OA
HETATM   19  N1  UNL     1      -3.512  -0.593   0.760  1.00  0.00    -0.360 N 
HETATM   20  C15 UNL     1      -4.198  -0.746  -0.495  1.00  0.00     0.152 C 
HETATM   21  C16 UNL     1      -4.295  -0.645   1.968  1.00  0.00     0.152 C 
ENDBRANCH  10  17
BRANCH   9  22
HETATM   22  C12 UNL     1       1.205   2.468  -1.348  1.00  0.00     0.170 C 
BRANCH  22  23
HETATM   23  O1  UNL     1       2.467   2.483  -2.014  1.00  0.00    -0.400 OA
ATOM     24  H1  UNL     1       2.678   3.384  -2.227  1.00  0.00     0.209 HD
ENDBRANCH  22  23
ENDBRANCH   9  22
BRANCH   1  25
HETATM   25  C2  UNL     1       3.593  -1.134  -0.835  1.00  0.00     0.001 C 
HETATM   26  C1  UNL     1       4.714  -0.341  -0.240  1.00  0.00     0.005 C 
ENDBRANCH   1  25
TORSDOF 4
