REMARK  4 active torsions:
REMARK  status: ('A' for Active; 'I' for Inactive)
REMARK    1  A    between atoms: C3_5  and  N2_6 
REMARK       I    between atoms: N2_6  and  C4_8 
REMARK    2  A    between atoms: C4_8  and  C5_10 
REMARK    3  A    between atoms: C5_10  and  N3_11 
REMARK    4  A    between atoms: C11_21  and  C12_22 
ROOT
HETATM    1  N3  UNL     1      -1.036  -1.122   0.597  1.00  0.00    -0.338 N 
HETATM    2  C6  UNL     1      -1.304  -0.482   1.867  1.00  0.00     0.172 C 
HETATM    3  S1  UNL     1      -0.862  -1.215   3.281  1.00  0.00    -0.041 SA
HETATM    4  N4  UNL     1      -1.941   0.777   1.972  1.00  0.00    -0.351 N 
ATOM      5  H4  UNL     1      -1.754   1.404   2.754  1.00  0.00     0.163 HD
HETATM    6  C7  UNL     1      -2.870   1.137   0.920  1.00  0.00     0.088 C 
HETATM    7  C8  UNL     1      -4.179   0.425   1.251  1.00  0.00     0.046 C 
HETATM    8  C9  UNL     1      -3.106   2.629   0.871  1.00  0.00     0.046 C 
HETATM    9  C10 UNL     1      -2.291   0.682  -0.356  1.00  0.00     0.177 C 
HETATM   10  O2  UNL     1      -2.241   1.456  -1.295  1.00  0.00    -0.293 OA
HETATM   11  C11 UNL     1      -1.752  -0.700  -0.566  1.00  0.00     0.162 C 
ENDROOT
BRANCH   1  12
HETATM   12  C5  UNL     1      -0.047  -2.150   0.603  1.00  0.00     0.229 C 
BRANCH  12  13
HETATM   13  C4  UNL     1       1.323  -1.681   0.852  1.00  0.00     0.241 C 
HETATM   14  N2  UNL     1       1.665  -0.308   1.067  1.00  0.00    -0.306 N 
ATOM     15  H2  UNL     1       1.002   0.350   1.477  1.00  0.00     0.171 HD
HETATM   16  O1  UNL     1       2.242  -2.541   0.875  1.00  0.00    -0.271 OA
BRANCH  14  17
HETATM   17  C3  UNL     1       2.876   0.064   0.710  1.00  0.00     0.151 A 
HETATM   18  N1  UNL     1       3.428   1.273   0.805  1.00  0.00    -0.339 N 
HETATM   19  C2  UNL     1       4.665   1.430   0.388  1.00  0.00     0.020 A 
ATOM     20  H1  UNL     1       2.904   2.058   1.192  1.00  0.00     0.168 HD
HETATM   21  C1  UNL     1       5.402   2.770   0.447  1.00  0.00     0.069 C 
HETATM   22  C15 UNL     1       5.302   0.324  -0.121  1.00  0.00     0.004 A 
HETATM   23  S2  UNL     1       4.112  -0.879   0.020  1.00  0.00    -0.057 SA
HETATM   24  C16 UNL     1       6.704   0.223  -0.664  1.00  0.00     0.058 C 
ENDBRANCH  14  17
ENDBRANCH  12  13
ENDBRANCH   1  12
BRANCH  11  25
HETATM   25  C12 UNL     1      -2.894  -1.549  -0.998  1.00  0.00     0.008 C 
HETATM   26  C13 UNL     1      -3.477  -0.870  -2.250  1.00  0.00     0.012 C 
HETATM   27  C14 UNL     1      -2.478  -2.932  -1.491  1.00  0.00     0.012 C 
ENDBRANCH  11  25
TORSDOF 4
