REMARK  6 active torsions:
REMARK  status: ('A' for Active; 'I' for Inactive)
REMARK    1  A    between atoms: N1_3  and  C3_4 
REMARK    2  A    between atoms: C3_4  and  C4_5 
REMARK    3  A    between atoms: C4_5  and  C5_6 
REMARK    4  A    between atoms: C5_6  and  N2_7 
REMARK    5  A    between atoms: N2_7  and  C6_8 
REMARK    6  A    between atoms: C18_25  and  O2_27 
ROOT
HETATM    1  C1  UNL     1       3.863   0.138   3.317  1.00  0.00     0.140 C 
HETATM    2  C2  UNL     1       3.954   0.030   1.862  1.00  0.00     0.005 C 
HETATM    3  N1  UNL     1       4.025  -0.076   0.699  1.00  0.00    -0.410 NA
ENDROOT
BRANCH   3   4
HETATM    4  C3  UNL     1       4.109  -0.227  -0.695  1.00  0.00     0.231 C 
BRANCH   4   5
HETATM    5  C4  UNL     1       2.873   0.494  -1.293  1.00  0.00     0.062 C 
BRANCH   5   6
HETATM    6  C5  UNL     1       1.620  -0.141  -0.756  1.00  0.00     0.243 C 
BRANCH   6   7
HETATM    7  N2  UNL     1       0.379   0.383  -1.203  1.00  0.00    -0.037 N 
HETATM    8  C8  UNL     1       0.440   1.839  -1.488  1.00  0.00     0.270 C 
HETATM    9  C9  UNL     1       0.739   2.763  -0.426  1.00  0.00     0.300 C 
HETATM   10  N3  UNL     1       0.471   2.051   0.820  1.00  0.00     0.090 N 
HETATM   11  C10 UNL     1       0.299   3.062   1.836  1.00  0.00     0.310 C 
HETATM   12  C11 UNL     1      -0.876   1.514   0.502  1.00  0.00     0.334 C 
HETATM   13  C12 UNL     1      -0.717   0.205  -0.310  1.00  0.00     0.240 C 
HETATM   14  N4  UNL     1      -1.979   0.011  -1.065  1.00  0.00    -0.325 N 
HETATM   15  C16 UNL     1      -0.828  -0.813   0.721  1.00  0.00     0.106 C 
HETATM   16  C13 UNL     1      -2.502  -1.317  -1.147  1.00  0.00     0.233 C 
ATOM     17  H4  UNL     1      -2.456   0.796  -1.509  1.00  0.00     0.165 HD
HETATM   18  O1  UNL     1      -3.161  -1.654  -2.170  1.00  0.00    -0.273 OA
HETATM   19  C14 UNL     1      -2.313  -2.332  -0.087  1.00  0.00     0.170 C 
HETATM   20  C15 UNL     1      -0.936  -2.229   0.585  1.00  0.00     0.096 C 
HETATM   21  C18 UNL     1      -3.085  -1.771   1.110  1.00  0.00     0.073 C 
HETATM   22  F1  UNL     1      -0.035  -3.093   0.180  1.00  0.00    -0.214 F 
HETATM   23  C17 UNL     1      -2.211  -0.550   1.389  1.00  0.00     0.054 C 
HETATM   24  C19 UNL     1      -4.471  -1.449   0.695  1.00  0.00     0.047 C 
BRANCH   7  25
HETATM   25  C6  UNL     1       0.113  -0.059  -2.588  1.00  0.00     0.236 C 
HETATM   26  C7  UNL     1       0.631  -1.381  -2.996  1.00  0.00     0.035 C 
ENDBRANCH   7  25
BRANCH  21  27
HETATM   27  O2  UNL     1      -3.076  -2.663   2.183  1.00  0.00    -0.389 OA
ATOM     28  H2  UNL     1      -3.555  -2.315   2.926  1.00  0.00     0.210 HD
ENDBRANCH  21  27
ENDBRANCH   6   7
ENDBRANCH   5   6
ENDBRANCH   4   5
ENDBRANCH   3   4
TORSDOF 6
