REMARK  6 active torsions:
REMARK  status: ('A' for Active; 'I' for Inactive)
REMARK    1  A    between atoms: N1_2  and  C3_4 
REMARK    2  A    between atoms: C3_4  and  N2_6 
REMARK    3  A    between atoms: N2_6  and  C4_8 
REMARK    4  A    between atoms: C4_8  and  C5_9 
REMARK    5  A    between atoms: C5_9  and  C6_10 
REMARK    6  A    between atoms: C6_10  and  N3_11 
REMARK       I    between atoms: N3_11  and  C7_13 
REMARK       I    between atoms: C7_13  and  N4_15 
ROOT
HETATM    1  N3  UNL     1       0.777   0.326  -0.555  1.00  0.00    -0.343 N 
ATOM      2  H3  UNL     1       0.925   1.332  -0.471  1.00  0.00     0.164 HD
HETATM    3  C7  UNL     1       1.899  -0.525  -0.502  1.00  0.00     0.318 C 
HETATM    4  O1  UNL     1       1.733  -1.762  -0.614  1.00  0.00    -0.247 OA
HETATM    5  N4  UNL     1       3.212  -0.054  -0.327  1.00  0.00    -0.327 N 
HETATM    6  C8  UNL     1       3.628   1.320  -0.178  1.00  0.00     0.140 C 
HETATM    7  C9  UNL     1       5.141   1.272  -0.174  1.00  0.00     0.077 C 
HETATM    8  C10 UNL     1       5.353   0.044  -1.082  1.00  0.00     0.041 C 
HETATM    9  C11 UNL     1       4.401  -0.855  -0.264  1.00  0.00     0.111 C 
HETATM   10  C12 UNL     1       5.048  -0.712   1.095  1.00  0.00     0.150 C 
HETATM   11 BR1  UNL     1       6.395  -2.017   1.438  1.00  0.00    -0.081 Br
HETATM   12  C13 UNL     1       5.564   0.689   1.116  1.00  0.00     0.149 C 
HETATM   13  O2  UNL     1       6.195   1.268   1.976  1.00  0.00    -0.296 OA
ENDROOT
BRANCH   1  14
HETATM   14  C6  UNL     1      -0.564  -0.156  -0.722  1.00  0.00     0.126 C 
BRANCH  14  15
HETATM   15  C5  UNL     1      -0.961  -1.011   0.439  1.00  0.00     0.039 C 
BRANCH  15  16
HETATM   16  C4  UNL     1      -2.379  -1.540   0.304  1.00  0.00     0.123 C 
BRANCH  16  17
HETATM   17  N2  UNL     1      -3.284  -0.406   0.244  1.00  0.00    -0.367 N 
ATOM     18  H2  UNL     1      -2.908   0.540   0.305  1.00  0.00     0.161 HD
BRANCH  17  19
HETATM   19  C3  UNL     1      -4.683  -0.593   0.102  1.00  0.00     0.169 C 
HETATM   20  S1  UNL     1      -5.273  -2.099   0.007  1.00  0.00    -0.041 SA
BRANCH  19  21
HETATM   21  N1  UNL     1      -5.541   0.519   0.046  1.00  0.00    -0.367 N 
HETATM   22  C1  UNL     1      -4.998   1.855   0.133  1.00  0.00     0.151 C 
HETATM   23  C2  UNL     1      -6.962   0.319  -0.098  1.00  0.00     0.151 C 
ENDBRANCH  19  21
ENDBRANCH  17  19
ENDBRANCH  16  17
ENDBRANCH  15  16
ENDBRANCH  14  15
ENDBRANCH   1  14
TORSDOF 6
