REMARK  11 active torsions:
REMARK  status: ('A' for Active; 'I' for Inactive)
REMARK    1  A    between atoms: C2_2  and  N1_3 
REMARK    2  A    between atoms: N1_3  and  C3_5 
REMARK    3  A    between atoms: C4_8  and  N3_9 
REMARK    4  A    between atoms: N3_9  and  C5_10 
REMARK    5  A    between atoms: C5_10  and  C6_11 
REMARK    6  A    between atoms: C6_11  and  O1_12 
REMARK    7  A    between atoms: C6_11  and  C7_14 
REMARK    8  A    between atoms: C9_16  and  C10_17 
REMARK    9  A    between atoms: C15_22  and  C16_23 
REMARK   10  A    between atoms: C21_30  and  C22_31 
REMARK   11  A    between atoms: N5_33  and  O3_34 
ROOT
HETATM    1  C5  UNL     1       1.379  -0.129   0.234  1.00  0.00     0.258 C 
ENDROOT
BRANCH   1   2
HETATM    2  N3  UNL     1       2.615  -0.628   0.320  1.00  0.00    -0.412 NA
BRANCH   2   3
HETATM    3  C4  UNL     1       3.784  -0.902   0.350  1.00  0.00     0.270 A 
HETATM    4  N2  UNL     1       4.814  -0.027   0.089  1.00  0.00    -0.147 N 
HETATM    5  C3  UNL     1       6.104  -0.351   0.124  1.00  0.00     0.713 A 
ATOM      6  H2  UNL     1       4.572   0.935  -0.147  1.00  0.00     0.188 HD
HETATM    7  N5  UNL     1       6.428  -1.638   0.441  1.00  0.00    -0.032 N 
HETATM    8  C21 UNL     1       5.478  -2.525   0.703  1.00  0.00     0.193 A 
HETATM    9  N4  UNL     1       4.191  -2.182   0.663  1.00  0.00    -0.297 N 
ATOM     10  H4  UNL     1       3.485  -2.888   0.870  1.00  0.00     0.171 HD
BRANCH   5  11
HETATM   11  N1  UNL     1       7.083   0.416  -0.101  1.00  0.00    -0.203 N 
ATOM     12  H1  UNL     1       7.979  -0.063  -0.013  1.00  0.00     0.183 HD
BRANCH  11  13
HETATM   13  C2  UNL     1       7.233   1.765  -0.442  1.00  0.00     0.074 C 
HETATM   14  C1  UNL     1       6.423   2.655   0.445  1.00  0.00     0.055 C 
ENDBRANCH  11  13
ENDBRANCH   5  11
BRANCH   7  15
HETATM   15  O3  UNL     1       7.738  -2.018   0.491  1.00  0.00    -0.268 OA
ATOM     16  H3  UNL     1       7.964  -2.914   0.712  1.00  0.00     0.246 HD
ENDBRANCH   7  15
BRANCH   8  17
HETATM   17  C22 UNL     1       5.900  -3.902   1.040  1.00  0.00     0.310 C 
HETATM   18  O2  UNL     1       5.023  -4.738   1.291  1.00  0.00    -0.298 OA
ENDBRANCH   8  17
ENDBRANCH   2   3
ENDBRANCH   1   2
BRANCH   1  19
HETATM   19  C6  UNL     1       0.249  -1.148   0.553  1.00  0.00     0.181 C 
BRANCH  19  20
HETATM   20  O1  UNL     1       0.398  -2.190  -0.367  1.00  0.00    -0.388 OA
ATOM     21  H1  UNL     1      -0.292  -2.813  -0.172  1.00  0.00     0.210 HD
ENDBRANCH  19  20
BRANCH  19  22
HETATM   22  C7  UNL     1      -1.089  -0.563   0.372  1.00  0.00    -0.026 A 
HETATM   23  C8  UNL     1      -1.510   0.648   0.875  1.00  0.00     0.017 A 
HETATM   24  C9  UNL     1      -2.792   1.157   0.655  1.00  0.00    -0.049 A 
HETATM   25  C14 UNL     1      -3.650   0.394  -0.102  1.00  0.00     0.015 A 
HETATM   26  C15 UNL     1      -3.294  -0.812  -0.627  1.00  0.00    -0.049 A 
HETATM   27  C20 UNL     1      -2.026  -1.282  -0.390  1.00  0.00     0.017 A 
BRANCH  24  28
HETATM   28  C10 UNL     1      -3.216   2.445   1.218  1.00  0.00    -0.024 C 
HETATM   29  C11 UNL     1      -2.985   2.298   2.739  1.00  0.00     0.019 C 
HETATM   30  C12 UNL     1      -4.676   2.727   1.069  1.00  0.00     0.019 C 
HETATM   31  C13 UNL     1      -2.369   3.622   0.810  1.00  0.00     0.019 C 
ENDBRANCH  24  28
BRANCH  26  32
HETATM   32  C16 UNL     1      -4.290  -1.564  -1.440  1.00  0.00    -0.024 C 
HETATM   33  C17 UNL     1      -4.605  -0.881  -2.736  1.00  0.00     0.019 C 
HETATM   34  C18 UNL     1      -3.867  -3.002  -1.641  1.00  0.00     0.019 C 
HETATM   35  C19 UNL     1      -5.572  -1.597  -0.610  1.00  0.00     0.019 C 
ENDBRANCH  26  32
ENDBRANCH  19  22
ENDBRANCH   1  19
TORSDOF 11
