REMARK  8 active torsions:
REMARK  status: ('A' for Active; 'I' for Inactive)
REMARK    1  A    between atoms: O1_2  and  C2_3 
REMARK    2  A    between atoms: C2_3  and  C3_5 
REMARK    3  A    between atoms: C3_5  and  C4_6 
REMARK    4  A    between atoms: C8_10  and  N1_11 
REMARK    5  A    between atoms: N1_11  and  C9_13 
REMARK    6  A    between atoms: C9_13  and  N2_15 
REMARK    7  A    between atoms: N2_15  and  C10_17 
REMARK    8  A    between atoms: C10_17  and  C11_18 
ROOT
HETATM    1  C4  UNL     1      -1.827  -0.223  -0.127  1.00  0.00     0.021 C 
HETATM    2  C5  UNL     1      -1.729  -0.558   1.346  1.00  0.00     0.019 C 
HETATM    3  C6  UNL     1      -0.671  -1.638   1.434  1.00  0.00    -0.009 C 
HETATM    4  C7  UNL     1       0.657  -0.933   1.408  1.00  0.00     0.036 C 
HETATM    5  C8  UNL     1       0.929  -0.186   0.144  1.00  0.00     0.037 C 
HETATM    6  C12 UNL     1       0.200   1.152   0.187  1.00  0.00     0.069 C 
HETATM    7  C13 UNL     1      -1.190   1.103  -0.361  1.00  0.00     0.183 C 
HETATM    8  F2  UNL     1      -1.252   1.500  -1.687  1.00  0.00    -0.248 F 
HETATM    9  C14 UNL     1       0.412  -0.882  -1.101  1.00  0.00     0.057 C 
HETATM   10  C15 UNL     1      -1.009  -1.292  -0.841  1.00  0.00     0.050 C 
HETATM   11 CL1  UNL     1      -1.741  -1.766  -2.374  1.00  0.00    -0.118 Cl
HETATM   12  C16 UNL     1      -0.970  -2.409   0.162  1.00  0.00     0.031 C 
ENDROOT
BRANCH   5  13
HETATM   13  N1  UNL     1       2.347   0.093   0.065  1.00  0.00    -0.358 N 
ATOM     14  H1  UNL     1       2.616   1.077   0.062  1.00  0.00     0.162 HD
BRANCH  13  15
HETATM   15  C9  UNL     1       3.389  -0.836  -0.008  1.00  0.00     0.168 C 
HETATM   16  S1  UNL     1       3.213  -2.466  -0.029  1.00  0.00    -0.041 SA
BRANCH  15  17
HETATM   17  N2  UNL     1       4.731  -0.369  -0.077  1.00  0.00    -0.365 N 
ATOM     18  H2  UNL     1       5.502  -1.034  -0.131  1.00  0.00     0.161 HD
BRANCH  17  19
HETATM   19  C10 UNL     1       4.999   1.057  -0.071  1.00  0.00     0.153 C 
BRANCH  19  20
HETATM   20  C11 UNL     1       6.459   1.367  -0.148  1.00  0.00     0.241 C 
HETATM   21  F1  UNL     1       6.573   2.763  -0.133  1.00  0.00    -0.254 F 
ENDBRANCH  19  20
ENDBRANCH  17  19
ENDBRANCH  15  17
ENDBRANCH  13  15
ENDBRANCH   5  13
BRANCH   1  22
HETATM   22  C3  UNL     1      -3.273  -0.319  -0.500  1.00  0.00     0.125 C 
BRANCH  22  23
HETATM   23  C2  UNL     1      -4.197   0.541   0.218  1.00  0.00     0.259 C 
HETATM   24  O2  UNL     1      -3.858   1.297   1.150  1.00  0.00    -0.265 OA
BRANCH  23  25
HETATM   25  O1  UNL     1      -5.536   0.529  -0.145  1.00  0.00    -0.326 OA
HETATM   26  C1  UNL     1      -6.474   1.366   0.543  1.00  0.00     0.213 C 
ENDBRANCH  23  25
ENDBRANCH  22  23
ENDBRANCH   1  22
TORSDOF 8
