REMARK  6 active torsions:
REMARK  status: ('A' for Active; 'I' for Inactive)
REMARK    1  A    between atoms: C2_2  and  C3_3 
REMARK    2  A    between atoms: C2_2  and  C4_8 
REMARK    3  A    between atoms: C2_2  and  C9_16 
REMARK    4  A    between atoms: C3_3  and  N1_4 
REMARK    5  A    between atoms: C4_8  and  C5_9 
REMARK    6  A    between atoms: C13_23  and  C14_24 
REMARK       I    between atoms: C14_24  and  N3_26 
ROOT
HETATM    1  C9  UNL     1       0.237  -1.568   0.729  1.00  0.00     0.028 C 
HETATM    2  C10 UNL     1       0.107  -2.793  -0.215  1.00  0.00     0.017 C 
HETATM    3  C11 UNL     1      -0.491  -3.960   0.515  1.00  0.00     0.103 C 
HETATM    4  C12 UNL     1      -1.535  -3.534   1.476  1.00  0.00     0.218 C 
HETATM    5  O1  UNL     1      -2.269  -4.445   1.950  1.00  0.00    -0.274 OA
HETATM    6  N2  UNL     1      -1.715  -2.223   1.849  1.00  0.00    -0.347 N 
ATOM      7  H2  UNL     1      -2.228  -1.985   2.698  1.00  0.00     0.163 HD
HETATM    8  C13 UNL     1      -1.131  -1.143   0.966  1.00  0.00     0.181 C 
ENDROOT
BRANCH   1   9
HETATM    9  C2  UNL     1       1.397  -0.742   0.399  1.00  0.00    -0.014 C 
HETATM   10  C1  UNL     1       1.406   0.472   1.332  1.00  0.00     0.017 C 
BRANCH   9  11
HETATM   11  C3  UNL     1       2.676  -1.453   0.905  1.00  0.00     0.239 C 
BRANCH  11  12
HETATM   12  N1  UNL     1       3.071  -2.632   0.298  1.00  0.00    -0.079 N 
ATOM     13  H13 UNL     1       2.294  -3.293   0.326  1.00  0.00     0.274 HD
ATOM     14  H12 UNL     1       3.159  -2.472  -0.705  1.00  0.00     0.274 HD
ATOM     15  H11 UNL     1       3.914  -3.100   0.631  1.00  0.00     0.274 HD
ENDBRANCH  11  12
ENDBRANCH   9  11
BRANCH   9  16
HETATM   16  C4  UNL     1       1.546  -0.285  -0.987  1.00  0.00     0.019 C 
BRANCH  16  17
HETATM   17  C5  UNL     1       2.722   0.463  -1.426  1.00  0.00     0.032 C 
HETATM   18  C6  UNL     1       3.107   1.770  -0.856  1.00  0.00     0.089 C 
HETATM   19  C7  UNL     1       3.576   2.155  -2.275  1.00  0.00     0.274 C 
HETATM   20  F1  UNL     1       3.385   3.466  -2.590  1.00  0.00    -0.203 F 
HETATM   21  F2  UNL     1       4.830   1.699  -2.570  1.00  0.00    -0.203 F 
HETATM   22  C8  UNL     1       2.441   1.229  -2.740  1.00  0.00     0.246 C 
HETATM   23  F3  UNL     1       2.816   0.570  -3.866  1.00  0.00    -0.243 F 
ENDBRANCH  16  17
ENDBRANCH   9  16
ENDBRANCH   1   9
BRANCH   8  24
HETATM   24  C14 UNL     1      -1.559   0.051   1.621  1.00  0.00     0.243 C 
HETATM   25  O2  UNL     1      -1.556   0.137   2.892  1.00  0.00    -0.271 OA
HETATM   26  N3  UNL     1      -2.014   1.191   0.968  1.00  0.00    -0.350 N 
HETATM   27  C15 UNL     1      -2.117   1.257  -0.463  1.00  0.00     0.126 C 
HETATM   28  C19 UNL     1      -2.425   2.412   1.670  1.00  0.00     0.126 C 
HETATM   29  C16 UNL     1      -3.240   2.205  -0.859  1.00  0.00     0.020 C 
HETATM   30  C17 UNL     1      -4.350   2.206   0.145  1.00  0.00     0.003 C 
HETATM   31  C18 UNL     1      -3.907   2.522   1.537  1.00  0.00     0.020 C 
ENDBRANCH   8  24
TORSDOF 6
