REMARK  17 active torsions:
REMARK  status: ('A' for Active; 'I' for Inactive)
REMARK    1  A    between atoms: C2_2  and  O1_3 
REMARK    2  A    between atoms: C2_2  and  C3_5 
REMARK    3  A    between atoms: C2_2  and  C4_8 
REMARK    4  A    between atoms: C3_5  and  O2_6 
REMARK    5  A    between atoms: C4_8  and  O3_9 
REMARK    6  A    between atoms: C4_8  and  C5_11 
REMARK    7  A    between atoms: C5_11  and  O4_12 
REMARK    8  A    between atoms: C5_11  and  C6_14 
REMARK    9  A    between atoms: C6_14  and  O5_15 
REMARK   10  A    between atoms: C6_14  and  C7_17 
REMARK   11  A    between atoms: C7_17  and  O7_19 
REMARK   12  A    between atoms: O7_19  and  C8_20 
REMARK   13  A    between atoms: N1_24  and  N2_26 
REMARK   14  A    between atoms: N2_26  and  C11_28 
REMARK   15  A    between atoms: C16_35  and  N4_36 
REMARK   16  A    between atoms: N4_36  and  N5_38 
REMARK       I    between atoms: N5_38  and  C17_40 
REMARK       I    between atoms: C17_40  and  N6_42 
REMARK   17  A    between atoms: N6_42  and  N7_44 
ROOT
HETATM    1  C8  UNL     1      -0.184  -0.527   1.324  1.00  0.00     0.193 C 
HETATM    2  C9  UNL     1      -1.061  -1.521   2.095  1.00  0.00     0.213 C 
HETATM    3  O8  UNL     1      -2.383  -1.354   1.674  1.00  0.00    -0.329 OA
HETATM    4  C10 UNL     1      -2.949  -0.331   0.945  1.00  0.00     0.203 C 
HETATM    5  N1  UNL     1      -3.996  -0.620   0.220  1.00  0.00    -0.276 N 
ATOM      6  H1  UNL     1      -4.439   0.116  -0.330  1.00  0.00     0.189 HD
HETATM    7  C16 UNL     1      -2.574   1.064   0.837  1.00  0.00     0.170 C 
HETATM    8  N8  UNL     1      -1.437   1.546   1.235  1.00  0.00    -0.352 N 
ATOM      9  H8  UNL     1      -1.311   2.549   1.096  1.00  0.00     0.162 HD
HETATM   10  C18 UNL     1      -0.312   0.850   1.855  1.00  0.00     0.222 C 
HETATM   11  C19 UNL     1       0.884   1.621   1.589  1.00  0.00     0.087 C 
HETATM   12  N9  UNL     1       1.829   2.255   1.389  1.00  0.00    -0.195 NA
ENDROOT
BRANCH   1  13
HETATM   13  O7  UNL     1       1.130  -1.027   1.456  1.00  0.00    -0.309 OA
BRANCH  13  14
HETATM   14  C7  UNL     1       1.844  -1.506   0.340  1.00  0.00     0.291 C 
HETATM   15  O6  UNL     1       1.217  -1.442  -0.744  1.00  0.00    -0.262 OA
BRANCH  14  16
HETATM   16  C6  UNL     1       3.206  -2.045   0.396  1.00  0.00     0.248 C 
BRANCH  16  17
HETATM   17  C5  UNL     1       4.181  -1.493  -0.587  1.00  0.00     0.188 C 
BRANCH  17  18
HETATM   18  C4  UNL     1       4.696  -0.160  -0.158  1.00  0.00     0.185 C 
BRANCH  18  19
HETATM   19  C2  UNL     1       5.692   0.482  -1.052  1.00  0.00     0.103 C 
HETATM   20  C1  UNL     1       5.134   0.787  -2.450  1.00  0.00     0.051 C 
BRANCH  19  21
HETATM   21  O1  UNL     1       5.943   1.783  -0.529  1.00  0.00    -0.385 OA
ATOM     22  H1  UNL     1       6.288   1.594   0.336  1.00  0.00     0.210 HD
ENDBRANCH  19  21
BRANCH  19  23
HETATM   23  C3  UNL     1       7.022  -0.189  -1.162  1.00  0.00     0.204 C 
BRANCH  23  24
HETATM   24  O2  UNL     1       7.703  -0.263   0.033  1.00  0.00    -0.398 OA
ATOM     25  H2  UNL     1       8.549  -0.690  -0.037  1.00  0.00     0.209 HD
ENDBRANCH  23  24
ENDBRANCH  19  23
ENDBRANCH  18  19
BRANCH  18  26
HETATM   26  O3  UNL     1       5.181  -0.218   1.136  1.00  0.00    -0.390 OA
ATOM     27  H3  UNL     1       4.544  -0.629   1.708  1.00  0.00     0.210 HD
ENDBRANCH  18  26
ENDBRANCH  17  18
BRANCH  17  28
HETATM   28  O4  UNL     1       3.697  -1.529  -1.892  1.00  0.00    -0.390 OA
ATOM     29  H4  UNL     1       3.369  -2.378  -2.165  1.00  0.00     0.210 HD
ENDBRANCH  17  28
ENDBRANCH  16  17
BRANCH  16  30
HETATM   30  O5  UNL     1       3.744  -2.004   1.679  1.00  0.00    -0.383 OA
ATOM     31  H5  UNL     1       3.123  -2.356   2.306  1.00  0.00     0.210 HD
ENDBRANCH  16  30
ENDBRANCH  14  16
ENDBRANCH  13  14
ENDBRANCH   1  13
BRANCH   7  32
HETATM   32  N4  UNL     1      -3.499   1.968   0.258  1.00  0.00    -0.278 N 
ATOM     33  H4  UNL     1      -4.300   1.596  -0.252  1.00  0.00     0.189 HD
BRANCH  32  34
HETATM   34  N5  UNL     1      -3.349   3.347   0.363  1.00  0.00    -0.249 N 
HETATM   35  C17 UNL     1      -4.381   4.108   0.961  1.00  0.00     0.352 C 
HETATM   36  O9  UNL     1      -5.412   3.536   1.387  1.00  0.00    -0.244 OA
HETATM   37  N6  UNL     1      -4.230   5.514   1.070  1.00  0.00    -0.257 N 
ATOM     38  H6  UNL     1      -3.385   5.965   0.720  1.00  0.00     0.191 HD
ATOM     39  H5  UNL     1      -2.506   3.803   0.014  1.00  0.00     0.192 HD
BRANCH  37  40
HETATM   40  N7  UNL     1      -5.243   6.284   1.659  1.00  0.00    -0.341 N 
ATOM     41  H72 UNL     1      -6.082   5.818   2.004  1.00  0.00     0.177 HD
ATOM     42  H71 UNL     1      -5.134   7.295   1.737  1.00  0.00     0.177 HD
ENDBRANCH  37  40
ENDBRANCH  32  34
ENDBRANCH   7  32
BRANCH   5  43
HETATM   43  N2  UNL     1      -4.522  -1.905   0.179  1.00  0.00    -0.297 N 
ATOM     44  H2  UNL     1      -4.429  -2.524   0.985  1.00  0.00     0.187 HD
BRANCH  43  45
HETATM   45  C11 UNL     1      -5.189  -2.351  -0.991  1.00  0.00     0.063 A 
HETATM   46  C12 UNL     1      -5.723  -3.638  -1.062  1.00  0.00     0.034 A 
HETATM   47  C13 UNL     1      -6.352  -4.008  -2.213  1.00  0.00     0.019 A 
HETATM   48  C14 UNL     1      -6.444  -3.109  -3.271  1.00  0.00     0.088 A 
HETATM   49  N3  UNL     1      -5.928  -1.872  -3.197  1.00  0.00    -0.373 N 
HETATM   50  C15 UNL     1      -5.309  -1.512  -2.060  1.00  0.00     0.118 A 
ATOM     51  H3  UNL     1      -6.004  -1.224  -3.981  1.00  0.00     0.164 HD
ENDBRANCH  43  45
ENDBRANCH   5  43
TORSDOF 17
