REMARK  12 active torsions:
REMARK  status: ('A' for Active; 'I' for Inactive)
REMARK    1  A    between atoms: C3_3  and  O1_4 
REMARK    2  A    between atoms: C4_6  and  O2_7 
REMARK    3  A    between atoms: C5_9  and  O3_10 
REMARK    4  A    between atoms: C6_12  and  C7_13 
REMARK    5  A    between atoms: C7_13  and  N1_14 
REMARK    6  A    between atoms: N1_14  and  C8_17 
REMARK    7  A    between atoms: C8_17  and  C9_18 
REMARK    8  A    between atoms: C9_18  and  N2_19 
REMARK    9  A    between atoms: N2_19  and  C11_21 
REMARK   10  A    between atoms: C11_21  and  C12_22 
REMARK   11  A    between atoms: C12_22  and  N3_23 
REMARK   12  A    between atoms: N4_27  and  N5_28 
ROOT
HETATM    1  C1  UNL     1      -4.904  -1.631   0.392  1.00  0.00     0.031 C 
HETATM    2  C2  UNL     1      -3.911  -0.828  -0.389  1.00  0.00     0.107 C 
HETATM    3  C3  UNL     1      -4.292   0.624  -0.554  1.00  0.00     0.168 C 
HETATM    4  C4  UNL     1      -3.554   1.517   0.448  1.00  0.00     0.178 C 
HETATM    5  C5  UNL     1      -2.054   1.452   0.234  1.00  0.00     0.170 C 
HETATM    6  C6  UNL     1      -1.774   0.090  -0.346  1.00  0.00     0.136 C 
HETATM    7  N4  UNL     1      -2.639  -0.840   0.318  1.00  0.00    -0.222 NA
ENDROOT
BRANCH   6   8
HETATM    8  C7  UNL     1      -0.328  -0.289  -0.387  1.00  0.00     0.256 C 
BRANCH   8   9
HETATM    9  N1  UNL     1       0.349  -0.340   0.860  1.00  0.00    -0.072 N 
ATOM     10  H12 UNL     1       0.224   0.517   1.399  1.00  0.00     0.277 HD
ATOM     11  H11 UNL     1      -0.093  -0.990   1.510  1.00  0.00     0.277 HD
BRANCH   9  12
HETATM   12  C8  UNL     1       1.750  -0.650   0.648  1.00  0.00     0.262 C 
BRANCH  12  13
HETATM   13  C9  UNL     1       2.456   0.493   0.034  1.00  0.00     0.299 C 
BRANCH  13  14
HETATM   14  N2  UNL     1       3.869   0.310  -0.233  1.00  0.00     0.087 N 
HETATM   15  C10 UNL     1       4.050  -0.652  -1.315  1.00  0.00     0.310 C 
BRANCH  14  16
HETATM   16  C11 UNL     1       4.625  -0.087   0.933  1.00  0.00     0.299 C 
BRANCH  16  17
HETATM   17  C12 UNL     1       6.105   0.071   0.563  1.00  0.00     0.259 C 
BRANCH  17  18
HETATM   18  N3  UNL     1       6.324   1.496   0.242  1.00  0.00    -0.078 N 
ATOM     19  H33 UNL     1       5.692   1.845  -0.479  1.00  0.00     0.274 HD
ATOM     20  H32 UNL     1       6.030   2.124   0.990  1.00  0.00     0.274 HD
ATOM     21  H31 UNL     1       7.308   1.601  -0.004  1.00  0.00     0.274 HD
ENDBRANCH  17  18
ENDBRANCH  16  17
ENDBRANCH  14  16
ENDBRANCH  13  14
ENDBRANCH  12  13
ENDBRANCH   9  12
ENDBRANCH   8   9
ENDBRANCH   6   8
BRANCH   5  22
HETATM   22  O3  UNL     1      -1.616   2.467  -0.607  1.00  0.00    -0.391 OA
ATOM     23  H3  UNL     1      -0.676   2.426  -0.741  1.00  0.00     0.210 HD
ENDBRANCH   5  22
BRANCH   7  24
HETATM   24  N5  UNL     1      -2.110  -2.113   0.491  1.00  0.00    -0.362 NA
ATOM     25  H52 UNL     1      -2.726  -2.775   0.964  1.00  0.00     0.171 HD
ATOM     26  H51 UNL     1      -1.218  -2.121   0.987  1.00  0.00     0.171 HD
ENDBRANCH   7  24
BRANCH   4  27
HETATM   27  O2  UNL     1      -3.936   1.127   1.715  1.00  0.00    -0.390 OA
ATOM     28  H2  UNL     1      -3.478   1.681   2.336  1.00  0.00     0.210 HD
ENDBRANCH   4  27
BRANCH   3  29
HETATM   29  O1  UNL     1      -5.651   0.809  -0.328  1.00  0.00    -0.391 OA
ATOM     30  H1  UNL     1      -5.891   1.722  -0.432  1.00  0.00     0.210 HD
ENDBRANCH   3  29
TORSDOF 12
