REMARK  9 active torsions:
REMARK  status: ('A' for Active; 'I' for Inactive)
REMARK    1  A    between atoms: C2_5  and  C3_7 
REMARK    2  A    between atoms: C3_7  and  N4_8 
REMARK    3  A    between atoms: N4_8  and  C4_10 
REMARK    4  A    between atoms: C5_13  and  C6_14 
REMARK    5  A    between atoms: C6_14  and  O1_15 
REMARK    6  A    between atoms: C7_17  and  C8_18 
REMARK    7  A    between atoms: C8_18  and  C9_19 
REMARK    8  A    between atoms: C9_19  and  C10_20 
REMARK    9  A    between atoms: C10_20  and  N6_21 
ROOT
HETATM    1  N1  UNL     1      -7.984   2.700  -0.643  1.00  0.00    -0.172 NA
HETATM    2  C1  UNL     1      -7.104   1.963  -0.688  1.00  0.00     0.183 C 
HETATM    3  N2  UNL     1      -6.035   1.072  -0.761  1.00  0.00    -0.284 N 
ATOM      4  H2  UNL     1      -5.730   0.753  -1.681  1.00  0.00     0.179 HD
HETATM    5  C2  UNL     1      -5.415   0.633   0.276  1.00  0.00     0.119 C 
HETATM    6  N3  UNL     1      -5.852   1.084   1.550  1.00  0.00    -0.085 NA
ENDROOT
BRANCH   5   7
HETATM    7  C3  UNL     1      -4.289  -0.309   0.144  1.00  0.00     0.196 C 
BRANCH   7   8
HETATM    8  N4  UNL     1      -3.076   0.239   0.701  1.00  0.00    -0.356 N 
ATOM      9  H4  UNL     1      -3.063   1.169   1.121  1.00  0.00     0.163 HD
BRANCH   8  10
HETATM   10  C4  UNL     1      -1.891  -0.564   0.646  1.00  0.00     0.172 C 
HETATM   11  N5  UNL     1      -1.785  -1.831   0.847  1.00  0.00    -0.354 N 
HETATM   12  C5  UNL     1      -0.422  -2.284   0.702  1.00  0.00     0.130 C 
ATOM     13  H5  UNL     1      -2.569  -2.441   1.080  1.00  0.00     0.163 HD
HETATM   14  C7  UNL     1       0.347  -1.012   0.781  1.00  0.00     0.109 C 
HETATM   15  N9  UNL     1      -0.606  -0.037   0.343  1.00  0.00    -0.356 N 
ATOM     16  H9  UNL     1      -0.403   0.859  -0.099  1.00  0.00     0.163 HD
BRANCH  12  17
HETATM   17  C6  UNL     1      -0.222  -3.065  -0.555  1.00  0.00     0.191 C 
BRANCH  17  18
HETATM   18  O1  UNL     1      -0.500  -2.371  -1.705  1.00  0.00    -0.399 OA
ATOM     19  H1  UNL     1      -0.373  -2.868  -2.505  1.00  0.00     0.209 HD
ENDBRANCH  17  18
ENDBRANCH  12  17
BRANCH  14  20
HETATM   20  C8  UNL     1       1.639  -1.004   0.039  1.00  0.00     0.029 C 
BRANCH  20  21
HETATM   21  C9  UNL     1       2.266   0.363   0.239  1.00  0.00     0.022 C 
BRANCH  21  22
HETATM   22  C10 UNL     1       3.605   0.435  -0.503  1.00  0.00     0.122 C 
BRANCH  22  23
HETATM   23  N6  UNL     1       4.142   1.750  -0.272  1.00  0.00    -0.367 N 
HETATM   24  C11 UNL     1       5.400   1.937  -0.305  1.00  0.00     0.196 C 
HETATM   25  N7  UNL     1       5.924   3.226  -0.079  1.00  0.00    -0.067 NA
HETATM   26  N8  UNL     1       6.275   0.867  -0.566  1.00  0.00    -0.067 NA
ATOM     27  H6  UNL     1       3.515   2.531  -0.082  1.00  0.00     0.161 HD
ENDBRANCH  22  23
ENDBRANCH  21  22
ENDBRANCH  20  21
ENDBRANCH  14  20
ENDBRANCH   8  10
ENDBRANCH   7   8
ENDBRANCH   5   7
TORSDOF 9
