REMARK  2 active torsions:
REMARK  status: ('A' for Active; 'I' for Inactive)
REMARK    1  A    between atoms: C1_2  and  C2_3 
REMARK    2  A    between atoms: C2_3  and  C3_4 
ROOT
HETATM    1  C3  UNL     1       0.267   0.298  -0.329  1.00  0.00     0.122 C 
HETATM    2  C4  UNL     1      -0.540  -0.891   0.108  1.00  0.00     0.032 C 
HETATM    3  C5  UNL     1      -2.006  -0.703   0.054  1.00  0.00     0.004 C 
HETATM    4  C6  UNL     1      -2.489   0.682  -0.156  1.00  0.00     0.026 C 
HETATM    5  C7  UNL     1      -1.457   1.739  -0.189  1.00  0.00     0.168 C 
HETATM    6  O1  UNL     1      -0.240   1.405   0.355  1.00  0.00    -0.386 OA
ENDROOT
BRANCH   1   7
HETATM    7  C2  UNL     1       1.693   0.128   0.074  1.00  0.00     0.043 C 
BRANCH   7   8
HETATM    8  C1  UNL     1       2.342  -1.097  -0.529  1.00  0.00     0.088 C 
HETATM    9  S1  UNL     1       4.065  -1.191   0.033  1.00  0.00    -0.098 SA
ENDBRANCH   7   8
ENDBRANCH   1   7
TORSDOF 2
