REMARK  3 active torsions:
REMARK  status: ('A' for Active; 'I' for Inactive)
REMARK    1  A    between atoms: S1_3  and  C2_4 
REMARK    2  A    between atoms: C2_4  and  C3_5 
REMARK    3  A    between atoms: C3_5  and  N2_6 
ROOT
HETATM    1  N1  UNL     1      -3.755   1.831   0.944  1.00  0.00    -0.184 NA
HETATM    2  C1  UNL     1      -2.891   1.648   0.164  1.00  0.00     0.134 C 
HETATM    3  S1  UNL     1      -1.565   1.391  -0.991  1.00  0.00    -0.039 SA
ENDROOT
BRANCH   3   4
HETATM    4  C2  UNL     1      -0.411   0.152  -0.346  1.00  0.00     0.046 C 
HETATM    5  C4  UNL     1       0.785   0.103  -1.234  1.00  0.00     0.023 C 
HETATM    6  C5  UNL     1       1.942   0.684  -0.461  1.00  0.00     0.002 C 
HETATM    7  C6  UNL     1       1.539   0.745   0.992  1.00  0.00     0.002 C 
HETATM    8  C7  UNL     1       0.053   0.518   1.048  1.00  0.00     0.023 C 
BRANCH   4   9
HETATM    9  C3  UNL     1      -1.155  -1.178  -0.340  1.00  0.00     0.251 C 
BRANCH   9  10
HETATM   10  N2  UNL     1      -0.303  -2.243   0.163  1.00  0.00    -0.078 N 
ATOM     11  H23 UNL     1       0.573  -2.303  -0.356  1.00  0.00     0.274 HD
ATOM     12  H22 UNL     1       0.078  -2.019   1.082  1.00  0.00     0.274 HD
ATOM     13  H21 UNL     1      -0.801  -3.133   0.167  1.00  0.00     0.274 HD
ENDBRANCH   9  10
ENDBRANCH   4   9
ENDBRANCH   3   4
TORSDOF 3
