REMARK  9 active torsions:
REMARK  status: ('A' for Active; 'I' for Inactive)
REMARK    1  A    between atoms: C2_2  and  C3_3 
REMARK    2  A    between atoms: C3_3  and  C5_5 
REMARK    3  A    between atoms: C3_3  and  C8_10 
REMARK    4  A    between atoms: C5_5  and  O1_6 
REMARK    5  A    between atoms: O1_6  and  C6_7 
REMARK    6  A    between atoms: C16_18  and  O3_19 
REMARK    7  A    between atoms: O3_19  and  C17_20 
REMARK    8  A    between atoms: C17_20  and  C18_22 
REMARK    9  A    between atoms: C25_33  and  O9_34 
ROOT
HETATM    1  C8  UNL     1      -1.816   0.644   0.330  1.00  0.00     0.001 C 
HETATM    2  C9  UNL     1      -1.949   1.498   1.603  1.00  0.00     0.006 C 
HETATM    3  C10 UNL     1      -0.671   1.767   2.301  1.00  0.00     0.009 C 
HETATM    4  C11 UNL     1      -0.035   0.474   2.674  1.00  0.00    -0.043 C 
HETATM    5  C12 UNL     1       1.347   0.768   3.211  1.00  0.00     0.015 C 
HETATM    6  C13 UNL     1      -0.779  -0.293   3.708  1.00  0.00     0.015 C 
HETATM    7  C14 UNL     1       0.144  -0.305   1.364  1.00  0.00     0.003 C 
HETATM    8  C15 UNL     1       1.081   0.477   0.536  1.00  0.00     0.067 C 
HETATM    9  C16 UNL     1       1.556  -0.230  -0.737  1.00  0.00     0.273 C 
HETATM   10  O7  UNL     1       0.457  -0.320  -1.545  1.00  0.00    -0.330 OA
HETATM   11  C23 UNL     1      -0.283  -1.441  -1.498  1.00  0.00     0.277 C 
HETATM   12  O8  UNL     1       0.530  -2.587  -1.375  1.00  0.00    -0.351 OA
HETATM   13  C24 UNL     1      -0.012  -2.754  -0.133  1.00  0.00     0.171 A 
HETATM   14  C25 UNL     1      -1.392  -3.161   0.097  1.00  0.00     0.167 A 
HETATM   15  C27 UNL     1      -1.043  -1.720  -0.262  1.00  0.00     0.071 A 
HETATM   16  C28 UNL     1      -1.208  -0.612   0.714  1.00  0.00     0.014 C 
ENDROOT
BRANCH   9  17
HETATM   17  O3  UNL     1       2.563   0.631  -1.303  1.00  0.00    -0.287 OA
BRANCH  17  18
HETATM   18  C17 UNL     1       3.876   0.221  -1.412  1.00  0.00     0.292 C 
HETATM   19  O4  UNL     1       4.170  -0.928  -1.003  1.00  0.00    -0.262 OA
BRANCH  18  20
HETATM   20  C18 UNL     1       4.957   1.056  -1.983  1.00  0.00     0.248 C 
HETATM   21  C19 UNL     1       5.192   2.283  -1.131  1.00  0.00     0.213 C 
HETATM   22  O5  UNL     1       6.328   1.984  -0.426  1.00  0.00    -0.353 OA
HETATM   23  C20 UNL     1       6.962   0.920  -1.012  1.00  0.00     0.158 C 
HETATM   24  C21 UNL     1       7.344  -0.051   0.104  1.00  0.00     0.078 C 
HETATM   25  C22 UNL     1       8.274   1.323  -1.680  1.00  0.00     0.078 C 
HETATM   26  O6  UNL     1       6.134   0.352  -1.943  1.00  0.00    -0.339 OA
ENDBRANCH  18  20
ENDBRANCH  17  18
ENDBRANCH   9  17
BRANCH   1  27
HETATM   27  C3  UNL     1      -3.120   0.800  -0.322  1.00  0.00    -0.018 C 
HETATM   28  C4  UNL     1      -3.282   2.321  -0.543  1.00  0.00     0.018 C 
BRANCH  27  29
HETATM   29  C2  UNL     1      -4.344   0.403   0.426  1.00  0.00     0.007 C 
HETATM   30  C1  UNL     1      -4.535  -1.003   0.801  1.00  0.00     0.006 C 
ENDBRANCH  27  29
BRANCH  27  31
HETATM   31  C5  UNL     1      -3.250   0.235  -1.715  1.00  0.00     0.188 C 
BRANCH  31  32
HETATM   32  O1  UNL     1      -4.439   0.825  -2.227  1.00  0.00    -0.321 OA
BRANCH  32  33
HETATM   33  C6  UNL     1      -4.926   0.571  -3.490  1.00  0.00     0.254 C 
HETATM   34  C7  UNL     1      -6.167   1.230  -3.935  1.00  0.00     0.126 C 
HETATM   35  O2  UNL     1      -4.261  -0.229  -4.203  1.00  0.00    -0.266 OA
ENDBRANCH  32  33
ENDBRANCH  31  32
ENDBRANCH  27  31
ENDBRANCH   1  27
BRANCH  14  36
HETATM   36  O9  UNL     1      -1.772  -3.367   1.396  1.00  0.00    -0.387 OA
HETATM   37  C26 UNL     1      -2.765  -4.374   1.439  1.00  0.00     0.202 C 
ENDBRANCH  14  36
TORSDOF 9
