REMARK  15 active torsions:
REMARK  status: ('A' for Active; 'I' for Inactive)
REMARK       I    between atoms: C2_2  and  N1_4 
REMARK    1  A    between atoms: N1_4  and  C3_6 
REMARK    2  A    between atoms: C4_7  and  N2_8 
REMARK       I    between atoms: N2_8  and  C5_10 
REMARK    3  A    between atoms: C5_10  and  C6_12 
REMARK    4  A    between atoms: C6_12  and  O3_13 
REMARK    5  A    between atoms: C6_12  and  C7_15 
REMARK    6  A    between atoms: C6_12  and  C8_18 
REMARK    7  A    between atoms: C7_15  and  O4_16 
REMARK    8  A    between atoms: C8_18  and  O5_19 
REMARK    9  A    between atoms: C8_18  and  C9_21 
REMARK   10  A    between atoms: C10_24  and  O6_25 
REMARK   11  A    between atoms: C11_27  and  O7_28 
REMARK   12  A    between atoms: O7_28  and  C12_29 
REMARK   13  A    between atoms: C16_38  and  N7_39 
REMARK   14  A    between atoms: C17_43  and  O9_44 
REMARK   15  A    between atoms: C18_46  and  O10_47 
ROOT
HETATM    1  C6  UNL     1       0.918  -2.184   0.276  1.00  0.00     0.187 C 
ENDROOT
BRANCH   1   2
HETATM    2  C5  UNL     1      -0.218  -1.434   0.832  1.00  0.00     0.257 C 
HETATM    3  N2  UNL     1      -1.407  -1.322   0.065  1.00  0.00    -0.352 N 
ATOM      4  H2  UNL     1      -1.441  -1.766  -0.853  1.00  0.00     0.163 HD
HETATM    5  O2  UNL     1      -0.201  -0.882   1.950  1.00  0.00    -0.270 OA
BRANCH   3   6
HETATM    6  C4  UNL     1      -2.578  -0.600   0.536  1.00  0.00     0.111 C 
HETATM    7  C3  UNL     1      -2.847   0.573  -0.366  1.00  0.00     0.138 C 
HETATM    8  C18 UNL     1      -4.107   0.419  -1.178  1.00  0.00     0.173 C 
HETATM    9  C17 UNL     1      -5.314   0.099  -0.361  1.00  0.00     0.179 C 
HETATM   10  C16 UNL     1      -5.054  -0.843   0.773  1.00  0.00     0.216 C 
HETATM   11  C15 UNL     1      -3.727  -1.551   0.649  1.00  0.00     0.062 C 
BRANCH   7  12
HETATM   12  N1  UNL     1      -2.900   1.821   0.354  1.00  0.00    -0.352 N 
HETATM   13  C2  UNL     1      -2.006   2.904   0.083  1.00  0.00     0.214 C 
HETATM   14  C1  UNL     1      -2.067   4.173   0.821  1.00  0.00     0.117 C 
HETATM   15  O1  UNL     1      -1.154   2.721  -0.828  1.00  0.00    -0.274 OA
ATOM     16  H1  UNL     1      -3.602   1.936   1.085  1.00  0.00     0.163 HD
ENDBRANCH   7  12
BRANCH   8  17
HETATM   17  O10 UNL     1      -4.341   1.673  -1.786  1.00  0.00    -0.391 OA
ATOM     18  H10 UNL     1      -5.135   1.576  -2.298  1.00  0.00     0.210 HD
ENDBRANCH   8  17
BRANCH   9  19
HETATM   19  O9  UNL     1      -6.234  -0.546  -1.220  1.00  0.00    -0.391 OA
ATOM     20  H9  UNL     1      -6.399   0.052  -1.940  1.00  0.00     0.210 HD
ENDBRANCH   9  19
BRANCH  10  21
HETATM   21  N7  UNL     1      -6.080  -1.878   0.863  1.00  0.00    -0.072 N 
ATOM     22  H73 UNL     1      -6.050  -2.542   0.089  1.00  0.00     0.274 HD
ATOM     23  H72 UNL     1      -5.910  -2.547   1.614  1.00  0.00     0.274 HD
ATOM     24  H71 UNL     1      -6.977  -1.399   0.947  1.00  0.00     0.274 HD
ENDBRANCH  10  21
ENDBRANCH   3   6
ENDBRANCH   1   2
BRANCH   1  25
HETATM   25  O3  UNL     1       0.610  -2.684  -0.981  1.00  0.00    -0.376 OA
ATOM     26  H3  UNL     1       1.344  -3.169  -1.340  1.00  0.00     0.211 HD
ENDBRANCH   1  25
BRANCH   1  27
HETATM   27  C7  UNL     1       1.107  -3.412   1.177  1.00  0.00     0.215 C 
BRANCH  27  28
HETATM   28  O4  UNL     1       1.420  -2.999   2.466  1.00  0.00    -0.397 OA
ATOM     29  H4  UNL     1       1.537  -3.759   3.024  1.00  0.00     0.209 HD
ENDBRANCH  27  28
ENDBRANCH   1  27
BRANCH   1  30
HETATM   30  C8  UNL     1       2.210  -1.403   0.315  1.00  0.00     0.187 C 
BRANCH  30  31
HETATM   31  O5  UNL     1       2.504  -0.922   1.561  1.00  0.00    -0.390 OA
ATOM     32  H5  UNL     1       3.317  -0.431   1.586  1.00  0.00     0.210 HD
ENDBRANCH  30  31
BRANCH  30  33
HETATM   33  C9  UNL     1       2.188  -0.316  -0.695  1.00  0.00     0.160 C 
HETATM   34  N3  UNL     1       1.845  -0.842  -2.038  1.00  0.00    -0.135 NA
HETATM   35  N4  UNL     1       1.975   0.288  -2.842  1.00  0.00    -0.113 NA
HETATM   36  C10 UNL     1       3.078   1.056  -2.320  1.00  0.00     0.257 C 
HETATM   37  C11 UNL     1       3.523   0.274  -1.044  1.00  0.00     0.195 C 
BRANCH  36  38
HETATM   38  O6  UNL     1       2.577   2.284  -1.889  1.00  0.00    -0.376 OA
ATOM     39  H6  UNL     1       3.304   2.790  -1.545  1.00  0.00     0.211 HD
ENDBRANCH  36  38
BRANCH  37  40
HETATM   40  O7  UNL     1       4.080   1.132  -0.146  1.00  0.00    -0.333 OA
BRANCH  40  41
HETATM   41  C12 UNL     1       5.433   0.791   0.071  1.00  0.00     0.378 A 
HETATM   42  N5  UNL     1       5.636   0.586   1.467  1.00  0.00    -0.338 N 
HETATM   43  C13 UNL     1       6.492   1.212   2.190  1.00  0.00     0.180 A 
ATOM     44  H5  UNL     1       5.055  -0.114   1.928  1.00  0.00     0.165 HD
HETATM   45  N6  UNL     1       7.307   2.188   1.561  1.00  0.00    -0.343 N 
HETATM   46  C14 UNL     1       7.190   2.434   0.314  1.00  0.00     0.232 A 
ATOM     47  H6  UNL     1       7.996   2.700   2.113  1.00  0.00     0.167 HD
HETATM   48  O8  UNL     1       6.284   1.774  -0.461  1.00  0.00    -0.298 OA
ENDBRANCH  40  41
ENDBRANCH  37  40
ENDBRANCH  30  33
ENDBRANCH   1  30
TORSDOF 15
