REMARK  9 active torsions:
REMARK  status: ('A' for Active; 'I' for Inactive)
REMARK    1  A    between atoms: C3_3  and  C4_4 
REMARK    2  A    between atoms: C3_3  and  C6_10 
REMARK    3  A    between atoms: C4_4  and  C5_5 
REMARK    4  A    between atoms: C5_5  and  O1_6 
REMARK    5  A    between atoms: C5_5  and  O2_8 
REMARK    6  A    between atoms: C6_10  and  O4_12 
REMARK    7  A    between atoms: O4_12  and  C7_13 
REMARK    8  A    between atoms: C21_29  and  C22_30 
REMARK    9  A    between atoms: C22_30  and  C23_31 
ROOT
HETATM    1  C7  UNL     1       2.123   0.430   1.332  1.00  0.00     0.139 C 
HETATM    2  C8  UNL     1       2.121   1.907   1.429  1.00  0.00     0.034 C 
HETATM    3  C9  UNL     1       0.874   2.640   1.598  1.00  0.00     0.015 C 
HETATM    4  C10 UNL     1      -0.421   1.854   1.733  1.00  0.00    -0.002 C 
HETATM    5  C11 UNL     1      -1.252   2.652   2.643  1.00  0.00     0.019 C 
HETATM    6  C12 UNL     1      -0.887   1.485   0.407  1.00  0.00     0.006 C 
HETATM    7  C13 UNL     1       0.066   0.358   0.015  1.00  0.00     0.016 C 
HETATM    8  C14 UNL     1       0.708  -0.104   1.298  1.00  0.00     0.057 C 
HETATM    9  C15 UNL     1      -0.029   0.565   2.382  1.00  0.00     0.139 C 
HETATM   10  O5  UNL     1       0.615   0.668   3.609  1.00  0.00    -0.225 OA
HETATM   11  O6  UNL     1       0.092  -0.529   3.898  1.00  0.00    -0.231 OA
HETATM   12  C16 UNL     1      -1.024  -0.124   3.185  1.00  0.00     0.199 C 
HETATM   13  C17 UNL     1      -1.740  -1.178   2.401  1.00  0.00     0.039 C 
HETATM   14  C18 UNL     1      -2.972  -0.530   1.818  1.00  0.00     0.008 C 
HETATM   15  C19 UNL     1      -2.871  -0.122   0.390  1.00  0.00    -0.005 C 
HETATM   16  C20 UNL     1      -4.325  -0.134  -0.090  1.00  0.00     0.010 C 
HETATM   17  C21 UNL     1      -4.569   0.195  -1.494  1.00  0.00    -0.004 C 
HETATM   18  C24 UNL     1      -3.513   1.016  -2.175  1.00  0.00     0.006 C 
HETATM   19  C25 UNL     1      -2.223   1.126  -1.507  1.00  0.00     0.010 C 
HETATM   20  C26 UNL     1      -2.273   1.168   0.046  1.00  0.00    -0.036 C 
HETATM   21  C27 UNL     1      -3.182   2.356   0.331  1.00  0.00     0.016 C 
ENDROOT
BRANCH   1  22
HETATM   22  O4  UNL     1       2.855   0.028   0.188  1.00  0.00    -0.312 OA
BRANCH  22  23
HETATM   23  C6  UNL     1       3.959  -0.775   0.339  1.00  0.00     0.289 C 
HETATM   24  O3  UNL     1       4.262  -1.120   1.537  1.00  0.00    -0.260 OA
BRANCH  23  25
HETATM   25  C3  UNL     1       4.815  -1.272  -0.726  1.00  0.00     0.018 C 
HETATM   26  C2  UNL     1       4.569  -0.960  -1.969  1.00  0.00    -0.018 C 
HETATM   27  C1  UNL     1       3.436  -0.105  -2.368  1.00  0.00     0.036 C 
BRANCH  25  28
HETATM   28  C4  UNL     1       5.951  -2.130  -0.311  1.00  0.00     0.104 C 
BRANCH  28  29
HETATM   29  C5  UNL     1       6.833  -2.626  -1.390  1.00  0.00     0.258 C 
BRANCH  29  30
HETATM   30  O1  UNL     1       7.478  -1.664  -2.138  1.00  0.00    -0.371 OA
ATOM     31  H1  UNL     1       8.044  -1.983  -2.831  1.00  0.00     0.212 HD
ENDBRANCH  29  30
BRANCH  29  32
HETATM   32  O2  UNL     1       6.153  -3.517  -2.248  1.00  0.00    -0.371 OA
ATOM     33  H2  UNL     1       6.719  -3.836  -2.941  1.00  0.00     0.212 HD
ENDBRANCH  29  32
ENDBRANCH  28  29
ENDBRANCH  25  28
ENDBRANCH  23  25
ENDBRANCH  22  23
ENDBRANCH   1  22
BRANCH  17  34
HETATM   34  C22 UNL     1      -5.011  -1.002  -2.322  1.00  0.00     0.117 C 
BRANCH  34  35
HETATM   35  C23 UNL     1      -4.061  -2.100  -2.370  1.00  0.00     0.172 C 
HETATM   36  O7  UNL     1      -4.009  -2.961  -1.464  1.00  0.00    -0.648 OA
HETATM   37  O8  UNL     1      -3.180  -2.223  -3.429  1.00  0.00    -0.648 OA
ENDBRANCH  34  35
ENDBRANCH  17  34
TORSDOF 9
