REMARK  16 active torsions:
REMARK  status: ('A' for Active; 'I' for Inactive)
REMARK    1  A    between atoms: O1_2  and  N1_3 
REMARK    2  A    between atoms: N1_3  and  C2_4 
REMARK    3  A    between atoms: C3_5  and  C4_6 
REMARK    4  A    between atoms: C4_6  and  O2_7 
REMARK    5  A    between atoms: O2_7  and  C5_8 
REMARK    6  A    between atoms: C5_8  and  C6_10 
REMARK    7  A    between atoms: C6_10  and  O4_11 
REMARK    8  A    between atoms: O4_11  and  C7_12 
REMARK    9  A    between atoms: C9_14  and  O5_15 
REMARK   10  A    between atoms: C10_17  and  O6_18 
REMARK   11  A    between atoms: C11_20  and  C12_21 
REMARK   12  A    between atoms: C16_27  and  O8_28 
REMARK   13  A    between atoms: C19_32  and  O9_33 
REMARK   14  A    between atoms: C21_35  and  O10_36 
REMARK   15  A    between atoms: C24_40  and  O11_41 
REMARK   16  A    between atoms: C24_40  and  O12_43 
ROOT
HETATM    1  C12 UNL     1       8.247  -0.830  -0.791  1.00  0.00     0.264 C 
HETATM    2  O7  UNL     1       8.394  -1.737  -1.662  1.00  0.00    -0.275 OA
HETATM    3  C13 UNL     1       9.339  -0.471   0.019  1.00  0.00     0.144 C 
HETATM    4  N2  UNL     1      10.271  -0.189   0.685  1.00  0.00    -0.188 NA
ENDROOT
BRANCH   1   5
HETATM    5  C11 UNL     1       6.939  -0.207  -0.678  1.00  0.00     0.064 A 
HETATM    6  C10 UNL     1       6.652   0.807   0.247  1.00  0.00     0.114 A 
HETATM    7  C9  UNL     1       5.404   1.372   0.324  1.00  0.00     0.102 A 
HETATM    8  C8  UNL     1       4.407   0.933  -0.529  1.00  0.00     0.076 A 
HETATM    9  C7  UNL     1       4.631  -0.056  -1.454  1.00  0.00     0.073 A 
HETATM   10  C14 UNL     1       5.899  -0.599  -1.500  1.00  0.00     0.056 A 
BRANCH   6  11
HETATM   11  O6  UNL     1       7.698   1.196   1.069  1.00  0.00    -0.357 OA
ATOM     12  H6  UNL     1       8.562   0.805   1.016  1.00  0.00     0.217 HD
ENDBRANCH   6  11
BRANCH   7  13
HETATM   13  O5  UNL     1       5.148   2.375   1.250  1.00  0.00    -0.358 OA
ATOM     14  H5  UNL     1       5.833   2.676   1.836  1.00  0.00     0.217 HD
ENDBRANCH   7  13
BRANCH   9  15
HETATM   15  O4  UNL     1       3.641  -0.507  -2.313  1.00  0.00    -0.341 OA
BRANCH  15  16
HETATM   16  C6  UNL     1       2.316  -0.085  -2.373  1.00  0.00     0.286 C 
BRANCH  16  17
HETATM   17  C5  UNL     1       1.601  -0.406  -1.134  1.00  0.00     0.283 C 
HETATM   18  O3  UNL     1       2.137  -1.079  -0.217  1.00  0.00    -0.263 OA
BRANCH  17  19
HETATM   19  O2  UNL     1       0.295   0.001  -0.877  1.00  0.00    -0.315 OA
BRANCH  19  20
HETATM   20  C4  UNL     1      -0.350  -0.326   0.316  1.00  0.00     0.216 C 
BRANCH  20  21
HETATM   21  C3  UNL     1      -1.729   0.193   0.437  1.00  0.00    -0.015 A 
HETATM   22  C2  UNL     1      -1.945   1.588   0.902  1.00  0.00     0.205 A 
HETATM   23  C24 UNL     1      -3.290   2.091   1.074  1.00  0.00     0.204 A 
HETATM   24  C23 UNL     1      -4.335   1.119   0.704  1.00  0.00     0.058 A 
HETATM   25  C22 UNL     1      -4.076  -0.090   0.280  1.00  0.00     0.015 A 
HETATM   26  C15 UNL     1      -2.756  -0.562   0.143  1.00  0.00     0.017 A 
HETATM   27  C21 UNL     1      -5.140  -0.906  -0.018  1.00  0.00     0.110 A 
HETATM   28  C16 UNL     1      -2.610  -1.866  -0.301  1.00  0.00     0.086 A 
HETATM   29  C17 UNL     1      -3.668  -2.705  -0.606  1.00  0.00     0.008 A 
HETATM   30  C18 UNL     1      -3.401  -4.111  -1.082  1.00  0.00     0.054 C 
HETATM   31  C19 UNL     1      -4.934  -2.229  -0.467  1.00  0.00     0.110 A 
BRANCH  22  32
HETATM   32  N1  UNL     1      -1.103   2.507   0.118  1.00  0.00    -0.086 NA
BRANCH  32  33
HETATM   33  O1  UNL     1      -1.228   3.765   0.535  1.00  0.00    -0.291 OA
HETATM   34  C1  UNL     1      -0.042   4.387   0.861  1.00  0.00     0.231 C 
ENDBRANCH  32  33
ENDBRANCH  22  32
BRANCH  23  35
HETATM   35  O11 UNL     1      -3.524   3.330   0.434  1.00  0.00    -0.361 OA
ATOM     36  H11 UNL     1      -4.407   3.660   0.547  1.00  0.00     0.213 HD
ENDBRANCH  23  35
BRANCH  23  37
HETATM   37  O12 UNL     1      -3.528   2.342   2.460  1.00  0.00    -0.361 OA
ATOM     38  H12 UNL     1      -4.411   2.672   2.573  1.00  0.00     0.213 HD
ENDBRANCH  23  37
BRANCH  28  39
HETATM   39  O8  UNL     1      -1.358  -2.387  -0.461  1.00  0.00    -0.359 OA
ATOM     40  H8  UNL     1      -1.258  -3.281  -0.765  1.00  0.00     0.217 HD
ENDBRANCH  28  39
BRANCH  31  41
HETATM   41  O9  UNL     1      -6.018  -3.049  -0.766  1.00  0.00    -0.352 OA
HETATM   42  C20 UNL     1      -6.544  -3.836   0.279  1.00  0.00     0.210 C 
ENDBRANCH  31  41
BRANCH  27  43
HETATM   43  O10 UNL     1      -6.439  -0.516   0.091  1.00  0.00    -0.357 OA
ATOM     44  H10 UNL     1      -6.578   0.374   0.393  1.00  0.00     0.217 HD
ENDBRANCH  27  43
ENDBRANCH  20  21
ENDBRANCH  19  20
ENDBRANCH  17  19
ENDBRANCH  16  17
ENDBRANCH  15  16
ENDBRANCH   9  15
ENDBRANCH   1   5
TORSDOF 16
