REMARK  7 active torsions:
REMARK  status: ('A' for Active; 'I' for Inactive)
REMARK    1  A    between atoms: C2_2  and  C3_3 
REMARK    2  A    between atoms: C3_3  and  C4_4 
REMARK    3  A    between atoms: C4_4  and  C5_5 
REMARK    4  A    between atoms: C5_5  and  C6_6 
REMARK    5  A    between atoms: C6_6  and  N1_7 
REMARK    6  A    between atoms: C8_9  and  O1_10 
REMARK    7  A    between atoms: C9_12  and  O2_13 
ROOT
HETATM    1  N1  UNL     1       0.976  -0.816  -0.016  1.00  0.00    -0.311 N 
HETATM    2  C7  UNL     1       1.169   0.550   0.410  1.00  0.00     0.178 C 
HETATM    3  C8  UNL     1       2.549   0.881   0.862  1.00  0.00     0.173 C 
HETATM    4  C9  UNL     1       3.599   0.777  -0.228  1.00  0.00     0.216 C 
HETATM    5  C10 UNL     1       3.940  -0.647  -0.500  1.00  0.00     0.122 C 
HETATM    6  N2  UNL     1       5.086  -0.812  -1.041  1.00  0.00    -0.386 N 
ATOM      7  H21 UNL     1       5.320  -1.787  -1.227  1.00  0.00     0.157 HD
ATOM      8  H22 UNL     1       5.636   0.027  -1.225  1.00  0.00     0.157 HD
HETATM    9  N3  UNL     1       3.175  -1.813  -0.244  1.00  0.00    -0.273 N 
ATOM     10  H3  UNL     1       3.680  -2.699  -0.218  1.00  0.00     0.190 HD
HETATM   11  N4  UNL     1       1.900  -1.862  -0.040  1.00  0.00    -0.243 N 
ATOM     12  H4  UNL     1       1.516  -2.792   0.126  1.00  0.00     0.208 HD
ENDROOT
BRANCH   1  13
HETATM   13  C6  UNL     1      -0.349  -1.114  -0.477  1.00  0.00     0.144 C 
BRANCH  13  14
HETATM   14  C5  UNL     1      -1.375  -1.081   0.615  1.00  0.00     0.021 C 
BRANCH  14  15
HETATM   15  C4  UNL     1      -2.764  -1.389   0.099  1.00  0.00     0.002 C 
BRANCH  15  16
HETATM   16  C3  UNL     1      -3.211  -0.409  -0.948  1.00  0.00    -0.000 C 
BRANCH  16  17
HETATM   17  C2  UNL     1      -3.259   1.018  -0.410  1.00  0.00    -0.005 C 
HETATM   18  C1  UNL     1      -4.262   1.023   0.754  1.00  0.00     0.005 C 
ENDBRANCH  16  17
ENDBRANCH  15  16
ENDBRANCH  14  15
ENDBRANCH  13  14
ENDBRANCH   1  13
BRANCH   3  19
HETATM   19  O1  UNL     1       2.538   2.197   1.312  1.00  0.00    -0.391 OA
ATOM     20  H1  UNL     1       3.418   2.408   1.600  1.00  0.00     0.210 HD
ENDBRANCH   3  19
BRANCH   4  21
HETATM   21  O2  UNL     1       4.743   1.392   0.267  1.00  0.00    -0.385 OA
ATOM     22  H2  UNL     1       5.401   1.327  -0.416  1.00  0.00     0.210 HD
ENDBRANCH   4  21
TORSDOF 7
