REMARK  8 active torsions:
REMARK  status: ('A' for Active; 'I' for Inactive)
REMARK    1  A    between atoms: C2_2  and  O2_4 
REMARK    2  A    between atoms: O2_4  and  C3_5 
REMARK    3  A    between atoms: C4_6  and  O3_7 
REMARK    4  A    between atoms: C8_12  and  O4_13 
REMARK    5  A    between atoms: C19_25  and  C20_26 
REMARK    6  A    between atoms: C20_26  and  C21_28 
REMARK    7  A    between atoms: C33_40  and  O6_41 
REMARK    8  A    between atoms: O6_41  and  C34_42 
ROOT
HETATM    1  C3  UNL     1      -4.553   0.921  -0.609  1.00  0.00     0.191 C 
HETATM    2  C4  UNL     1      -3.227   0.488  -1.214  1.00  0.00     0.155 C 
HETATM    3  C5  UNL     1      -2.303   0.067  -0.117  1.00  0.00     0.027 C 
HETATM    4  C6  UNL     1      -2.855  -1.103   0.687  1.00  0.00     0.005 C 
HETATM    5  C7  UNL     1      -2.445  -2.337  -0.011  1.00  0.00     0.038 C 
HETATM    6  C8  UNL     1      -0.932  -2.428   0.041  1.00  0.00     0.128 C 
HETATM    7  C9  UNL     1      -0.300  -1.378  -0.819  1.00  0.00    -0.006 C 
HETATM    8  C10 UNL     1      -0.541  -1.677  -2.268  1.00  0.00     0.019 C 
HETATM    9  C11 UNL     1      -0.873  -0.044  -0.395  1.00  0.00     0.004 C 
HETATM   10  C12 UNL     1      -0.402   1.079  -1.260  1.00  0.00     0.006 C 
HETATM   11  C13 UNL     1       1.104   1.113  -1.279  1.00  0.00     0.006 C 
HETATM   12  C14 UNL     1       1.758  -0.207  -1.512  1.00  0.00     0.003 C 
HETATM   13  C15 UNL     1       3.235  -0.058  -1.467  1.00  0.00    -0.035 C 
HETATM   14  C16 UNL     1       3.814  -0.853  -2.658  1.00  0.00     0.016 C 
HETATM   15  C17 UNL     1       3.733   1.348  -1.722  1.00  0.00     0.011 C 
HETATM   16  C18 UNL     1       5.086   1.418  -0.993  1.00  0.00     0.013 C 
HETATM   17  C19 UNL     1       4.632   0.809   0.343  1.00  0.00     0.064 C 
HETATM   18  C25 UNL     1       3.917  -0.423  -0.202  1.00  0.00     0.006 C 
HETATM   19  C26 UNL     1       3.140  -1.160   0.825  1.00  0.00     0.007 C 
HETATM   20  C27 UNL     1       1.628  -0.866   0.774  1.00  0.00     0.011 C 
HETATM   21  C28 UNL     1       1.207  -1.306  -0.621  1.00  0.00    -0.030 C 
HETATM   22  C29 UNL     1       1.807  -2.636  -0.811  1.00  0.00     0.016 C 
HETATM   23  C30 UNL     1      -4.323  -0.949   0.959  1.00  0.00    -0.014 C 
HETATM   24  C31 UNL     1      -5.193  -1.905   0.212  1.00  0.00     0.018 C 
HETATM   25  C32 UNL     1      -4.569  -1.255   2.458  1.00  0.00     0.018 C 
HETATM   26  C33 UNL     1      -4.764   0.485   0.799  1.00  0.00     0.172 C 
ENDROOT
BRANCH  17  27
HETATM   27  C20 UNL     1       5.863   0.410   1.049  1.00  0.00     0.154 C 
HETATM   28  O5  UNL     1       6.010  -0.796   1.353  1.00  0.00    -0.293 OA
BRANCH  27  29
HETATM   29  C21 UNL     1       6.910   1.344   1.409  1.00  0.00     0.052 C 
HETATM   30  C22 UNL     1       8.020   1.045   2.035  1.00  0.00    -0.084 C 
HETATM   31  C23 UNL     1       8.389  -0.320   2.483  1.00  0.00     0.043 C 
HETATM   32  C24 UNL     1       8.986   2.139   2.323  1.00  0.00     0.043 C 
ENDBRANCH  27  29
ENDBRANCH  17  27
BRANCH   6  33
HETATM   33  O4  UNL     1      -0.652  -3.736  -0.278  1.00  0.00    -0.395 OA
ATOM     34  H4  UNL     1       0.296  -3.793  -0.245  1.00  0.00     0.210 HD
ENDBRANCH   6  33
BRANCH   2  35
HETATM   35  O3  UNL     1      -3.482  -0.416  -2.187  1.00  0.00    -0.392 OA
ATOM     36  H3  UNL     1      -2.653  -0.687  -2.565  1.00  0.00     0.210 HD
ENDBRANCH   2  35
BRANCH   1  37
HETATM   37  O2  UNL     1      -4.716   2.342  -0.751  1.00  0.00    -0.311 OA
BRANCH  37  38
HETATM   38  C2  UNL     1      -5.740   2.889  -1.487  1.00  0.00     0.255 C 
HETATM   39  C1  UNL     1      -5.930   4.337  -1.650  1.00  0.00     0.126 C 
HETATM   40  O1  UNL     1      -6.535   2.088  -2.035  1.00  0.00    -0.266 OA
ENDBRANCH  37  38
ENDBRANCH   1  37
BRANCH  26  41
HETATM   41  O6  UNL     1      -6.184   0.480   1.030  1.00  0.00    -0.313 OA
BRANCH  41  42
HETATM   42  C34 UNL     1      -6.763   1.197   2.043  1.00  0.00     0.255 C 
HETATM   43  C35 UNL     1      -8.254   1.127   2.202  1.00  0.00     0.126 C 
HETATM   44  O7  UNL     1      -6.048   1.882   2.802  1.00  0.00    -0.266 OA
ENDBRANCH  41  42
ENDBRANCH  26  41
TORSDOF 8
