REMARK  12 active torsions:
REMARK  status: ('A' for Active; 'I' for Inactive)
REMARK    1  A    between atoms: C2_2  and  C4_4 
REMARK    2  A    between atoms: C4_4  and  N1_5 
REMARK    3  A    between atoms: C4_4  and  C12_18 
REMARK       I    between atoms: N1_5  and  C5_7 
REMARK    4  A    between atoms: C5_7  and  O2_9 
REMARK    5  A    between atoms: O2_9  and  C6_10 
REMARK    6  A    between atoms: C12_18  and  O5_19 
REMARK    7  A    between atoms: C12_18  and  C13_21 
REMARK    8  A    between atoms: C13_21  and  N2_22 
REMARK       I    between atoms: N2_22  and  C14_24 
REMARK    9  A    between atoms: C14_24  and  O7_26 
REMARK   10  A    between atoms: O7_26  and  C15_27 
REMARK   11  A    between atoms: C22_34  and  C24_36 
REMARK   12  A    between atoms: C24_36  and  S1_37 
ROOT
HETATM    1  C13 UNL     1       1.107  -0.386   2.216  1.00  0.00     0.158 C 
ENDROOT
BRANCH   1   2
HETATM    2  C12 UNL     1       2.081  -1.173   3.070  1.00  0.00     0.159 C 
BRANCH   2   3
HETATM    3  C4  UNL     1       3.335  -0.369   3.196  1.00  0.00     0.120 C 
BRANCH   3   4
HETATM    4  C2  UNL     1       4.369  -0.915   4.100  1.00  0.00     0.003 C 
HETATM    5  C1  UNL     1       5.565   0.012   4.141  1.00  0.00     0.011 C 
HETATM    6  C3  UNL     1       3.955  -1.172   5.505  1.00  0.00     0.011 C 
ENDBRANCH   3   4
BRANCH   3   7
HETATM    7  N1  UNL     1       3.899  -0.247   1.866  1.00  0.00    -0.329 N 
HETATM    8  C5  UNL     1       4.017   0.948   1.138  1.00  0.00     0.361 C 
HETATM    9  O1  UNL     1       3.617   2.015   1.637  1.00  0.00    -0.238 OA
ATOM     10  H1  UNL     1       4.238  -1.100   1.422  1.00  0.00     0.165 HD
BRANCH   8  11
HETATM   11  O2  UNL     1       4.571   0.948  -0.118  1.00  0.00    -0.296 OA
BRANCH  11  12
HETATM   12  C6  UNL     1       4.729   2.091  -0.921  1.00  0.00     0.166 C 
HETATM   13  C7  UNL     1       3.902   1.860  -2.171  1.00  0.00     0.204 C 
HETATM   14  O3  UNL     1       4.760   1.579  -3.202  1.00  0.00    -0.358 OA
HETATM   15  C8  UNL     1       6.026   1.360  -2.721  1.00  0.00     0.266 C 
HETATM   16  O4  UNL     1       7.012   1.851  -3.569  1.00  0.00    -0.361 OA
HETATM   17  C11 UNL     1       6.116   2.240  -1.466  1.00  0.00     0.075 C 
HETATM   18  C9  UNL     1       7.078   3.218  -3.377  1.00  0.00     0.171 C 
HETATM   19  C10 UNL     1       6.352   3.574  -2.114  1.00  0.00     0.038 C 
ENDBRANCH  11  12
ENDBRANCH   8  11
ENDBRANCH   3   7
ENDBRANCH   2   3
BRANCH   2  20
HETATM   20  O5  UNL     1       1.426  -1.377   4.277  1.00  0.00    -0.392 OA
ATOM     21  H5  UNL     1       0.629  -1.888   4.197  1.00  0.00     0.210 HD
ENDBRANCH   2  20
ENDBRANCH   1   2
BRANCH   1  22
HETATM   22  N2  UNL     1      -0.124  -1.120   2.018  1.00  0.00    -0.334 N 
HETATM   23  C14 UNL     1      -1.205  -0.612   1.260  1.00  0.00     0.361 C 
HETATM   24  O6  UNL     1      -1.082   0.542   0.730  1.00  0.00    -0.239 OA
ATOM     25  H2  UNL     1      -0.216  -2.043   2.443  1.00  0.00     0.164 HD
BRANCH  23  26
HETATM   26  O7  UNL     1      -2.402  -1.270   1.039  1.00  0.00    -0.298 OA
BRANCH  26  27
HETATM   27  C15 UNL     1      -3.450  -0.701   0.264  1.00  0.00     0.142 C 
HETATM   28  C16 UNL     1      -4.690  -0.430   1.079  1.00  0.00     0.016 C 
HETATM   29  C17 UNL     1      -5.409  -1.657   1.523  1.00  0.00     0.012 C 
HETATM   30  C21 UNL     1      -5.639   0.335   0.145  1.00  0.00     0.012 C 
HETATM   31  C18 UNL     1      -5.701  -2.535   0.298  1.00  0.00    -0.013 C 
HETATM   32  C19 UNL     1      -6.618  -1.753  -0.589  1.00  0.00     0.010 C 
HETATM   33  C27 UNL     1      -4.368  -2.861  -0.303  1.00  0.00     0.012 C 
HETATM   34  C20 UNL     1      -5.922  -0.469  -1.076  1.00  0.00    -0.004 C 
HETATM   35  C22 UNL     1      -4.734  -0.916  -1.848  1.00  0.00    -0.024 C 
HETATM   36  C23 UNL     1      -5.238  -1.927  -2.884  1.00  0.00     0.017 C 
HETATM   37  C26 UNL     1      -3.789  -1.608  -0.919  1.00  0.00     0.025 C 
BRANCH  35  38
HETATM   38  C24 UNL     1      -4.032   0.158  -2.607  1.00  0.00     0.118 C 
BRANCH  38  39
HETATM   39  S1  UNL     1      -5.031   0.977  -3.816  1.00  0.00     0.011 S 
HETATM   40  C25 UNL     1      -3.976   2.215  -4.587  1.00  0.00     0.127 C 
HETATM   41  O8  UNL     1      -5.545  -0.057  -5.024  1.00  0.00    -0.258 OA
ENDBRANCH  38  39
ENDBRANCH  35  38
ENDBRANCH  26  27
ENDBRANCH  23  26
ENDBRANCH   1  22
TORSDOF 12
