REMARK  13 active torsions:
REMARK  status: ('A' for Active; 'I' for Inactive)
REMARK    1  A    between atoms: C2_2  and  C4_4 
REMARK    2  A    between atoms: C4_4  and  S1_5 
REMARK    3  A    between atoms: C4_4  and  C19_25 
REMARK    4  A    between atoms: S1_5  and  C5_6 
REMARK    5  A    between atoms: C5_6  and  C6_7 
REMARK    6  A    between atoms: C6_7  and  C7_8 
REMARK    7  A    between atoms: C6_7  and  N1_15 
REMARK    8  A    between atoms: C7_8  and  C8_9 
REMARK       I    between atoms: N1_15  and  C14_17 
REMARK       I    between atoms: C14_17  and  N2_19 
REMARK    9  A    between atoms: N2_19  and  C15_21 
REMARK       I    between atoms: C19_25  and  N3_27 
REMARK   10  A    between atoms: C20_28  and  O3_29 
REMARK   11  A    between atoms: C22_32  and  C23_33 
REMARK   12  A    between atoms: C23_33  and  O5_35 
REMARK   13  A    between atoms: O5_35  and  C24_36 
ROOT
HETATM    1  C4  UNL     1       0.615  -1.516  -0.893  1.00  0.00     0.143 C 
ENDROOT
BRANCH   1   2
HETATM    2  C2  UNL     1       0.465  -2.971  -1.363  1.00  0.00     0.000 C 
HETATM    3  C1  UNL     1       0.827  -3.089  -2.813  1.00  0.00     0.011 C 
HETATM    4  C3  UNL     1       1.425  -3.821  -0.559  1.00  0.00     0.011 C 
ENDBRANCH   1   2
BRANCH   1   5
HETATM    5  S1  UNL     1       0.176  -1.397   0.863  1.00  0.00    -0.152 SA
BRANCH   5   6
HETATM    6  C5  UNL     1      -1.607  -1.829   0.982  1.00  0.00     0.100 C 
BRANCH   6   7
HETATM    7  C6  UNL     1      -2.506  -0.848   0.365  1.00  0.00     0.095 C 
BRANCH   7   8
HETATM    8  C7  UNL     1      -3.948  -1.182   0.504  1.00  0.00     0.030 C 
BRANCH   8   9
HETATM    9  C8  UNL     1      -4.489  -2.432  -0.061  1.00  0.00    -0.013 C 
HETATM   10  C9  UNL     1      -3.993  -3.726   0.460  1.00  0.00     0.005 C 
HETATM   11  C10 UNL     1      -5.172  -4.708   0.544  1.00  0.00     0.000 C 
HETATM   12  C11 UNL     1      -6.133  -4.339   1.637  1.00  0.00     0.000 C 
HETATM   13  C12 UNL     1      -6.418  -2.858   1.498  1.00  0.00     0.000 C 
HETATM   14  C13 UNL     1      -6.008  -2.386   0.124  1.00  0.00     0.005 C 
ENDBRANCH   8   9
ENDBRANCH   7   8
BRANCH   7  15
HETATM   15  N1  UNL     1      -2.251   0.523   0.775  1.00  0.00    -0.338 N 
HETATM   16  C14 UNL     1      -2.200   1.556  -0.179  1.00  0.00     0.317 C 
HETATM   17  O1  UNL     1      -2.374   1.278  -1.404  1.00  0.00    -0.247 OA
HETATM   18  N2  UNL     1      -1.964   2.914   0.146  1.00  0.00    -0.335 N 
ATOM     19  H2  UNL     1      -1.818   3.125   1.133  1.00  0.00     0.165 HD
ATOM     20  H1  UNL     1      -2.108   0.738   1.762  1.00  0.00     0.164 HD
BRANCH  18  21
HETATM   21  C15 UNL     1      -1.908   4.009  -0.745  1.00  0.00     0.023 C 
HETATM   22  C16 UNL     1      -0.812   3.885  -1.772  1.00  0.00     0.037 C 
HETATM   23  C17 UNL     1      -1.655   5.331  -0.021  1.00  0.00     0.037 C 
HETATM   24  C18 UNL     1      -3.203   4.216  -1.515  1.00  0.00     0.037 C 
ENDBRANCH  18  21
ENDBRANCH   7  15
ENDBRANCH   6   7
ENDBRANCH   5   6
ENDBRANCH   1   5
BRANCH   1  25
HETATM   25  C19 UNL     1       2.017  -1.108  -1.132  1.00  0.00     0.236 C 
HETATM   26  O2  UNL     1       2.804  -1.923  -1.662  1.00  0.00    -0.272 OA
HETATM   27  N3  UNL     1       2.547   0.171  -0.797  1.00  0.00    -0.310 N 
HETATM   28  C20 UNL     1       1.909   1.314  -0.178  1.00  0.00     0.226 C 
HETATM   29  C22 UNL     1       3.769   0.905  -0.876  1.00  0.00     0.193 C 
HETATM   30  C21 UNL     1       2.965   2.202  -0.775  1.00  0.00     0.089 C 
BRANCH  28  31
HETATM   31  O3  UNL     1       1.907   1.207   1.190  1.00  0.00    -0.377 OA
ATOM     32  H3  UNL     1       1.488   1.957   1.596  1.00  0.00     0.212 HD
ENDBRANCH  28  31
BRANCH  29  33
HETATM   33  C23 UNL     1       4.708   0.807   0.256  1.00  0.00     0.282 C 
HETATM   34  O4  UNL     1       4.568   0.138   1.288  1.00  0.00    -0.263 OA
BRANCH  33  35
HETATM   35  O5  UNL     1       5.887   1.565   0.130  1.00  0.00    -0.312 OA
BRANCH  35  36
HETATM   36  C24 UNL     1       6.882   1.582   1.124  1.00  0.00     0.157 C 
HETATM   37  C25 UNL     1       8.204   1.149   0.512  1.00  0.00     0.061 C 
HETATM   38  C26 UNL     1       8.978   2.437   0.468  1.00  0.00     0.170 C 
HETATM   39  O6  UNL     1       8.571   3.103   1.615  1.00  0.00    -0.389 OA
HETATM   40  C27 UNL     1       7.179   3.000   1.551  1.00  0.00     0.200 C 
ENDBRANCH  35  36
ENDBRANCH  33  35
ENDBRANCH  29  33
ENDBRANCH   1  25
TORSDOF 13
