REMARK  3 active torsions:
REMARK  status: ('A' for Active; 'I' for Inactive)
REMARK    1  A    between atoms: N3_8  and  C4_9 
REMARK    2  A    between atoms: C4_9  and  C5_10 
REMARK    3  A    between atoms: C4_9  and  C8_13 
ROOT
HETATM    1  C4  UNL     1       0.476  -0.407   0.264  1.00  0.00     0.104 C 
ENDROOT
BRANCH   1   2
HETATM    2  N3  UNL     1       1.584   0.441  -0.084  1.00  0.00    -0.325 N 
HETATM    3  C2  UNL     1       2.566   0.908   0.741  1.00  0.00     0.095 A 
HETATM    4  C1  UNL     1       2.652   0.597   2.177  1.00  0.00     0.091 C 
HETATM    5  N1  UNL     1       3.426   1.689   0.059  1.00  0.00    -0.288 N 
HETATM    6  N2  UNL     1       3.029   1.740  -1.179  1.00  0.00    -0.295 N 
ATOM      7  H1  UNL     1       4.245   2.158   0.445  1.00  0.00     0.188 HD
HETATM    8  C3  UNL     1       1.900   0.978  -1.278  1.00  0.00     0.201 A 
ATOM      9  H2  UNL     1       3.478   2.255  -1.936  1.00  0.00     0.187 HD
ENDBRANCH   1   2
BRANCH   1  10
HETATM   10  C5  UNL     1       0.608  -1.834  -0.186  1.00  0.00     0.010 A 
HETATM   11  C6  UNL     1       1.720  -2.714   0.274  1.00  0.00     0.007 A 
HETATM   12  C7  UNL     1       1.741  -2.182  -1.115  1.00  0.00     0.007 A 
ENDBRANCH   1  10
BRANCH   1  13
HETATM   13  C8  UNL     1      -0.853   0.207   0.002  1.00  0.00    -0.019 C 
HETATM   14  C9  UNL     1      -1.163   0.586  -1.403  1.00  0.00     0.012 C 
HETATM   15  C10 UNL     1      -2.703   0.589  -1.498  1.00  0.00     0.005 C 
HETATM   16  C11 UNL     1      -3.106   0.366  -0.064  1.00  0.00    -0.014 C 
HETATM   17  C12 UNL     1      -2.645   1.548   0.734  1.00  0.00     0.005 C 
HETATM   18  C14 UNL     1      -2.040  -0.677   0.334  1.00  0.00     0.016 C 
HETATM   19  C13 UNL     1      -1.152   1.360   0.973  1.00  0.00     0.012 C 
ENDBRANCH   1  13
TORSDOF 3
