REMARK  3 active torsions:
REMARK  status: ('A' for Active; 'I' for Inactive)
REMARK    1  A    between atoms: C2_2  and  C4_4 
REMARK    2  A    between atoms: C4_4  and  C5_5 
REMARK    3  A    between atoms: C6_6  and  C7_7 
ROOT
HETATM    1  C5  UNL     1      -1.014   0.022  -0.558  1.00  0.00     0.003 A 
HETATM    2  C6  UNL     1       0.261  -0.721  -0.364  1.00  0.00     0.058 A 
HETATM    3  C11 UNL     1      -0.444  -0.305   0.837  1.00  0.00    -0.035 A 
HETATM    4  C12 UNL     1      -0.126   0.917   1.631  1.00  0.00     0.016 C 
HETATM    5  C13 UNL     1      -1.153  -1.394   1.643  1.00  0.00     0.016 C 
ENDROOT
BRANCH   2   6
HETATM    6  C7  UNL     1       1.530  -0.073  -0.850  1.00  0.00     0.367 C 
HETATM    7  N1  UNL     1       2.700  -0.851  -0.625  1.00  0.00    -0.011 N 
HETATM    8  C8  UNL     1       3.731   0.173  -0.472  1.00  0.00     0.254 C 
ATOM      9  H12 UNL     1       2.634  -1.513   0.148  1.00  0.00     0.284 HD
ATOM     10  H11 UNL     1       2.894  -1.553  -1.340  1.00  0.00     0.284 HD
HETATM   11  C9  UNL     1       4.315   0.096   0.912  1.00  0.00     0.081 C 
HETATM   12  C10 UNL     1       4.825   0.022  -1.479  1.00  0.00     0.081 C 
HETATM   13  O1  UNL     1       3.047   1.376  -0.604  1.00  0.00    -0.199 OA
HETATM   14  O2  UNL     1       1.794   1.145  -0.276  1.00  0.00    -0.204 OA
ENDBRANCH   2   6
BRANCH   1  15
HETATM   15  C4  UNL     1      -2.308  -0.656  -0.842  1.00  0.00     0.010 C 
BRANCH  15  16
HETATM   16  C2  UNL     1      -3.390   0.391  -0.988  1.00  0.00    -0.022 C 
HETATM   17  C1  UNL     1      -4.742  -0.233  -1.279  1.00  0.00     0.009 C 
HETATM   18  C3  UNL     1      -3.445   1.313   0.181  1.00  0.00     0.009 C 
ENDBRANCH  15  16
ENDBRANCH   1  15
TORSDOF 3
