REMARK  11 active torsions:
REMARK  status: ('A' for Active; 'I' for Inactive)
REMARK    1  A    between atoms: C2_3  and  C3_4 
REMARK       I    between atoms: C3_4  and  N2_6 
REMARK    2  A    between atoms: N2_6  and  N3_8 
REMARK    3  A    between atoms: C4_10  and  C5_11 
REMARK       I    between atoms: C5_11  and  N4_13 
REMARK    4  A    between atoms: N4_13  and  O3_15 
REMARK    5  A    between atoms: O3_15  and  C6_16 
REMARK    6  A    between atoms: C6_16  and  O4_17 
REMARK    7  A    between atoms: C9_21  and  C10_22 
REMARK    8  A    between atoms: C10_22  and  O6_24 
REMARK    9  A    between atoms: O6_24  and  N5_25 
REMARK       I    between atoms: N5_25  and  C11_27 
REMARK   10  A    between atoms: C11_27  and  C12_29 
REMARK   11  A    between atoms: C12_29  and  N6_32 
ROOT
HETATM    1  C1  UNL     1       0.054  -2.379   1.534  1.00  0.00     0.157 C 
HETATM    2  N1  UNL     1       0.413  -1.036   1.148  1.00  0.00    -0.342 N 
HETATM    3  C2  UNL     1       1.564  -0.393   1.385  1.00  0.00     0.104 A 
HETATM    4  C7  UNL     1       1.424   0.891   0.814  1.00  0.00     0.038 A 
HETATM    5  C8  UNL     1       0.178   0.975   0.246  1.00  0.00     0.038 A 
HETATM    6  C9  UNL     1      -0.443  -0.227   0.458  1.00  0.00     0.112 A 
ENDROOT
BRANCH   3   7
HETATM    7  C3  UNL     1       2.745  -0.843   2.068  1.00  0.00     0.286 C 
HETATM    8  O1  UNL     1       2.851  -1.979   2.543  1.00  0.00    -0.264 OA
HETATM    9  N2  UNL     1       3.875   0.038   2.227  1.00  0.00    -0.265 N 
ATOM     10  H2  UNL     1       3.816   0.981   1.842  1.00  0.00     0.190 HD
BRANCH   9  11
HETATM   11  N3  UNL     1       5.007  -0.329   2.863  1.00  0.00    -0.304 N 
HETATM   12  C4  UNL     1       6.145  -0.601   2.428  1.00  0.00     0.183 C 
ATOM     13  H3  UNL     1       4.917  -0.396   3.877  1.00  0.00     0.186 HD
BRANCH  12  14
HETATM   14  C5  UNL     1       6.655  -0.615   1.078  1.00  0.00     0.281 C 
HETATM   15  O2  UNL     1       7.891  -0.947   0.892  1.00  0.00    -0.265 OA
HETATM   16  N4  UNL     1       5.929  -0.295  -0.075  1.00  0.00    -0.228 N 
ATOM     17  H4  UNL     1       4.953  -0.027   0.049  1.00  0.00     0.198 HD
BRANCH  16  18
HETATM   18  O3  UNL     1       6.412  -0.310  -1.343  1.00  0.00    -0.252 OA
BRANCH  18  19
HETATM   19  C6  UNL     1       7.442   0.555  -1.584  1.00  0.00     0.366 C 
BRANCH  19  20
HETATM   20  O4  UNL     1       7.125   1.900  -1.342  1.00  0.00    -0.375 OA
ATOM     21  H4  UNL     1       7.841   2.501  -1.510  1.00  0.00     0.212 HD
ENDBRANCH  19  20
ENDBRANCH  18  19
ENDBRANCH  16  18
ENDBRANCH  12  14
ENDBRANCH   9  11
ENDBRANCH   3   7
BRANCH   6  22
HETATM   22  C10 UNL     1      -1.772  -0.611   0.030  1.00  0.00     0.332 C 
HETATM   23  O5  UNL     1      -2.295  -1.731   0.231  1.00  0.00    -0.256 OA
BRANCH  22  24
HETATM   24  O6  UNL     1      -2.554   0.319  -0.663  1.00  0.00    -0.191 OA
BRANCH  24  25
HETATM   25  N5  UNL     1      -3.832   0.032  -1.104  1.00  0.00    -0.223 N 
HETATM   26  C11 UNL     1      -4.943   0.799  -0.702  1.00  0.00     0.277 C 
HETATM   27  O7  UNL     1      -4.767   1.763   0.074  1.00  0.00    -0.269 OA
ATOM     28  H5  UNL     1      -3.974  -0.755  -1.737  1.00  0.00     0.198 HD
BRANCH  26  29
HETATM   29  C12 UNL     1      -6.302   0.465  -1.198  1.00  0.00     0.198 C 
HETATM   30  C13 UNL     1      -7.262   0.321  -0.068  1.00  0.00     0.056 C 
HETATM   31  C14 UNL     1      -6.716   1.610  -2.131  1.00  0.00     0.056 C 
BRANCH  29  32
HETATM   32  N6  UNL     1      -6.291  -0.724  -2.025  1.00  0.00    -0.062 N 
ATOM     33  H63 UNL     1      -5.625  -0.637  -2.793  1.00  0.00     0.275 HD
ATOM     34  H62 UNL     1      -5.868  -1.513  -1.537  1.00  0.00     0.275 HD
ATOM     35  H61 UNL     1      -7.225  -0.953  -2.366  1.00  0.00     0.275 HD
ENDBRANCH  29  32
ENDBRANCH  26  29
ENDBRANCH  24  25
ENDBRANCH  22  24
ENDBRANCH   6  22
TORSDOF 11
