REMARK  4 active torsions:
REMARK  status: ('A' for Active; 'I' for Inactive)
REMARK    1  A    between atoms: C2_2  and  N1_3 
REMARK    2  A    between atoms: C5_6  and  N2_7 
REMARK       I    between atoms: N2_7  and  C6_9 
REMARK       I    between atoms: C6_9  and  N3_11 
REMARK    3  A    between atoms: N3_11  and  C7_13 
REMARK       I    between atoms: N4_15  and  C9_16 
REMARK    4  A    between atoms: C11_19  and  C12_20 
ROOT
HETATM    1  N2  UNL     1      -0.238  -0.489   0.140  1.00  0.00    -0.327 N 
ATOM      2  H2  UNL     1      -0.654  -0.473   1.071  1.00  0.00     0.165 HD
HETATM    3  C6  UNL     1       1.197  -0.524  -0.027  1.00  0.00     0.322 C 
HETATM    4  O1  UNL     1       1.689  -0.539  -1.198  1.00  0.00    -0.247 OA
HETATM    5  N3  UNL     1       2.058  -0.540   1.071  1.00  0.00    -0.294 N 
ATOM      6  H3  UNL     1       1.638  -0.541   2.000  1.00  0.00     0.172 HD
ENDROOT
BRANCH   1   7
HETATM    7  C5  UNL     1      -1.057  -0.478  -1.023  1.00  0.00     0.211 C 
HETATM    8  C3  UNL     1      -1.802   0.840  -1.227  1.00  0.00     0.254 C 
HETATM    9  N1  UNL     1      -2.456   1.241  -0.057  1.00  0.00     0.128 N 
HETATM   10  C4  UNL     1      -0.873   1.802  -1.885  1.00  0.00     0.045 C 
HETATM   11  C17 UNL     1      -3.189   0.273   0.663  1.00  0.00     0.391 C 
HETATM   12  N6  UNL     1      -3.110  -1.089   0.173  1.00  0.00    -0.311 N 
HETATM   13  S1  UNL     1      -5.012   0.496   0.519  1.00  0.00    -0.107 SA
HETATM   14  C13 UNL     1      -2.149  -1.480  -0.796  1.00  0.00     0.247 C 
HETATM   15  C14 UNL     1      -4.121  -1.878   0.826  1.00  0.00     0.143 C 
HETATM   16  O3  UNL     1      -2.130  -2.536  -1.450  1.00  0.00    -0.271 OA
HETATM   17  C15 UNL     1      -5.421  -1.282   0.320  1.00  0.00     0.065 C 
HETATM   18  C16 UNL     1      -6.591  -1.661   1.183  1.00  0.00     0.023 C 
BRANCH   9  19
HETATM   19  C2  UNL     1      -3.304   2.397  -0.218  1.00  0.00     0.272 C 
HETATM   20  C1  UNL     1      -2.620   3.697  -0.438  1.00  0.00     0.037 C 
ENDBRANCH   9  19
ENDBRANCH   1   7
BRANCH   5  21
HETATM   21  C7  UNL     1       3.463  -0.555   0.991  1.00  0.00     0.127 A 
HETATM   22  C8  UNL     1       4.301  -0.549  -0.080  1.00  0.00     0.150 A 
HETATM   23  N4  UNL     1       5.614  -0.566   0.294  1.00  0.00    -0.271 N 
HETATM   24  C9  UNL     1       6.701  -0.552  -0.612  1.00  0.00     0.225 C 
HETATM   25  C11 UNL     1       5.582  -0.586   1.633  1.00  0.00     0.201 A 
HETATM   26  C10 UNL     1       6.483  -0.512  -2.086  1.00  0.00     0.118 C 
HETATM   27  O2  UNL     1       7.883  -0.571  -0.226  1.00  0.00    -0.273 OA
HETATM   28  N5  UNL     1       4.317  -0.579   2.072  1.00  0.00    -0.323 N 
ATOM     29  H5  UNL     1       4.031  -0.590   3.051  1.00  0.00     0.169 HD
BRANCH  25  30
HETATM   30  C12 UNL     1       6.750  -0.613   2.547  1.00  0.00     0.449 C 
HETATM   31  F1  UNL     1       7.521  -1.740   2.347  1.00  0.00    -0.163 F 
HETATM   32  F2  UNL     1       6.312  -0.617   3.873  1.00  0.00    -0.163 F 
HETATM   33  F3  UNL     1       7.535   0.509   2.390  1.00  0.00    -0.163 F 
ENDBRANCH  25  30
ENDBRANCH   5  21
TORSDOF 4
