REMARK  8 active torsions:
REMARK  status: ('A' for Active; 'I' for Inactive)
REMARK    1  A    between atoms: C2_4  and  C3_5 
REMARK    2  A    between atoms: C4_7  and  C5_8 
REMARK    3  A    between atoms: C5_8  and  O3_9 
REMARK    4  A    between atoms: C6_11  and  O4_12 
REMARK    5  A    between atoms: C7_14  and  O5_15 
REMARK    6  A    between atoms: C8_17  and  O6_18 
REMARK    7  A    between atoms: C9_20  and  O7_21 
REMARK    8  A    between atoms: C10_24  and  O9_25 
ROOT
HETATM    1  C3  UNL     1      -0.336  -0.173  -0.095  1.00  0.00     0.189 C 
HETATM    2  O2  UNL     1      -1.034   0.927   0.368  1.00  0.00    -0.370 OA
HETATM    3  C4  UNL     1      -2.217   1.010  -0.320  1.00  0.00     0.177 C 
HETATM    4  C6  UNL     1      -3.130  -0.094   0.092  1.00  0.00     0.180 C 
HETATM    5  C7  UNL     1      -2.477  -1.367   0.468  1.00  0.00     0.180 C 
HETATM    6  C8  UNL     1      -1.006  -1.417   0.372  1.00  0.00     0.181 C 
ENDROOT
BRANCH   1   7
HETATM    7  C2  UNL     1       1.095  -0.042   0.360  1.00  0.00     0.232 C 
HETATM    8  O1  UNL     1       1.821  -1.129  -0.088  1.00  0.00    -0.286 OA
HETATM    9  N1  UNL     1       3.134  -0.999   0.201  1.00  0.00    -0.147 NA
HETATM   10  C1  UNL     1       3.836  -2.117  -0.400  1.00  0.00     0.149 C 
HETATM   11  C10 UNL     1       3.663   0.263  -0.284  1.00  0.00     0.367 C 
HETATM   12  O8  UNL     1       2.727   0.991  -0.989  1.00  0.00    -0.314 OA
HETATM   13  C9  UNL     1       1.631   1.269  -0.182  1.00  0.00     0.294 C 
BRANCH  11  14
HETATM   14  O9  UNL     1       4.134   0.997   0.788  1.00  0.00    -0.357 OA
ATOM     15  H9  UNL     1       4.480   1.823   0.471  1.00  0.00     0.214 HD
ENDBRANCH  11  14
BRANCH  13  16
HETATM   16  O7  UNL     1       1.939   2.170   0.833  1.00  0.00    -0.368 OA
ATOM     17  H7  UNL     1       2.275   2.991   0.493  1.00  0.00     0.212 HD
ENDBRANCH  13  16
ENDBRANCH   1   7
BRANCH   6  18
HETATM   18  O6  UNL     1      -0.630  -2.450  -0.517  1.00  0.00    -0.390 OA
ATOM     19  H6  UNL     1      -1.058  -3.244  -0.219  1.00  0.00     0.210 HD
ENDBRANCH   6  18
BRANCH   3  20
HETATM   20  C5  UNL     1      -2.846   2.360   0.050  1.00  0.00     0.198 C 
BRANCH  20  21
HETATM   21  O3  UNL     1      -1.999   3.406  -0.311  1.00  0.00    -0.398 OA
ATOM     22  H3  UNL     1      -2.388   4.242  -0.082  1.00  0.00     0.209 HD
ENDBRANCH  20  21
ENDBRANCH   3  20
BRANCH   5  23
HETATM   23  O5  UNL     1      -2.836  -1.700   1.793  1.00  0.00    -0.390 OA
ATOM     24  H5  UNL     1      -2.417  -2.518   2.034  1.00  0.00     0.210 HD
ENDBRANCH   5  23
BRANCH   4  25
HETATM   25  O4  UNL     1      -4.065  -0.265  -0.956  1.00  0.00    -0.390 OA
ATOM     26  H4  UNL     1      -4.647  -0.969  -0.693  1.00  0.00     0.210 HD
ENDBRANCH   4  25
TORSDOF 8
