REMARK  9 active torsions:
REMARK  status: ('A' for Active; 'I' for Inactive)
REMARK    1  A    between atoms: C3_4  and  O2_5 
REMARK    2  A    between atoms: O2_5  and  C4_6 
REMARK    3  A    between atoms: C5_8  and  C6_9 
REMARK    4  A    between atoms: C6_9  and  O4_10 
REMARK    5  A    between atoms: C7_12  and  O5_13 
REMARK    6  A    between atoms: C8_15  and  O6_16 
REMARK    7  A    between atoms: C9_18  and  O7_19 
REMARK    8  A    between atoms: C10_21  and  O8_22 
REMARK    9  A    between atoms: C11_24  and  O9_25 
ROOT
HETATM    1  C4  UNL     1      -0.586   0.006  -0.069  1.00  0.00     0.294 C 
HETATM    2  O3  UNL     1      -1.356  -0.779   0.792  1.00  0.00    -0.348 OA
HETATM    3  C5  UNL     1      -2.590  -1.081   0.253  1.00  0.00     0.179 C 
HETATM    4  C7  UNL     1      -3.392   0.148  -0.103  1.00  0.00     0.180 C 
HETATM    5  C8  UNL     1      -2.596   1.351   0.413  1.00  0.00     0.183 C 
HETATM    6  C9  UNL     1      -1.292   1.335  -0.367  1.00  0.00     0.204 C 
ENDROOT
BRANCH   1   7
HETATM    7  O2  UNL     1       0.620   0.312   0.502  1.00  0.00    -0.326 OA
BRANCH   7   8
HETATM    8  C3  UNL     1       1.722  -0.128  -0.214  1.00  0.00     0.294 C 
HETATM    9  O1  UNL     1       2.422  -1.013   0.566  1.00  0.00    -0.351 OA
HETATM   10  C2  UNL     1       3.759  -0.783   0.441  1.00  0.00     0.152 C 
HETATM   11  C1  UNL     1       4.363  -0.142   1.693  1.00  0.00     0.042 C 
HETATM   12  C11 UNL     1       3.973   0.193  -0.691  1.00  0.00     0.180 C 
HETATM   13  C10 UNL     1       2.649   0.969  -0.620  1.00  0.00     0.204 C 
BRANCH  12  14
HETATM   14  O9  UNL     1       4.016  -0.536  -1.870  1.00  0.00    -0.390 OA
ATOM     15  H9  UNL     1       4.151   0.078  -2.582  1.00  0.00     0.210 HD
ENDBRANCH  12  14
BRANCH  13  16
HETATM   16  O8  UNL     1       2.414   1.472  -1.879  1.00  0.00    -0.388 OA
ATOM     17  H8  UNL     1       3.004   2.170  -2.137  1.00  0.00     0.210 HD
ENDBRANCH  13  16
ENDBRANCH   7   8
ENDBRANCH   1   7
BRANCH   6  18
HETATM   18  O7  UNL     1      -1.599   1.447  -1.722  1.00  0.00    -0.388 OA
ATOM     19  H7  UNL     1      -2.036   2.270  -1.907  1.00  0.00     0.210 HD
ENDBRANCH   6  18
BRANCH   3  20
HETATM   20  C6  UNL     1      -3.382  -1.846   1.295  1.00  0.00     0.198 C 
BRANCH  20  21
HETATM   21  O4  UNL     1      -4.652  -2.196   0.836  1.00  0.00    -0.398 OA
ATOM     22  H4  UNL     1      -5.148  -2.675   1.489  1.00  0.00     0.209 HD
ENDBRANCH  20  21
ENDBRANCH   3  20
BRANCH   5  23
HETATM   23  O6  UNL     1      -2.301   1.181   1.757  1.00  0.00    -0.390 OA
ATOM     24  H6  UNL     1      -1.807   1.927   2.077  1.00  0.00     0.210 HD
ENDBRANCH   5  23
BRANCH   4  25
HETATM   25  O5  UNL     1      -4.669   0.143   0.396  1.00  0.00    -0.390 OA
ATOM     26  H5  UNL     1      -5.174   0.916   0.172  1.00  0.00     0.210 HD
ENDBRANCH   4  25
TORSDOF 9
