REMARK  8 active torsions:
REMARK  status: ('A' for Active; 'I' for Inactive)
REMARK    1  A    between atoms: C3_4  and  O2_5 
REMARK    2  A    between atoms: O2_5  and  C4_6 
REMARK    3  A    between atoms: C6_9  and  O4_10 
REMARK    4  A    between atoms: C7_12  and  O5_13 
REMARK    5  A    between atoms: C8_15  and  O6_16 
REMARK    6  A    between atoms: C9_18  and  O7_19 
REMARK    7  A    between atoms: C10_21  and  O8_22 
REMARK    8  A    between atoms: C11_24  and  O9_25 
ROOT
HETATM    1  C1  UNL     1      -3.613  -0.082   2.229  1.00  0.00     0.042 C 
HETATM    2  C2  UNL     1      -2.992   0.456   0.983  1.00  0.00     0.152 C 
HETATM    3  O1  UNL     1      -1.684   0.711   1.147  1.00  0.00    -0.351 OA
HETATM    4  C3  UNL     1      -0.921   0.959   0.043  1.00  0.00     0.294 C 
HETATM    5  C9  UNL     1      -1.583   0.926  -1.273  1.00  0.00     0.204 C 
HETATM    6  C10 UNL     1      -2.840   0.147  -1.380  1.00  0.00     0.183 C 
HETATM    7  C11 UNL     1      -3.142  -0.619  -0.102  1.00  0.00     0.178 C 
ENDROOT
BRANCH   4   8
HETATM    8  O2  UNL     1       0.131   0.067   0.057  1.00  0.00    -0.326 OA
BRANCH   8   9
HETATM    9  C4  UNL     1       1.374   0.592   0.237  1.00  0.00     0.294 C 
HETATM   10  O3  UNL     1       2.157   0.481  -0.901  1.00  0.00    -0.356 OA
HETATM   11  C5  UNL     1       2.862  -0.718  -0.951  1.00  0.00     0.205 C 
HETATM   12  C6  UNL     1       3.955  -0.746   0.103  1.00  0.00     0.173 C 
HETATM   13  C7  UNL     1       3.621   0.353   1.112  1.00  0.00     0.182 C 
HETATM   14  C8  UNL     1       2.145   0.159   1.408  1.00  0.00     0.204 C 
BRANCH  12  15
HETATM   15  O4  UNL     1       5.150  -0.406  -0.520  1.00  0.00    -0.391 OA
ATOM     16  H4  UNL     1       5.834  -0.424   0.139  1.00  0.00     0.210 HD
ENDBRANCH  12  15
BRANCH  13  17
HETATM   17  O5  UNL     1       4.410   0.271   2.231  1.00  0.00    -0.390 OA
ATOM     18  H5  UNL     1       4.202   0.954   2.858  1.00  0.00     0.210 HD
ENDBRANCH  13  17
BRANCH  14  19
HETATM   19  O6  UNL     1       2.007  -1.226   1.677  1.00  0.00    -0.388 OA
ATOM     20  H6  UNL     1       2.506  -1.506   2.435  1.00  0.00     0.210 HD
ENDBRANCH  14  19
ENDBRANCH   8   9
ENDBRANCH   4   8
BRANCH   5  21
HETATM   21  O7  UNL     1      -0.694   0.367  -2.224  1.00  0.00    -0.388 OA
ATOM     22  H7  UNL     1      -1.121   0.346  -3.072  1.00  0.00     0.210 HD
ENDBRANCH   5  21
BRANCH   6  23
HETATM   23  O8  UNL     1      -2.858  -0.746  -2.454  1.00  0.00    -0.390 OA
ATOM     24  H8  UNL     1      -3.663  -1.245  -2.523  1.00  0.00     0.210 HD
ENDBRANCH   6  23
BRANCH   7  25
HETATM   25  O9  UNL     1      -4.437  -1.114  -0.144  1.00  0.00    -0.390 OA
ATOM     26  H9  UNL     1      -4.530  -1.779  -0.816  1.00  0.00     0.210 HD
ENDBRANCH   7  25
TORSDOF 8
