REMARK  8 active torsions:
REMARK  status: ('A' for Active; 'I' for Inactive)
REMARK    1  A    between atoms: C2_2  and  C4_4 
REMARK    2  A    between atoms: C6_6  and  N1_7 
REMARK    3  A    between atoms: C9_12  and  C10_13 
REMARK    4  A    between atoms: C10_13  and  N2_14 
REMARK    5  A    between atoms: N2_14  and  C11_15 
REMARK    6  A    between atoms: N2_14  and  C16_25 
REMARK    7  A    between atoms: C11_15  and  C12_16 
REMARK    8  A    between atoms: C21_30  and  O5_31 
ROOT
HETATM    1  C12 UNL     1      -2.460  -1.794  -0.010  1.00  0.00     0.209 C 
HETATM    2  O3  UNL     1      -1.541  -2.483  -0.798  1.00  0.00    -0.290 OA
HETATM    3  C13 UNL     1      -1.938  -3.805  -0.897  1.00  0.00     0.362 C 
HETATM    4  O4  UNL     1      -1.428  -4.723  -1.607  1.00  0.00    -0.238 OA
HETATM    5  N3  UNL     1      -3.060  -4.032  -0.056  1.00  0.00    -0.317 N 
ATOM      6  H3  UNL     1      -3.588  -4.902   0.018  1.00  0.00     0.166 HD
HETATM    7  C14 UNL     1      -3.323  -2.810   0.679  1.00  0.00     0.228 C 
HETATM    8  C15 UNL     1      -4.714  -2.391   0.567  1.00  0.00     0.087 C 
HETATM    9  N4  UNL     1      -5.833  -2.075   0.486  1.00  0.00    -0.195 NA
ENDROOT
BRANCH   1  10
HETATM   10  C11 UNL     1      -1.812  -0.855   1.004  1.00  0.00     0.099 C 
BRANCH  10  11
HETATM   11  N2  UNL     1      -1.020   0.160   0.501  1.00  0.00    -0.360 N 
BRANCH  11  12
HETATM   12  C10 UNL     1       0.213  -0.017  -0.115  1.00  0.00     0.102 C 
BRANCH  12  13
HETATM   13  C9  UNL     1       1.362  -0.465   0.670  1.00  0.00    -0.014 A 
HETATM   14  C4  UNL     1       2.571  -0.702   0.057  1.00  0.00    -0.041 A 
HETATM   15  C5  UNL     1       3.689  -1.119   0.784  1.00  0.00     0.044 A 
HETATM   16  C6  UNL     1       3.633  -1.307   2.128  1.00  0.00     0.103 A 
HETATM   17  C7  UNL     1       2.437  -1.075   2.765  1.00  0.00     0.037 A 
HETATM   18  C8  UNL     1       1.322  -0.658   2.029  1.00  0.00     0.016 A 
BRANCH  14  19
HETATM   19  C2  UNL     1       2.754  -0.503  -1.394  1.00  0.00     0.011 C 
HETATM   20  C1  UNL     1       4.043  -1.164  -1.877  1.00  0.00     0.015 C 
HETATM   21  C3  UNL     1       2.992   0.990  -1.659  1.00  0.00     0.015 C 
ENDBRANCH  14  19
BRANCH  16  22
HETATM   22  N1  UNL     1       4.800  -1.736   2.855  1.00  0.00    -0.116 N 
HETATM   23  O1  UNL     1       4.739  -1.908   4.081  1.00  0.00    -0.532 OA
HETATM   24  O2  UNL     1       5.966  -1.954   2.206  1.00  0.00    -0.532 OA
ENDBRANCH  16  22
ENDBRANCH  12  13
ENDBRANCH  11  12
BRANCH  11  25
HETATM   25  C16 UNL     1      -1.634   1.410   0.263  1.00  0.00     0.117 C 
HETATM   26  C17 UNL     1      -0.844   2.594   0.787  1.00  0.00     0.028 C 
HETATM   27  C18 UNL     1      -1.775   3.797   0.726  1.00  0.00     0.002 C 
HETATM   28  C19 UNL     1      -2.099   4.178  -0.695  1.00  0.00     0.003 C 
HETATM   29  C20 UNL     1      -1.581   3.109  -1.601  1.00  0.00     0.034 C 
HETATM   30  C21 UNL     1      -2.030   1.713  -1.143  1.00  0.00     0.141 C 
BRANCH  30  31
HETATM   31  O5  UNL     1      -1.558   0.825  -2.092  1.00  0.00    -0.393 OA
ATOM     32  H5  UNL     1      -1.810   1.018  -2.987  1.00  0.00     0.210 HD
ENDBRANCH  30  31
ENDBRANCH  11  25
ENDBRANCH  10  11
ENDBRANCH   1  10
TORSDOF 8
