REMARK  2 active torsions:
REMARK  status: ('A' for Active; 'I' for Inactive)
REMARK    1  A    between atoms: C2_2  and  C4_4 
REMARK    2  A    between atoms: C5_5  and  C6_6 
ROOT
HETATM    1  C6  UNL     1       0.699   0.302   0.214  1.00  0.00     0.155 C 
HETATM    2  C7  UNL     1      -0.383   1.276  -0.114  1.00  0.00     0.042 C 
HETATM    3  C8  UNL     1      -1.392   0.555  -1.049  1.00  0.00     0.070 C 
HETATM    4  C9  UNL     1      -2.100  -0.437  -0.080  1.00  0.00     0.203 C 
HETATM    5  C10 UNL     1      -0.927  -1.231   0.492  1.00  0.00     0.234 C 
HETATM    6  O1  UNL     1       0.257  -0.960  -0.260  1.00  0.00    -0.376 OA
HETATM    7  N1  UNL     1      -2.714   0.420   0.872  1.00  0.00    -0.299 N 
ATOM      8  H1  UNL     1      -2.115   1.033   1.426  1.00  0.00     0.183 HD
HETATM    9  N2  UNL     1      -3.904   0.463   1.061  1.00  0.00    -0.301 N 
ATOM     10  H2  UNL     1      -4.275   1.106   1.761  1.00  0.00     0.183 HD
HETATM   11  C11 UNL     1      -4.805  -0.366   0.327  1.00  0.00     0.182 C 
HETATM   12  C12 UNL     1      -5.930  -0.710   1.279  1.00  0.00     0.073 C 
HETATM   13  C13 UNL     1      -7.299  -0.584   0.716  1.00  0.00     0.083 C 
HETATM   14  C14 UNL     1      -7.474   0.627  -0.107  1.00  0.00     0.127 C 
HETATM   15  O2  UNL     1      -8.546   1.233  -0.104  1.00  0.00    -0.298 OA
HETATM   16  C15 UNL     1      -6.392   1.145  -0.949  1.00  0.00     0.083 C 
HETATM   17  C16 UNL     1      -5.257   0.165  -0.982  1.00  0.00     0.073 C 
HETATM   18  O3  UNL     1      -4.048  -1.536   0.037  1.00  0.00    -0.204 OA
HETATM   19  O4  UNL     1      -3.030  -1.208  -0.720  1.00  0.00    -0.201 OA
ENDROOT
BRANCH   1  20
HETATM   20  C5  UNL     1       2.062   0.681  -0.119  1.00  0.00    -0.022 A 
HETATM   21  C4  UNL     1       3.156  -0.179   0.017  1.00  0.00    -0.039 A 
HETATM   22  C20 UNL     1       4.468   0.272  -0.319  1.00  0.00    -0.044 A 
HETATM   23  C19 UNL     1       4.609   1.546  -0.769  1.00  0.00    -0.051 A 
HETATM   24  C21 UNL     1       5.788  -0.360  -0.203  1.00  0.00     0.040 C 
HETATM   25  C18 UNL     1       3.520   2.435  -0.915  1.00  0.00     0.008 A 
HETATM   26  C23 UNL     1       6.031   1.871  -1.056  1.00  0.00     0.039 C 
HETATM   27  C17 UNL     1       2.276   1.960  -0.580  1.00  0.00     0.011 A 
HETATM   28  C22 UNL     1       6.790   0.722  -0.527  1.00  0.00     0.009 C 
BRANCH  21  29
HETATM   29  C2  UNL     1       2.995  -1.501   0.631  1.00  0.00     0.012 C 
HETATM   30  C1  UNL     1       3.971  -2.504   0.057  1.00  0.00     0.015 C 
HETATM   31  C3  UNL     1       3.396  -1.379   2.150  1.00  0.00     0.015 C 
ENDBRANCH  21  29
ENDBRANCH   1  20
TORSDOF 2
