REMARK  2 active torsions:
REMARK  status: ('A' for Active; 'I' for Inactive)
REMARK    1  A    between atoms: C5_6  and  C6_7 
REMARK    2  A    between atoms: C6_7  and  N2_8 
ROOT
HETATM    1  N1  UNL     1       4.382   0.741  -0.534  1.00  0.00    -0.197 NA
HETATM    2  C1  UNL     1       3.233   0.585  -0.463  1.00  0.00     0.064 C 
HETATM    3  C2  UNL     1       1.808   0.376  -0.355  1.00  0.00     0.093 C 
HETATM    4  C3  UNL     1       1.362   0.292   1.109  1.00  0.00     0.019 C 
HETATM    5  C4  UNL     1      -0.140   0.599   1.054  1.00  0.00     0.007 C 
HETATM    6  C5  UNL     1      -0.763   0.097  -0.210  1.00  0.00     0.011 C 
HETATM    7  C7  UNL     1      -0.099  -1.131  -0.760  1.00  0.00     0.007 C 
HETATM    8  C8  UNL     1       1.387  -0.936  -0.985  1.00  0.00     0.019 C 
ENDROOT
BRANCH   6   9
HETATM    9  C6  UNL     1      -2.204  -0.258   0.093  1.00  0.00     0.234 C 
BRANCH   9  10
HETATM   10  N2  UNL     1      -2.908   0.919   0.566  1.00  0.00    -0.079 N 
ATOM     11  H23 UNL     1      -2.442   1.350   1.365  1.00  0.00     0.274 HD
ATOM     12  H22 UNL     1      -2.834   1.699  -0.087  1.00  0.00     0.274 HD
ATOM     13  H21 UNL     1      -3.878   0.680   0.770  1.00  0.00     0.274 HD
ENDBRANCH   9  10
ENDBRANCH   6   9
TORSDOF 2
