REMARK  2 active torsions:
REMARK  status: ('A' for Active; 'I' for Inactive)
REMARK    1  A    between atoms: C6_7  and  O2_8 
REMARK    2  A    between atoms: C7_10  and  O3_11 
ROOT
HETATM    1  C1  UNL     1       2.306   0.327  -1.047  1.00  0.00     0.042 C 
HETATM    2  C2  UNL     1       1.087   0.948  -0.363  1.00  0.00     0.150 C 
HETATM    3  O1  UNL     1       0.002   0.692  -1.159  1.00  0.00    -0.371 OA
HETATM    4  C3  UNL     1      -0.956   0.037  -0.422  1.00  0.00     0.082 C 
HETATM    5  C4  UNL     1      -1.904  -0.790  -1.202  1.00  0.00     0.048 C 
HETATM    6  C5  UNL     1      -1.701   1.064   0.389  1.00  0.00     0.048 C 
HETATM    7  C6  UNL     1      -0.080  -0.855   0.470  1.00  0.00     0.183 C 
HETATM    8  C7  UNL     1       0.871   0.231   0.957  1.00  0.00     0.178 C 
ENDROOT
BRANCH   7   9
HETATM    9  O2  UNL     1      -0.780  -1.457   1.469  1.00  0.00    -0.390 OA
ATOM     10  H2  UNL     1      -0.238  -2.009   2.021  1.00  0.00     0.210 HD
ENDBRANCH   7   9
BRANCH   8  11
HETATM   11  O3  UNL     1       2.018  -0.255   1.506  1.00  0.00    -0.390 OA
ATOM     12  H3  UNL     1       1.883  -0.704   2.332  1.00  0.00     0.210 HD
ENDBRANCH   8  11
TORSDOF 2
