REMARK  6 active torsions:
REMARK  status: ('A' for Active; 'I' for Inactive)
REMARK    1  A    between atoms: N1_1  and  C1_5 
REMARK    2  A    between atoms: C3_10  and  C4_11 
REMARK    3  A    between atoms: C4_11  and  C5_12 
REMARK    4  A    between atoms: C5_12  and  N3_13 
REMARK    5  A    between atoms: N3_13  and  C6_16 
REMARK    6  A    between atoms: C6_16  and  C7_17 
ROOT
HETATM    1  C5  UNL     1      -0.189   0.027   1.508  1.00  0.00     0.235 C 
ENDROOT
BRANCH   1   2
HETATM    2  C4  UNL     1      -0.932   0.326   0.256  1.00  0.00     0.062 C 
BRANCH   2   3
HETATM    3  C3  UNL     1      -2.429   0.249   0.409  1.00  0.00     0.219 C 
HETATM    4  C1  UNL     1      -3.198   0.554  -0.862  1.00  0.00     0.239 C 
HETATM    5  C2  UNL     1      -4.162  -0.478  -0.282  1.00  0.00     0.267 C 
HETATM    6  N2  UNL     1      -2.964  -1.115   0.292  1.00  0.00    -0.067 N 
ATOM      7  H22 UNL     1      -3.020  -1.743   1.094  1.00  0.00     0.277 HD
ATOM      8  H21 UNL     1      -2.458  -1.852  -0.199  1.00  0.00     0.277 HD
BRANCH   4   9
HETATM    9  N1  UNL     1      -3.687   1.888  -0.922  1.00  0.00    -0.071 N 
ATOM     10  H13 UNL     1      -4.571   1.912  -1.431  1.00  0.00     0.274 HD
ATOM     11  H12 UNL     1      -4.001   2.186   0.002  1.00  0.00     0.274 HD
ATOM     12  H11 UNL     1      -3.043   2.578  -1.310  1.00  0.00     0.274 HD
ENDBRANCH   4   9
ENDBRANCH   2   3
ENDBRANCH   1   2
BRANCH   1  13
HETATM   13  N3  UNL     1       1.231   0.132   1.261  1.00  0.00    -0.070 N 
ATOM     14  H32 UNL     1       1.465   1.053   0.891  1.00  0.00     0.277 HD
ATOM     15  H31 UNL     1       1.748   0.165   2.140  1.00  0.00     0.277 HD
BRANCH  13  16
HETATM   16  C6  UNL     1       1.747  -0.907   0.405  1.00  0.00     0.290 C 
BRANCH  16  17
HETATM   17  C7  UNL     1       3.200  -0.666   0.237  1.00  0.00     0.051 A 
HETATM   18  C8  UNL     1       3.801  -0.103  -0.859  1.00  0.00     0.115 A 
HETATM   19  N4  UNL     1       5.134  -0.061  -0.601  1.00  0.00    -0.360 N 
HETATM   20  C9  UNL     1       5.367  -0.576   0.608  1.00  0.00     0.180 A 
ATOM     21  H4  UNL     1       5.846   0.307  -1.233  1.00  0.00     0.166 HD
HETATM   22  N5  UNL     1       4.160  -0.945   1.113  1.00  0.00    -0.353 N 
ATOM     23  H5  UNL     1       4.013  -1.372   2.028  1.00  0.00     0.166 HD
ENDBRANCH  16  17
ENDBRANCH  13  16
ENDBRANCH   1  13
TORSDOF 6
