REMARK  6 active torsions:
REMARK  status: ('A' for Active; 'I' for Inactive)
REMARK    1  A    between atoms: C3_3  and  N1_4 
REMARK    2  A    between atoms: N2_6  and  C5_8 
REMARK    3  A    between atoms: C5_8  and  C6_9 
REMARK    4  A    between atoms: C6_9  and  C7_10 
REMARK       I    between atoms: C7_10  and  N3_12 
REMARK    5  A    between atoms: N3_12  and  N4_14 
REMARK    6  A    between atoms: N6_22  and  O2_23 
ROOT
HETATM    1  C1  UNL     1      -2.378   3.430   0.354  1.00  0.00     0.014 C 
HETATM    2  C2  UNL     1      -1.871   2.459   0.857  1.00  0.00    -0.097 C 
HETATM    3  C3  UNL     1      -1.247   1.271   1.491  1.00  0.00     0.242 C 
ENDROOT
BRANCH   3   4
HETATM    4  N1  UNL     1      -1.051   0.224   0.524  1.00  0.00    -0.155 N 
HETATM    5  C4  UNL     1       0.009  -0.042  -0.244  1.00  0.00     0.683 A 
HETATM    6  N2  UNL     1       1.166   0.507  -0.348  1.00  0.00    -0.225 N 
HETATM    7  N5  UNL     1      -0.311  -1.142  -1.019  1.00  0.00    -0.185 N 
ATOM      8  H2  UNL     1       1.787   0.082  -1.037  1.00  0.00     0.177 HD
HETATM    9  C8  UNL     1      -1.538  -1.535  -0.726  1.00  0.00     0.135 A 
ATOM     10  H5  UNL     1       0.302  -1.580  -1.707  1.00  0.00     0.184 HD
HETATM   11  C9  UNL     1      -2.337  -2.564  -1.195  1.00  0.00     0.166 A 
HETATM   12  C11 UNL     1      -2.024  -0.698   0.236  1.00  0.00     0.158 A 
HETATM   13 CL1  UNL     1      -1.759  -3.673  -2.436  1.00  0.00    -0.059 Cl
HETATM   14  N6  UNL     1      -3.564  -2.695  -0.680  1.00  0.00    -0.181 N 
HETATM   15  C10 UNL     1      -4.053  -1.872   0.273  1.00  0.00     0.222 A 
HETATM   16  N7  UNL     1      -5.349  -2.015   0.813  1.00  0.00    -0.061 NA
HETATM   17  N8  UNL     1      -3.273  -0.873   0.726  1.00  0.00    -0.312 N 
ATOM     18  H8  UNL     1      -3.627  -0.242   1.445  1.00  0.00     0.170 HD
BRANCH   6  19
HETATM   19  C5  UNL     1       1.705   1.604   0.343  1.00  0.00     0.147 C 
BRANCH  19  20
HETATM   20  C6  UNL     1       3.095   1.892  -0.275  1.00  0.00     0.124 C 
BRANCH  20  21
HETATM   21  C7  UNL     1       3.941   0.691  -0.107  1.00  0.00     0.237 C 
HETATM   22  O1  UNL     1       3.448  -0.312   0.466  1.00  0.00    -0.272 OA
HETATM   23  N3  UNL     1       5.276   0.614  -0.561  1.00  0.00    -0.277 N 
ATOM     24  H3  UNL     1       5.695   1.417  -1.030  1.00  0.00     0.189 HD
BRANCH  23  25
HETATM   25  N4  UNL     1       6.028  -0.544  -0.377  1.00  0.00    -0.343 N 
ATOM     26  H42 UNL     1       5.594  -1.338   0.094  1.00  0.00     0.176 HD
ATOM     27  H41 UNL     1       6.992  -0.600  -0.705  1.00  0.00     0.176 HD
ENDBRANCH  23  25
ENDBRANCH  20  21
ENDBRANCH  19  20
ENDBRANCH   6  19
BRANCH  14  28
HETATM   28  O2  UNL     1      -4.429  -3.704  -1.097  1.00  0.00    -0.279 OA
ATOM     29  H2  UNL     1      -5.301  -3.797  -0.731  1.00  0.00     0.245 HD
ENDBRANCH  14  28
ENDBRANCH   3   4
TORSDOF 6
