REMARK  8 active torsions:
REMARK  status: ('A' for Active; 'I' for Inactive)
REMARK    1  A    between atoms: N4_12  and  O2_13 
REMARK    2  A    between atoms: O2_13  and  C6_14 
REMARK    3  A    between atoms: C6_14  and  C7_15 
REMARK    4  A    between atoms: C7_15  and  S1_16 
REMARK    5  A    between atoms: S1_16  and  C8_17 
REMARK    6  A    between atoms: N6_20  and  N7_21 
REMARK    7  A    between atoms: C9_24  and  N8_25 
REMARK    8  A    between atoms: N8_25  and  N9_27 
ROOT
HETATM    1  N1  UNL     1      -5.918   4.113  -0.588  1.00  0.00    -0.190 NA
HETATM    2  C1  UNL     1      -5.911   2.987  -0.309  1.00  0.00     0.120 C 
HETATM    3  C2  UNL     1      -5.876   1.602   0.038  1.00  0.00     0.148 A 
HETATM    4  N2  UNL     1      -6.852   0.938   0.665  1.00  0.00    -0.288 N 
ATOM      5  H2  UNL     1      -7.735   1.348   0.968  1.00  0.00     0.188 HD
HETATM    6  N3  UNL     1      -6.505  -0.336   0.837  1.00  0.00    -0.284 N 
ATOM      7  H3  UNL     1      -7.075  -1.051   1.288  1.00  0.00     0.188 HD
HETATM    8  C3  UNL     1      -5.263  -0.527   0.311  1.00  0.00     0.136 A 
HETATM    9  C4  UNL     1      -4.875   0.696  -0.188  1.00  0.00     0.118 A 
HETATM   10  C5  UNL     1      -3.559   0.826  -0.832  1.00  0.00     0.285 C 
HETATM   11  O1  UNL     1      -3.192   1.922  -1.288  1.00  0.00    -0.265 OA
HETATM   12  N4  UNL     1      -2.759  -0.371  -0.889  1.00  0.00    -0.204 N 
HETATM   13  C10 UNL     1      -3.367  -1.680  -0.760  1.00  0.00     0.282 C 
HETATM   14  N11 UNL     1      -4.432  -1.672   0.227  1.00  0.00    -0.356 N 
ATOM     15  H11 UNL     1      -4.578  -2.471   0.844  1.00  0.00     0.162 HD
ENDROOT
BRANCH  12  16
HETATM   16  O2  UNL     1      -1.451  -0.202  -1.066  1.00  0.00    -0.273 OA
BRANCH  16  17
HETATM   17  C6  UNL     1      -0.761  -0.614   0.054  1.00  0.00     0.212 C 
BRANCH  17  18
HETATM   18  C7  UNL     1       0.713  -0.362  -0.233  1.00  0.00     0.111 C 
BRANCH  18  19
HETATM   19  S1  UNL     1       1.719  -0.874   1.206  1.00  0.00    -0.090 SA
BRANCH  19  20
HETATM   20  C8  UNL     1       3.434  -0.498   0.856  1.00  0.00     0.176 A 
HETATM   21  N5  UNL     1       4.305  -1.328   0.269  1.00  0.00    -0.243 N 
HETATM   22  N6  UNL     1       5.479  -0.706   0.170  1.00  0.00    -0.023 N 
ATOM     23  H5  UNL     1       4.104  -2.276  -0.049  1.00  0.00     0.192 HD
HETATM   24  C9  UNL     1       5.360   0.523   0.694  1.00  0.00     0.734 A 
HETATM   25  N10 UNL     1       4.095   0.654   1.118  1.00  0.00    -0.165 N 
ATOM     26  H10 UNL     1       3.698   1.482   1.563  1.00  0.00     0.186 HD
BRANCH  22  27
HETATM   27  N7  UNL     1       6.659  -1.242  -0.390  1.00  0.00    -0.309 N 
ATOM     28  H72 UNL     1       6.749  -2.177  -0.788  1.00  0.00     0.179 HD
ATOM     29  H71 UNL     1       7.558  -0.766  -0.466  1.00  0.00     0.179 HD
ENDBRANCH  22  27
BRANCH  24  30
HETATM   30  N8  UNL     1       6.260   1.439   0.785  1.00  0.00    -0.135 N 
ATOM     31  H8  UNL     1       6.003   2.327   1.215  1.00  0.00     0.205 HD
BRANCH  30  32
HETATM   32  N9  UNL     1       7.570   1.281   0.326  1.00  0.00    -0.331 N 
ATOM     33  H92 UNL     1       7.810   0.386  -0.101  1.00  0.00     0.177 HD
ATOM     34  H91 UNL     1       8.283   2.007   0.398  1.00  0.00     0.177 HD
ENDBRANCH  30  32
ENDBRANCH  24  30
ENDBRANCH  19  20
ENDBRANCH  18  19
ENDBRANCH  17  18
ENDBRANCH  16  17
ENDBRANCH  12  16
TORSDOF 8
