REMARK  5 active torsions:
REMARK  status: ('A' for Active; 'I' for Inactive)
REMARK    1  A    between atoms: C2_2  and  C3_3 
REMARK    2  A    between atoms: C3_3  and  O1_4 
REMARK    3  A    between atoms: O1_4  and  C4_5 
REMARK    4  A    between atoms: C8_10  and  C9_11 
REMARK    5  A    between atoms: C17_19  and  O3_21 
ROOT
HETATM    1  C4  UNL     1       2.139  -0.021   0.016  1.00  0.00     0.294 C 
HETATM    2  O2  UNL     1       1.030  -0.338   0.854  1.00  0.00    -0.343 OA
HETATM    3  C5  UNL     1      -0.071  -0.778   0.173  1.00  0.00     0.082 C 
HETATM    4  C6  UNL     1      -0.557   0.164  -0.855  1.00  0.00     0.007 C 
HETATM    5  C7  UNL     1      -1.760   0.732  -0.853  1.00  0.00    -0.022 C 
HETATM    6  C8  UNL     1      -2.726   0.444   0.223  1.00  0.00     0.015 C 
HETATM    7  C13 UNL     1      -2.533  -0.987   0.641  1.00  0.00     0.012 C 
HETATM    8  C14 UNL     1      -1.133  -1.093   1.207  1.00  0.00     0.043 C 
HETATM    9  C15 UNL     1       0.249  -2.125  -0.502  1.00  0.00     0.045 C 
HETATM   10  C16 UNL     1       1.445  -2.039  -1.366  1.00  0.00     0.046 C 
HETATM   11  C17 UNL     1       2.530  -1.138  -0.867  1.00  0.00     0.104 C 
HETATM   12  C18 UNL     1       3.556  -1.991  -0.134  1.00  0.00     0.051 C 
ENDROOT
BRANCH   1  13
HETATM   13  O1  UNL     1       3.145   0.213   0.952  1.00  0.00    -0.358 OA
BRANCH  13  14
HETATM   14  C3  UNL     1       3.532   1.493   1.146  1.00  0.00     0.170 C 
BRANCH  14  15
HETATM   15  C2  UNL     1       4.211   2.110  -0.033  1.00  0.00     0.022 C 
HETATM   16  C1  UNL     1       5.506   1.352  -0.319  1.00  0.00     0.007 C 
ENDBRANCH  14  15
ENDBRANCH  13  14
ENDBRANCH   1  13
BRANCH  11  17
HETATM   17  O3  UNL     1       3.162  -0.635  -2.020  1.00  0.00    -0.385 OA
ATOM     18  H3  UNL     1       3.414  -1.354  -2.588  1.00  0.00     0.210 HD
ENDBRANCH  11  17
BRANCH   6  19
HETATM   19  C9  UNL     1      -4.147   0.754  -0.163  1.00  0.00    -0.044 C 
HETATM   20  C10 UNL     1      -5.128   0.460   0.933  1.00  0.00     0.015 C 
HETATM   21  C11 UNL     1      -4.580  -0.003  -1.397  1.00  0.00     0.015 C 
HETATM   22  C12 UNL     1      -4.255   2.229  -0.487  1.00  0.00     0.015 C 
ENDBRANCH   6  19
TORSDOF 5
