REMARK  5 active torsions:
REMARK  status: ('A' for Active; 'I' for Inactive)
REMARK    1  A    between atoms: C2_2  and  C3_3 
REMARK    2  A    between atoms: C8_8  and  N1_9 
REMARK    3  A    between atoms: N1_9  and  C9_11 
REMARK    4  A    between atoms: C9_11  and  O1_13 
REMARK    5  A    between atoms: O1_13  and  C10_14 
ROOT
HETATM    1  C3  UNL     1      -2.790   0.548   0.456  1.00  0.00     0.016 C 
HETATM    2  C4  UNL     1      -3.199   1.881  -0.102  1.00  0.00     0.009 C 
HETATM    3  C5  UNL     1      -2.304   2.513  -1.073  1.00  0.00     0.001 C 
HETATM    4  C6  UNL     1      -0.843   2.224  -1.032  1.00  0.00     0.007 C 
HETATM    5  C7  UNL     1      -0.543   1.132  -0.085  1.00  0.00     0.017 C 
HETATM    6  C8  UNL     1       0.867   0.597  -0.063  1.00  0.00     0.089 C 
HETATM    7  C12 UNL     1       1.013  -0.551  -1.059  1.00  0.00     0.029 C 
HETATM    8  C13 UNL     1       0.121  -1.691  -0.604  1.00  0.00    -0.016 C 
HETATM    9  C14 UNL     1       0.946  -2.759   0.117  1.00  0.00     0.010 C 
HETATM   10  C15 UNL     1      -1.021  -1.221   0.265  1.00  0.00     0.014 C 
HETATM   11  C16 UNL     1      -1.561   0.042  -0.301  1.00  0.00    -0.031 C 
HETATM   12  C17 UNL     1      -2.011  -0.173  -1.700  1.00  0.00     0.016 C 
ENDROOT
BRANCH   6  13
HETATM   13  N1  UNL     1       1.868   1.582  -0.253  1.00  0.00    -0.356 N 
ATOM     14  H1  UNL     1       1.600   2.508  -0.586  1.00  0.00     0.162 HD
BRANCH  13  15
HETATM   15  C9  UNL     1       3.223   1.311   0.007  1.00  0.00     0.210 C 
HETATM   16  S1  UNL     1       4.373   2.485  -0.241  1.00  0.00    -0.033 SA
BRANCH  15  17
HETATM   17  O1  UNL     1       3.603   0.068   0.469  1.00  0.00    -0.328 OA
BRANCH  17  18
HETATM   18  C10 UNL     1       4.961  -0.231   0.652  1.00  0.00     0.173 C 
HETATM   19  C11 UNL     1       5.138  -1.640   1.162  1.00  0.00     0.034 C 
ENDBRANCH  17  18
ENDBRANCH  15  17
ENDBRANCH  13  15
ENDBRANCH   6  13
BRANCH   1  20
HETATM   20  C2  UNL     1      -3.873  -0.469   0.433  1.00  0.00    -0.031 C 
HETATM   21  C1  UNL     1      -4.345  -0.976   1.589  1.00  0.00     0.007 C 
ENDBRANCH   1  20
TORSDOF 5
