REMARK  2 active torsions:
REMARK  status: ('A' for Active; 'I' for Inactive)
REMARK       I    between atoms: C1_4  and  N3_6 
REMARK    1  A    between atoms: C2_7  and  N4_8 
REMARK    2  A    between atoms: N4_8  and  N5_10 
ROOT
HETATM    1  N1  UNL     1      -1.803  -1.326  -1.508  1.00  0.00    -0.373 N 
ATOM      2  H11 UNL     1      -1.348  -0.888  -2.309  1.00  0.00     0.158 HD
ATOM      3  H12 UNL     1      -2.439  -2.115  -1.624  1.00  0.00     0.158 HD
HETATM    4  C1  UNL     1      -1.527  -0.825  -0.346  1.00  0.00     0.198 C 
HETATM    5  N2  UNL     1      -2.162  -1.436   0.771  1.00  0.00    -0.063 NA
HETATM    6  N3  UNL     1      -0.640   0.275  -0.184  1.00  0.00    -0.221 N 
HETATM    7  C2  UNL     1       0.672   0.011  -0.019  1.00  0.00     0.138 A 
HETATM    8  C3  UNL     1       1.573   1.056   0.142  1.00  0.00     0.125 A 
HETATM    9  C4  UNL     1       1.071   2.341   0.125  1.00  0.00     0.252 A 
HETATM   10  O1  UNL     1       1.866   3.307   0.269  1.00  0.00    -0.268 OA
HETATM   11  N6  UNL     1      -0.259   2.554  -0.044  1.00  0.00    -0.275 N 
ATOM     12  H6  UNL     1      -0.615   3.510  -0.054  1.00  0.00     0.173 HD
HETATM   13  C5  UNL     1      -1.112   1.534  -0.198  1.00  0.00     0.337 A 
HETATM   14  O2  UNL     1      -2.346   1.711  -0.356  1.00  0.00    -0.246 OA
ENDROOT
BRANCH   7  15
HETATM   15  N4  UNL     1       1.113  -1.338  -0.012  1.00  0.00    -0.291 N 
ATOM     16  H4  UNL     1       0.416  -2.073  -0.133  1.00  0.00     0.188 HD
BRANCH  15  17
HETATM   17  N5  UNL     1       2.439  -1.714   0.150  1.00  0.00    -0.344 N 
ATOM     18  H52 UNL     1       3.122  -0.966   0.270  1.00  0.00     0.176 HD
ATOM     19  H51 UNL     1       2.756  -2.683   0.155  1.00  0.00     0.176 HD
ENDBRANCH  15  17
ENDBRANCH   7  15
TORSDOF 2
