REMARK  17 active torsions:
REMARK  status: ('A' for Active; 'I' for Inactive)
REMARK    1  A    between atoms: C2_2  and  C3_3 
REMARK    2  A    between atoms: C3_3  and  C4_4 
REMARK    3  A    between atoms: C4_4  and  C5_5 
REMARK    4  A    between atoms: C4_4  and  N3_14 
REMARK    5  A    between atoms: C5_5  and  N1_6 
REMARK    6  A    between atoms: N1_6  and  C6_8 
REMARK    7  A    between atoms: C6_8  and  N2_10 
REMARK    8  A    between atoms: N2_10  and  C7_12 
REMARK    9  A    between atoms: N3_14  and  C9_16 
REMARK   10  A    between atoms: C9_16  and  C10_17 
REMARK   11  A    between atoms: C9_16  and  C14_21 
REMARK   12  A    between atoms: C10_17  and  C11_18 
REMARK   13  A    between atoms: C14_21  and  N4_22 
REMARK   14  A    between atoms: C14_21  and  C15_26 
REMARK   15  A    between atoms: C15_26  and  C16_27 
REMARK       I    between atoms: C16_27  and  N5_29 
REMARK   16  A    between atoms: N5_29  and  S2_31 
REMARK   17  A    between atoms: S2_31  and  N6_34 
ROOT
HETATM    1  C9  UNL     1       0.133  -0.870  -0.478  1.00  0.00     0.112 C 
ENDROOT
BRANCH   1   2
HETATM    2  N3  UNL     1       1.107  -0.349   0.383  1.00  0.00    -0.388 N 
ATOM      3  H3  UNL     1       0.793   0.185   1.193  1.00  0.00     0.159 HD
BRANCH   2   4
HETATM    4  C4  UNL     1       2.482  -0.516   0.200  1.00  0.00     0.000 C 
BRANCH   4   5
HETATM    5  C3  UNL     1       3.125  -1.823   0.470  1.00  0.00     0.053 C 
BRANCH   5   6
HETATM    6  C2  UNL     1       4.423  -2.145  -0.189  1.00  0.00     0.001 C 
HETATM    7  C1  UNL     1       4.874  -3.568   0.170  1.00  0.00     0.005 C 
ENDBRANCH   5   6
ENDBRANCH   4   5
BRANCH   4   8
HETATM    8  C5  UNL     1       3.296   0.675   0.609  1.00  0.00     0.174 C 
BRANCH   8   9
HETATM    9  N1  UNL     1       4.513   0.880  -0.092  1.00  0.00    -0.362 N 
ATOM     10  H1  UNL     1       4.720   0.280  -0.891  1.00  0.00     0.162 HD
BRANCH   9  11
HETATM   11  C6  UNL     1       5.455   1.879   0.265  1.00  0.00     0.167 C 
HETATM   12  S1  UNL     1       5.205   2.886   1.535  1.00  0.00    -0.041 SA
BRANCH  11  13
HETATM   13  N2  UNL     1       6.649   2.035  -0.476  1.00  0.00    -0.368 N 
ATOM     14  H2  UNL     1       6.821   1.414  -1.267  1.00  0.00     0.161 HD
BRANCH  13  15
HETATM   15  C7  UNL     1       7.635   3.041  -0.155  1.00  0.00     0.117 C 
HETATM   16  C8  UNL     1       7.108   4.440  -0.431  1.00  0.00     0.026 C 
ENDBRANCH  13  15
ENDBRANCH  11  13
ENDBRANCH   9  11
ENDBRANCH   8   9
ENDBRANCH   4   8
ENDBRANCH   2   4
ENDBRANCH   1   2
BRANCH   1  17
HETATM   17  C10 UNL     1       0.099  -2.325  -0.615  1.00  0.00     0.031 C 
BRANCH  17  18
HETATM   18  C11 UNL     1      -0.988  -2.839  -1.553  1.00  0.00    -0.013 A 
HETATM   19  C12 UNL     1      -1.043  -4.350  -1.728  1.00  0.00     0.005 A 
HETATM   20  C13 UNL     1      -2.031  -3.698  -0.868  1.00  0.00     0.005 A 
ENDBRANCH  17  18
ENDBRANCH   1  17
BRANCH   1  21
HETATM   21  C14 UNL     1      -1.228  -0.220  -0.252  1.00  0.00     0.214 C 
BRANCH  21  22
HETATM   22  N4  UNL     1      -1.126   1.186  -0.476  1.00  0.00    -0.073 N 
ATOM     23  H43 UNL     1      -0.395   1.615   0.091  1.00  0.00     0.274 HD
ATOM     24  H42 UNL     1      -0.743   1.403  -1.396  1.00  0.00     0.274 HD
ATOM     25  H41 UNL     1      -2.036   1.621  -0.325  1.00  0.00     0.274 HD
ENDBRANCH  21  22
BRANCH  21  26
HETATM   26  C15 UNL     1      -1.839  -0.522   1.070  1.00  0.00     0.138 C 
BRANCH  26  27
HETATM   27  C16 UNL     1      -3.142   0.179   1.202  1.00  0.00     0.234 C 
HETATM   28  O1  UNL     1      -3.468   1.012   0.322  1.00  0.00    -0.273 OA
HETATM   29  N5  UNL     1      -4.060  -0.025   2.269  1.00  0.00    -0.237 N 
ATOM     30  H5  UNL     1      -3.829  -0.697   3.001  1.00  0.00     0.183 HD
BRANCH  29  31
HETATM   31  S2  UNL     1      -5.554   0.834   2.359  1.00  0.00     0.323 S 
HETATM   32  O2  UNL     1      -6.539  -0.067   3.102  1.00  0.00    -0.182 OA
HETATM   33  O3  UNL     1      -5.369   2.024   3.291  1.00  0.00    -0.182 OA
BRANCH  31  34
HETATM   34  N6  UNL     1      -6.234   1.317   0.942  1.00  0.00    -0.294 N 
HETATM   35  C17 UNL     1      -6.655   0.470  -0.064  1.00  0.00     0.137 C 
HETATM   36  C18 UNL     1      -7.792   1.286  -0.721  1.00  0.00     0.022 C 
HETATM   37  C19 UNL     1      -7.641   2.695  -0.212  1.00  0.00     0.022 C 
HETATM   38  C20 UNL     1      -6.306   2.648   0.539  1.00  0.00     0.137 C 
ENDBRANCH  31  34
ENDBRANCH  29  31
ENDBRANCH  26  27
ENDBRANCH  21  26
ENDBRANCH   1  21
TORSDOF 17
