REMARK  14 active torsions:
REMARK  status: ('A' for Active; 'I' for Inactive)
REMARK    1  A    between atoms: C3_5  and  N2_6 
REMARK    2  A    between atoms: C6_9  and  N3_10 
REMARK       I    between atoms: N3_10  and  C7_12 
REMARK    3  A    between atoms: C7_12  and  C8_14 
REMARK    4  A    between atoms: C8_14  and  N4_16 
REMARK    5  A    between atoms: N6_24  and  C13_25 
REMARK    6  A    between atoms: C13_25  and  C14_26 
REMARK    7  A    between atoms: C14_26  and  C15_27 
REMARK    8  A    between atoms: C15_27  and  C16_28 
REMARK    9  A    between atoms: C16_28  and  C17_29 
REMARK   10  A    between atoms: C17_29  and  C18_30 
REMARK   11  A    between atoms: C18_30  and  C19_31 
REMARK   12  A    between atoms: C19_31  and  C20_32 
REMARK   13  A    between atoms: C20_32  and  C21_33 
REMARK   14  A    between atoms: C21_33  and  C22_34 
REMARK       I    between atoms: C22_34  and  N7_36 
ROOT
HETATM    1  C1  UNL     1      -1.409   1.377   4.110  1.00  0.00     0.089 C 
HETATM    2  C2  UNL     1      -1.621   0.633   2.858  1.00  0.00     0.082 A 
HETATM    3  N1  UNL     1      -2.871   0.244   2.519  1.00  0.00    -0.332 N 
ATOM      4  H1  UNL     1      -3.634   0.485   3.151  1.00  0.00     0.168 HD
HETATM    5  C3  UNL     1      -3.170  -0.439   1.404  1.00  0.00     0.107 A 
HETATM    6  C11 UNL     1      -2.095  -0.732   0.596  1.00  0.00     0.093 A 
HETATM    7  C12 UNL     1      -0.800  -0.326   0.954  1.00  0.00     0.123 A 
HETATM    8  N5  UNL     1       0.263  -0.656   0.081  1.00  0.00    -0.082 NA
HETATM    9  N6  UNL     1      -0.546   0.355   2.076  1.00  0.00    -0.325 N 
ENDROOT
BRANCH   9  10
HETATM   10  C13 UNL     1       0.776   0.806   2.467  1.00  0.00     0.131 C 
BRANCH  10  11
HETATM   11  C14 UNL     1       1.185   2.108   1.886  1.00  0.00     0.020 C 
BRANCH  11  12
HETATM   12  C15 UNL     1       2.522   2.513   2.423  1.00  0.00     0.002 C 
BRANCH  12  13
HETATM   13  C16 UNL     1       3.568   1.478   2.135  1.00  0.00     0.000 C 
BRANCH  13  14
HETATM   14  C17 UNL     1       3.704   1.281   0.656  1.00  0.00     0.000 C 
BRANCH  14  15
HETATM   15  C18 UNL     1       4.732   0.220   0.354  1.00  0.00     0.000 C 
BRANCH  15  16
HETATM   16  C19 UNL     1       6.070   0.633   0.855  1.00  0.00     0.000 C 
BRANCH  16  17
HETATM   17  C20 UNL     1       7.130  -0.421   0.597  1.00  0.00     0.009 C 
BRANCH  17  18
HETATM   18  C21 UNL     1       7.315  -0.775  -0.829  1.00  0.00     0.103 C 
BRANCH  18  19
HETATM   19  C22 UNL     1       7.748   0.320  -1.715  1.00  0.00     0.223 C 
HETATM   20  O2  UNL     1       8.134   1.435  -1.281  1.00  0.00    -0.273 OA
HETATM   21  N7  UNL     1       7.755   0.172  -3.140  1.00  0.00    -0.304 N 
HETATM   22  C23 UNL     1       8.780  -0.307  -3.735  1.00  0.00     0.203 C 
ATOM     23  H7  UNL     1       6.938   0.450  -3.683  1.00  0.00     0.171 HD
HETATM   24  N8  UNL     1       9.910  -0.691  -2.984  1.00  0.00    -0.066 NA
HETATM   25  N9  UNL     1       8.772  -0.455  -5.151  1.00  0.00    -0.066 NA
ENDBRANCH  18  19
ENDBRANCH  17  18
ENDBRANCH  16  17
ENDBRANCH  15  16
ENDBRANCH  14  15
ENDBRANCH  13  14
ENDBRANCH  12  13
ENDBRANCH  11  12
ENDBRANCH  10  11
ENDBRANCH   9  10
BRANCH   5  26
HETATM   26  N2  UNL     1      -4.509  -0.842   1.111  1.00  0.00    -0.365 N 
HETATM   27  C4  UNL     1      -5.524  -1.190   2.083  1.00  0.00     0.126 C 
HETATM   28  C5  UNL     1      -6.829  -1.213   1.332  1.00  0.00     0.046 C 
HETATM   29  C6  UNL     1      -6.523  -0.463   0.036  1.00  0.00     0.104 C 
HETATM   30  C10 UNL     1      -5.115  -0.956  -0.203  1.00  0.00     0.149 C 
BRANCH  29  31
HETATM   31  N3  UNL     1      -7.382  -0.978  -0.989  1.00  0.00    -0.353 N 
HETATM   32  C7  UNL     1      -8.369  -0.180  -1.629  1.00  0.00     0.248 C 
HETATM   33  O1  UNL     1      -8.476   1.021  -1.259  1.00  0.00    -0.271 OA
ATOM     34  H3  UNL     1      -7.281  -1.953  -1.270  1.00  0.00     0.163 HD
BRANCH  32  35
HETATM   35  C8  UNL     1      -9.206  -0.801  -2.684  1.00  0.00     0.270 C 
HETATM   36  C9  UNL     1      -8.251  -1.156  -3.833  1.00  0.00     0.050 C 
BRANCH  35  37
HETATM   37  N4  UNL     1     -10.097   0.249  -3.162  1.00  0.00    -0.067 N 
ATOM     38  H43 UNL     1     -10.640   0.691  -2.420  1.00  0.00     0.275 HD
ATOM     39  H42 UNL     1      -9.607   1.088  -3.473  1.00  0.00     0.275 HD
ATOM     40  H41 UNL     1     -10.673  -0.178  -3.888  1.00  0.00     0.275 HD
ENDBRANCH  35  37
ENDBRANCH  32  35
ENDBRANCH  29  31
ENDBRANCH   5  26
TORSDOF 14
