REMARK  1 active torsions:
REMARK  status: ('A' for Active; 'I' for Inactive)
REMARK    1  A    between atoms: N1_1  and  C1_5 
ROOT
HETATM    1  C1  UNL     1       1.588   0.403   0.101  1.00  0.00     0.185 C 
HETATM    2  C2  UNL     1       0.649  -0.275   1.117  1.00  0.00     0.042 C 
HETATM    3  C3  UNL     1      -0.389  -0.141   0.057  1.00  0.00    -0.037 C 
HETATM    4  C4  UNL     1      -1.549  -1.019   0.041  1.00  0.00     0.010 C 
HETATM    5  C5  UNL     1      -2.331   0.117   0.720  1.00  0.00     0.002 C 
HETATM    6  C6  UNL     1      -1.279   1.057   0.113  1.00  0.00     0.010 C 
HETATM    7  C7  UNL     1       0.665  -0.218  -0.958  1.00  0.00     0.042 C 
ENDROOT
BRANCH   1   8
HETATM    8  N1  UNL     1       2.916  -0.073   0.124  1.00  0.00    -0.075 N 
ATOM      9  H13 UNL     1       3.302  -0.004   1.066  1.00  0.00     0.274 HD
ATOM     10  H12 UNL     1       2.933  -1.086   0.002  1.00  0.00     0.274 HD
ATOM     11  H11 UNL     1       3.538   0.376  -0.549  1.00  0.00     0.274 HD
ENDBRANCH   1   8
TORSDOF 1
