REMARK  3 active torsions:
REMARK  status: ('A' for Active; 'I' for Inactive)
REMARK    1  A    between atoms: C2_2  and  C3_3 
REMARK    2  A    between atoms: C3_3  and  C4_4 
REMARK    3  A    between atoms: C6_6  and  C7_7 
ROOT
HETATM    1  C3  UNL     1       1.055  -0.187  -0.021  1.00  0.00    -0.041 C 
HETATM    2  C6  UNL     1      -0.161  -0.693  -0.242  1.00  0.00    -0.006 C 
ENDROOT
BRANCH   1   3
HETATM    3  C2  UNL     1       2.172  -1.071  -0.310  1.00  0.00     0.001 C 
HETATM    4  C1  UNL     1       3.444  -0.947  -0.227  1.00  0.00     0.012 C 
ENDBRANCH   1   3
BRANCH   1   5
HETATM    5  C4  UNL     1       1.218   1.135   0.461  1.00  0.00     0.001 C 
HETATM    6  C5  UNL     1       2.245   1.875   0.761  1.00  0.00     0.012 C 
ENDBRANCH   1   5
BRANCH   2   7
HETATM    7  C7  UNL     1      -1.511  -0.265  -0.125  1.00  0.00    -0.025 A 
HETATM    8  C8  UNL     1      -2.532  -1.439  -0.450  1.00  0.00     0.019 C 
HETATM    9  C9  UNL     1      -2.002   1.040  -0.550  1.00  0.00     0.014 A 
HETATM   10  C10 UNL     1      -2.108   0.626   0.896  1.00  0.00     0.014 A 
ENDBRANCH   2   7
TORSDOF 3
