REMARK  0 active torsions:
REMARK  status: ('A' for Active; 'I' for Inactive)
ROOT
HETATM    1  C1  UNL     1      -0.020   1.596   0.352  1.00  0.00     0.005 C 
HETATM    2  C2  UNL     1      -1.167   1.016  -0.427  1.00  0.00     0.005 C 
HETATM    3  C3  UNL     1      -1.081  -0.484  -0.448  1.00  0.00    -0.014 C 
HETATM    4  C4  UNL     1      -0.711  -1.076   0.888  1.00  0.00     0.005 C 
HETATM    5  C5  UNL     1       0.532  -0.469   1.479  1.00  0.00     0.005 C 
HETATM    6  C6  UNL     1       1.052   0.542   0.453  1.00  0.00    -0.014 C 
HETATM    7  C7  UNL     1       1.296  -0.167  -0.860  1.00  0.00     0.005 C 
HETATM    8  C8  UNL     1       0.066  -0.833  -1.405  1.00  0.00     0.005 C 
ENDROOT
TORSDOF 0
