REMARK  7 active torsions:
REMARK  status: ('A' for Active; 'I' for Inactive)
REMARK    1  A    between atoms: O1_2  and  C2_3 
REMARK    2  A    between atoms: C7_8  and  N1_9 
REMARK    3  A    between atoms: N1_9  and  C8_10 
REMARK    4  A    between atoms: C9_13  and  N3_14 
REMARK    5  A    between atoms: N3_14  and  C10_16 
REMARK    6  A    between atoms: C13_19  and  S1_20 
REMARK    7  A    between atoms: S1_20  and  N4_23 
ROOT
HETATM    1  C8  UNL     1      -2.771  -0.832   0.539  1.00  0.00     0.224 A 
HETATM    2  N2  UNL     1      -1.755   0.012   0.142  1.00  0.00    -0.162 N 
ATOM      3  H2  UNL     1      -2.007   0.939  -0.202  1.00  0.00     0.187 HD
HETATM    4  C9  UNL     1      -0.466  -0.313   0.182  1.00  0.00     0.686 A 
HETATM    5  N5  UNL     1      -0.150  -1.529   0.633  1.00  0.00    -0.174 N 
ATOM      6  H5  UNL     1       0.834  -1.794   0.669  1.00  0.00     0.186 HD
HETATM    7  C18 UNL     1      -1.070  -2.419   1.041  1.00  0.00     0.153 A 
HETATM    8  N6  UNL     1      -1.002  -3.688   1.529  1.00  0.00    -0.336 N 
ATOM      9  H6  UNL     1      -0.142  -4.216   1.676  1.00  0.00     0.168 HD
HETATM   10  C19 UNL     1      -2.242  -4.139   1.788  1.00  0.00     0.182 A 
HETATM   11  N7  UNL     1      -3.123  -3.159   1.467  1.00  0.00    -0.345 N 
ATOM     12  H7  UNL     1      -4.138  -3.204   1.553  1.00  0.00     0.167 HD
HETATM   13  C20 UNL     1      -2.397  -2.106   1.009  1.00  0.00     0.137 A 
ENDROOT
BRANCH   4  14
HETATM   14  N3  UNL     1       0.396   0.558  -0.215  1.00  0.00    -0.192 N 
ATOM     15  H3  UNL     1       0.028   1.453  -0.538  1.00  0.00     0.184 HD
BRANCH  14  16
HETATM   16  C10 UNL     1       1.784   0.402  -0.248  1.00  0.00     0.049 A 
HETATM   17  C11 UNL     1       2.445   0.339  -1.467  1.00  0.00     0.031 A 
HETATM   18  C12 UNL     1       3.824   0.186  -1.465  1.00  0.00     0.027 A 
HETATM   19  C13 UNL     1       4.560   0.093  -0.298  1.00  0.00     0.074 A 
HETATM   20  C16 UNL     1       3.888   0.157   0.921  1.00  0.00     0.027 A 
HETATM   21  C17 UNL     1       2.503   0.312   0.925  1.00  0.00     0.031 A 
BRANCH  19  22
HETATM   22  S1  UNL     1       6.280  -0.097  -0.348  1.00  0.00     0.242 S 
HETATM   23  O2  UNL     1       6.718  -0.874   0.877  1.00  0.00    -0.206 OA
HETATM   24  O3  UNL     1       6.702  -0.941  -1.539  1.00  0.00    -0.206 OA
BRANCH  22  25
HETATM   25  N4  UNL     1       7.114   1.397  -0.339  1.00  0.00    -0.215 NA
HETATM   26  C14 UNL     1       6.795   2.211  -1.487  1.00  0.00     0.129 C 
HETATM   27  C15 UNL     1       8.540   1.142  -0.301  1.00  0.00     0.129 C 
ENDBRANCH  22  25
ENDBRANCH  19  22
ENDBRANCH  14  16
ENDBRANCH   4  14
BRANCH   1  28
HETATM   28  N1  UNL     1      -3.919  -0.539   0.499  1.00  0.00    -0.382 NA
BRANCH  28  29
HETATM   29  C7  UNL     1      -5.198  -0.215   0.455  1.00  0.00     0.142 A 
HETATM   30  C2  UNL     1      -5.676   0.704  -0.503  1.00  0.00     0.108 A 
HETATM   31  C3  UNL     1      -7.001   1.015  -0.521  1.00  0.00     0.040 A 
HETATM   32  C4  UNL     1      -7.883   0.451   0.378  1.00  0.00     0.003 A 
HETATM   33  C5  UNL     1      -7.431  -0.443   1.313  1.00  0.00     0.003 A 
HETATM   34  C6  UNL     1      -6.111  -0.771   1.352  1.00  0.00     0.048 A 
BRANCH  30  35
HETATM   35  O1  UNL     1      -4.775   1.247  -1.381  1.00  0.00    -0.353 OA
HETATM   36  C1  UNL     1      -4.979   2.156  -2.401  1.00  0.00     0.210 C 
ENDBRANCH  30  35
ENDBRANCH  28  29
ENDBRANCH   1  28
TORSDOF 7
