REMARK  8 active torsions:
REMARK  status: ('A' for Active; 'I' for Inactive)
REMARK    1  A    between atoms: C2_2  and  N1_3 
REMARK    2  A    between atoms: C5_9  and  N3_10 
REMARK    3  A    between atoms: N3_10  and  C6_12 
REMARK    4  A    between atoms: C6_12  and  C7_13 
REMARK    5  A    between atoms: C7_13  and  C8_14 
REMARK    6  A    between atoms: C11_17  and  S2_18 
REMARK    7  A    between atoms: S2_18  and  N4_19 
REMARK    8  A    between atoms: C17_33  and  N7_34 
ROOT
HETATM    1  N1  UNL     1      -5.020   0.583  -0.856  1.00  0.00    -0.308 N 
HETATM    2  C3  UNL     1      -3.996   0.616  -1.756  1.00  0.00     0.180 A 
HETATM    3  S1  UNL     1      -4.397   0.558  -3.336  1.00  0.00    -0.040 SA
HETATM    4  N2  UNL     1      -2.713   0.691  -1.450  1.00  0.00    -0.328 N 
ATOM      5  H2  UNL     1      -2.011   0.711  -2.189  1.00  0.00     0.168 HD
HETATM    6  C4  UNL     1      -2.336   0.741  -0.159  1.00  0.00     0.109 A 
HETATM    7  C5  UNL     1      -0.978   0.818   0.184  1.00  0.00     0.131 A 
HETATM    8  N5  UNL     1      -0.648   0.863   1.479  1.00  0.00    -0.337 N 
ATOM      9  H5  UNL     1       0.330   0.919   1.763  1.00  0.00     0.168 HD
HETATM   10  C15 UNL     1      -1.634   0.833   2.408  1.00  0.00     0.182 A 
HETATM   11  N6  UNL     1      -2.929   0.760   2.077  1.00  0.00    -0.347 N 
ATOM     12  H6  UNL     1      -3.636   0.741   2.812  1.00  0.00     0.167 HD
HETATM   13  C16 UNL     1      -3.309   0.712   0.793  1.00  0.00     0.108 A 
HETATM   14  C17 UNL     1      -4.693   0.631   0.441  1.00  0.00     0.138 A 
ENDROOT
BRANCH   7  15
HETATM   15  N3  UNL     1      -0.160   0.839  -0.798  1.00  0.00    -0.374 N 
ATOM     16  H3  UNL     1      -0.532   0.800  -1.747  1.00  0.00     0.161 HD
BRANCH  15  17
HETATM   17  C6  UNL     1       1.264   0.916  -0.616  1.00  0.00     0.126 C 
BRANCH  17  18
HETATM   18  C7  UNL     1       1.936  -0.339  -1.133  1.00  0.00     0.058 C 
BRANCH  18  19
HETATM   19  C8  UNL     1       3.384  -0.372  -0.971  1.00  0.00    -0.051 A 
HETATM   20  C9  UNL     1       4.266  -0.086  -2.001  1.00  0.00     0.009 A 
HETATM   21  C10 UNL     1       5.623  -0.105  -1.845  1.00  0.00     0.026 A 
HETATM   22  C11 UNL     1       6.176  -0.420  -0.613  1.00  0.00     0.079 A 
HETATM   23  C12 UNL     1       5.326  -0.707   0.423  1.00  0.00     0.032 A 
HETATM   24  C13 UNL     1       3.937  -0.684   0.249  1.00  0.00    -0.054 A 
HETATM   25  C14 UNL     1       3.092  -1.017   1.414  1.00  0.00     0.049 C 
BRANCH  22  26
HETATM   26  S2  UNL     1       7.917  -0.438  -0.425  1.00  0.00     0.256 S 
HETATM   27  O1  UNL     1       8.501   0.615  -1.286  1.00  0.00    -0.201 OA
HETATM   28  O2  UNL     1       8.229  -0.268   1.038  1.00  0.00    -0.201 OA
BRANCH  26  29
HETATM   29  N4  UNL     1       8.480  -1.998  -0.881  1.00  0.00    -0.324 N 
ATOM     30  H42 UNL     1       7.891  -2.767  -1.202  1.00  0.00     0.169 HD
ATOM     31  H41 UNL     1       9.494  -2.008  -0.771  1.00  0.00     0.169 HD
ENDBRANCH  26  29
ENDBRANCH  22  26
ENDBRANCH  18  19
ENDBRANCH  17  18
ENDBRANCH  15  17
ENDBRANCH   7  15
BRANCH  14  32
HETATM   32  N7  UNL     1      -5.464   0.626   1.404  1.00  0.00    -0.360 N 
HETATM   33  C18 UNL     1      -6.758   0.585   1.826  1.00  0.00     0.120 C 
ATOM     34  H7  UNL     1      -4.885   0.672   2.242  1.00  0.00     0.165 HD
ENDBRANCH  14  32
BRANCH   1  35
HETATM   35  C2  UNL     1      -6.358   0.497  -1.343  1.00  0.00     0.128 C 
HETATM   36  C1  UNL     1      -6.838  -0.922  -1.538  1.00  0.00     0.027 C 
ENDBRANCH   1  35
TORSDOF 8
