REMARK  9 active torsions:
REMARK  status: ('A' for Active; 'I' for Inactive)
REMARK    1  A    between atoms: C2_5  and  C3_6 
REMARK    2  A    between atoms: C3_6  and  C4_7 
REMARK    3  A    between atoms: C11_17  and  C12_18 
REMARK    4  A    between atoms: C12_18  and  C13_19 
REMARK    5  A    between atoms: N3_21  and  C15_22 
REMARK    6  A    between atoms: C15_22  and  C16_23 
REMARK    7  A    between atoms: C16_23  and  O2_24 
REMARK    8  A    between atoms: C17_26  and  C18_27 
REMARK    9  A    between atoms: C19_28  and  C20_29 
ROOT
HETATM    1  C13 UNL     1      -1.044  -0.518  -1.111  1.00  0.00     0.051 A 
HETATM    2  C14 UNL     1      -1.527  -1.616  -0.460  1.00  0.00     0.122 A 
HETATM    3  N3  UNL     1      -2.818  -1.314  -0.093  1.00  0.00    -0.339 N 
HETATM    4  C17 UNL     1      -3.136  -0.090  -0.489  1.00  0.00     0.107 A 
HETATM    5  N5  UNL     1      -2.005   0.390  -1.126  1.00  0.00    -0.341 N 
ATOM      6  H5  UNL     1      -1.924   1.315  -1.548  1.00  0.00     0.167 HD
ENDROOT
BRANCH   1   7
HETATM    7  C12 UNL     1       0.321  -0.403  -1.683  1.00  0.00     0.066 C 
BRANCH   7   8
HETATM    8  C11 UNL     1       1.362  -0.204  -0.883  1.00  0.00     0.104 A 
HETATM    9  C1  UNL     1       2.637  -0.094  -1.392  1.00  0.00     0.272 A 
HETATM   10  O1  UNL     1       2.818  -0.184  -2.634  1.00  0.00    -0.266 OA
HETATM   11  N1  UNL     1       3.730   0.108  -0.635  1.00  0.00    -0.319 N 
HETATM   12  C2  UNL     1       3.564   0.209   0.712  1.00  0.00     0.074 A 
ATOM     13  H1  UNL     1       4.655   0.183  -1.058  1.00  0.00     0.169 HD
HETATM   14  C10 UNL     1       2.290   0.099   1.221  1.00  0.00     0.128 A 
HETATM   15  S1  UNL     1       2.091   0.222   2.851  1.00  0.00    -0.058 SA
HETATM   16  N2  UNL     1       1.209  -0.103   0.447  1.00  0.00    -0.341 N 
ATOM     17  H2  UNL     1       0.282  -0.179   0.866  1.00  0.00     0.167 HD
BRANCH  12  18
HETATM   18  C3  UNL     1       4.584   0.407   1.523  1.00  0.00     0.044 C 
BRANCH  18  19
HETATM   19  C4  UNL     1       5.959   0.530   1.022  1.00  0.00    -0.034 A 
HETATM   20  C5  UNL     1       6.565   1.749   0.809  1.00  0.00     0.011 A 
HETATM   21  C6  UNL     1       7.869   1.825   0.334  1.00  0.00     0.001 A 
HETATM   22  C7  UNL     1       8.537   0.645   0.081  1.00  0.00     0.000 A 
HETATM   23  C8  UNL     1       7.938  -0.589   0.292  1.00  0.00     0.001 A 
HETATM   24  C9  UNL     1       6.644  -0.638   0.764  1.00  0.00     0.011 A 
ENDBRANCH  18  19
ENDBRANCH  12  18
ENDBRANCH   7   8
ENDBRANCH   1   7
BRANCH   3  25
HETATM   25  C15 UNL     1      -3.630  -2.280   0.597  1.00  0.00     0.156 C 
BRANCH  25  26
HETATM   26  C16 UNL     1      -4.314  -3.243  -0.346  1.00  0.00     0.184 C 
BRANCH  26  27
HETATM   27  O2  UNL     1      -5.144  -2.642  -1.262  1.00  0.00    -0.399 OA
ATOM     28  H2  UNL     1      -5.574  -3.247  -1.855  1.00  0.00     0.209 HD
ENDBRANCH  26  27
ENDBRANCH  25  26
ENDBRANCH   3  25
BRANCH   4  29
HETATM   29  C18 UNL     1      -4.299   0.761  -0.387  1.00  0.00     0.051 C 
HETATM   30  C19 UNL     1      -5.461   0.555   0.152  1.00  0.00     0.043 C 
BRANCH  30  31
HETATM   31  C20 UNL     1      -6.494   1.585   0.131  1.00  0.00     0.100 A 
HETATM   32  C21 UNL     1      -6.439   2.857  -0.414  1.00  0.00     0.058 A 
HETATM   33  C22 UNL     1      -7.658   3.473  -0.191  1.00  0.00     0.117 A 
HETATM   34  N4  UNL     1      -8.377   2.551   0.470  1.00  0.00    -0.272 N 
HETATM   35  O3  UNL     1      -7.683   1.467   0.645  1.00  0.00    -0.238 OA
ATOM     36  H4  UNL     1      -9.336   2.684   0.791  1.00  0.00     0.194 HD
ENDBRANCH  30  31
ENDBRANCH   4  29
TORSDOF 9
