REMARK  12 active torsions:
REMARK  status: ('A' for Active; 'I' for Inactive)
REMARK    1  A    between atoms: N1_2  and  O1_3 
REMARK    2  A    between atoms: N1_2  and  C2_5 
REMARK    3  A    between atoms: C2_5  and  O2_6 
REMARK    4  A    between atoms: C2_5  and  C3_8 
REMARK    5  A    between atoms: C2_5  and  C14_43 
REMARK    6  A    between atoms: C4_11  and  C5_12 
REMARK       I    between atoms: C5_12  and  N3_14 
REMARK    7  A    between atoms: N3_14  and  C6_16 
REMARK    8  A    between atoms: N5_21  and  N6_22 
REMARK    9  A    between atoms: N6_22  and  N7_24 
REMARK   10  A    between atoms: C10_30  and  N9_31 
REMARK   11  A    between atoms: C11_36  and  N11_37 
REMARK   12  A    between atoms: C14_43  and  O4_46 
ROOT
HETATM    1  C3  UNL     1      -1.370   0.171  -0.145  1.00  0.00     0.102 A 
HETATM    2  N2  UNL     1      -0.074  -0.341  -0.378  1.00  0.00    -0.335 N 
ATOM      3  H2  UNL     1      -0.040  -1.261  -0.816  1.00  0.00     0.167 HD
HETATM    4  C4  UNL     1       1.076   0.190  -0.115  1.00  0.00     0.176 A 
HETATM    5  N8  UNL     1       1.105   1.369   0.446  1.00  0.00    -0.333 N 
ATOM      6  H8  UNL     1       2.004   1.799   0.664  1.00  0.00     0.168 HD
HETATM    7  C9  UNL     1      -0.025   2.021   0.739  1.00  0.00     0.108 A 
HETATM    8  C10 UNL     1       0.032   3.315   1.265  1.00  0.00     0.144 A 
HETATM    9  N10 UNL     1      -1.093   4.020   1.481  1.00  0.00    -0.175 N 
ATOM     10  H10 UNL     1      -1.069   4.964   1.867  1.00  0.00     0.186 HD
HETATM   11  C11 UNL     1      -2.250   3.417   1.162  1.00  0.00     0.679 A 
HETATM   12  N12 UNL     1      -2.307   2.143   0.646  1.00  0.00    -0.183 N 
HETATM   13  C12 UNL     1      -3.529   1.660   0.122  1.00  0.00     0.175 C 
HETATM   14  C13 UNL     1      -1.221   1.399   0.427  1.00  0.00     0.109 A 
ENDROOT
BRANCH   4  15
HETATM   15  C5  UNL     1       2.328  -0.504  -0.442  1.00  0.00     0.291 C 
HETATM   16  O3  UNL     1       2.300  -1.626  -0.993  1.00  0.00    -0.264 OA
HETATM   17  N3  UNL     1       3.578   0.074  -0.145  1.00  0.00    -0.303 N 
ATOM     18  H3  UNL     1       3.594   0.988   0.308  1.00  0.00     0.171 HD
BRANCH  17  19
HETATM   19  C6  UNL     1       4.797  -0.542  -0.440  1.00  0.00     0.151 A 
HETATM   20  C7  UNL     1       5.089  -1.745  -1.030  1.00  0.00     0.071 A 
HETATM   21  C8  UNL     1       6.479  -1.913  -1.114  1.00  0.00     0.113 A 
HETATM   22  N4  UNL     1       6.965  -0.798  -0.567  1.00  0.00    -0.288 N 
HETATM   23  N5  UNL     1       6.021   0.003  -0.174  1.00  0.00    -0.166 N 
ATOM     24  H4  UNL     1       7.960  -0.598  -0.469  1.00  0.00     0.188 HD
BRANCH  23  25
HETATM   25  N6  UNL     1       6.237   1.241   0.438  1.00  0.00    -0.226 N 
ATOM     26  H6  UNL     1       5.426   1.790   0.722  1.00  0.00     0.210 HD
BRANCH  25  27
HETATM   27  N7  UNL     1       7.503   1.760   0.678  1.00  0.00    -0.329 N 
ATOM     28  H72 UNL     1       8.303   1.198   0.387  1.00  0.00     0.178 HD
ATOM     29  H71 UNL     1       7.661   2.663   1.125  1.00  0.00     0.178 HD
ENDBRANCH  25  27
ENDBRANCH  23  25
ENDBRANCH  17  19
ENDBRANCH   4  15
BRANCH   1  30
HETATM   30  C2  UNL     1      -2.488  -0.671  -0.194  1.00  0.00     0.232 C 
BRANCH  30  31
HETATM   31  N1  UNL     1      -1.872  -1.564  -1.179  1.00  0.00    -0.237 N 
HETATM   32  C1  UNL     1      -1.225  -2.684  -1.171  1.00  0.00     0.153 C 
BRANCH  31  33
HETATM   33  O1  UNL     1      -1.586  -0.846  -2.324  1.00  0.00    -0.285 OA
ATOM     34  H1  UNL     1      -2.061  -0.023  -2.330  1.00  0.00     0.245 HD
ENDBRANCH  31  33
ENDBRANCH  30  31
BRANCH  30  35
HETATM   35  O2  UNL     1      -2.026  -1.149   1.175  1.00  0.00    -0.361 OA
ATOM     36  H2  UNL     1      -2.425  -0.570   1.814  1.00  0.00     0.213 HD
ENDBRANCH  30  35
BRANCH  30  37
HETATM   37  C14 UNL     1      -3.494  -1.605   0.090  1.00  0.00     0.109 C 
HETATM   38  C15 UNL     1      -4.405  -1.927  -1.147  1.00  0.00     0.051 C 
HETATM   39  C16 UNL     1      -3.253  -3.046   0.532  1.00  0.00     0.051 C 
BRANCH  37  40
HETATM   40  O4  UNL     1      -4.497  -1.313   1.076  1.00  0.00    -0.385 OA
ATOM     41  H4  UNL     1      -5.179  -1.946   1.268  1.00  0.00     0.210 HD
ENDBRANCH  37  40
ENDBRANCH  30  37
ENDBRANCH   1  30
BRANCH   8  42
HETATM   42  N9  UNL     1       1.197   3.796   1.531  1.00  0.00    -0.383 N 
ATOM     43  H92 UNL     1       2.050   3.261   1.367  1.00  0.00     0.157 HD
ATOM     44  H91 UNL     1       1.239   4.740   1.915  1.00  0.00     0.157 HD
ENDBRANCH   8  42
BRANCH  11  45
HETATM   45  N11 UNL     1      -3.370   4.042   1.340  1.00  0.00    -0.234 N 
ATOM     46 2H11 UNL     1      -3.328   4.987   1.723  1.00  0.00     0.174 HD
ATOM     47 1H11 UNL     1      -4.249   3.584   1.098  1.00  0.00     0.174 HD
ENDBRANCH  11  45
TORSDOF 12
