REMARK  13 active torsions:
REMARK  status: ('A' for Active; 'I' for Inactive)
REMARK    1  A    between atoms: C2_2  and  C3_3 
REMARK    2  A    between atoms: C3_3  and  C4_5 
REMARK    3  A    between atoms: C6_7  and  C7_8 
REMARK    4  A    between atoms: C7_8  and  C8_9 
REMARK    5  A    between atoms: C8_9  and  C9_10 
REMARK    6  A    between atoms: C9_10  and  C10_11 
REMARK    7  A    between atoms: C10_11  and  C11_12 
REMARK    8  A    between atoms: C11_12  and  N1_13 
REMARK    9  A    between atoms: C14_19  and  C15_20 
REMARK   10  A    between atoms: C15_20  and  C16_21 
REMARK   11  A    between atoms: C23_33  and  C24_34 
REMARK   12  A    between atoms: C24_34  and  C25_35 
REMARK   13  A    between atoms: C29_42  and  C30_43 
ROOT
HETATM    1  N1  UNL     1       0.393  -0.586   0.163  1.00  0.00    -0.341 N 
HETATM    2  C12 UNL     1       0.318   0.113   1.405  1.00  0.00     0.228 C 
HETATM    3  C13 UNL     1       0.188   1.580   1.322  1.00  0.00     0.236 C 
HETATM    4  O2  UNL     1       1.284   2.221   1.575  1.00  0.00    -0.272 OA
HETATM    5  N2  UNL     1      -0.936   2.354   1.015  1.00  0.00    -0.346 N 
ATOM      6  H2  UNL     1      -1.240   2.993   1.750  1.00  0.00     0.163 HD
HETATM    7  C14 UNL     1      -1.726   2.379  -0.189  1.00  0.00     0.177 C 
HETATM    8  C19 UNL     1      -3.176   2.320  -0.038  1.00  0.00     0.242 C 
HETATM    9  O3  UNL     1      -3.839   2.805  -1.040  1.00  0.00    -0.271 OA
HETATM   10  N3  UNL     1      -3.944   1.821   1.017  1.00  0.00    -0.346 N 
HETATM   11  C20 UNL     1      -4.910   2.693   1.651  1.00  0.00     0.153 C 
HETATM   12  C21 UNL     1      -3.874   0.443   1.544  1.00  0.00     0.228 C 
HETATM   13  C22 UNL     1      -4.809  -0.426   0.772  1.00  0.00     0.236 C 
HETATM   14  O4  UNL     1      -6.035  -0.068   0.876  1.00  0.00    -0.272 OA
HETATM   15  N4  UNL     1      -4.456  -1.542  -0.016  1.00  0.00    -0.346 N 
ATOM     16  H4  UNL     1      -4.688  -1.477  -1.007  1.00  0.00     0.163 HD
HETATM   17  C23 UNL     1      -3.816  -2.752   0.395  1.00  0.00     0.177 C 
HETATM   18  C28 UNL     1      -3.006  -2.602   1.627  1.00  0.00     0.241 C 
HETATM   19  O5  UNL     1      -3.735  -2.428   2.680  1.00  0.00    -0.271 OA
HETATM   20  N5  UNL     1      -1.632  -2.621   1.803  1.00  0.00    -0.337 N 
ATOM     21  H5  UNL     1      -1.336  -2.422   2.759  1.00  0.00     0.163 HD
HETATM   22  C29 UNL     1      -0.557  -2.864   0.908  1.00  0.00     0.278 C 
HETATM   23  C31 UNL     1      -0.316  -1.811  -0.118  1.00  0.00     0.253 C 
HETATM   24  O8  UNL     1      -0.723  -1.935  -1.304  1.00  0.00    -0.270 OA
ENDROOT
BRANCH   1  25
HETATM   25  C11 UNL     1       1.271   0.006  -0.867  1.00  0.00     0.126 C 
BRANCH  25  26
HETATM   26  C10 UNL     1       2.674  -0.577  -0.670  1.00  0.00     0.020 C 
BRANCH  26  27
HETATM   27  C9  UNL     1       3.626  -0.004  -1.700  1.00  0.00     0.002 C 
BRANCH  27  28
HETATM   28  C8  UNL     1       5.013  -0.533  -1.559  1.00  0.00     0.004 C 
BRANCH  28  29
HETATM   29  C7  UNL     1       5.615  -0.215  -0.199  1.00  0.00     0.028 C 
BRANCH  29  30
HETATM   30  C6  UNL     1       6.982  -0.752  -0.107  1.00  0.00    -0.016 C 
HETATM   31  C4  UNL     1       8.113  -0.115   0.068  1.00  0.00    -0.016 C 
HETATM   32  C5  UNL     1       9.398  -0.918   0.128  1.00  0.00     0.052 C 
BRANCH  31  33
HETATM   33  C3  UNL     1       8.289   1.316   0.216  1.00  0.00     0.176 C 
HETATM   34  O1  UNL     1       7.358   2.141   0.191  1.00  0.00    -0.288 OA
BRANCH  33  35
HETATM   35  C2  UNL     1       9.655   1.856   0.411  1.00  0.00     0.045 C 
HETATM   36  C1  UNL     1       9.845   3.152   0.547  1.00  0.00     0.015 C 
ENDBRANCH  33  35
ENDBRANCH  31  33
ENDBRANCH  29  30
ENDBRANCH  28  29
ENDBRANCH  27  28
ENDBRANCH  26  27
ENDBRANCH  25  26
ENDBRANCH   1  25
BRANCH  22  37
HETATM   37  C30 UNL     1      -0.535  -4.209   0.290  1.00  0.00     0.206 C 
HETATM   38  O6  UNL     1      -1.383  -5.055   0.594  1.00  0.00    -0.646 OA
HETATM   39  O7  UNL     1       0.446  -4.503  -0.629  1.00  0.00    -0.646 OA
ENDBRANCH  22  37
BRANCH   7  40
HETATM   40  C15 UNL     1      -1.260   3.441  -1.143  1.00  0.00     0.038 C 
BRANCH  40  41
HETATM   41  C16 UNL     1      -1.241   4.832  -0.666  1.00  0.00    -0.020 C 
HETATM   42  C17 UNL     1      -0.724   5.681  -1.850  1.00  0.00     0.009 C 
HETATM   43  C18 UNL     1      -2.513   5.473  -0.263  1.00  0.00     0.009 C 
ENDBRANCH  40  41
ENDBRANCH   7  40
BRANCH  17  44
HETATM   44  C24 UNL     1      -4.782  -3.874   0.632  1.00  0.00     0.038 C 
BRANCH  44  45
HETATM   45  C25 UNL     1      -5.612  -4.372  -0.472  1.00  0.00    -0.020 C 
HETATM   46  C26 UNL     1      -6.538  -3.355  -1.052  1.00  0.00     0.009 C 
HETATM   47  C27 UNL     1      -6.523  -5.467   0.134  1.00  0.00     0.009 C 
ENDBRANCH  44  45
ENDBRANCH  17  44
TORSDOF 13
