REMARK  3 active torsions:
REMARK  status: ('A' for Active; 'I' for Inactive)
REMARK    1  A    between atoms: N1_2  and  C2_4 
REMARK    2  A    between atoms: N2_5  and  C3_7 
REMARK    3  A    between atoms: C3_7  and  N3_9 
ROOT
HETATM    1  C2  UNL     1       1.180   0.580   0.129  1.00  0.00     0.176 C 
HETATM    2  N2  UNL     1       0.093   0.396  -0.526  1.00  0.00    -0.359 N 
ATOM      3  H2  UNL     1       0.087   0.462  -1.544  1.00  0.00     0.162 HD
ENDROOT
BRANCH   2   4
HETATM    4  C3  UNL     1      -1.122   0.095   0.194  1.00  0.00     0.278 C 
HETATM    5  C4  UNL     1      -2.344   0.307  -0.656  1.00  0.00     0.063 C 
BRANCH   4   6
HETATM    6  N3  UNL     1      -1.061  -1.296   0.607  1.00  0.00    -0.059 N 
ATOM      7  H33 UNL     1      -0.895  -1.933  -0.172  1.00  0.00     0.276 HD
ATOM      8  H32 UNL     1      -0.220  -1.513   1.142  1.00  0.00     0.276 HD
ATOM      9  H31 UNL     1      -1.919  -1.509   1.116  1.00  0.00     0.276 HD
ENDBRANCH   4   6
ENDBRANCH   2   4
BRANCH   1  10
HETATM   10  N1  UNL     1       2.406   0.882  -0.559  1.00  0.00    -0.372 N 
HETATM   11  C1  UNL     1       3.339   0.007  -0.588  1.00  0.00     0.118 C 
ATOM     12  H1  UNL     1       2.530   1.784  -1.019  1.00  0.00     0.165 HD
ENDBRANCH   1  10
TORSDOF 3
