REMARK  21 active torsions:
REMARK  status: ('A' for Active; 'I' for Inactive)
REMARK    1  A    between atoms: C2_2  and  C3_3 
REMARK    2  A    between atoms: C3_3  and  C5_5 
REMARK    3  A    between atoms: C6_8  and  O1_9 
REMARK    4  A    between atoms: C7_11  and  N2_12 
REMARK       I    between atoms: N2_12  and  C9_14 
REMARK    5  A    between atoms: C9_14  and  C10_16 
REMARK    6  A    between atoms: C10_16  and  C11_17 
REMARK    7  A    between atoms: C11_17  and  C12_18 
REMARK    8  A    between atoms: C12_18  and  C13_19 
REMARK    9  A    between atoms: C13_19  and  N3_20 
REMARK   10  A    between atoms: N3_20  and  C14_22 
REMARK   11  A    between atoms: C14_22  and  C15_23 
REMARK   12  A    between atoms: C15_23  and  C16_24 
REMARK   13  A    between atoms: C16_24  and  C17_25 
REMARK   14  A    between atoms: N6_32  and  C20_34 
REMARK   15  A    between atoms: C21_38  and  O4_39 
REMARK   16  A    between atoms: C22_41  and  C23_42 
REMARK   17  A    between atoms: C23_42  and  C24_43 
REMARK   18  A    between atoms: C24_43  and  C25_44 
REMARK   19  A    between atoms: C25_44  and  C26_45 
REMARK   20  A    between atoms: C26_45  and  N8_46 
REMARK   21  A    between atoms: C28_52  and  O5_53 
ROOT
HETATM    1  C5  UNL     1      -3.856  -3.145   1.119  1.00  0.00     0.162 C 
HETATM    2  N1  UNL     1      -2.429  -2.858   1.107  1.00  0.00    -0.355 N 
ATOM      3  H1  UNL     1      -1.908  -3.488   0.497  1.00  0.00     0.162 HD
HETATM    4  C6  UNL     1      -1.613  -1.928   1.731  1.00  0.00     0.182 C 
HETATM    5  C7  UNL     1      -1.344  -0.513   1.556  1.00  0.00     0.163 C 
HETATM    6  N7  UNL     1      -2.324   0.479   1.835  1.00  0.00    -0.318 N 
ATOM      7  H7  UNL     1      -1.946   1.415   1.689  1.00  0.00     0.169 HD
HETATM    8  C21 UNL     1      -3.640   0.538   2.247  1.00  0.00     0.165 C 
HETATM    9  C22 UNL     1      -4.907   0.091   1.629  1.00  0.00     0.064 C 
HETATM   10  N9  UNL     1      -5.363  -1.217   2.072  1.00  0.00    -0.334 N 
HETATM   11  C27 UNL     1      -6.763  -1.244   2.605  1.00  0.00     0.158 C 
HETATM   12  C28 UNL     1      -4.652  -2.432   2.075  1.00  0.00     0.141 C 
ENDROOT
BRANCH   5  13
HETATM   13  N2  UNL     1      -0.624  -0.212   0.300  1.00  0.00    -0.305 N 
HETATM   14  C8  UNL     1      -1.228  -0.350  -1.004  1.00  0.00     0.161 C 
HETATM   15  C9  UNL     1       0.723   0.235   0.349  1.00  0.00     0.225 C 
HETATM   16  O2  UNL     1       1.292   0.370   1.461  1.00  0.00    -0.273 OA
BRANCH  15  17
HETATM   17  C10 UNL     1       1.497   0.554  -0.866  1.00  0.00     0.103 C 
BRANCH  17  18
HETATM   18  C11 UNL     1       2.911   0.917  -0.478  1.00  0.00     0.011 C 
BRANCH  18  19
HETATM   19  C12 UNL     1       3.760   1.253  -1.670  1.00  0.00     0.020 C 
BRANCH  19  20
HETATM   20  C13 UNL     1       5.155   1.599  -1.204  1.00  0.00     0.121 C 
BRANCH  20  21
HETATM   21  N3  UNL     1       5.714   0.468  -0.518  1.00  0.00    -0.380 N 
ATOM     22  H3  UNL     1       5.172  -0.389  -0.409  1.00  0.00     0.160 HD
BRANCH  21  23
HETATM   23  C14 UNL     1       7.056   0.560   0.017  1.00  0.00     0.079 C 
HETATM   24  N6  UNL     1       7.739  -0.505   0.167  1.00  0.00    -0.324 N 
ATOM     25  H6  UNL     1       8.685  -0.451   0.544  1.00  0.00     0.169 HD
BRANCH  23  26
HETATM   26  C15 UNL     1       7.527   1.896   0.366  1.00  0.00     0.082 C 
BRANCH  26  27
HETATM   27  C16 UNL     1       8.950   2.021   0.790  1.00  0.00     0.066 C 
BRANCH  27  28
HETATM   28  C17 UNL     1       9.963   1.640  -0.192  1.00  0.00     0.025 A 
HETATM   29  C18 UNL     1      10.508   2.516  -1.142  1.00  0.00     0.114 A 
HETATM   30  N4  UNL     1      11.410   1.848  -1.860  1.00  0.00    -0.360 N 
HETATM   31  C19 UNL     1      11.450   0.592  -1.397  1.00  0.00     0.180 A 
ATOM     32  H4  UNL     1      11.969   2.225  -2.625  1.00  0.00     0.166 HD
HETATM   33  N5  UNL     1      10.573   0.474  -0.389  1.00  0.00    -0.355 N 
ATOM     34  H5  UNL     1      10.400  -0.378   0.144  1.00  0.00     0.166 HD
ENDBRANCH  27  28
ENDBRANCH  26  27
ENDBRANCH  23  26
BRANCH  24  35
HETATM   35  C20 UNL     1       7.194  -1.764  -0.186  1.00  0.00     0.354 C 
HETATM   36  O3  UNL     1       7.712  -2.381  -1.148  1.00  0.00    -0.283 OA
ENDBRANCH  24  35
ENDBRANCH  21  23
ENDBRANCH  20  21
ENDBRANCH  19  20
ENDBRANCH  18  19
ENDBRANCH  17  18
ENDBRANCH  15  17
ENDBRANCH   5  13
BRANCH   4  37
HETATM   37  O1  UNL     1      -0.926  -2.484   2.708  1.00  0.00    -0.344 OA
ATOM     38  H1  UNL     1      -0.367  -1.846   3.136  1.00  0.00     0.219 HD
ENDBRANCH   4  37
BRANCH   8  39
HETATM   39  O4  UNL     1      -3.796   1.104   3.427  1.00  0.00    -0.345 OA
ATOM     40  H4  UNL     1      -4.702   1.145   3.711  1.00  0.00     0.219 HD
ENDBRANCH   8  39
BRANCH   1  41
HETATM   41  C3  UNL     1      -4.298  -3.246  -0.307  1.00  0.00     0.012 C 
HETATM   42  C4  UNL     1      -3.520  -4.340  -1.043  1.00  0.00     0.012 C 
BRANCH  41  43
HETATM   43  C2  UNL     1      -5.748  -3.546  -0.531  1.00  0.00     0.002 C 
HETATM   44  C1  UNL     1      -6.075  -3.536  -2.028  1.00  0.00     0.005 C 
ENDBRANCH  41  43
ENDBRANCH   1  41
BRANCH   9  45
HETATM   45  C23 UNL     1      -5.170   0.398   0.215  1.00  0.00     0.062 C 
BRANCH  45  46
HETATM   46  C24 UNL     1      -5.286   1.824  -0.211  1.00  0.00     0.008 C 
BRANCH  46  47
HETATM   47  C25 UNL     1      -4.128   2.716   0.007  1.00  0.00     0.027 C 
BRANCH  47  48
HETATM   48  C26 UNL     1      -4.523   4.090  -0.551  1.00  0.00     0.229 C 
BRANCH  48  49
HETATM   49  N8  UNL     1      -5.686   4.622   0.119  1.00  0.00    -0.079 N 
ATOM     50  H83 UNL     1      -6.468   3.967   0.085  1.00  0.00     0.274 HD
ATOM     51  H82 UNL     1      -5.551   4.655   1.129  1.00  0.00     0.274 HD
ATOM     52  H81 UNL     1      -5.949   5.535  -0.252  1.00  0.00     0.274 HD
ENDBRANCH  48  49
ENDBRANCH  47  48
ENDBRANCH  46  47
ENDBRANCH  45  46
ENDBRANCH   9  45
BRANCH  12  53
HETATM   53  O5  UNL     1      -4.764  -3.023   3.242  1.00  0.00    -0.348 OA
ATOM     54  H5  UNL     1      -5.291  -2.551   3.875  1.00  0.00     0.219 HD
ENDBRANCH  12  53
TORSDOF 21
