REMARK  18 active torsions:
REMARK  status: ('A' for Active; 'I' for Inactive)
REMARK    1  A    between atoms: N2_7  and  C4_8 
REMARK    2  A    between atoms: C4_8  and  C5_9 
REMARK    3  A    between atoms: C5_9  and  C6_10 
REMARK    4  A    between atoms: C6_10  and  N3_11 
REMARK       I    between atoms: N3_11  and  C7_13 
REMARK    5  A    between atoms: N5_15  and  C8_17 
REMARK    6  A    between atoms: C8_17  and  C9_18 
REMARK    7  A    between atoms: C9_18  and  C10_19 
REMARK    8  A    between atoms: C10_19  and  C11_20 
REMARK    9  A    between atoms: C11_20  and  C12_21 
REMARK   10  A    between atoms: N7_25  and  C14_27 
REMARK   11  A    between atoms: C14_27  and  C15_28 
REMARK   12  A    between atoms: C15_28  and  C16_29 
REMARK   13  A    between atoms: C16_29  and  C17_30 
REMARK   14  A    between atoms: C17_30  and  N8_31 
REMARK       I    between atoms: N8_31  and  C18_33 
REMARK       I    between atoms: C18_33  and  N11_38 
REMARK   15  A    between atoms: N11_38  and  C20_40 
REMARK   16  A    between atoms: C20_40  and  C21_41 
REMARK   17  A    between atoms: C21_41  and  N12_42 
REMARK   18  A    between atoms: N12_42  and  C22_44 
ROOT
HETATM    1  N8  UNL     1       4.869  -1.004  -0.511  1.00  0.00    -0.226 N 
ATOM      2  H8  UNL     1       5.219  -1.033  -1.469  1.00  0.00     0.177 HD
HETATM    3  C18 UNL     1       5.211  -2.091   0.320  1.00  0.00     0.682 C 
HETATM    4  N9  UNL     1       4.675  -3.250   0.245  1.00  0.00    -0.126 N 
ATOM      5  H9  UNL     1       4.978  -3.985   0.884  1.00  0.00     0.197 HD
HETATM    6  C19 UNL     1       3.692  -3.524  -0.687  1.00  0.00     0.196 C 
HETATM    7  N10 UNL     1       2.847  -3.756  -1.465  1.00  0.00    -0.171 NA
HETATM    8  N11 UNL     1       6.226  -1.867   1.294  1.00  0.00    -0.224 N 
ATOM      9  H11 UNL     1       6.060  -1.308   2.131  1.00  0.00     0.177 HD
ENDROOT
BRANCH   1  10
HETATM   10  C17 UNL     1       4.083   0.133  -0.150  1.00  0.00     0.138 C 
BRANCH  10  11
HETATM   11  C16 UNL     1       2.641  -0.282   0.057  1.00  0.00     0.022 C 
BRANCH  11  12
HETATM   12  C15 UNL     1       1.789   0.941   0.435  1.00  0.00     0.021 C 
BRANCH  12  13
HETATM   13  C14 UNL     1       0.386   0.448   0.588  1.00  0.00     0.121 C 
BRANCH  13  14
HETATM   14  N7  UNL     1      -0.584   1.435   0.926  1.00  0.00    -0.379 N 
HETATM   15  C13 UNL     1      -1.215   2.163   0.044  1.00  0.00     0.088 A 
HETATM   16  N2  UNL     1      -2.142   3.088   0.594  1.00  0.00    -0.289 N 
HETATM   17  C27 UNL     1      -0.997   2.050  -1.384  1.00  0.00     0.128 A 
HETATM   18  C3  UNL     1      -2.871   3.969  -0.296  1.00  0.00     0.327 A 
HETATM   19  N1  UNL     1      -2.589   3.817  -1.653  1.00  0.00    -0.316 N 
HETATM   20  O1  UNL     1      -3.689   4.801   0.159  1.00  0.00    -0.246 OA
HETATM   21  C2  UNL     1      -1.773   2.995  -2.170  1.00  0.00    -0.006 A 
ATOM     22  H1  UNL     1      -3.090   4.430  -2.296  1.00  0.00     0.170 HD
HETATM   23  C1  UNL     1      -1.633   3.014  -3.681  1.00  0.00     0.064 C 
ATOM     24  H7  UNL     1      -0.798   1.581   1.913  1.00  0.00     0.160 HD
BRANCH  16  25
HETATM   25  C4  UNL     1      -2.375   3.132   2.012  1.00  0.00     0.137 C 
BRANCH  25  26
HETATM   26  C5  UNL     1      -3.329   2.172   2.592  1.00  0.00     0.040 C 
BRANCH  26  27
HETATM   27  C6  UNL     1      -4.719   2.099   2.118  1.00  0.00     0.124 C 
BRANCH  27  28
HETATM   28  N3  UNL     1      -4.931   1.644   0.775  1.00  0.00    -0.365 N 
HETATM   29  C7  UNL     1      -6.266   1.665   0.229  1.00  0.00     0.183 C 
HETATM   30  N4  UNL     1      -6.545   2.686  -0.708  1.00  0.00    -0.064 NA
HETATM   31  N5  UNL     1      -7.091   0.781   0.617  1.00  0.00    -0.365 N 
ATOM     32  H5  UNL     1      -6.812   0.076   1.299  1.00  0.00     0.162 HD
ATOM     33  H3  UNL     1      -4.148   1.310   0.213  1.00  0.00     0.162 HD
BRANCH  31  34
HETATM   34  C8  UNL     1      -8.456   0.790   0.068  1.00  0.00     0.122 C 
BRANCH  34  35
HETATM   35  C9  UNL     1      -8.710  -0.610  -0.470  1.00  0.00     0.020 C 
BRANCH  35  36
HETATM   36  C10 UNL     1      -8.600  -1.603   0.639  1.00  0.00     0.010 C 
BRANCH  36  37
HETATM   37  C11 UNL     1      -8.813  -3.032   0.248  1.00  0.00     0.099 C 
BRANCH  37  38
HETATM   38  C12 UNL     1     -10.167  -3.247  -0.279  1.00  0.00     0.231 C 
HETATM   39  N6  UNL     1     -10.437  -4.514  -0.913  1.00  0.00    -0.062 NA
HETATM   40  O2  UNL     1     -11.077  -2.413  -0.208  1.00  0.00    -0.277 OA
ENDBRANCH  37  38
ENDBRANCH  36  37
ENDBRANCH  35  36
ENDBRANCH  34  35
ENDBRANCH  31  34
ENDBRANCH  27  28
ENDBRANCH  26  27
ENDBRANCH  25  26
ENDBRANCH  16  25
ENDBRANCH  13  14
ENDBRANCH  12  13
ENDBRANCH  11  12
ENDBRANCH  10  11
ENDBRANCH   1  10
BRANCH   8  41
HETATM   41  C20 UNL     1       7.522  -2.489   1.020  1.00  0.00     0.157 C 
BRANCH  41  42
HETATM   42  C21 UNL     1       8.091  -1.758  -0.206  1.00  0.00     0.141 C 
BRANCH  42  43
HETATM   43  N12 UNL     1       9.366  -2.330  -0.518  1.00  0.00    -0.375 N 
ATOM     44  H12 UNL     1       9.377  -3.207  -1.038  1.00  0.00     0.161 HD
BRANCH  43  45
HETATM   45  C22 UNL     1      10.488  -1.821  -0.192  1.00  0.00     0.100 A 
HETATM   46  C23 UNL     1      10.638  -0.649   0.508  1.00  0.00     0.048 A 
HETATM   47  C24 UNL     1      11.891  -0.130   0.819  1.00  0.00     0.005 A 
HETATM   48  C25 UNL     1      13.026  -0.795   0.426  1.00  0.00     0.017 A 
HETATM   49  C26 UNL     1      12.844  -1.968  -0.273  1.00  0.00     0.089 A 
HETATM   50  N13 UNL     1      11.638  -2.457  -0.568  1.00  0.00    -0.353 N 
ATOM     51  H13 UNL     1      11.572  -3.331  -1.089  1.00  0.00     0.166 HD
ENDBRANCH  43  45
ENDBRANCH  42  43
ENDBRANCH  41  42
ENDBRANCH   8  41
TORSDOF 18
