REMARK  14 active torsions:
REMARK  status: ('A' for Active; 'I' for Inactive)
REMARK    1  A    between atoms: C3_3  and  C4_4 
REMARK    2  A    between atoms: C4_4  and  C5_5 
REMARK    3  A    between atoms: C5_5  and  C6_6 
REMARK    4  A    between atoms: C6_6  and  C7_7 
REMARK    5  A    between atoms: C7_7  and  C8_8 
REMARK    6  A    between atoms: C8_8  and  C9_9 
REMARK    7  A    between atoms: C9_9  and  C10_10 
REMARK    8  A    between atoms: C10_10  and  C11_11 
REMARK    9  A    between atoms: C11_11  and  C12_12 
REMARK   10  A    between atoms: C12_12  and  C13_13 
REMARK   11  A    between atoms: C13_13  and  C14_14 
REMARK   12  A    between atoms: C14_14  and  C15_15 
REMARK   13  A    between atoms: C15_15  and  C16_16 
REMARK   14  A    between atoms: C16_16  and  C17_17 
ROOT
HETATM    1  C1  UNL     1       9.042  -1.396   0.117  1.00  0.00     0.012 C 
HETATM    2  C2  UNL     1       8.229  -1.062  -0.690  1.00  0.00    -0.117 C 
HETATM    3  C3  UNL     1       7.252  -0.643  -1.688  1.00  0.00     0.093 C 
ENDROOT
BRANCH   3   4
HETATM    4  C4  UNL     1       5.975  -0.247  -0.920  1.00  0.00     0.012 C 
BRANCH   4   5
HETATM    5  C5  UNL     1       6.240   0.854   0.022  1.00  0.00     0.001 C 
BRANCH   5   6
HETATM    6  C6  UNL     1       5.114   1.291   0.849  1.00  0.00     0.000 C 
BRANCH   6   7
HETATM    7  C7  UNL     1       3.951   1.891   0.221  1.00  0.00     0.000 C 
BRANCH   7   8
HETATM    8  C8  UNL     1       3.076   1.190  -0.730  1.00  0.00     0.000 C 
BRANCH   8   9
HETATM    9  C9  UNL     1       2.431  -0.071  -0.250  1.00  0.00     0.000 C 
BRANCH   9  10
HETATM   10  C10 UNL     1       1.566   0.255   0.956  1.00  0.00     0.000 C 
BRANCH  10  11
HETATM   11  C11 UNL     1       0.920  -1.024   1.431  1.00  0.00     0.000 C 
BRANCH  11  12
HETATM   12  C12 UNL     1       0.059  -1.657   0.386  1.00  0.00     0.000 C 
BRANCH  12  13
HETATM   13  C13 UNL     1      -1.068  -0.794  -0.079  1.00  0.00     0.000 C 
BRANCH  13  14
HETATM   14  C14 UNL     1      -1.950  -0.471   1.103  1.00  0.00     0.000 C 
BRANCH  14  15
HETATM   15  C15 UNL     1      -3.120   0.397   0.742  1.00  0.00     0.002 C 
BRANCH  15  16
HETATM   16  C16 UNL     1      -3.986  -0.301  -0.293  1.00  0.00     0.033 C 
BRANCH  16  17
HETATM   17  C17 UNL     1      -5.168   0.608  -0.638  1.00  0.00     0.185 C 
HETATM   18  C18 UNL     1      -5.941   0.854   0.613  1.00  0.00     0.033 C 
HETATM   19  C19 UNL     1      -7.427   0.895   0.260  1.00  0.00     0.004 C 
HETATM   20  C20 UNL     1      -7.790  -0.505  -0.202  1.00  0.00     0.027 C 
HETATM   21  C21 UNL     1      -6.847  -0.994  -1.263  1.00  0.00     0.232 C 
HETATM   22  N1  UNL     1      -5.935   0.039  -1.711  1.00  0.00    -0.071 N 
ATOM     23  H12 UNL     1      -6.431   0.764  -2.230  1.00  0.00     0.277 HD
ATOM     24  H11 UNL     1      -5.326  -0.308  -2.452  1.00  0.00     0.277 HD
ENDBRANCH  16  17
ENDBRANCH  15  16
ENDBRANCH  14  15
ENDBRANCH  13  14
ENDBRANCH  12  13
ENDBRANCH  11  12
ENDBRANCH  10  11
ENDBRANCH   9  10
ENDBRANCH   8   9
ENDBRANCH   7   8
ENDBRANCH   6   7
ENDBRANCH   5   6
ENDBRANCH   4   5
ENDBRANCH   3   4
TORSDOF 14
