REMARK  12 active torsions:
REMARK  status: ('A' for Active; 'I' for Inactive)
REMARK    1  A    between atoms: O1_2  and  C2_3 
REMARK    2  A    between atoms: C4_5  and  C5_6 
REMARK    3  A    between atoms: C5_6  and  O2_7 
REMARK    4  A    between atoms: O2_7  and  C6_8 
REMARK    5  A    between atoms: C8_11  and  N1_12 
REMARK       I    between atoms: N1_12  and  C9_14 
REMARK    6  A    between atoms: C9_14  and  C10_16 
REMARK    7  A    between atoms: C11_17  and  C12_18 
REMARK    8  A    between atoms: C13_20  and  O6_21 
REMARK    9  A    between atoms: C14_23  and  O7_24 
REMARK   10  A    between atoms: C15_26  and  O8_27 
REMARK   11  A    between atoms: C16_29  and  O9_30 
REMARK   12  A    between atoms: C21_36  and  O10_37 
ROOT
HETATM    1  N1  UNL     1       1.016  -1.821   1.840  1.00  0.00    -0.346 N 
ATOM      2  H1  UNL     1       0.717  -0.907   2.180  1.00  0.00     0.163 HD
HETATM    3  C9  UNL     1       2.084  -1.895   0.917  1.00  0.00     0.241 C 
HETATM    4  O4  UNL     1       2.436  -3.044   0.509  1.00  0.00    -0.269 OA
ENDROOT
BRANCH   1   5
HETATM    5  C8  UNL     1       0.344  -2.989   2.310  1.00  0.00     0.163 C 
HETATM    6  C6  UNL     1      -1.164  -2.890   2.464  1.00  0.00     0.284 C 
HETATM    7  O3  UNL     1      -0.979  -3.752   3.600  1.00  0.00    -0.357 OA
HETATM    8  C7  UNL     1       0.208  -3.057   3.822  1.00  0.00     0.201 C 
BRANCH   6   9
HETATM    9  O2  UNL     1      -1.914  -3.425   1.495  1.00  0.00    -0.358 OA
BRANCH   9  10
HETATM   10  C5  UNL     1      -2.984  -2.887   0.935  1.00  0.00     0.183 C 
BRANCH  10  11
HETATM   11  C4  UNL     1      -2.955  -1.676   0.097  1.00  0.00     0.010 C 
HETATM   12  C3  UNL     1      -2.469  -0.397   0.668  1.00  0.00     0.046 C 
HETATM   13  C2  UNL     1      -2.119   0.480  -0.554  1.00  0.00     0.125 C 
HETATM   14  C18 UNL     1      -2.143  -0.435  -1.725  1.00  0.00     0.015 C 
HETATM   15  C17 UNL     1      -2.049  -1.815  -1.121  1.00  0.00     0.021 C 
HETATM   16  C19 UNL     1      -3.480  -0.259  -2.443  1.00  0.00     0.010 C 
HETATM   17  C20 UNL     1      -4.426  -1.342  -1.938  1.00  0.00     0.033 C 
HETATM   18  C21 UNL     1      -4.384  -1.511  -0.461  1.00  0.00     0.129 C 
BRANCH  13  19
HETATM   19  O1  UNL     1      -3.061   1.497  -0.583  1.00  0.00    -0.390 OA
HETATM   20  C1  UNL     1      -2.375   2.707  -0.497  1.00  0.00     0.202 C 
ENDBRANCH  13  19
BRANCH  18  21
HETATM   21  O10 UNL     1      -5.040  -0.455   0.173  1.00  0.00    -0.395 OA
ATOM     22  H10 UNL     1      -5.920  -0.353  -0.171  1.00  0.00     0.210 HD
ENDBRANCH  18  21
ENDBRANCH  10  11
ENDBRANCH   9  10
ENDBRANCH   6   9
ENDBRANCH   1   5
BRANCH   3  23
HETATM   23  C10 UNL     1       2.781  -0.722   0.426  1.00  0.00     0.072 C 
HETATM   24  C11 UNL     1       2.497   0.496   0.783  1.00  0.00     0.013 C 
BRANCH  24  25
HETATM   25  C12 UNL     1       3.266   1.644   0.228  1.00  0.00     0.179 C 
HETATM   26  O5  UNL     1       4.447   1.163  -0.284  1.00  0.00    -0.347 OA
HETATM   27  C13 UNL     1       5.343   2.136  -0.651  1.00  0.00     0.289 C 
HETATM   28  C14 UNL     1       4.601   3.396  -0.968  1.00  0.00     0.204 C 
HETATM   29  C15 UNL     1       3.356   3.051  -1.761  1.00  0.00     0.183 C 
HETATM   30  C16 UNL     1       2.412   2.332  -0.818  1.00  0.00     0.182 C 
BRANCH  27  31
HETATM   31  O6  UNL     1       6.337   2.317   0.303  1.00  0.00    -0.368 OA
ATOM     32  H6  UNL     1       6.957   2.990   0.049  1.00  0.00     0.212 HD
ENDBRANCH  27  31
BRANCH  28  33
HETATM   33  O7  UNL     1       5.354   4.280  -1.740  1.00  0.00    -0.388 OA
ATOM     34  H7  UNL     1       4.883   5.080  -1.941  1.00  0.00     0.210 HD
ENDBRANCH  28  33
BRANCH  29  35
HETATM   35  O8  UNL     1       3.731   2.219  -2.826  1.00  0.00    -0.390 OA
ATOM     36  H8  UNL     1       2.951   2.003  -3.323  1.00  0.00     0.210 HD
ENDBRANCH  29  35
BRANCH  30  37
HETATM   37  O9  UNL     1       1.564   3.281  -0.227  1.00  0.00    -0.390 OA
ATOM     38  H9  UNL     1       1.029   3.712  -0.883  1.00  0.00     0.210 HD
ENDBRANCH  30  37
ENDBRANCH  24  25
ENDBRANCH   3  23
TORSDOF 12
