REMARK  3 active torsions:
REMARK  status: ('A' for Active; 'I' for Inactive)
REMARK    1  A    between atoms: S1_3  and  C3_4 
REMARK    2  A    between atoms: C3_4  and  C4_5 
REMARK    3  A    between atoms: C7_11  and  N2_12 
ROOT
HETATM    1  C1  UNL     1       4.326   1.644  -0.891  1.00  0.00     0.025 C 
HETATM    2  C2  UNL     1       3.890   0.589  -0.537  1.00  0.00    -0.045 C 
HETATM    3  S1  UNL     1       3.257  -0.984   0.043  1.00  0.00    -0.077 SA
ENDROOT
BRANCH   3   4
HETATM    4  C3  UNL     1       1.582  -0.725   0.740  1.00  0.00     0.123 C 
BRANCH   4   5
HETATM    5  C4  UNL     1       0.572  -0.435  -0.325  1.00  0.00     0.218 C 
HETATM    6  N1  UNL     1       0.489  -1.592  -1.228  1.00  0.00    -0.068 N 
HETATM    7  C5  UNL     1      -0.555  -2.427  -0.599  1.00  0.00     0.235 C 
ATOM      8  H12 UNL     1       0.316  -1.358  -2.206  1.00  0.00     0.277 HD
ATOM      9  H11 UNL     1       1.375  -2.069  -1.392  1.00  0.00     0.277 HD
HETATM   10  C6  UNL     1      -1.600  -1.379  -0.292  1.00  0.00     0.054 C 
HETATM   11  C7  UNL     1      -0.811  -0.254   0.277  1.00  0.00     0.111 C 
BRANCH  11  12
HETATM   12  N2  UNL     1      -1.284   1.023  -0.145  1.00  0.00    -0.414 N 
HETATM   13  C8  UNL     1      -2.671   1.151  -0.383  1.00  0.00     0.143 C 
HETATM   14  C9  UNL     1      -0.599   2.148   0.385  1.00  0.00     0.143 C 
ENDBRANCH  11  12
ENDBRANCH   4   5
ENDBRANCH   3   4
TORSDOF 3
