REMARK  3 active torsions:
REMARK  status: ('A' for Active; 'I' for Inactive)
REMARK    1  A    between atoms: C2_2  and  N1_4 
REMARK    2  A    between atoms: C6_10  and  C7_11 
REMARK    3  A    between atoms: C7_11  and  S1_12 
ROOT
HETATM    1  S1  UNL     1       2.224   0.701  -1.265  1.00  0.00    -0.047 SA
HETATM    2  C8  UNL     1       3.430  -0.547  -1.104  1.00  0.00     0.133 C 
HETATM    3  N3  UNL     1       4.260  -1.377  -1.010  1.00  0.00    -0.184 NA
ENDROOT
BRANCH   1   4
HETATM    4  C7  UNL     1       1.477   1.186   0.283  1.00  0.00     0.144 C 
BRANCH   4   5
HETATM    5  C6  UNL     1       0.620   0.130   0.936  1.00  0.00     0.292 C 
HETATM    6  N1  UNL     1      -0.414  -0.227   0.083  1.00  0.00    -0.380 N 
HETATM    7  C4  UNL     1      -0.301  -1.512  -0.441  1.00  0.00     0.147 C 
HETATM    8  C5  UNL     1       0.675  -2.160   0.555  1.00  0.00     0.254 C 
HETATM    9  N2  UNL     1       1.311  -1.093   1.239  1.00  0.00    -0.052 N 
ATOM     10  H22 UNL     1       1.383  -1.261   2.242  1.00  0.00     0.279 HD
ATOM     11  H21 UNL     1       2.308  -1.038   1.033  1.00  0.00     0.279 HD
BRANCH   6  12
HETATM   12  C2  UNL     1      -1.615   0.450   0.005  1.00  0.00     0.073 C 
HETATM   13  C1  UNL     1      -1.942   0.648  -1.486  1.00  0.00     0.031 C 
HETATM   14  C3  UNL     1      -1.753   1.746   0.676  1.00  0.00     0.031 C 
ENDBRANCH   6  12
ENDBRANCH   4   5
ENDBRANCH   1   4
TORSDOF 3
