REMARK  1 active torsions:
REMARK  status: ('A' for Active; 'I' for Inactive)
REMARK    1  A    between atoms: N1_1  and  C1_5 
ROOT
HETATM    1  C1  UNL     1       1.416  -0.598  -0.042  1.00  0.00     0.192 A 
HETATM    2  C2  UNL     1       0.093  -0.885   0.328  1.00  0.00     0.022 A 
HETATM    3  C3  UNL     1      -1.189  -1.033  -0.384  1.00  0.00     0.007 C 
HETATM    4  C4  UNL     1      -1.737   0.404  -0.286  1.00  0.00     0.001 C 
HETATM    5  C5  UNL     1      -0.509   1.237   0.143  1.00  0.00     0.007 C 
HETATM    6  C6  UNL     1       0.539   0.398  -0.488  1.00  0.00     0.022 A 
ENDROOT
BRANCH   1   7
HETATM    7  N1  UNL     1       2.406  -0.224   0.981  1.00  0.00    -0.074 N 
ATOM      8  H13 UNL     1       2.040   0.569   1.508  1.00  0.00     0.274 HD
ATOM      9  H12 UNL     1       2.423  -0.953   1.694  1.00  0.00     0.274 HD
ATOM     10  H11 UNL     1       3.368  -0.015   0.712  1.00  0.00     0.274 HD
ENDBRANCH   1   7
TORSDOF 1
