REMARK  6 active torsions:
REMARK  status: ('A' for Active; 'I' for Inactive)
REMARK       I    between atoms: N1_2  and  C2_4 
REMARK    1  A    between atoms: C2_4  and  C3_6 
REMARK    2  A    between atoms: C6_11  and  C7_12 
REMARK    3  A    between atoms: C15_24  and  C16_25 
REMARK    4  A    between atoms: C16_25  and  C17_26 
REMARK    5  A    between atoms: C17_26  and  C18_28 
REMARK    6  A    between atoms: C18_28  and  C19_29 
ROOT
HETATM    1  C3  UNL     1      -2.277   0.770   0.491  1.00  0.00     0.114 A 
HETATM    2  N2  UNL     1      -0.957   1.033   0.302  1.00  0.00    -0.354 N 
ATOM      3  H2  UNL     1      -0.445   1.792   0.750  1.00  0.00     0.166 HD
HETATM    4  C4  UNL     1      -0.423   0.151  -0.559  1.00  0.00     0.021 A 
HETATM    5  C5  UNL     1      -1.425  -0.708  -0.939  1.00  0.00    -0.020 A 
HETATM    6  C6  UNL     1      -2.600  -0.324  -0.279  1.00  0.00     0.034 A 
HETATM    7  C12 UNL     1      -1.262  -1.837  -1.884  1.00  0.00     0.042 C 
HETATM    8  C13 UNL     1       0.131  -1.903  -2.403  1.00  0.00     0.005 C 
HETATM    9  C14 UNL     1       1.112  -1.527  -1.291  1.00  0.00     0.011 C 
HETATM   10  C15 UNL     1       0.953  -0.013  -1.105  1.00  0.00     0.043 C 
ENDROOT
BRANCH   6  11
HETATM   11  C7  UNL     1      -3.917  -0.974  -0.399  1.00  0.00     0.084 A 
HETATM   12  N3  UNL     1      -4.811  -0.614  -1.307  1.00  0.00    -0.361 N 
HETATM   13  C8  UNL     1      -5.990  -1.249  -1.360  1.00  0.00     0.107 A 
ATOM     14  H3  UNL     1      -4.604   0.141  -1.961  1.00  0.00     0.165 HD
HETATM   15  C9  UNL     1      -6.337  -2.280  -0.506  1.00  0.00     0.029 A 
HETATM   16 BR1  UNL     1      -8.030  -3.144  -0.630  1.00  0.00    -0.050 Br
HETATM   17  C10 UNL     1      -5.408  -2.661   0.444  1.00  0.00     0.065 A 
HETATM   18  C11 UNL     1      -4.216  -2.001   0.480  1.00  0.00     0.145 A 
HETATM   19  F1  UNL     1      -3.286  -2.376   1.423  1.00  0.00    -0.204 F 
ENDBRANCH   6  11
BRANCH   1  20
HETATM   20  C2  UNL     1      -3.202   1.505   1.354  1.00  0.00     0.268 C 
HETATM   21  N1  UNL     1      -2.771   2.621   2.109  1.00  0.00    -0.360 N 
HETATM   22  C1  UNL     1      -3.698   3.320   2.943  1.00  0.00     0.149 C 
ATOM     23  H1  UNL     1      -1.799   2.927   2.058  1.00  0.00     0.162 HD
HETATM   24  O1  UNL     1      -4.401   1.153   1.437  1.00  0.00    -0.266 OA
ENDBRANCH   1  20
BRANCH  10  25
HETATM   25  C16 UNL     1       1.916   0.553  -0.117  1.00  0.00     0.089 C 
BRANCH  25  26
HETATM   26  C17 UNL     1       3.330   0.491  -0.481  1.00  0.00     0.128 C 
HETATM   27  O2  UNL     1       3.691   0.023  -1.538  1.00  0.00    -0.298 OA
BRANCH  26  28
HETATM   28  C18 UNL     1       4.311   1.036   0.518  1.00  0.00     0.082 C 
BRANCH  28  29
HETATM   29  C19 UNL     1       5.727   0.909   0.014  1.00  0.00    -0.016 C 
HETATM   30  C20 UNL     1       6.624   1.492   1.107  1.00  0.00     0.010 C 
HETATM   31  C21 UNL     1       6.106  -0.495  -0.322  1.00  0.00     0.010 C 
ENDBRANCH  28  29
ENDBRANCH  26  28
ENDBRANCH  25  26
ENDBRANCH  10  25
TORSDOF 6
