REMARK  8 active torsions:
REMARK  status: ('A' for Active; 'I' for Inactive)
REMARK    1  A    between atoms: O1_2  and  C2_3 
REMARK    2  A    between atoms: C4_5  and  N1_6 
REMARK    3  A    between atoms: N1_6  and  C5_8 
REMARK    4  A    between atoms: C5_8  and  C6_9 
REMARK    5  A    between atoms: C6_9  and  N2_10 
REMARK    6  A    between atoms: N2_10  and  C7_13 
REMARK    7  A    between atoms: C13_22  and  O2_23 
REMARK    8  A    between atoms: C15_25  and  O3_26 
ROOT
HETATM    1  N1  UNL     1      -0.484  -1.173   1.091  1.00  0.00    -0.388 N 
ATOM      2  H1  UNL     1      -0.441  -2.159   1.348  1.00  0.00     0.159 HD
ENDROOT
BRANCH   1   3
HETATM    3  C4  UNL     1      -1.734  -0.609   0.636  1.00  0.00     0.033 A 
HETATM    4  C3  UNL     1      -1.806   0.714   0.263  1.00  0.00     0.069 A 
HETATM    5  C2  UNL     1      -2.990   1.271  -0.170  1.00  0.00     0.106 A 
HETATM    6  C15 UNL     1      -4.157   0.540  -0.253  1.00  0.00     0.135 A 
HETATM    7  C13 UNL     1      -4.081  -0.803   0.126  1.00  0.00     0.106 A 
HETATM    8  C12 UNL     1      -2.892  -1.351   0.558  1.00  0.00     0.069 A 
BRANCH   5   9
HETATM    9  O1  UNL     1      -3.066   2.614  -0.549  1.00  0.00    -0.353 OA
HETATM   10  C1  UNL     1      -1.878   3.378  -0.468  1.00  0.00     0.210 C 
ENDBRANCH   5   9
BRANCH   6  11
HETATM   11  O3  UNL     1      -5.334   1.126  -0.692  1.00  0.00    -0.351 OA
HETATM   12  C16 UNL     1      -5.614   1.091  -2.098  1.00  0.00     0.210 C 
ENDBRANCH   6  11
BRANCH   7  13
HETATM   13  O2  UNL     1      -5.265  -1.511   0.034  1.00  0.00    -0.353 OA
HETATM   14  C14 UNL     1      -5.325  -2.868   0.387  1.00  0.00     0.210 C 
ENDBRANCH   7  13
ENDBRANCH   1   3
BRANCH   1  15
HETATM   15  C5  UNL     1       0.702  -0.361   1.186  1.00  0.00     0.147 C 
BRANCH  15  16
HETATM   16  C6  UNL     1       1.847  -1.229   1.709  1.00  0.00     0.254 C 
BRANCH  16  17
HETATM   17  N2  UNL     1       3.026  -0.444   1.819  1.00  0.00    -0.045 N 
ATOM     18  H22 UNL     1       2.865   0.357   2.429  1.00  0.00     0.279 HD
ATOM     19  H21 UNL     1       3.733  -0.938   2.364  1.00  0.00     0.279 HD
BRANCH  17  20
HETATM   20  C7  UNL     1       3.562  -0.022   0.581  1.00  0.00     0.382 C 
HETATM   21  C8  UNL     1       4.020  -1.182  -0.256  1.00  0.00     0.062 C 
HETATM   22  C9  UNL     1       4.250  -0.638  -1.660  1.00  0.00     0.005 C 
HETATM   23  C10 UNL     1       5.237   0.481  -1.619  1.00  0.00     0.028 C 
HETATM   24  C11 UNL     1       5.036   1.453  -0.498  1.00  0.00     0.235 C 
HETATM   25  N3  UNL     1       4.771   0.815   0.776  1.00  0.00    -0.046 N 
ATOM     26  H32 UNL     1       4.686   1.475   1.549  1.00  0.00     0.279 HD
ATOM     27  H31 UNL     1       5.569   0.295   1.142  1.00  0.00     0.279 HD
ENDBRANCH  17  20
ENDBRANCH  16  17
ENDBRANCH  15  16
ENDBRANCH   1  15
TORSDOF 8
