REMARK  2 active torsions:
REMARK  status: ('A' for Active; 'I' for Inactive)
REMARK       I    between atoms: C1_4  and  N3_6 
REMARK    1  A    between atoms: N3_6  and  N4_8 
REMARK    2  A    between atoms: C2_10  and  C3_11 
ROOT
HETATM    1  N4  UNL     1       1.676  -0.950   0.059  1.00  0.00    -0.313 N 
ATOM      2  H4  UNL     1       1.576  -1.595  -0.724  1.00  0.00     0.185 HD
HETATM    3  C2  UNL     1       0.660  -0.273   0.366  1.00  0.00     0.084 C 
ENDROOT
BRANCH   1   4
HETATM    4  N3  UNL     1       2.916  -0.909   0.675  1.00  0.00    -0.275 N 
HETATM    5  C1  UNL     1       3.994  -0.324  -0.047  1.00  0.00     0.200 C 
HETATM    6  N1  UNL     1       4.738  -1.039  -0.818  1.00  0.00    -0.372 N 
HETATM    7  N2  UNL     1       4.265   1.067   0.074  1.00  0.00    -0.062 NA
ATOM      8  H12 UNL     1       5.511  -0.620  -1.335  1.00  0.00     0.158 HD
ATOM      9  H11 UNL     1       4.544  -2.037  -0.905  1.00  0.00     0.158 HD
ATOM     10  H3  UNL     1       3.052  -1.285   1.613  1.00  0.00     0.189 HD
ENDBRANCH   1   4
BRANCH   3  11
HETATM   11  C3  UNL     1      -0.596  -0.437  -0.397  1.00  0.00     0.025 C 
HETATM   12  C4  UNL     1      -1.635  -1.089   0.455  1.00  0.00     0.010 C 
HETATM   13  C5  UNL     1      -3.048  -0.812   0.006  1.00  0.00     0.001 C 
HETATM   14  C6  UNL     1      -3.330   0.650  -0.179  1.00  0.00     0.000 C 
HETATM   15  C7  UNL     1      -2.054   1.422   0.150  1.00  0.00     0.001 C 
HETATM   16  C8  UNL     1      -1.013   0.963  -0.853  1.00  0.00     0.010 C 
ENDBRANCH   3  11
TORSDOF 2
