REMARK  3 active torsions:
REMARK  status: ('A' for Active; 'I' for Inactive)
REMARK    1  A    between atoms: C2_2  and  C4_4 
REMARK    2  A    between atoms: C5_8  and  N3_9 
REMARK    3  A    between atoms: N3_9  and  C6_11 
ROOT
HETATM    1  C4  UNL     1      -1.456   0.418   0.881  1.00  0.00     0.202 C 
HETATM    2  N1  UNL     1      -0.752  -0.635   1.579  1.00  0.00    -0.113 NA
HETATM    3  N2  UNL     1       0.567  -0.602   1.132  1.00  0.00    -0.273 N 
ATOM      4  H2  UNL     1       1.330  -1.103   1.587  1.00  0.00     0.185 HD
HETATM    5  C5  UNL     1       0.718   0.128   0.084  1.00  0.00     0.188 C 
HETATM    6  N4  UNL     1      -0.564   0.646  -0.239  1.00  0.00    -0.341 N 
ATOM      7  H4  UNL     1      -0.816   1.103  -1.115  1.00  0.00     0.164 HD
ENDROOT
BRANCH   5   8
HETATM    8  N3  UNL     1       1.952   0.373  -0.630  1.00  0.00    -0.357 N 
ATOM      9  H3  UNL     1       1.943   0.643  -1.614  1.00  0.00     0.163 HD
BRANCH   8  10
HETATM   10  C6  UNL     1       3.186   0.227   0.080  1.00  0.00     0.084 A 
HETATM   11  C7  UNL     1       4.497   0.455  -0.564  1.00  0.00     0.027 A 
HETATM   12  C8  UNL     1       4.011  -0.976  -0.365  1.00  0.00     0.027 A 
ENDBRANCH   8  10
ENDBRANCH   5   8
BRANCH   1  13
HETATM   13  C2  UNL     1      -2.825  -0.027   0.459  1.00  0.00     0.018 C 
HETATM   14  C1  UNL     1      -2.673  -1.218  -0.462  1.00  0.00     0.013 C 
HETATM   15  C3  UNL     1      -3.567   1.101  -0.192  1.00  0.00     0.013 C 
ENDBRANCH   1  13
TORSDOF 3
