REMARK  2 active torsions:
REMARK  status: ('A' for Active; 'I' for Inactive)
REMARK    1  A    between atoms: C4_4  and  N1_5 
REMARK    2  A    between atoms: N1_5  and  C5_7 
ROOT
HETATM    1  C1  UNL     1      -2.488   0.482   0.188  1.00  0.00     0.000 C 
HETATM    2  C2  UNL     1      -1.258   0.838   1.018  1.00  0.00     0.002 C 
HETATM    3  C3  UNL     1      -0.166   1.034  -0.057  1.00  0.00     0.025 C 
HETATM    4  C4  UNL     1       0.190  -0.272  -0.608  1.00  0.00     0.079 C 
HETATM    5  C7  UNL     1      -0.933  -1.246  -0.812  1.00  0.00     0.025 C 
HETATM    6  C8  UNL     1      -2.256  -0.925  -0.279  1.00  0.00     0.002 C 
ENDROOT
BRANCH   4   7
HETATM    7  N1  UNL     1       1.336  -0.853   0.001  1.00  0.00    -0.391 N 
ATOM      8  H1  UNL     1       1.226  -1.708   0.546  1.00  0.00     0.156 HD
BRANCH   7   9
HETATM    9  C5  UNL     1       2.606  -0.290  -0.124  1.00  0.00     0.240 A 
HETATM   10  C6  UNL     1       3.177   0.939   0.329  1.00  0.00     0.223 A 
HETATM   11  O1  UNL     1       3.515  -0.273   0.961  1.00  0.00    -0.361 OA
ENDBRANCH   7   9
ENDBRANCH   4   7
TORSDOF 2
