REMARK  12 active torsions:
REMARK  status: ('A' for Active; 'I' for Inactive)
REMARK    1  A    between atoms: C2_2  and  C3_3 
REMARK    2  A    between atoms: C3_3  and  N1_4 
REMARK    3  A    between atoms: C3_3  and  C25_37 
REMARK    4  A    between atoms: N1_4  and  C4_7 
REMARK    5  A    between atoms: C4_7  and  C6_9 
REMARK       I    between atoms: N2_14  and  C11_15 
REMARK    6  A    between atoms: C11_15  and  C12_17 
REMARK    7  A    between atoms: C12_17  and  N3_18 
REMARK    8  A    between atoms: C12_17  and  C21_33 
REMARK       I    between atoms: N3_18  and  C13_20 
REMARK    9  A    between atoms: C13_20  and  O3_22 
REMARK   10  A    between atoms: O3_22  and  C14_23 
REMARK   11  A    between atoms: C17_26  and  C18_27 
REMARK   12  A    between atoms: C18_27  and  S1_28 
REMARK       I    between atoms: C25_37  and  N4_39 
ROOT
HETATM    1  C6  UNL     1      -1.802   0.090   1.898  1.00  0.00     0.117 C 
HETATM    2  C7  UNL     1      -2.618   0.653   3.010  1.00  0.00     0.027 C 
HETATM    3  C8  UNL     1      -2.976  -0.357   4.081  1.00  0.00     0.004 C 
HETATM    4  C9  UNL     1      -3.315  -1.703   3.484  1.00  0.00     0.020 C 
HETATM    5  C10 UNL     1      -2.260  -2.220   2.571  1.00  0.00     0.126 C 
HETATM    6  N2  UNL     1      -1.242  -1.180   2.318  1.00  0.00    -0.344 N 
HETATM    7  C11 UNL     1       0.103  -1.501   2.483  1.00  0.00     0.243 C 
HETATM    8  O1  UNL     1       0.358  -2.714   2.842  1.00  0.00    -0.271 OA
ENDROOT
BRANCH   7   9
HETATM    9  C12 UNL     1       1.290  -0.653   2.299  1.00  0.00     0.186 C 
BRANCH   9  10
HETATM   10  N3  UNL     1       2.260  -1.477   1.573  1.00  0.00    -0.323 N 
HETATM   11  C13 UNL     1       2.997  -1.010   0.452  1.00  0.00     0.361 C 
HETATM   12  O2  UNL     1       2.857   0.171   0.012  1.00  0.00    -0.238 OA
ATOM     13  H3  UNL     1       2.414  -2.435   1.889  1.00  0.00     0.165 HD
BRANCH  11  14
HETATM   14  O3  UNL     1       3.904  -1.793  -0.231  1.00  0.00    -0.299 OA
BRANCH  14  15
HETATM   15  C14 UNL     1       4.600  -1.288  -1.315  1.00  0.00     0.134 C 
HETATM   16  C15 UNL     1       4.302  -1.988  -2.623  1.00  0.00     0.033 C 
HETATM   17  C16 UNL     1       5.390  -1.340  -3.497  1.00  0.00     0.008 C 
HETATM   18  C17 UNL     1       6.550  -1.106  -2.615  1.00  0.00     0.002 C 
HETATM   19  C20 UNL     1       6.085  -1.410  -1.216  1.00  0.00     0.038 C 
BRANCH  18  20
HETATM   20  C18 UNL     1       7.113   0.288  -2.615  1.00  0.00     0.144 C 
BRANCH  20  21
HETATM   21  S1  UNL     1       7.691   0.825  -4.184  1.00  0.00     0.141 S 
HETATM   22  C19 UNL     1       8.323   2.491  -3.980  1.00  0.00     0.161 C 
HETATM   23  O4  UNL     1       8.850  -0.005  -4.667  1.00  0.00    -0.228 OA
HETATM   24  O5  UNL     1       6.615   0.923  -5.225  1.00  0.00    -0.228 OA
ENDBRANCH  20  21
ENDBRANCH  18  20
ENDBRANCH  14  15
ENDBRANCH  11  14
ENDBRANCH   9  10
BRANCH   9  25
HETATM   25  C21 UNL     1       1.887  -0.291   3.653  1.00  0.00    -0.022 C 
HETATM   26  C22 UNL     1       0.890   0.460   4.479  1.00  0.00     0.017 C 
HETATM   27  C23 UNL     1       2.306  -1.503   4.447  1.00  0.00     0.017 C 
HETATM   28  C24 UNL     1       3.079   0.653   3.438  1.00  0.00     0.017 C 
ENDBRANCH   9  25
ENDBRANCH   7   9
BRANCH   1  29
HETATM   29  C4  UNL     1      -2.546  -0.029   0.594  1.00  0.00     0.205 C 
HETATM   30  C5  UNL     1      -1.709  -0.714  -0.431  1.00  0.00     0.042 C 
BRANCH  29  31
HETATM   31  N1  UNL     1      -2.973   1.289   0.174  1.00  0.00    -0.057 N 
ATOM     32  H12 UNL     1      -2.184   1.921   0.040  1.00  0.00     0.278 HD
ATOM     33  H11 UNL     1      -3.444   1.795   0.924  1.00  0.00     0.278 HD
BRANCH  31  34
HETATM   34  C3  UNL     1      -3.810   1.188  -1.033  1.00  0.00     0.277 C 
BRANCH  34  35
HETATM   35  C2  UNL     1      -3.845   2.642  -1.550  1.00  0.00     0.038 C 
HETATM   36  C1  UNL     1      -2.443   3.122  -1.857  1.00  0.00     0.007 C 
ENDBRANCH  34  35
BRANCH  34  37
HETATM   37  C25 UNL     1      -5.182   0.829  -0.614  1.00  0.00     0.250 C 
HETATM   38  O6  UNL     1      -5.468   0.849   0.635  1.00  0.00    -0.271 OA
HETATM   39  N4  UNL     1      -6.228   0.456  -1.481  1.00  0.00    -0.350 N 
HETATM   40  C26 UNL     1      -6.188   0.294  -2.897  1.00  0.00     0.126 C 
HETATM   41  C29 UNL     1      -7.611   0.158  -1.097  1.00  0.00     0.126 C 
HETATM   42  C27 UNL     1      -7.552   0.717  -3.413  1.00  0.00     0.021 C 
HETATM   43  C28 UNL     1      -8.415   0.864  -2.175  1.00  0.00     0.021 C 
ENDBRANCH  34  37
ENDBRANCH  31  34
ENDBRANCH  29  31
ENDBRANCH   1  29
TORSDOF 12
