REMARK  10 active torsions:
REMARK  status: ('A' for Active; 'I' for Inactive)
REMARK    1  A    between atoms: C2_2  and  C3_3 
REMARK    2  A    between atoms: C3_3  and  C4_4 
REMARK    3  A    between atoms: C4_4  and  C5_5 
REMARK    4  A    between atoms: C5_5  and  C6_6 
REMARK       I    between atoms: C6_6  and  N1_8 
REMARK    5  A    between atoms: N1_8  and  C7_9 
REMARK    6  A    between atoms: N1_8  and  C12_17 
REMARK       I    between atoms: N3_20  and  C15_21 
REMARK    7  A    between atoms: C15_21  and  C16_23 
REMARK    8  A    between atoms: C18_25  and  C19_26 
REMARK    9  A    between atoms: C22_29  and  C23_30 
REMARK   10  A    between atoms: C23_30  and  C24_31 
ROOT
HETATM    1  C12 UNL     1      -2.568   0.138  -0.379  1.00  0.00     0.090 C 
HETATM    2  C13 UNL     1      -1.452  -0.114   0.601  1.00  0.00     0.045 C 
HETATM    3  C14 UNL     1      -0.087  -0.030  -0.051  1.00  0.00     0.128 C 
HETATM    4  N3  UNL     1       0.008  -0.847  -1.210  1.00  0.00    -0.348 N 
HETATM    5  C15 UNL     1       1.140  -1.674  -1.410  1.00  0.00     0.255 C 
HETATM    6  O2  UNL     1       1.267  -2.406  -2.421  1.00  0.00    -0.267 OA
HETATM    7  C30 UNL     1      -1.047  -0.834  -2.175  1.00  0.00     0.128 C 
HETATM    8  C31 UNL     1      -2.192   0.069  -1.809  1.00  0.00     0.045 C 
ENDROOT
BRANCH   5   9
HETATM    9  C16 UNL     1       2.237  -1.716  -0.426  1.00  0.00     0.054 A 
HETATM   10  C17 UNL     1       3.270  -0.825  -0.568  1.00  0.00     0.028 A 
HETATM   11  C18 UNL     1       4.317  -0.822   0.333  1.00  0.00    -0.038 A 
HETATM   12  C27 UNL     1       4.252  -1.761   1.367  1.00  0.00     0.095 A 
HETATM   13  N4  UNL     1       3.219  -2.618   1.469  1.00  0.00    -0.368 N 
HETATM   14  C28 UNL     1       2.201  -2.622   0.595  1.00  0.00     0.021 A 
ATOM     15  H4  UNL     1       3.210  -3.288   2.238  1.00  0.00     0.165 HD
HETATM   16  C29 UNL     1       1.110  -3.607   0.792  1.00  0.00     0.069 C 
BRANCH  11  17
HETATM   17  C19 UNL     1       5.462   0.118   0.238  1.00  0.00     0.020 C 
HETATM   18  C20 UNL     1       6.191  -0.140  -1.074  1.00  0.00     0.010 C 
HETATM   19  C21 UNL     1       7.517   0.544  -1.035  1.00  0.00     0.006 C 
HETATM   20  C22 UNL     1       7.436   1.685  -0.035  1.00  0.00    -0.005 C 
HETATM   21  C25 UNL     1       6.123   2.421  -0.162  1.00  0.00     0.006 C 
HETATM   22  C26 UNL     1       4.949   1.538   0.215  1.00  0.00     0.010 C 
BRANCH  20  23
HETATM   23  C23 UNL     1       8.540   2.702  -0.373  1.00  0.00     0.117 C 
BRANCH  23  24
HETATM   24  C24 UNL     1       9.873   2.045  -0.282  1.00  0.00     0.172 C 
HETATM   25  O3  UNL     1      10.179   1.454   0.809  1.00  0.00    -0.648 OA
HETATM   26  O4  UNL     1      10.780   2.052  -1.330  1.00  0.00    -0.648 OA
ENDBRANCH  23  24
ENDBRANCH  20  23
ENDBRANCH  11  17
ENDBRANCH   5   9
BRANCH   1  27
HETATM   27  N1  UNL     1      -3.664  -0.695   0.029  1.00  0.00    -0.343 N 
HETATM   28  C6  UNL     1      -4.828  -0.067   0.533  1.00  0.00     0.220 C 
HETATM   29  O1  UNL     1      -5.838  -0.700   0.928  1.00  0.00    -0.273 OA
BRANCH  28  30
HETATM   30  C5  UNL     1      -4.924   1.422   0.627  1.00  0.00     0.103 C 
BRANCH  30  31
HETATM   31  C4  UNL     1      -6.257   1.864   1.145  1.00  0.00     0.009 C 
BRANCH  31  32
HETATM   32  C3  UNL     1      -6.305   3.356   1.222  1.00  0.00     0.000 C 
BRANCH  32  33
HETATM   33  C2  UNL     1      -6.095   4.022  -0.118  1.00  0.00    -0.005 C 
HETATM   34  C1  UNL     1      -6.167   5.536   0.042  1.00  0.00     0.005 C 
ENDBRANCH  32  33
ENDBRANCH  31  32
ENDBRANCH  30  31
ENDBRANCH  28  30
BRANCH  27  35
HETATM   35  C7  UNL     1      -3.626  -2.148  -0.043  1.00  0.00     0.090 C 
HETATM   36  C8  UNL     1      -3.675  -2.833   1.271  1.00  0.00     0.053 C 
HETATM   37  C9  UNL     1      -4.819  -3.711   1.585  1.00  0.00     0.234 C 
HETATM   38  N2  UNL     1      -5.567  -4.267   0.518  1.00  0.00    -0.075 N 
HETATM   39  C10 UNL     1      -4.912  -4.168  -0.748  1.00  0.00     0.234 C 
ATOM     40  H22 UNL     1      -5.820  -5.234   0.719  1.00  0.00     0.277 HD
ATOM     41  H21 UNL     1      -6.499  -3.854   0.476  1.00  0.00     0.277 HD
HETATM   42  C11 UNL     1      -4.643  -2.672  -0.992  1.00  0.00     0.053 C 
ENDBRANCH  27  35
ENDBRANCH   1  27
TORSDOF 10
