REMARK  3 active torsions:
REMARK  status: ('A' for Active; 'I' for Inactive)
REMARK    1  A    between atoms: C2_2  and  N1_3 
REMARK    2  A    between atoms: C2_2  and  C4_7 
REMARK    3  A    between atoms: N1_3  and  C3_5 
ROOT
HETATM    1  C1  UNL     1      -0.646  -1.327  -0.305  1.00  0.00     0.043 C 
HETATM    2  C2  UNL     1      -0.165   0.028   0.227  1.00  0.00     0.180 C 
ENDROOT
BRANCH   2   3
HETATM    3  N1  UNL     1       1.215   0.157  -0.178  1.00  0.00    -0.354 N 
ATOM      4  H1  UNL     1       1.429   0.218  -1.173  1.00  0.00     0.162 HD
BRANCH   3   5
HETATM    5  C3  UNL     1       2.287   0.203   0.753  1.00  0.00     0.349 C 
HETATM    6  O1  UNL     1       1.999   0.126   1.973  1.00  0.00    -0.284 OA
ENDBRANCH   3   5
ENDBRANCH   2   3
BRANCH   2   7
HETATM    7  C4  UNL     1      -1.030   1.065  -0.372  1.00  0.00     0.196 C 
HETATM    8  O2  UNL     1      -0.529   1.920  -1.135  1.00  0.00    -0.646 OA
HETATM    9  O3  UNL     1      -2.383   1.120  -0.114  1.00  0.00    -0.646 OA
ENDBRANCH   2   7
TORSDOF 3
