REMARK  4 active torsions:
REMARK  status: ('A' for Active; 'I' for Inactive)
REMARK    1  A    between atoms: N1_1  and  N2_4 
REMARK    2  A    between atoms: N2_4  and  C1_5 
REMARK    3  A    between atoms: C1_5  and  C2_6 
REMARK    4  A    between atoms: C2_6  and  N3_7 
ROOT
HETATM    1  N3  UNL     1       0.001  -0.928  -0.575  1.00  0.00    -0.261 N 
HETATM    2  C3  UNL     1      -0.244  -2.186  -0.156  1.00  0.00     0.334 A 
HETATM    3  O1  UNL     1       0.560  -3.066  -0.526  1.00  0.00    -0.246 OA
HETATM    4  N4  UNL     1      -1.276  -2.547   0.616  1.00  0.00    -0.274 N 
ATOM      5  H4  UNL     1      -1.391  -3.523   0.890  1.00  0.00     0.173 HD
HETATM    6  C4  UNL     1      -2.160  -1.624   1.030  1.00  0.00     0.269 A 
HETATM    7  O2  UNL     1      -3.147  -1.903   1.757  1.00  0.00    -0.267 OA
HETATM    8  C5  UNL     1      -1.983  -0.331   0.651  1.00  0.00     0.144 A 
HETATM    9  C6  UNL     1      -2.877   0.669   1.041  1.00  0.00     0.265 A 
HETATM   10  O3  UNL     1      -3.854   0.374   1.764  1.00  0.00    -0.267 OA
HETATM   11  N5  UNL     1      -2.648   1.923   0.618  1.00  0.00    -0.319 N 
ATOM     12  H5  UNL     1      -3.297   2.659   0.898  1.00  0.00     0.169 HD
HETATM   13  C7  UNL     1      -1.606   2.249  -0.155  1.00  0.00     0.185 A 
HETATM   14  N6  UNL     1      -0.770   1.279  -0.512  1.00  0.00    -0.337 N 
ATOM     15  H6  UNL     1       0.024   1.530  -1.101  1.00  0.00     0.168 HD
HETATM   16  C8  UNL     1      -0.899  -0.013  -0.149  1.00  0.00     0.137 A 
ENDROOT
BRANCH   1  17
HETATM   17  C2  UNL     1       1.063  -0.535  -1.408  1.00  0.00     0.094 C 
BRANCH  17  18
HETATM   18  C1  UNL     1       2.386  -0.216  -0.929  1.00  0.00     0.179 C 
BRANCH  18  19
HETATM   19  N2  UNL     1       2.429   0.855   0.025  1.00  0.00    -0.143 NA
BRANCH  19  20
HETATM   20  N1  UNL     1       3.732   1.162   0.414  1.00  0.00    -0.348 N 
ATOM     21  H12 UNL     1       4.550   0.672   0.053  1.00  0.00     0.172 HD
ATOM     22  H11 UNL     1       3.763   1.923   1.092  1.00  0.00     0.172 HD
ENDBRANCH  19  20
ENDBRANCH  18  19
ENDBRANCH  17  18
ENDBRANCH   1  17
TORSDOF 4
