REMARK  3 active torsions:
REMARK  status: ('A' for Active; 'I' for Inactive)
REMARK    1  A    between atoms: C3_5  and  C4_6 
REMARK    2  A    between atoms: C5_8  and  N3_9 
REMARK    3  A    between atoms: C6_12  and  N4_13 
REMARK       I    between atoms: N4_13  and  C7_15 
ROOT
HETATM    1  C1  UNL     1      -2.670  -1.890   0.476  1.00  0.00     0.162 C 
HETATM    2  N1  UNL     1      -1.565  -0.959   0.360  1.00  0.00    -0.291 N 
HETATM    3  C2  UNL     1      -1.914   0.335   0.116  1.00  0.00     0.137 C 
HETATM    4  N2  UNL     1      -3.292   0.586   0.315  1.00  0.00    -0.081 NA
HETATM    5  C3  UNL     1      -1.130   1.394  -0.286  1.00  0.00     0.073 C 
HETATM    6  C5  UNL     1       0.234   1.378  -0.559  1.00  0.00     0.087 C 
HETATM    7  C6  UNL     1       1.122   0.360  -0.284  1.00  0.00     0.139 C 
HETATM    8  N7  UNL     1       0.874  -0.803   0.323  1.00  0.00    -0.292 N 
ATOM      9  H7  UNL     1       1.690  -1.279   0.708  1.00  0.00     0.172 HD
HETATM   10  C8  UNL     1      -0.316  -1.443   0.501  1.00  0.00     0.329 C 
HETATM   11  O2  UNL     1      -0.237  -2.640   0.841  1.00  0.00    -0.246 OA
ENDROOT
BRANCH   7  12
HETATM   12  N4  UNL     1       2.346   0.604  -0.685  1.00  0.00    -0.315 N 
HETATM   13  C7  UNL     1       3.380  -0.368  -0.466  1.00  0.00     0.187 C 
HETATM   14  N5  UNL     1       3.477  -1.423  -1.194  1.00  0.00    -0.373 N 
HETATM   15  N6  UNL     1       4.340  -0.198   0.570  1.00  0.00    -0.064 NA
ATOM     16  H52 UNL     1       2.789  -1.545  -1.937  1.00  0.00     0.158 HD
ATOM     17  H51 UNL     1       4.211  -2.113  -1.038  1.00  0.00     0.158 HD
ATOM     18  H4  UNL     1       2.564   1.484  -1.152  1.00  0.00     0.170 HD
ENDBRANCH   7  12
BRANCH   6  19
HETATM   19  N3  UNL     1       0.739   2.416  -1.128  1.00  0.00    -0.395 N 
ATOM     20  H32 UNL     1       0.082   3.169  -1.331  1.00  0.00     0.156 HD
ATOM     21  H31 UNL     1       1.739   2.404  -1.328  1.00  0.00     0.156 HD
ENDBRANCH   6  19
BRANCH   5  22
HETATM   22  C4  UNL     1      -1.786   2.674  -0.446  1.00  0.00     0.275 C 
HETATM   23  O1  UNL     1      -3.017   2.780  -0.221  1.00  0.00    -0.301 OA
ENDBRANCH   5  22
TORSDOF 3
