REMARK  3 active torsions:
REMARK  status: ('A' for Active; 'I' for Inactive)
REMARK    1  A    between atoms: C1_2  and  N1_3 
REMARK    2  A    between atoms: N1_3  and  C2_5 
REMARK    3  A    between atoms: C2_5  and  C3_6 
ROOT
HETATM    1  C3  UNL     1       0.191   0.252  -0.099  1.00  0.00     0.229 C 
HETATM    2  C4  UNL     1      -0.884   1.103  -0.793  1.00  0.00     0.266 C 
HETATM    3  N2  UNL     1      -2.184   0.513  -0.619  1.00  0.00    -0.071 N 
ATOM      4  H21 UNL     1      -2.363  -0.252  -1.269  1.00  0.00     0.277 HD
ATOM      5  H22 UNL     1      -2.942   1.126  -0.921  1.00  0.00     0.277 HD
HETATM    6  C5  UNL     1      -2.302   0.113   0.768  1.00  0.00     0.259 C 
HETATM    7  C6  UNL     1      -1.353  -1.003   1.118  1.00  0.00     0.260 C 
HETATM    8  N3  UNL     1      -0.354  -1.095   0.071  1.00  0.00    -0.066 N 
ATOM      9  H31 UNL     1       0.360  -1.800   0.254  1.00  0.00     0.277 HD
ATOM     10  H32 UNL     1      -0.711  -1.499  -0.795  1.00  0.00     0.277 HD
ENDROOT
BRANCH   1  11
HETATM   11  C2  UNL     1       1.383   0.272  -0.990  1.00  0.00     0.156 C 
BRANCH  11  12
HETATM   12  N1  UNL     1       2.521  -0.469  -0.531  1.00  0.00    -0.366 N 
ATOM     13  H1  UNL     1       2.879  -1.239  -1.096  1.00  0.00     0.161 HD
BRANCH  12  14
HETATM   14  C1  UNL     1       3.151  -0.153   0.682  1.00  0.00     0.348 C 
HETATM   15  O1  UNL     1       2.718   0.785   1.371  1.00  0.00    -0.284 OA
ENDBRANCH  12  14
ENDBRANCH  11  12
ENDBRANCH   1  11
TORSDOF 3
