REMARK  8 active torsions:
REMARK  status: ('A' for Active; 'I' for Inactive)
REMARK    1  A    between atoms: C2_2  and  C3_3 
REMARK    2  A    between atoms: C3_3  and  C4_4 
REMARK    3  A    between atoms: C4_4  and  N1_5 
REMARK    4  A    between atoms: C6_7  and  C7_8 
REMARK       I    between atoms: C7_8  and  N2_10 
REMARK    5  A    between atoms: C9_12  and  O2_13 
REMARK    6  A    between atoms: C16_21  and  C17_22 
REMARK    7  A    between atoms: C17_22  and  O4_23 
REMARK    8  A    between atoms: N3_25  and  O5_27 
ROOT
HETATM    1  N1  UNL     1       2.753  -0.282  -0.549  1.00  0.00    -0.411 N 
HETATM    2  C5  UNL     1       1.706   0.508  -1.082  1.00  0.00     0.131 C 
HETATM    3  C6  UNL     1       0.373  -0.071  -0.596  1.00  0.00     0.096 C 
HETATM    4  C15 UNL     1       0.280  -1.408  -1.351  1.00  0.00     0.030 C 
HETATM    5  C16 UNL     1       1.321  -2.300  -0.659  1.00  0.00     0.080 C 
HETATM    6  C18 UNL     1       2.671  -1.676  -0.746  1.00  0.00     0.129 C 
ENDROOT
BRANCH   3   7
HETATM    7  C7  UNL     1      -0.735   0.831  -0.865  1.00  0.00     0.226 C 
HETATM    8  O1  UNL     1      -0.562   1.811  -1.629  1.00  0.00    -0.273 OA
HETATM    9  N2  UNL     1      -2.001   0.634  -0.287  1.00  0.00    -0.342 N 
HETATM   10  C8  UNL     1      -3.167   1.468  -0.491  1.00  0.00     0.161 C 
HETATM   11  C14 UNL     1      -2.403  -0.422   0.646  1.00  0.00     0.120 C 
HETATM   12  C9  UNL     1      -3.964   1.339   0.759  1.00  0.00     0.169 C 
HETATM   13  C11 UNL     1      -3.249   0.368   1.639  1.00  0.00     0.174 C 
HETATM   14  O3  UNL     1      -4.105  -0.569   2.212  1.00  0.00    -0.381 OA
HETATM   15  C12 UNL     1      -4.404  -1.521   1.249  1.00  0.00     0.170 C 
HETATM   16  C13 UNL     1      -3.453  -1.343   0.090  1.00  0.00     0.054 C 
BRANCH  12  17
HETATM   17  O2  UNL     1      -4.178   2.568   1.391  1.00  0.00    -0.386 OA
HETATM   18  C10 UNL     1      -5.547   2.806   1.397  1.00  0.00     0.202 C 
ENDBRANCH  12  17
ENDBRANCH   3   7
BRANCH   1  19
HETATM   19  C4  UNL     1       3.388   0.185   0.634  1.00  0.00     0.117 C 
BRANCH  19  20
HETATM   20  C3  UNL     1       4.186   1.441   0.330  1.00  0.00     0.019 C 
BRANCH  20  21
HETATM   21  C2  UNL     1       4.882   1.966   1.566  1.00  0.00    -0.003 C 
HETATM   22  C1  UNL     1       5.641   3.216   1.143  1.00  0.00     0.005 C 
ENDBRANCH  20  21
ENDBRANCH  19  20
ENDBRANCH   1  19
BRANCH   5  23
HETATM   23  C17 UNL     1       1.342  -3.570  -1.427  1.00  0.00     0.141 C 
HETATM   24  N3  UNL     1       1.053  -4.691  -0.883  1.00  0.00    -0.251 N 
ATOM     25  H3  UNL     1       1.074  -5.553  -1.428  1.00  0.00     0.196 HD
BRANCH  23  26
HETATM   26  O4  UNL     1       1.686  -3.542  -2.775  1.00  0.00    -0.348 OA
ATOM     27  H4  UNL     1       1.699  -4.355  -3.267  1.00  0.00     0.219 HD
ENDBRANCH  23  26
BRANCH  24  28
HETATM   28  O5  UNL     1       0.714  -4.714   0.447  1.00  0.00    -0.288 OA
ATOM     29  H5  UNL     1       0.499  -5.547   0.851  1.00  0.00     0.244 HD
ENDBRANCH  24  28
ENDBRANCH   5  23
TORSDOF 8
