REMARK  7 active torsions:
REMARK  status: ('A' for Active; 'I' for Inactive)
REMARK    1  A    between atoms: N1_2  and  C2_3 
REMARK    2  A    between atoms: N1_2  and  C7_11 
REMARK    3  A    between atoms: C9_13  and  N3_14 
REMARK       I    between atoms: N3_14  and  C10_16 
REMARK    4  A    between atoms: C10_16  and  C11_18 
REMARK    5  A    between atoms: C11_18  and  N4_19 
REMARK    6  A    between atoms: N4_19  and  N5_20 
REMARK    7  A    between atoms: C13_25  and  C14_26 
ROOT
HETATM    1  C7  UNL     1       0.291   0.616   0.181  1.00  0.00     0.116 C 
HETATM    2  C8  UNL     1       1.099  -0.209   1.125  1.00  0.00     0.055 C 
HETATM    3  C9  UNL     1       2.103  -0.866   0.199  1.00  0.00     0.118 C 
HETATM    4  C12 UNL     1       1.591  -0.659  -1.220  1.00  0.00     0.182 C 
HETATM    5  O3  UNL     1       1.728  -1.752  -2.027  1.00  0.00    -0.342 OA
HETATM    6  C13 UNL     1       0.921  -2.822  -1.724  1.00  0.00     0.359 C 
HETATM    7  O5  UNL     1      -0.396  -2.364  -1.648  1.00  0.00    -0.200 OA
HETATM    8  O6  UNL     1      -0.457  -1.538  -0.635  1.00  0.00    -0.228 OA
HETATM    9  C15 UNL     1       0.111  -0.295  -0.980  1.00  0.00     0.214 C 
ENDROOT
BRANCH   1  10
HETATM   10  N1  UNL     1      -0.829   1.277   0.685  1.00  0.00    -0.397 N 
HETATM   11  C1  UNL     1      -0.616   2.257   1.677  1.00  0.00     0.144 C 
BRANCH  10  12
HETATM   12  C2  UNL     1      -2.129   0.914   0.379  1.00  0.00     0.171 C 
HETATM   13  C3  UNL     1      -2.920   2.107  -0.184  1.00  0.00     0.036 C 
HETATM   14  C4  UNL     1      -4.248   1.647  -0.742  1.00  0.00     0.022 C 
HETATM   15  C5  UNL     1      -4.755   0.379  -0.112  1.00  0.00     0.122 C 
HETATM   16  N2  UNL     1      -4.362   0.394   1.290  1.00  0.00    -0.359 N 
HETATM   17  C6  UNL     1      -2.956   0.439   1.542  1.00  0.00     0.240 C 
ATOM     18  H2  UNL     1      -5.047   0.374   2.045  1.00  0.00     0.162 HD
HETATM   19  O1  UNL     1      -2.479   0.106   2.648  1.00  0.00    -0.271 OA
ENDBRANCH  10  12
ENDBRANCH   1  10
BRANCH   3  20
HETATM   20  N3  UNL     1       3.380  -0.196   0.329  1.00  0.00    -0.348 N 
HETATM   21  C10 UNL     1       4.545  -0.928   0.728  1.00  0.00     0.272 C 
HETATM   22  O2  UNL     1       4.448  -2.146   0.960  1.00  0.00    -0.266 OA
ATOM     23  H3  UNL     1       3.451   0.803   0.135  1.00  0.00     0.163 HD
BRANCH  21  24
HETATM   24  C11 UNL     1       5.830  -0.270   0.863  1.00  0.00     0.282 C 
BRANCH  24  25
HETATM   25  N4  UNL     1       5.894   0.965   0.662  1.00  0.00    -0.340 NA
BRANCH  25  26
HETATM   26  N5  UNL     1       5.956   2.187   0.769  1.00  0.00    -0.281 N 
ATOM     27  H52 UNL     1       5.949   2.144   1.788  1.00  0.00     0.191 HD
ATOM     28  H51 UNL     1       6.008   3.192   0.605  1.00  0.00     0.191 HD
ENDBRANCH  25  26
ENDBRANCH  24  25
ENDBRANCH  21  24
ENDBRANCH   3  20
BRANCH   6  29
HETATM   29  C14 UNL     1       1.082  -3.896  -2.707  1.00  0.00     0.294 C 
HETATM   30  O4  UNL     1       0.462  -4.938  -2.636  1.00  0.00    -0.302 OA
ENDBRANCH   6  29
TORSDOF 7
