REMARK  6 active torsions:
REMARK  status: ('A' for Active; 'I' for Inactive)
REMARK    1  A    between atoms: C2_2  and  N1_4 
REMARK       I    between atoms: N1_4  and  C4_6 
REMARK    2  A    between atoms: C4_6  and  C5_8 
REMARK       I    between atoms: N2_12  and  C9_13 
REMARK    3  A    between atoms: C9_13  and  C10_15 
REMARK    4  A    between atoms: C12_18  and  C13_19 
REMARK    5  A    between atoms: C13_19  and  N3_20 
REMARK    6  A    between atoms: N3_20  and  C15_22 
ROOT
HETATM    1  C5  UNL     1      -0.994  -0.714   1.723  1.00  0.00     0.184 C 
HETATM    2  C6  UNL     1      -2.079  -1.769   1.647  1.00  0.00     0.105 C 
HETATM    3  C7  UNL     1      -2.246  -2.088   0.176  1.00  0.00     0.182 C 
HETATM    4  C8  UNL     1      -1.034  -1.516  -0.469  1.00  0.00     0.195 C 
HETATM    5  N2  UNL     1      -0.177  -0.955   0.550  1.00  0.00    -0.332 N 
HETATM    6  C9  UNL     1       1.196  -0.704   0.402  1.00  0.00     0.254 C 
HETATM    7  O2  UNL     1       1.881  -0.206   1.361  1.00  0.00    -0.271 OA
HETATM    8  O5  UNL     1      -3.383  -1.475  -0.353  1.00  0.00    -0.351 OA
HETATM    9  C16 UNL     1      -3.950  -2.359  -1.251  1.00  0.00     0.198 C 
HETATM   10  C17 UNL     1      -3.025  -3.544  -1.248  1.00  0.00     0.198 C 
HETATM   11  O6  UNL     1      -2.407  -3.444   0.005  1.00  0.00    -0.351 OA
ENDROOT
BRANCH   1  12
HETATM   12  C4  UNL     1      -1.607   0.633   1.705  1.00  0.00     0.241 C 
HETATM   13  N1  UNL     1      -2.438   1.035   2.769  1.00  0.00    -0.355 N 
ATOM     14  H1  UNL     1      -2.592   0.374   3.530  1.00  0.00     0.162 HD
HETATM   15  O1  UNL     1      -1.412   1.443   0.767  1.00  0.00    -0.271 OA
BRANCH  13  16
HETATM   16  C2  UNL     1      -3.085   2.322   2.852  1.00  0.00     0.076 C 
HETATM   17  C1  UNL     1      -2.596   3.090   4.031  1.00  0.00     0.032 C 
HETATM   18  C3  UNL     1      -4.589   2.214   2.785  1.00  0.00     0.032 C 
ENDBRANCH  13  16
ENDBRANCH   1  12
BRANCH   6  19
HETATM   19  C10 UNL     1       1.900  -0.997  -0.844  1.00  0.00     0.303 C 
HETATM   20  C11 UNL     1       1.495  -0.064  -1.988  1.00  0.00     0.213 C 
HETATM   21  O3  UNL     1       2.612   0.012  -2.800  1.00  0.00    -0.355 OA
HETATM   22  C12 UNL     1       3.623  -0.733  -2.202  1.00  0.00     0.340 C 
HETATM   23  N4  UNL     1       3.330  -0.658  -0.760  1.00  0.00    -0.032 N 
ATOM     24  H42 UNL     1       3.572   0.211  -0.283  1.00  0.00     0.281 HD
ATOM     25  H41 UNL     1       3.905  -1.229  -0.141  1.00  0.00     0.281 HD
BRANCH  22  26
HETATM   26  C13 UNL     1       4.949  -0.179  -2.573  1.00  0.00     0.186 C 
BRANCH  26  27
HETATM   27  N3  UNL     1       5.206   1.166  -2.192  1.00  0.00    -0.359 N 
HETATM   28  C14 UNL     1       4.837   2.249  -3.075  1.00  0.00     0.152 C 
BRANCH  27  29
HETATM   29  C15 UNL     1       5.819   1.461  -0.960  1.00  0.00     0.350 C 
HETATM   30  O4  UNL     1       6.155   0.534  -0.190  1.00  0.00    -0.284 OA
ENDBRANCH  27  29
ENDBRANCH  26  27
ENDBRANCH  22  26
ENDBRANCH   6  19
TORSDOF 6
