REMARK  5 active torsions:
REMARK  status: ('A' for Active; 'I' for Inactive)
REMARK    1  A    between atoms: C3_5  and  C4_7 
REMARK    2  A    between atoms: C10_13  and  N3_14 
REMARK       I    between atoms: N3_14  and  C11_16 
REMARK    3  A    between atoms: C11_16  and  C12_18 
REMARK       I    between atoms: N4_23  and  C16_24 
REMARK    4  A    between atoms: C16_24  and  O4_26 
REMARK    5  A    between atoms: O4_26  and  C17_27 
ROOT
HETATM    1  C1  UNL     1      -0.539   6.713   0.808  1.00  0.00     0.037 C 
HETATM    2  C2  UNL     1      -0.418   5.603   0.343  1.00  0.00     0.000 C 
HETATM    3  N1  UNL     1      -0.257   4.337  -0.181  1.00  0.00    -0.307 N 
ATOM      4  H1  UNL     1      -0.214   4.205  -1.191  1.00  0.00     0.177 HD
HETATM    5  C3  UNL     1      -0.162   3.326   0.603  1.00  0.00     0.111 C 
HETATM    6  N2  UNL     1      -0.225   3.537   2.003  1.00  0.00    -0.086 NA
ENDROOT
BRANCH   5   7
HETATM    7  C4  UNL     1       0.015   1.929   0.068  1.00  0.00     0.035 C 
HETATM    8  C5  UNL     1       0.042   2.020  -1.422  1.00  0.00     0.024 C 
HETATM    9  C6  UNL     1      -0.175   0.726  -2.121  1.00  0.00    -0.003 C 
HETATM   10  C7  UNL     1       1.211   0.134  -2.426  1.00  0.00     0.031 C 
HETATM   11  C9  UNL     1      -0.389  -0.449  -1.225  1.00  0.00     0.035 C 
HETATM   12  C8  UNL     1       1.074  -0.565  -1.066  1.00  0.00     0.096 C 
HETATM   13  N4  UNL     1       1.671   0.205  -0.006  1.00  0.00    -0.322 N 
HETATM   14  C16 UNL     1       2.917  -0.325   0.434  1.00  0.00     0.363 C 
HETATM   15  C20 UNL     1       1.263   1.388   0.687  1.00  0.00     0.145 C 
HETATM   16  O3  UNL     1       3.531   0.252   1.347  1.00  0.00    -0.238 OA
HETATM   17  C10 UNL     1      -1.208  -0.254  -0.024  1.00  0.00     0.092 C 
HETATM   18  C15 UNL     1      -1.144   1.116   0.590  1.00  0.00     0.044 C 
BRANCH  14  19
HETATM   19  O4  UNL     1       3.474  -1.471  -0.124  1.00  0.00    -0.294 OA
BRANCH  19  20
HETATM   20  C17 UNL     1       4.715  -1.937   0.364  1.00  0.00     0.181 C 
HETATM   21  C18 UNL     1       4.674  -3.422   0.633  1.00  0.00     0.202 C 
HETATM   22  O5  UNL     1       5.950  -3.511   0.067  1.00  0.00    -0.386 OA
HETATM   23  C19 UNL     1       5.657  -2.422  -0.715  1.00  0.00     0.202 C 
ENDBRANCH  19  20
ENDBRANCH  14  19
BRANCH  17  24
HETATM   24  N3  UNL     1      -2.599  -0.513  -0.351  1.00  0.00    -0.356 N 
HETATM   25  C11 UNL     1      -3.351  -1.555   0.238  1.00  0.00     0.226 C 
HETATM   26  O1  UNL     1      -2.783  -2.290   1.085  1.00  0.00    -0.273 OA
ATOM     27  H3  UNL     1      -3.055   0.086  -1.039  1.00  0.00     0.162 HD
BRANCH  25  28
HETATM   28  C12 UNL     1      -4.753  -1.790  -0.113  1.00  0.00     0.125 C 
HETATM   29  C13 UNL     1      -5.021  -2.108  -1.566  1.00  0.00     0.183 C 
HETATM   30  O2  UNL     1      -5.986  -3.027  -1.148  1.00  0.00    -0.389 OA
HETATM   31  C14 UNL     1      -5.215  -3.212   0.018  1.00  0.00     0.183 C 
ENDBRANCH  25  28
ENDBRANCH  17  24
ENDBRANCH   5   7
TORSDOF 5
