REMARK  7 active torsions:
REMARK  status: ('A' for Active; 'I' for Inactive)
REMARK    1  A    between atoms: C3_9  and  N4_10 
REMARK    2  A    between atoms: N4_10  and  C4_12 
REMARK    3  A    between atoms: C4_12  and  C5_13 
REMARK    4  A    between atoms: C5_13  and  N5_14 
REMARK    5  A    between atoms: N5_14  and  C6_16 
REMARK    6  A    between atoms: C6_16  and  C7_20 
REMARK    7  A    between atoms: C9_25  and  N9_26 
ROOT
HETATM    1  C6  UNL     1      -1.335  -1.409  -0.537  1.00  0.00     0.126 C 
HETATM    2  N6  UNL     1      -0.816  -2.582  -0.678  1.00  0.00    -0.384 N 
ATOM      3  H61 UNL     1      -1.381  -3.424  -0.566  1.00  0.00     0.157 HD
ATOM      4  H62 UNL     1       0.175  -2.662  -0.905  1.00  0.00     0.157 HD
ENDROOT
BRANCH   1   5
HETATM    5  N5  UNL     1      -0.550  -0.240  -0.692  1.00  0.00    -0.373 N 
ATOM      6  H5  UNL     1      -0.865   0.537  -1.272  1.00  0.00     0.161 HD
BRANCH   5   7
HETATM    7  C5  UNL     1       0.718  -0.192   0.006  1.00  0.00     0.141 C 
BRANCH   7   8
HETATM    8  C4  UNL     1       1.448   1.109  -0.248  1.00  0.00     0.157 C 
BRANCH   8   9
HETATM    9  N4  UNL     1       2.698   1.090   0.473  1.00  0.00    -0.223 N 
ATOM     10  H4  UNL     1       2.733   1.533   1.391  1.00  0.00     0.177 HD
BRANCH   9  11
HETATM   11  C3  UNL     1       3.773   0.542   0.016  1.00  0.00     0.695 A 
HETATM   12  N3  UNL     1       3.745  -0.046  -1.193  1.00  0.00    -0.118 N 
HETATM   13  N2  UNL     1       4.883  -0.597  -1.618  1.00  0.00    -0.227 N 
ATOM     14  H3  UNL     1       2.896  -0.070  -1.757  1.00  0.00     0.207 HD
HETATM   15  N1  UNL     1       5.999  -0.582  -0.909  1.00  0.00    -0.274 N 
ATOM     16  H2  UNL     1       4.893  -1.051  -2.532  1.00  0.00     0.209 HD
HETATM   17  C2  UNL     1       6.047   0.002   0.303  1.00  0.00     0.109 A 
ATOM     18  H1  UNL     1       6.839  -1.021  -1.287  1.00  0.00     0.189 HD
HETATM   19  C1  UNL     1       7.298   0.032   1.126  1.00  0.00     0.091 C 
HETATM   20  N12 UNL     1       4.904   0.561   0.743  1.00  0.00    -0.178 N 
ATOM     21  H12 UNL     1       4.896   1.013   1.657  1.00  0.00     0.185 HD
ENDBRANCH   9  11
ENDBRANCH   8   9
ENDBRANCH   7   8
ENDBRANCH   5   7
ENDBRANCH   1   5
BRANCH   1  22
HETATM   22  C7  UNL     1      -2.749  -1.295  -0.213  1.00  0.00     0.122 A 
HETATM   23  N7  UNL     1      -3.654  -2.277  -0.028  1.00  0.00    -0.345 N 
HETATM   24  C8  UNL     1      -4.864  -1.745   0.258  1.00  0.00     0.209 A 
ATOM     25  H7  UNL     1      -3.455  -3.275  -0.094  1.00  0.00     0.167 HD
HETATM   26  N8  UNL     1      -4.745  -0.405   0.257  1.00  0.00    -0.126 N 
HETATM   27  C9  UNL     1      -5.608   0.601   0.473  1.00  0.00     0.685 A 
HETATM   28  C11 UNL     1      -3.451  -0.123  -0.031  1.00  0.00     0.161 A 
HETATM   29  N10 UNL     1      -5.215   1.889   0.409  1.00  0.00    -0.188 N 
HETATM   30  C10 UNL     1      -3.939   2.188   0.125  1.00  0.00     0.199 A 
ATOM     31  H10 UNL     1      -5.889   2.636   0.577  1.00  0.00     0.185 HD
HETATM   32  N11 UNL     1      -3.069   1.186  -0.092  1.00  0.00    -0.335 N 
ATOM     33  H11 UNL     1      -2.098   1.410  -0.308  1.00  0.00     0.168 HD
BRANCH  27  34
HETATM   34  N9  UNL     1      -6.829   0.330   0.745  1.00  0.00    -0.234 N 
ATOM     35  H92 UNL     1      -7.126  -0.644   0.793  1.00  0.00     0.174 HD
ATOM     36  H91 UNL     1      -7.484   1.094   0.909  1.00  0.00     0.174 HD
ENDBRANCH  27  34
ENDBRANCH   1  22
TORSDOF 7
