REMARK  12 active torsions:
REMARK  status: ('A' for Active; 'I' for Inactive)
REMARK    1  A    between atoms: C2_2  and  O1_4 
REMARK    2  A    between atoms: C2_2  and  C4_6 
REMARK    3  A    between atoms: C4_6  and  N1_7 
REMARK    4  A    between atoms: N1_7  and  C5_10 
REMARK    5  A    between atoms: C5_10  and  C7_12 
REMARK    6  A    between atoms: C5_10  and  C13_20 
REMARK    7  A    between atoms: C8_13  and  C9_14 
REMARK    8  A    between atoms: C9_14  and  C12_17 
REMARK    9  A    between atoms: C12_17  and  O2_18 
REMARK   10  A    between atoms: C13_20  and  S1_21 
REMARK   11  A    between atoms: S1_21  and  C14_22 
REMARK   12  A    between atoms: C15_25  and  N3_26 
ROOT
HETATM    1  C5  UNL     1       0.327   0.137   0.243  1.00  0.00     0.193 C 
HETATM    2  C6  UNL     1      -0.009   0.950  -0.966  1.00  0.00     0.061 C 
ENDROOT
BRANCH   1   3
HETATM    3  N1  UNL     1       1.628  -0.442   0.056  1.00  0.00    -0.052 N 
ATOM      4  H12 UNL     1       1.626  -1.071  -0.747  1.00  0.00     0.279 HD
ATOM      5  H11 UNL     1       1.831  -1.110   0.800  1.00  0.00     0.279 HD
BRANCH   3   6
HETATM    6  C4  UNL     1       2.679   0.506  -0.060  1.00  0.00     0.271 C 
BRANCH   6   7
HETATM    7  C2  UNL     1       4.038  -0.158  -0.231  1.00  0.00     0.074 C 
HETATM    8  C1  UNL     1       4.111  -0.953  -1.508  1.00  0.00     0.047 C 
HETATM    9  C3  UNL     1       5.071   0.948  -0.270  1.00  0.00     0.047 C 
BRANCH   7  10
HETATM   10  O1  UNL     1       4.336  -0.974   0.859  1.00  0.00    -0.389 OA
ATOM     11  H1  UNL     1       4.290  -0.473   1.665  1.00  0.00     0.210 HD
ENDBRANCH   7  10
ENDBRANCH   6   7
ENDBRANCH   3   6
ENDBRANCH   1   3
BRANCH   1  12
HETATM   12  C7  UNL     1      -0.622  -1.028   0.351  1.00  0.00    -0.066 C 
HETATM   13  C8  UNL     1      -1.397  -1.946   0.443  1.00  0.00    -0.092 C 
BRANCH  13  14
HETATM   14  C9  UNL     1      -2.357  -3.044   0.563  1.00  0.00     0.037 C 
HETATM   15  C10 UNL     1      -3.459  -2.569   1.482  1.00  0.00     0.031 C 
HETATM   16  C11 UNL     1      -1.640  -4.220   1.194  1.00  0.00     0.031 C 
BRANCH  14  17
HETATM   17  C12 UNL     1      -2.884  -3.476  -0.788  1.00  0.00     0.185 C 
BRANCH  17  18
HETATM   18  O2  UNL     1      -3.530  -2.476  -1.467  1.00  0.00    -0.399 OA
ATOM     19  H2  UNL     1      -3.861  -2.747  -2.315  1.00  0.00     0.209 HD
ENDBRANCH  17  18
ENDBRANCH  14  17
ENDBRANCH  13  14
ENDBRANCH   1  12
BRANCH   1  20
HETATM   20  C13 UNL     1       0.177   0.916   1.491  1.00  0.00     0.134 C 
BRANCH  20  21
HETATM   21  S1  UNL     1      -1.410   1.624   1.750  1.00  0.00    -0.089 SA
BRANCH  21  22
HETATM   22  C14 UNL     1      -1.803   3.098   0.865  1.00  0.00     0.174 A 
HETATM   23  N2  UNL     1      -3.073   3.619   0.735  1.00  0.00    -0.168 N 
HETATM   24  C15 UNL     1      -3.026   4.723  -0.010  1.00  0.00     0.692 A 
ATOM     25  H2  UNL     1      -3.918   3.221   1.145  1.00  0.00     0.186 HD
HETATM   26  N4  UNL     1      -1.764   4.926  -0.362  1.00  0.00    -0.130 N 
HETATM   27  N5  UNL     1      -1.046   3.949   0.167  1.00  0.00    -0.265 N 
ATOM     28  H4  UNL     1      -1.412   5.693  -0.935  1.00  0.00     0.205 HD
ATOM     29  H5  UNL     1      -0.036   3.857   0.055  1.00  0.00     0.189 HD
BRANCH  24  30
HETATM   30  N3  UNL     1      -4.020   5.498  -0.358  1.00  0.00    -0.233 N 
ATOM     31  H32 UNL     1      -4.991   5.342  -0.087  1.00  0.00     0.174 HD
ATOM     32  H31 UNL     1      -3.984   6.343  -0.928  1.00  0.00     0.174 HD
ENDBRANCH  24  30
ENDBRANCH  21  22
ENDBRANCH  20  21
ENDBRANCH   1  20
TORSDOF 12
