REMARK  8 active torsions:
REMARK  status: ('A' for Active; 'I' for Inactive)
REMARK    1  A    between atoms: C2_2  and  C4_4 
REMARK    2  A    between atoms: C4_4  and  S1_8 
REMARK    3  A    between atoms: S1_8  and  S2_11 
REMARK    4  A    between atoms: S2_11  and  C5_12 
REMARK    5  A    between atoms: C5_12  and  C6_13 
REMARK    6  A    between atoms: C6_13  and  O3_14 
REMARK    7  A    between atoms: C8_17  and  O4_18 
REMARK    8  A    between atoms: C11_22  and  O5_23 
ROOT
HETATM    1  C5  UNL     1      -1.284   0.313   0.275  1.00  0.00     0.072 C 
HETATM    2  C7  UNL     1      -1.995  -0.611  -0.727  1.00  0.00     0.058 C 
HETATM    3  C8  UNL     1      -3.382  -0.868  -0.233  1.00  0.00     0.120 C 
HETATM    4  C9  UNL     1      -4.200   0.371  -0.069  1.00  0.00     0.034 C 
HETATM    5  C10 UNL     1      -3.463   1.513   0.547  1.00  0.00     0.036 C 
HETATM    6  C11 UNL     1      -2.041   1.648   0.152  1.00  0.00     0.140 C 
ENDROOT
BRANCH   1   7
HETATM    7  S2  UNL     1       0.356   0.566  -0.067  1.00  0.00    -0.016 SA
BRANCH   7   8
HETATM    8  S1  UNL     1       1.448  -1.178  -0.114  1.00  0.00     0.242 S 
HETATM    9  O1  UNL     1       1.059  -2.222  -1.096  1.00  0.00    -0.210 OA
HETATM   10  O2  UNL     1       1.824  -1.728   1.222  1.00  0.00    -0.210 OA
BRANCH   8  11
HETATM   11  C4  UNL     1       2.850  -0.393  -0.777  1.00  0.00     0.113 C 
HETATM   12  N1  UNL     1       3.004  -0.306  -2.040  1.00  0.00    -0.392 N 
ATOM     13  H12 UNL     1       3.827   0.155  -2.429  1.00  0.00     0.156 HD
ATOM     14  H11 UNL     1       2.308  -0.696  -2.675  1.00  0.00     0.156 HD
BRANCH  11  15
HETATM   15  C2  UNL     1       3.869   0.178   0.152  1.00  0.00     0.040 C 
HETATM   16  C1  UNL     1       4.463  -0.884   1.047  1.00  0.00     0.016 C 
HETATM   17  C3  UNL     1       5.009   0.818  -0.619  1.00  0.00     0.016 C 
ENDBRANCH  11  15
ENDBRANCH   8  11
ENDBRANCH   7   8
ENDBRANCH   1   7
BRANCH   1  18
HETATM   18  C6  UNL     1      -1.531  -0.196   1.678  1.00  0.00     0.188 C 
BRANCH  18  19
HETATM   19  O3  UNL     1      -0.925  -1.400   1.947  1.00  0.00    -0.399 OA
ATOM     20  H3  UNL     1      -1.080  -1.720   2.828  1.00  0.00     0.209 HD
ENDBRANCH  18  19
ENDBRANCH   1  18
BRANCH   6  21
HETATM   21  O5  UNL     1      -1.400   2.526   1.032  1.00  0.00    -0.394 OA
ATOM     22  H5  UNL     1      -1.867   3.350   0.956  1.00  0.00     0.210 HD
ENDBRANCH   6  21
BRANCH   3  23
HETATM   23  O4  UNL     1      -4.047  -1.657  -1.202  1.00  0.00    -0.396 OA
ATOM     24  H4  UNL     1      -4.929  -1.820  -0.888  1.00  0.00     0.210 HD
ENDBRANCH   3  23
TORSDOF 8
