REMARK  3 active torsions:
REMARK  status: ('A' for Active; 'I' for Inactive)
REMARK    1  A    between atoms: N1_1  and  N2_4 
REMARK    2  A    between atoms: N2_4  and  C1_5 
REMARK    3  A    between atoms: C1_5  and  S1_6 
ROOT
HETATM    1  S1  UNL     1       0.314   0.591  -0.019  1.00  0.00    -0.115 SA
HETATM    2  C2  UNL     1      -1.074   0.196  -1.027  1.00  0.00     0.304 C 
HETATM    3  N3  UNL     1      -1.924   0.106   0.163  1.00  0.00    -0.059 N 
ATOM      4  H31 UNL     1      -2.667  -0.592   0.149  1.00  0.00     0.278 HD
ATOM      5  H32 UNL     1      -2.570   0.878   0.330  1.00  0.00     0.278 HD
HETATM    6  C3  UNL     1      -0.860  -0.084   1.134  1.00  0.00     0.304 C 
ENDROOT
BRANCH   1   7
HETATM    7  C1  UNL     1       1.687  -0.448  -0.168  1.00  0.00     0.246 C 
BRANCH   7   8
HETATM    8  N2  UNL     1       2.814  -0.012   0.143  1.00  0.00    -0.340 NA
BRANCH   8   9
HETATM    9  N1  UNL     1       3.873   0.405   0.662  1.00  0.00    -0.280 N 
ATOM     10  H12 UNL     1       3.447   0.273   1.579  1.00  0.00     0.191 HD
ATOM     11  H11 UNL     1       4.794   0.761   0.916  1.00  0.00     0.191 HD
ENDBRANCH   8   9
ENDBRANCH   7   8
ENDBRANCH   1   7
TORSDOF 3
