REMARK  14 active torsions:
REMARK  status: ('A' for Active; 'I' for Inactive)
REMARK    1  A    between atoms: O1_2  and  C2_3 
REMARK    2  A    between atoms: C2_3  and  O2_4 
REMARK    3  A    between atoms: O2_4  and  C3_5 
REMARK    4  A    between atoms: C3_5  and  C4_7 
REMARK    5  A    between atoms: C8_13  and  N2_14 
REMARK    6  A    between atoms: N2_14  and  C9_16 
REMARK    7  A    between atoms: C9_16  and  O4_17 
REMARK    8  A    between atoms: C9_16  and  C10_19 
REMARK    9  A    between atoms: N5_24  and  C11_25 
REMARK   10  A    between atoms: C13_30  and  N8_31 
REMARK   11  A    between atoms: C14_36  and  N10_37 
REMARK   12  A    between atoms: N12_42  and  O5_43 
REMARK   13  A    between atoms: C15_45  and  N13_46 
REMARK   14  A    between atoms: C16_53  and  O6_54 
ROOT
HETATM    1  N2  UNL     1      -0.617   0.210   0.266  1.00  0.00    -0.356 N 
ATOM      2  H2  UNL     1      -0.456   1.217   0.288  1.00  0.00     0.162 HD
ENDROOT
BRANCH   1   3
HETATM    3  C8  UNL     1      -1.929  -0.286   0.197  1.00  0.00     0.066 A 
HETATM    4  C4  UNL     1      -3.067   0.485   0.082  1.00  0.00     0.135 A 
HETATM    5  N1  UNL     1      -4.311  -0.087   0.041  1.00  0.00    -0.347 N 
HETATM    6  C5  UNL     1      -4.436  -1.405   0.112  1.00  0.00     0.096 A 
ATOM      7  H1  UNL     1      -5.140   0.501  -0.044  1.00  0.00     0.166 HD
HETATM    8  C6  UNL     1      -3.349  -2.243   0.228  1.00  0.00     0.090 A 
HETATM    9  C16 UNL     1      -5.785  -2.079   0.062  1.00  0.00     0.376 C 
HETATM   10  C7  UNL     1      -2.116  -1.680   0.269  1.00  0.00     0.065 A 
HETATM   11  N12 UNL     1      -3.588  -3.639   0.301  1.00  0.00    -0.203 N 
HETATM   12  C15 UNL     1      -4.857  -4.190   0.732  1.00  0.00     0.512 C 
HETATM   13  N14 UNL     1      -5.812  -3.132   1.020  1.00  0.00     0.005 N 
ATOM     14 2H14 UNL     1      -6.754  -3.510   1.118  1.00  0.00     0.285 HD
ATOM     15 1H14 UNL     1      -5.678  -2.768   1.964  1.00  0.00     0.285 HD
BRANCH   4  16
HETATM   16  C3  UNL     1      -3.019   1.924  -0.013  1.00  0.00     0.314 C 
HETATM   17  O3  UNL     1      -4.140   2.541  -0.114  1.00  0.00    -0.257 OA
BRANCH  16  18
HETATM   18  O2  UNL     1      -1.927   2.718  -0.009  1.00  0.00    -0.290 OA
BRANCH  18  19
HETATM   19  C2  UNL     1      -1.919   4.120  -0.104  1.00  0.00     0.347 C 
BRANCH  19  20
HETATM   20  O1  UNL     1      -2.506   4.565  -1.295  1.00  0.00    -0.371 OA
HETATM   21  C1  UNL     1      -2.475   5.946  -1.343  1.00  0.00     0.204 C 
ENDBRANCH  19  20
ENDBRANCH  18  19
ENDBRANCH  16  18
ENDBRANCH   4  16
BRANCH  11  22
HETATM   22  O5  UNL     1      -2.603  -4.488  -0.038  1.00  0.00    -0.284 OA
ATOM     23  H5  UNL     1      -2.763  -5.423   0.011  1.00  0.00     0.245 HD
ENDBRANCH  11  22
BRANCH  12  24
HETATM   24  N13 UNL     1      -4.617  -4.898   1.976  1.00  0.00    -0.030 N 
ATOM     25 3H13 UNL     1      -3.881  -5.601   1.900  1.00  0.00     0.279 HD
ATOM     26 2H13 UNL     1      -4.172  -4.317   2.687  1.00  0.00     0.279 HD
ATOM     27 1H13 UNL     1      -5.510  -5.286   2.279  1.00  0.00     0.279 HD
ENDBRANCH  12  24
BRANCH   9  28
HETATM   28  O6  UNL     1      -5.933  -2.532  -1.255  1.00  0.00    -0.365 OA
ATOM     29  H6  UNL     1      -6.782  -2.956  -1.286  1.00  0.00     0.212 HD
ENDBRANCH   9  28
ENDBRANCH   1   3
BRANCH   1  30
HETATM   30  C9  UNL     1       0.508  -0.701   0.306  1.00  0.00     0.290 C 
BRANCH  30  31
HETATM   31  O4  UNL     1       0.581  -1.441  -0.876  1.00  0.00    -0.369 OA
ATOM     32  H4  UNL     1       1.319  -2.039  -0.850  1.00  0.00     0.212 HD
ENDBRANCH  30  31
BRANCH  30  33
HETATM   33  C10 UNL     1       1.793   0.001   0.521  1.00  0.00     0.163 A 
HETATM   34  N3  UNL     1       2.080   0.985   1.405  1.00  0.00    -0.268 N 
HETATM   35  N4  UNL     1       3.346   1.297   1.234  1.00  0.00    -0.219 N 
ATOM     36  H3  UNL     1       1.437   1.405   2.076  1.00  0.00     0.190 HD
HETATM   37  N5  UNL     1       3.887   0.558   0.280  1.00  0.00    -0.174 N 
ATOM     38  H4  UNL     1       3.843   2.012   1.765  1.00  0.00     0.210 HD
HETATM   39  N11 UNL     1       2.932  -0.227  -0.147  1.00  0.00    -0.261 N 
ATOM     40  H11 UNL     1       3.040  -0.919  -0.888  1.00  0.00     0.190 HD
BRANCH  37  41
HETATM   41  C11 UNL     1       5.244   0.684  -0.115  1.00  0.00     0.162 A 
HETATM   42  C12 UNL     1       6.247  -0.152   0.380  1.00  0.00     0.166 A 
HETATM   43  N6  UNL     1       5.845  -1.140   1.301  1.00  0.00    -0.079 NA
HETATM   44  N7  UNL     1       7.527  -0.013  -0.008  1.00  0.00    -0.177 N 
HETATM   45  C13 UNL     1       7.876   0.940  -0.889  1.00  0.00     0.678 A 
ATOM     46  H7  UNL     1       8.240  -0.637   0.370  1.00  0.00     0.185 HD
HETATM   47  N9  UNL     1       6.915   1.742  -1.364  1.00  0.00    -0.175 N 
HETATM   48  C14 UNL     1       5.629   1.650  -1.013  1.00  0.00     0.148 A 
ATOM     49  H9  UNL     1       7.180   2.465  -2.033  1.00  0.00     0.186 HD
BRANCH  45  50
HETATM   50  N8  UNL     1       9.117   1.086  -1.276  1.00  0.00    -0.234 N 
ATOM     51  H82 UNL     1       9.849   0.475  -0.914  1.00  0.00     0.174 HD
ATOM     52  H81 UNL     1       9.382   1.809  -1.945  1.00  0.00     0.174 HD
ENDBRANCH  45  50
BRANCH  48  53
HETATM   53  N10 UNL     1       4.733   2.465  -1.513  1.00  0.00    -0.383 N 
ATOM     54 2H10 UNL     1       3.751   2.395  -1.245  1.00  0.00     0.157 HD
ATOM     55 1H10 UNL     1       5.019   3.182  -2.180  1.00  0.00     0.157 HD
ENDBRANCH  48  53
ENDBRANCH  37  41
ENDBRANCH  30  33
ENDBRANCH   1  30
TORSDOF 14
