REMARK  18 active torsions:
REMARK  status: ('A' for Active; 'I' for Inactive)
REMARK    1  A    between atoms: N1_1  and  C1_4 
REMARK    2  A    between atoms: C2_8  and  O2_9 
REMARK    3  A    between atoms: C3_11  and  N3_12 
REMARK    4  A    between atoms: N3_12  and  C4_14 
REMARK    5  A    between atoms: C4_14  and  C5_15 
REMARK    6  A    between atoms: C4_14  and  C9_33 
REMARK    7  A    between atoms: C5_15  and  O3_16 
REMARK    8  A    between atoms: O3_16  and  N4_17 
REMARK    9  A    between atoms: C6_22  and  C7_23 
REMARK   10  A    between atoms: C7_23  and  O4_24 
REMARK   11  A    between atoms: C7_23  and  C8_26 
REMARK   12  A    between atoms: C8_26  and  O5_27 
REMARK   13  A    between atoms: C8_26  and  O6_29 
REMARK   14  A    between atoms: C10_34  and  O7_35 
REMARK   15  A    between atoms: N8_37  and  C11_38 
REMARK   16  A    between atoms: C11_38  and  O8_39 
REMARK   17  A    between atoms: C11_38  and  O9_41 
REMARK   18  A    between atoms: C14_49  and  N11_50 
ROOT
HETATM    1  C4  UNL     1      -0.972   1.198   0.105  1.00  0.00     0.055 C 
ENDROOT
BRANCH   1   2
HETATM    2  N3  UNL     1      -1.518   2.370   0.383  1.00  0.00    -0.350 N 
ATOM      3  H3  UNL     1      -2.504   2.419   0.638  1.00  0.00     0.166 HD
BRANCH   2   4
HETATM    4  C3  UNL     1      -0.750   3.557   0.331  1.00  0.00     0.139 A 
HETATM    5  C1  UNL     1      -0.624   4.393  -0.755  1.00  0.00     0.151 A 
HETATM    6  N2  UNL     1       0.192   5.386  -0.360  1.00  0.00    -0.240 N 
HETATM    7  O1  UNL     1       0.545   5.184   0.874  1.00  0.00    -0.208 OA
ATOM      8  H2  UNL     1       0.487   6.173  -0.938  1.00  0.00     0.196 HD
HETATM    9  C2  UNL     1       0.007   4.093   1.348  1.00  0.00     0.235 A 
BRANCH   5  10
HETATM   10  N1  UNL     1      -1.186   4.246  -1.931  1.00  0.00    -0.382 N 
ATOM     11  H12 UNL     1      -1.093   4.866  -2.736  1.00  0.00     0.157 HD
ATOM     12  H11 UNL     1      -1.805   3.493  -2.231  1.00  0.00     0.157 HD
ENDBRANCH   5  10
BRANCH   9  13
HETATM   13  O2  UNL     1       0.161   3.555   2.644  1.00  0.00    -0.338 OA
ATOM     14  H2  UNL     1      -0.230   2.761   2.989  1.00  0.00     0.220 HD
ENDBRANCH   9  13
ENDBRANCH   2   4
ENDBRANCH   1   2
BRANCH   1  15
HETATM   15  C5  UNL     1       0.452   1.114  -0.265  1.00  0.00     0.263 C 
BRANCH  15  16
HETATM   16  O3  UNL     1       1.251   0.546   0.751  1.00  0.00    -0.236 OA
BRANCH  16  17
HETATM   17  N4  UNL     1       2.596   0.366   0.646  1.00  0.00    -0.076 N 
HETATM   18  N5  UNL     1       3.499   0.357   1.592  1.00  0.00    -0.199 N 
HETATM   19  N6  UNL     1       4.674   0.150   1.050  1.00  0.00    -0.268 N 
ATOM     20  H5  UNL     1       3.319   0.489   2.587  1.00  0.00     0.212 HD
HETATM   21  C6  UNL     1       4.523   0.023  -0.273  1.00  0.00     0.149 A 
ATOM     22  H6  UNL     1       5.559   0.095   1.554  1.00  0.00     0.190 HD
HETATM   23  N7  UNL     1       3.212   0.163  -0.497  1.00  0.00    -0.242 N 
ATOM     24  H7  UNL     1       2.761   0.119  -1.411  1.00  0.00     0.192 HD
BRANCH  21  25
HETATM   25  C7  UNL     1       5.544  -0.220  -1.323  1.00  0.00     0.243 C 
BRANCH  25  26
HETATM   26  O4  UNL     1       6.658   0.591  -1.132  1.00  0.00    -0.383 OA
ATOM     27  H4  UNL     1       7.311   0.436  -1.804  1.00  0.00     0.210 HD
ENDBRANCH  25  26
BRANCH  25  28
HETATM   28  C8  UNL     1       5.937  -1.673  -1.310  1.00  0.00     0.290 C 
BRANCH  28  29
HETATM   29  O5  UNL     1       6.848  -1.968  -2.310  1.00  0.00    -0.368 OA
ATOM     30  H5  UNL     1       7.096  -2.885  -2.302  1.00  0.00     0.212 HD
ENDBRANCH  28  29
BRANCH  28  31
HETATM   31  O6  UNL     1       6.517  -1.929  -0.062  1.00  0.00    -0.368 OA
ATOM     32  H6  UNL     1       6.765  -2.846  -0.054  1.00  0.00     0.212 HD
ENDBRANCH  28  31
ENDBRANCH  25  28
ENDBRANCH  21  25
ENDBRANCH  16  17
ENDBRANCH  15  16
ENDBRANCH   1  15
BRANCH   1  33
HETATM   33  C9  UNL     1      -1.796   0.003   0.196  1.00  0.00     0.091 A 
HETATM   34  C10 UNL     1      -3.131   0.159   0.586  1.00  0.00     0.164 A 
HETATM   35  N8  UNL     1      -3.971  -0.859   0.690  1.00  0.00    -0.261 N 
HETATM   36  C12 UNL     1      -3.548  -2.110   0.415  1.00  0.00     0.132 A 
HETATM   37  N9  UNL     1      -4.386  -3.165   0.515  1.00  0.00    -0.337 N 
HETATM   38  C15 UNL     1      -2.252  -2.369   0.024  1.00  0.00     0.103 A 
HETATM   39  C13 UNL     1      -3.979  -4.431   0.243  1.00  0.00     0.183 A 
ATOM     40  H9  UNL     1      -5.351  -3.006   0.803  1.00  0.00     0.168 HD
HETATM   41  N10 UNL     1      -2.703  -4.647  -0.138  1.00  0.00    -0.338 N 
HETATM   42  C14 UNL     1      -1.812  -3.645  -0.259  1.00  0.00     0.117 A 
ATOM     43  H10 UNL     1      -2.403  -5.601  -0.341  1.00  0.00     0.168 HD
HETATM   44  C16 UNL     1      -1.387  -1.272  -0.078  1.00  0.00     0.206 A 
HETATM   45  O10 UNL     1      -0.208  -1.508  -0.437  1.00  0.00    -0.286 OA
BRANCH  34  46
HETATM   46  O7  UNL     1      -3.640   1.436   0.887  1.00  0.00    -0.345 OA
ATOM     47  H7  UNL     1      -4.546   1.542   1.152  1.00  0.00     0.219 HD
ENDBRANCH  34  46
BRANCH  35  48
HETATM   48  C11 UNL     1      -5.348  -0.644   1.099  1.00  0.00     0.375 C 
BRANCH  48  49
HETATM   49  O8  UNL     1      -5.476  -1.176   2.381  1.00  0.00    -0.354 OA
ATOM     50  H8  UNL     1      -6.377  -1.035   2.649  1.00  0.00     0.214 HD
ENDBRANCH  48  49
BRANCH  48  51
HETATM   51  O9  UNL     1      -6.236  -1.301   0.251  1.00  0.00    -0.354 OA
ATOM     52  H9  UNL     1      -7.137  -1.160   0.519  1.00  0.00     0.214 HD
ENDBRANCH  48  51
ENDBRANCH  35  48
BRANCH  42  53
HETATM   53  N11 UNL     1      -0.582  -3.831  -0.623  1.00  0.00    -0.385 N 
ATOM     54 2H11 UNL     1      -0.257  -4.775  -0.832  1.00  0.00     0.157 HD
ATOM     55 1H11 UNL     1       0.093  -3.072  -0.715  1.00  0.00     0.157 HD
ENDBRANCH  42  53
ENDBRANCH   1  33
TORSDOF 18
