REMARK  10 active torsions:
REMARK  status: ('A' for Active; 'I' for Inactive)
REMARK    1  A    between atoms: C3_6  and  N3_7 
REMARK    2  A    between atoms: N3_7  and  C4_9 
REMARK    3  A    between atoms: C4_9  and  C5_10 
REMARK    4  A    between atoms: C8_21  and  N7_22 
REMARK    5  A    between atoms: N7_22  and  C9_24 
REMARK    6  A    between atoms: C9_24  and  C10_25 
REMARK    7  A    between atoms: C10_25  and  C11_26 
REMARK    8  A    between atoms: C11_26  and  N8_27 
REMARK    9  A    between atoms: N8_27  and  C12_29 
REMARK   10  A    between atoms: C12_29  and  C13_30 
ROOT
HETATM    1  N1  UNL     1       2.846  -5.149  -2.049  1.00  0.00    -0.190 NA
HETATM    2  C1  UNL     1       2.774  -4.100  -1.576  1.00  0.00     0.120 C 
HETATM    3  C2  UNL     1       2.695  -2.771  -0.996  1.00  0.00     0.155 A 
HETATM    4  N2  UNL     1       3.704  -2.238  -0.313  1.00  0.00    -0.180 N 
ATOM      5  H2  UNL     1       4.548  -2.801  -0.207  1.00  0.00     0.185 HD
HETATM    6  C3  UNL     1       3.700  -1.032   0.242  1.00  0.00     0.681 A 
HETATM    7  N6  UNL     1       2.566  -0.288   0.094  1.00  0.00    -0.175 N 
ATOM      8  H6  UNL     1       2.536   0.643   0.510  1.00  0.00     0.186 HD
HETATM    9  C8  UNL     1       1.492  -0.725  -0.573  1.00  0.00     0.141 A 
HETATM   10  C18 UNL     1       1.540  -1.999  -1.140  1.00  0.00     0.116 A 
HETATM   11 CL1  UNL     1       0.169  -2.633  -2.025  1.00  0.00    -0.077 Cl
ENDROOT
BRANCH   6  12
HETATM   12  N3  UNL     1       4.641  -0.500   0.899  1.00  0.00    -0.220 N 
ATOM     13  H3  UNL     1       4.450   0.439   1.248  1.00  0.00     0.178 HD
BRANCH  12  14
HETATM   14  C4  UNL     1       5.924  -1.016   1.223  1.00  0.00     0.204 C 
BRANCH  14  15
HETATM   15  C5  UNL     1       6.993   0.001   0.916  1.00  0.00     0.090 A 
HETATM   16  C6  UNL     1       8.287  -0.056   1.404  1.00  0.00     0.126 A 
HETATM   17  N4  UNL     1       8.914   1.020   0.903  1.00  0.00    -0.330 N 
HETATM   18  C7  UNL     1       8.040   1.726   0.128  1.00  0.00     0.222 A 
ATOM     19  H4  UNL     1       9.888   1.270   1.074  1.00  0.00     0.168 HD
HETATM   20  N5  UNL     1       8.351   2.813  -0.490  1.00  0.00    -0.365 N 
HETATM   21  O1  UNL     1       6.925   1.074   0.176  1.00  0.00    -0.281 OA
ATOM     22  H52 UNL     1       9.231   3.328  -0.528  1.00  0.00     0.159 HD
ATOM     23  H51 UNL     1       7.698   3.341  -1.069  1.00  0.00     0.159 HD
ENDBRANCH  14  15
ENDBRANCH  12  14
ENDBRANCH   6  12
BRANCH   9  24
HETATM   24  N7  UNL     1       0.401  -0.067  -0.739  1.00  0.00    -0.374 N 
ATOM     25  H7  UNL     1      -0.337  -0.529  -1.270  1.00  0.00     0.161 HD
BRANCH  24  26
HETATM   26  C9  UNL     1       0.118   1.249  -0.253  1.00  0.00     0.123 C 
BRANCH  26  27
HETATM   27  C10 UNL     1      -0.792   1.096   0.953  1.00  0.00     0.039 C 
BRANCH  27  28
HETATM   28  C11 UNL     1      -2.100   0.394   0.507  1.00  0.00     0.120 C 
BRANCH  28  29
HETATM   29  N8  UNL     1      -2.675   1.228  -0.467  1.00  0.00    -0.402 N 
ATOM     30  H8  UNL     1      -2.235   2.128  -0.661  1.00  0.00     0.158 HD
BRANCH  29  31
HETATM   31  C12 UNL     1      -3.821   0.879  -1.180  1.00  0.00     0.061 C 
BRANCH  31  32
HETATM   32  C13 UNL     1      -5.086   0.833  -0.406  1.00  0.00     0.049 C 
HETATM   33  C14 UNL     1      -5.193  -0.131   0.709  1.00  0.00     0.013 C 
HETATM   34  C15 UNL     1      -6.533  -0.849   0.747  1.00  0.00     0.028 C 
HETATM   35  C16 UNL     1      -7.686   0.078   0.486  1.00  0.00     0.232 C 
HETATM   36  N9  UNL     1      -7.452   1.020  -0.557  1.00  0.00    -0.074 N 
HETATM   37  C17 UNL     1      -6.294   0.614  -1.339  1.00  0.00     0.242 C 
ATOM     38  H92 UNL     1      -8.278   1.160  -1.139  1.00  0.00     0.277 HD
ATOM     39  H91 UNL     1      -7.359   1.971  -0.201  1.00  0.00     0.277 HD
ENDBRANCH  31  32
ENDBRANCH  29  31
ENDBRANCH  28  29
ENDBRANCH  27  28
ENDBRANCH  26  27
ENDBRANCH  24  26
ENDBRANCH   9  24
TORSDOF 10
