REMARK  5 active torsions:
REMARK  status: ('A' for Active; 'I' for Inactive)
REMARK    1  A    between atoms: C2_2  and  C4_4 
REMARK    2  A    between atoms: C4_4  and  N1_5 
REMARK    3  A    between atoms: C5_8  and  C6_9 
REMARK    4  A    between atoms: C9_14  and  N3_15 
REMARK    5  A    between atoms: C10_20  and  N5_21 
ROOT
HETATM    1  N1  UNL     1       0.597  -0.517   0.515  1.00  0.00    -0.275 N 
HETATM    2  N2  UNL     1       0.017  -1.620   0.163  1.00  0.00    -0.297 N 
ATOM      3  H2  UNL     1       0.476  -2.530   0.201  1.00  0.00     0.187 HD
HETATM    4  C5  UNL     1      -1.263  -1.448  -0.262  1.00  0.00     0.082 A 
HETATM    5  C8  UNL     1      -1.471  -0.095  -0.154  1.00  0.00     0.081 A 
HETATM    6  C9  UNL     1      -2.516   0.736  -0.416  1.00  0.00     0.131 A 
HETATM    7  N4  UNL     1      -2.426   2.081  -0.209  1.00  0.00    -0.176 N 
ATOM      8  H4  UNL     1      -3.217   2.692  -0.410  1.00  0.00     0.186 HD
HETATM    9  C10 UNL     1      -1.283   2.581   0.262  1.00  0.00     0.679 A 
HETATM   10  N6  UNL     1      -0.232   1.793   0.530  1.00  0.00    -0.174 N 
ATOM     11  H6  UNL     1       0.627   2.210   0.888  1.00  0.00     0.186 HD
HETATM   12  C11 UNL     1      -0.289   0.459   0.335  1.00  0.00     0.153 A 
ENDROOT
BRANCH   1  13
HETATM   13  C4  UNL     1       1.968  -0.399   1.001  1.00  0.00     0.154 C 
BRANCH  13  14
HETATM   14  C2  UNL     1       2.981  -0.219  -0.076  1.00  0.00    -0.003 C 
HETATM   15  C1  UNL     1       4.340  -0.113   0.613  1.00  0.00     0.011 C 
HETATM   16  C3  UNL     1       2.814   0.986  -0.935  1.00  0.00     0.011 C 
ENDBRANCH  13  14
ENDBRANCH   1  13
BRANCH   4  17
HETATM   17  C6  UNL     1      -2.172  -2.506  -0.688  1.00  0.00     0.154 C 
HETATM   18  C7  UNL     1      -3.406  -2.712   0.122  1.00  0.00     0.057 C 
HETATM   19 CL1  UNL     1      -2.564  -2.375  -2.450  1.00  0.00    -0.095 Cl
HETATM   20 CL2  UNL     1      -1.277  -4.075  -0.634  1.00  0.00    -0.095 Cl
ENDBRANCH   4  17
BRANCH   6  21
HETATM   21  N3  UNL     1      -3.590   0.253  -0.879  1.00  0.00    -0.384 N 
ATOM     22  H32 UNL     1      -3.657  -0.753  -1.034  1.00  0.00     0.157 HD
ATOM     23  H31 UNL     1      -4.373   0.876  -1.075  1.00  0.00     0.157 HD
ENDBRANCH   6  21
BRANCH   9  24
HETATM   24  N5  UNL     1      -1.177   3.840   0.465  1.00  0.00    -0.234 N 
ATOM     25  H52 UNL     1      -1.977   4.440   0.261  1.00  0.00     0.174 HD
ATOM     26  H51 UNL     1      -0.303   4.222   0.825  1.00  0.00     0.174 HD
ENDBRANCH   9  24
TORSDOF 5
