REMARK  6 active torsions:
REMARK  status: ('A' for Active; 'I' for Inactive)
REMARK    1  A    between atoms: C2_2  and  C4_4 
REMARK    2  A    between atoms: C4_4  and  N1_5 
REMARK    3  A    between atoms: N1_5  and  C5_7 
REMARK    4  A    between atoms: C5_7  and  N2_9 
REMARK    5  A    between atoms: N2_9  and  N3_11 
REMARK       I    between atoms: N3_11  and  C6_13 
REMARK       I    between atoms: C6_13  and  N6_21 
REMARK       I    between atoms: N4_14  and  C7_16 
REMARK       I    between atoms: C7_16  and  N5_18 
REMARK    6  A    between atoms: N6_21  and  C10_23 
ROOT
HETATM    1  N3  UNL     1      -0.082   0.173  -0.516  1.00  0.00    -0.130 N 
ATOM      2  H3  UNL     1       0.099  -0.813  -0.705  1.00  0.00     0.205 HD
HETATM    3  C6  UNL     1      -1.306   0.810  -0.945  1.00  0.00     0.696 C 
HETATM    4  N4  UNL     1      -2.357   0.110  -1.003  1.00  0.00    -0.140 N 
ATOM      5  H4  UNL     1      -3.192   0.607  -1.313  1.00  0.00     0.189 HD
HETATM    6  C7  UNL     1      -2.545  -1.239  -0.707  1.00  0.00     0.336 C 
HETATM    7  O1  UNL     1      -1.912  -2.092  -1.400  1.00  0.00    -0.246 OA
HETATM    8  N5  UNL     1      -3.400  -1.725   0.319  1.00  0.00    -0.342 N 
HETATM    9  C8  UNL     1      -4.138  -0.779   1.117  1.00  0.00     0.154 C 
HETATM   10  C9  UNL     1      -3.525  -3.146   0.557  1.00  0.00     0.154 C 
HETATM   11  N6  UNL     1      -1.243   2.184  -1.273  1.00  0.00    -0.225 N 
ATOM     12  H6  UNL     1      -0.441   2.572  -1.771  1.00  0.00     0.177 HD
ENDROOT
BRANCH   1  13
HETATM   13  N2  UNL     1       0.833   0.957   0.162  1.00  0.00    -0.262 N 
ATOM     14  H2  UNL     1       0.663   1.958   0.254  1.00  0.00     0.190 HD
BRANCH  13  15
HETATM   15  C5  UNL     1       2.007   0.393   0.733  1.00  0.00     0.187 C 
HETATM   16  S1  UNL     1       3.058   1.381   1.550  1.00  0.00    -0.040 SA
BRANCH  15  17
HETATM   17  N1  UNL     1       2.255  -0.982   0.618  1.00  0.00    -0.362 N 
ATOM     18  H1  UNL     1       1.582  -1.574   0.131  1.00  0.00     0.162 HD
BRANCH  17  19
HETATM   19  C4  UNL     1       3.447  -1.574   1.177  1.00  0.00     0.155 C 
BRANCH  19  20
HETATM   20  C2  UNL     1       4.621  -1.147   0.405  1.00  0.00    -0.075 C 
HETATM   21  C1  UNL     1       5.654  -0.519   0.921  1.00  0.00     0.015 C 
HETATM   22  C3  UNL     1       4.599  -1.460  -1.061  1.00  0.00     0.044 C 
ENDBRANCH  19  20
ENDBRANCH  17  19
ENDBRANCH  15  17
ENDBRANCH  13  15
ENDBRANCH   1  13
BRANCH  11  23
HETATM   23  C10 UNL     1      -2.355   3.021  -0.878  1.00  0.00     0.134 C 
HETATM   24  C11 UNL     1      -2.191   4.455  -1.264  1.00  0.00     0.027 C 
ENDBRANCH  11  23
TORSDOF 6
