REMARK  4 active torsions:
REMARK  status: ('A' for Active; 'I' for Inactive)
REMARK    1  A    between atoms: C2_2  and  C4_4 
REMARK    2  A    between atoms: C4_4  and  C5_5 
REMARK    3  A    between atoms: C5_5  and  N1_6 
REMARK       I    between atoms: N1_6  and  C6_8 
REMARK       I    between atoms: C6_8  and  N2_10 
REMARK       I    between atoms: N3_12  and  C8_14 
REMARK       I    between atoms: C8_14  and  N5_18 
REMARK    4  A    between atoms: N5_18  and  N6_20 
ROOT
HETATM    1  N1  UNL     1       1.605  -0.665  -0.868  1.00  0.00    -0.343 N 
ATOM      2  H1  UNL     1       1.560  -1.242  -0.028  1.00  0.00     0.164 HD
HETATM    3  C6  UNL     1       0.481   0.112  -1.314  1.00  0.00     0.324 C 
HETATM    4  O1  UNL     1       0.625   0.814  -2.384  1.00  0.00    -0.247 OA
HETATM    5  N2  UNL     1      -0.765   0.165  -0.671  1.00  0.00    -0.275 N 
HETATM    6  C7  UNL     1      -1.941   0.945  -1.072  1.00  0.00     0.106 C 
HETATM    7  N3  UNL     1      -2.472   1.326  -2.163  1.00  0.00    -0.179 N 
ATOM      8  H3  UNL     1      -2.026   1.062  -3.042  1.00  0.00     0.185 HD
HETATM    9  C8  UNL     1      -3.649   2.096  -2.209  1.00  0.00     0.693 C 
HETATM   10  N4  UNL     1      -4.785   1.603  -2.606  1.00  0.00    -0.233 N 
ATOM     11  H41 UNL     1      -5.638   2.161  -2.639  1.00  0.00     0.174 HD
ATOM     12  H42 UNL     1      -4.793   0.623  -2.887  1.00  0.00     0.174 HD
HETATM   13  N5  UNL     1      -3.638   3.458  -1.818  1.00  0.00    -0.118 N 
ATOM     14  H5  UNL     1      -3.522   4.168  -2.541  1.00  0.00     0.207 HD
HETATM   15  C9  UNL     1      -2.241   1.089   0.376  1.00  0.00     0.111 C 
HETATM   16  C10 UNL     1      -1.515  -0.288   0.396  1.00  0.00     0.078 C 
HETATM   17  C11 UNL     1      -2.526  -1.412   0.223  1.00  0.00     0.137 C 
HETATM   18  C12 UNL     1      -3.155  -1.365   1.599  1.00  0.00     0.220 C 
HETATM   19  O2  UNL     1      -4.209  -1.963   1.922  1.00  0.00    -0.274 OA
HETATM   20  N8  UNL     1      -2.356  -0.533   2.466  1.00  0.00    -0.354 N 
ATOM     21  H8  UNL     1      -2.623  -0.050   3.324  1.00  0.00     0.162 HD
HETATM   22  C13 UNL     1      -1.028  -0.568   1.770  1.00  0.00     0.110 C 
HETATM   23  C14 UNL     1      -0.541  -1.969   2.015  1.00  0.00     0.035 C 
ENDROOT
BRANCH   1  24
HETATM   24  C5  UNL     1       2.798  -0.585  -1.670  1.00  0.00     0.125 C 
BRANCH  24  25
HETATM   25  C4  UNL     1       3.963  -1.369  -1.209  1.00  0.00     0.023 C 
BRANCH  25  26
HETATM   26  C2  UNL     1       4.538  -1.030   0.123  1.00  0.00    -0.021 C 
HETATM   27  C1  UNL     1       5.011   0.407   0.210  1.00  0.00     0.009 C 
HETATM   28  C3  UNL     1       3.753  -1.441   1.318  1.00  0.00     0.009 C 
ENDBRANCH  25  26
ENDBRANCH  24  25
ENDBRANCH   1  24
BRANCH  13  29
HETATM   29  N6  UNL     1      -3.777   3.877  -0.498  1.00  0.00    -0.235 N 
HETATM   30  N7  UNL     1      -4.901   3.886   0.062  1.00  0.00    -0.330 N 
ATOM     31  H72 UNL     1      -5.714   3.579  -0.472  1.00  0.00     0.178 HD
ATOM     32  H71 UNL     1      -5.003   4.193   1.029  1.00  0.00     0.178 HD
ATOM     33  H6  UNL     1      -2.954   4.181   0.022  1.00  0.00     0.208 HD
ENDBRANCH  13  29
TORSDOF 4
