REMARK  12 active torsions:
REMARK  status: ('A' for Active; 'I' for Inactive)
REMARK    1  A    between atoms: N1_2  and  C2_3 
REMARK    2  A    between atoms: N1_2  and  S1_41 
REMARK    3  A    between atoms: C2_3  and  C3_4 
REMARK    4  A    between atoms: C3_4  and  N2_5 
REMARK    5  A    between atoms: N2_5  and  C4_7 
REMARK    6  A    between atoms: C6_9  and  C7_10 
REMARK    7  A    between atoms: C8_11  and  C9_12 
REMARK    8  A    between atoms: N5_23  and  C15_25 
REMARK    9  A    between atoms: C15_25  and  C16_26 
REMARK   10  A    between atoms: C16_26  and  C17_27 
REMARK   11  A    between atoms: C17_27  and  N6_28 
REMARK   12  A    between atoms: N6_28  and  C18_30 
ROOT
HETATM    1  C4  UNL     1      -1.227   1.784   0.573  1.00  0.00     0.119 A 
HETATM    2  C5  UNL     1      -1.960   0.617   0.608  1.00  0.00     0.088 A 
HETATM    3  C6  UNL     1      -1.404  -0.618   0.823  1.00  0.00     0.106 A 
HETATM    4  N4  UNL     1      -0.060  -0.681   1.009  1.00  0.00    -0.184 N 
ATOM      5  H4  UNL     1       0.386  -1.584   1.171  1.00  0.00     0.185 HD
HETATM    6  C14 UNL     1       0.685   0.433   0.981  1.00  0.00     0.680 A 
HETATM    7  N5  UNL     1       1.943   0.363   1.157  1.00  0.00    -0.226 N 
ATOM      8  H5  UNL     1       2.493   1.222   1.133  1.00  0.00     0.177 HD
HETATM    9  N9  UNL     1       0.093   1.652   0.764  1.00  0.00    -0.177 N 
ATOM     10  H9  UNL     1       0.678   2.487   0.747  1.00  0.00     0.185 HD
ENDROOT
BRANCH   7  11
HETATM   11  C15 UNL     1       2.613  -0.881   1.387  1.00  0.00     0.139 C 
BRANCH  11  12
HETATM   12  C16 UNL     1       2.879  -1.527   0.021  1.00  0.00     0.040 C 
BRANCH  12  13
HETATM   13  C17 UNL     1       3.755  -0.553  -0.757  1.00  0.00     0.123 C 
BRANCH  13  14
HETATM   14  N6  UNL     1       5.002  -0.311  -0.073  1.00  0.00    -0.375 N 
ATOM     15  H6  UNL     1       5.058   0.483   0.565  1.00  0.00     0.161 HD
BRANCH  14  16
HETATM   16  C18 UNL     1       6.057  -1.053  -0.229  1.00  0.00     0.117 A 
HETATM   17  C19 UNL     1       6.099  -2.133  -1.052  1.00  0.00     0.136 A 
HETATM   18  N7  UNL     1       7.227  -2.838  -1.151  1.00  0.00    -0.369 N 
HETATM   19  C20 UNL     1       8.335  -2.525  -0.466  1.00  0.00     0.125 A 
ATOM     20  H7  UNL     1       7.247  -3.647  -1.772  1.00  0.00     0.164 HD
HETATM   21  C21 UNL     1       8.268  -1.412   0.373  1.00  0.00     0.096 A 
HETATM   22 BR1  UNL     1       9.788  -0.883   1.390  1.00  0.00    -0.030 Br
HETATM   23  N8  UNL     1       7.149  -0.701   0.480  1.00  0.00    -0.335 N 
ATOM     24  H8  UNL     1       7.117   0.110   1.098  1.00  0.00     0.168 HD
ENDBRANCH  14  16
ENDBRANCH  13  14
ENDBRANCH  12  13
ENDBRANCH  11  12
ENDBRANCH   7  11
BRANCH   3  25
HETATM   25  C7  UNL     1      -2.171  -1.829   0.858  1.00  0.00    -0.041 C 
HETATM   26  C8  UNL     1      -2.838  -2.847   0.878  1.00  0.00    -0.032 C 
BRANCH  26  27
HETATM   27  C9  UNL     1      -3.638  -4.049   0.915  1.00  0.00     0.155 A 
HETATM   28  C10 UNL     1      -3.998  -4.785   2.030  1.00  0.00     0.193 A 
HETATM   29  O1  UNL     1      -4.725  -5.801   1.629  1.00  0.00    -0.282 OA
HETATM   30  C11 UNL     1      -4.840  -5.741   0.313  1.00  0.00     0.272 A 
HETATM   31  N3  UNL     1      -5.472  -6.547  -0.466  1.00  0.00    -0.349 N 
HETATM   32  O2  UNL     1      -4.180  -4.680  -0.099  1.00  0.00    -0.263 OA
HETATM   33  C12 UNL     1      -6.155  -7.674   0.131  1.00  0.00     0.153 C 
HETATM   34  C13 UNL     1      -5.510  -6.352  -1.887  1.00  0.00     0.153 C 
ENDBRANCH  26  27
ENDBRANCH   3  25
BRANCH   1  35
HETATM   35  N2  UNL     1      -1.815   2.883   0.370  1.00  0.00    -0.375 N 
ATOM     36  H2  UNL     1      -2.825   2.818   0.243  1.00  0.00     0.161 HD
BRANCH  35  37
HETATM   37  C3  UNL     1      -1.282   4.193   0.292  1.00  0.00     0.137 C 
BRANCH  37  38
HETATM   38  C2  UNL     1      -1.308   4.790  -1.093  1.00  0.00     0.126 C 
BRANCH  38  39
HETATM   39  N1  UNL     1      -0.745   6.106  -1.034  1.00  0.00    -0.214 NA
HETATM   40  C1  UNL     1       0.441   6.218  -0.240  1.00  0.00     0.129 C 
BRANCH  39  41
HETATM   41  S1  UNL     1      -1.919   7.305  -0.721  1.00  0.00     0.207 S 
HETATM   42  C22 UNL     1      -1.350   8.934  -1.053  1.00  0.00     0.180 C 
HETATM   43  O3  UNL     1      -2.369   7.279   0.735  1.00  0.00    -0.212 OA
HETATM   44  O4  UNL     1      -3.108   7.013  -1.618  1.00  0.00    -0.212 OA
ENDBRANCH  39  41
ENDBRANCH  38  39
ENDBRANCH  37  38
ENDBRANCH  35  37
ENDBRANCH   1  35
TORSDOF 12
