REMARK  9 active torsions:
REMARK  status: ('A' for Active; 'I' for Inactive)
REMARK    1  A    between atoms: O1_1  and  C1_3 
REMARK    2  A    between atoms: C4_6  and  O2_7 
REMARK    3  A    between atoms: C5_9  and  O3_10 
REMARK    4  A    between atoms: C6_12  and  O4_13 
REMARK    5  A    between atoms: C7_15  and  O5_16 
REMARK    6  A    between atoms: C9_19  and  C10_20 
REMARK    7  A    between atoms: C11_21  and  C12_22 
REMARK    8  A    between atoms: C12_22  and  C13_23 
REMARK    9  A    between atoms: C19_29  and  O6_30 
ROOT
HETATM    1  C1  UNL     1      -2.131  -1.780  -1.515  1.00  0.00     0.100 A 
HETATM    2  C2  UNL     1      -2.982  -0.689  -1.629  1.00  0.00     0.054 A 
HETATM    3  C3  UNL     1      -3.063   0.239  -0.609  1.00  0.00     0.017 A 
HETATM    4  C4  UNL     1      -3.939   1.280  -0.729  1.00  0.00     0.113 A 
HETATM    5  C5  UNL     1      -4.059   2.197   0.326  1.00  0.00     0.136 A 
HETATM    6  C6  UNL     1      -3.325   2.066   1.454  1.00  0.00     0.136 A 
HETATM    7  C7  UNL     1      -2.433   0.993   1.555  1.00  0.00     0.114 A 
HETATM    8  C8  UNL     1      -2.274   0.069   0.547  1.00  0.00     0.026 A 
HETATM    9  C9  UNL     1      -1.439  -0.996   0.653  1.00  0.00     0.014 A 
HETATM   10  C19 UNL     1      -1.371  -1.932  -0.391  1.00  0.00     0.110 A 
ENDROOT
BRANCH   9  11
HETATM   11  C10 UNL     1      -0.487  -1.133   1.732  1.00  0.00     0.011 C 
HETATM   12  C11 UNL     1       0.646  -0.489   1.866  1.00  0.00    -0.025 C 
BRANCH  12  13
HETATM   13  C12 UNL     1       1.138   0.500   0.898  1.00  0.00     0.031 C 
BRANCH  13  14
HETATM   14  C13 UNL     1       2.514   0.149   0.459  1.00  0.00    -0.011 C 
HETATM   15  C14 UNL     1       2.555  -1.182  -0.187  1.00  0.00     0.005 C 
HETATM   16  C15 UNL     1       3.893  -1.628  -0.653  1.00  0.00     0.000 C 
HETATM   17  C16 UNL     1       4.766  -0.571  -1.216  1.00  0.00     0.000 C 
HETATM   18  C17 UNL     1       4.553   0.797  -0.672  1.00  0.00     0.000 C 
HETATM   19  C18 UNL     1       3.089   1.155  -0.524  1.00  0.00     0.005 C 
ENDBRANCH  13  14
ENDBRANCH  12  13
ENDBRANCH   9  11
BRANCH  10  20
HETATM   20  O6  UNL     1      -0.515  -3.010  -0.238  1.00  0.00    -0.357 OA
ATOM     21  H6  UNL     1       0.014  -3.116   0.544  1.00  0.00     0.217 HD
ENDBRANCH  10  20
BRANCH   7  22
HETATM   22  O5  UNL     1      -1.726   0.896   2.717  1.00  0.00    -0.357 OA
ATOM     23  H5  UNL     1      -1.120   0.167   2.786  1.00  0.00     0.217 HD
ENDBRANCH   7  22
BRANCH   1  24
HETATM   24  O1  UNL     1      -2.093  -2.668  -2.552  1.00  0.00    -0.358 OA
ATOM     25  H1  UNL     1      -1.511  -3.415  -2.474  1.00  0.00     0.217 HD
ENDBRANCH   1  24
BRANCH   4  26
HETATM   26  O2  UNL     1      -4.699   1.444  -1.855  1.00  0.00    -0.357 OA
ATOM     27  H2  UNL     1      -5.308   2.168  -1.938  1.00  0.00     0.217 HD
ENDBRANCH   4  26
BRANCH   6  28
HETATM   28  O4  UNL     1      -3.442   2.976   2.513  1.00  0.00    -0.356 OA
ATOM     29  H4  UNL     1      -2.926   2.884   3.306  1.00  0.00     0.218 HD
ENDBRANCH   6  28
BRANCH   5  30
HETATM   30  O3  UNL     1      -4.964   3.234   0.145  1.00  0.00    -0.356 OA
ATOM     31  H3  UNL     1      -5.045   3.855   0.859  1.00  0.00     0.218 HD
ENDBRANCH   5  30
TORSDOF 9
