REMARK  2 active torsions:
REMARK  status: ('A' for Active; 'I' for Inactive)
REMARK    1  A    between atoms: O1_1  and  C1_3 
REMARK    2  A    between atoms: C1_3  and  C2_4 
ROOT
HETATM    1  C2  UNL     1      -1.380   0.167  -0.355  1.00  0.00     0.214 C 
HETATM    2  C3  UNL     1      -2.130  -0.780   0.540  1.00  0.00     0.037 C 
HETATM    3  C4  UNL     1      -1.344  -2.074   0.323  1.00  0.00     0.030 C 
HETATM    4  C5  UNL     1      -0.136  -1.665  -0.528  1.00  0.00     0.238 C 
HETATM    5  N1  UNL     1      -0.021  -0.223  -0.228  1.00  0.00    -0.058 N 
HETATM    6  C6  UNL     1       0.812   0.347  -1.268  1.00  0.00     0.265 C 
HETATM    7  C7  UNL     1       2.257   0.003  -1.077  1.00  0.00     0.260 C 
HETATM    8  N2  UNL     1       2.769   0.336   0.222  1.00  0.00    -0.072 N 
ATOM      9  H21 UNL     1       3.542   0.998   0.152  1.00  0.00     0.277 HD
ATOM     10  H22 UNL     1       3.265  -0.454   0.634  1.00  0.00     0.277 HD
HETATM   11  C8  UNL     1       1.744   0.828   1.116  1.00  0.00     0.260 C 
HETATM   12  C9  UNL     1       0.558  -0.125   1.070  1.00  0.00     0.265 C 
ENDROOT
BRANCH   1  13
HETATM   13  C1  UNL     1      -1.712   1.587  -0.155  1.00  0.00     0.197 C 
BRANCH  13  14
HETATM   14  O1  UNL     1      -1.409   2.121   1.074  1.00  0.00    -0.399 OA
ATOM     15  H1  UNL     1      -1.623   3.037   1.203  1.00  0.00     0.209 HD
ENDBRANCH  13  14
ENDBRANCH   1  13
TORSDOF 2
