REMARK  4 active torsions:
REMARK  status: ('A' for Active; 'I' for Inactive)
REMARK    1  A    between atoms: C1_2  and  N1_3 
REMARK    2  A    between atoms: C1_2  and  N2_11 
REMARK    3  A    between atoms: N1_3  and  C2_5 
REMARK    4  A    between atoms: N2_11  and  N3_13 
ROOT
HETATM    1  S1  UNL     1      -0.016   1.422  -0.696  1.00  0.00    -0.040 SA
HETATM    2  C1  UNL     1      -0.143  -0.169  -0.265  1.00  0.00     0.183 C 
ENDROOT
BRANCH   2   3
HETATM    3  N1  UNL     1       1.043  -0.877   0.030  1.00  0.00    -0.362 N 
ATOM      4  H1  UNL     1       0.976  -1.855   0.312  1.00  0.00     0.162 HD
BRANCH   3   5
HETATM    5  C2  UNL     1       2.331  -0.270  -0.053  1.00  0.00     0.083 C 
HETATM    6  C3  UNL     1       3.409  -1.216   0.450  1.00  0.00     0.025 C 
HETATM    7  C4  UNL     1       4.750  -0.600   0.164  1.00  0.00     0.002 C 
HETATM    8  C5  UNL     1       4.681   0.877  -0.157  1.00  0.00     0.000 C 
HETATM    9  C6  UNL     1       3.821   1.143  -1.375  1.00  0.00     0.002 C 
HETATM   10  C7  UNL     1       2.752   0.063  -1.486  1.00  0.00     0.025 C 
ENDBRANCH   3   5
ENDBRANCH   2   3
BRANCH   2  11
HETATM   11  N2  UNL     1      -1.432  -0.771  -0.192  1.00  0.00    -0.281 N 
ATOM     12  H2  UNL     1      -1.498  -1.751   0.084  1.00  0.00     0.184 HD
BRANCH  11  13
HETATM   13  N3  UNL     1      -2.593  -0.089  -0.478  1.00  0.00    -0.142 NA
HETATM   14  C8  UNL     1      -3.714  -0.977  -0.527  1.00  0.00     0.135 C 
HETATM   15  C9  UNL     1      -4.697  -0.700   0.590  1.00  0.00     0.019 C 
HETATM   16  C10 UNL     1      -5.279   0.673   0.333  1.00  0.00     0.019 C 
HETATM   17  C11 UNL     1      -4.102   1.614   0.142  1.00  0.00     0.131 C 
HETATM   18  N4  UNL     1      -2.853   0.967   0.378  1.00  0.00    -0.145 NA
ENDBRANCH  11  13
ENDBRANCH   2  11
TORSDOF 4
