REMARK  3 active torsions:
REMARK  status: ('A' for Active; 'I' for Inactive)
REMARK    1  A    between atoms: O1_2  and  C2_3 
REMARK    2  A    between atoms: C6_7  and  C7_8 
REMARK    3  A    between atoms: N2_12  and  N3_14 
ROOT
HETATM    1  C7  UNL     1      -0.010   0.413   0.071  1.00  0.00     0.155 C 
HETATM    2  N1  UNL     1      -0.469   1.810   0.140  1.00  0.00    -0.214 N 
ATOM      3  H1  UNL     1       0.188   2.537  -0.143  1.00  0.00     0.178 HD
HETATM    4  C8  UNL     1      -1.759   2.222   0.572  1.00  0.00     0.695 C 
HETATM    5  N2  UNL     1      -1.950   3.497   0.600  1.00  0.00    -0.139 N 
ATOM      6  H2  UNL     1      -1.181   4.105   0.318  1.00  0.00     0.205 HD
HETATM    7  N4  UNL     1      -2.860   1.414   0.975  1.00  0.00    -0.162 N 
ATOM      8  H4  UNL     1      -3.618   1.877   1.476  1.00  0.00     0.187 HD
HETATM    9  C9  UNL     1      -2.985   0.126   0.759  1.00  0.00     0.205 C 
HETATM   10  N5  UNL     1      -4.166  -0.507   1.243  1.00  0.00    -0.063 NA
HETATM   11  N6  UNL     1      -2.088  -0.756   0.093  1.00  0.00    -0.353 N 
HETATM   12  C10 UNL     1      -2.263  -2.187   0.276  1.00  0.00     0.152 C 
HETATM   13  C11 UNL     1      -0.993  -0.348  -0.768  1.00  0.00     0.110 C 
HETATM   14  C12 UNL     1      -0.382  -1.541  -1.457  1.00  0.00     0.035 C 
ENDROOT
BRANCH   1  15
HETATM   15  C6  UNL     1       1.356   0.404  -0.452  1.00  0.00    -0.030 A 
HETATM   16  C5  UNL     1       1.694   1.179  -1.533  1.00  0.00     0.009 A 
HETATM   17  C4  UNL     1       2.982   1.145  -1.996  1.00  0.00     0.003 A 
HETATM   18  C3  UNL     1       3.915   0.342  -1.380  1.00  0.00     0.037 A 
HETATM   19  C2  UNL     1       3.601  -0.444  -0.294  1.00  0.00     0.068 A 
HETATM   20  C13 UNL     1       2.300  -0.395   0.156  1.00  0.00     0.046 A 
BRANCH  19  21
HETATM   21  O1  UNL     1       4.573  -1.257   0.319  1.00  0.00    -0.356 OA
HETATM   22  C1  UNL     1       4.248  -2.062   1.431  1.00  0.00     0.210 C 
ENDBRANCH  19  21
ENDBRANCH   1  15
BRANCH   5  23
HETATM   23  N3  UNL     1      -3.141   4.088   0.992  1.00  0.00    -0.331 N 
ATOM     24  H32 UNL     1      -3.899   3.465   1.271  1.00  0.00     0.177 HD
ATOM     25  H31 UNL     1      -3.292   5.097   1.014  1.00  0.00     0.177 HD
ENDBRANCH   5  23
TORSDOF 3
