REMARK  4 active torsions:
REMARK  status: ('A' for Active; 'I' for Inactive)
REMARK    1  A    between atoms: C4_5  and  C5_6 
REMARK    2  A    between atoms: C5_6  and  C6_7 
REMARK    3  A    between atoms: C9_10  and  N1_11 
REMARK    4  A    between atoms: N4_19  and  C11_20 
ROOT
HETATM    1  C1  UNL     1      -3.385  -1.853  -1.012  1.00  0.00     0.049 C 
HETATM    2  C2  UNL     1      -2.143  -1.439  -0.774  1.00  0.00     0.101 A 
HETATM    3  C3  UNL     1      -0.959  -2.067  -1.137  1.00  0.00     0.227 A 
HETATM    4  O1  UNL     1      -0.903  -3.161  -1.768  1.00  0.00    -0.283 OA
HETATM    5  C4  UNL     1       0.113  -1.319  -0.705  1.00  0.00     0.102 A 
HETATM    6  N3  UNL     1      -0.422  -0.254  -0.090  1.00  0.00    -0.288 N 
ATOM      7  H3  UNL     1       0.113   0.498   0.345  1.00  0.00     0.188 HD
HETATM    8  N4  UNL     1      -1.747  -0.319  -0.128  1.00  0.00    -0.236 N 
ENDROOT
BRANCH   5   9
HETATM    9  C5  UNL     1       1.384  -1.639  -0.890  1.00  0.00     0.048 C 
BRANCH   9  10
HETATM   10  C6  UNL     1       2.472  -0.799  -0.406  1.00  0.00    -0.018 A 
HETATM   11  C7  UNL     1       3.187  -1.121   0.730  1.00  0.00     0.016 A 
HETATM   12  C8  UNL     1       4.219  -0.304   1.171  1.00  0.00     0.049 A 
HETATM   13  C9  UNL     1       4.523   0.834   0.458  1.00  0.00     0.098 A 
HETATM   14  N2  UNL     1       3.835   1.150  -0.643  1.00  0.00    -0.352 N 
HETATM   15  C10 UNL     1       2.833   0.354  -1.067  1.00  0.00     0.101 A 
ATOM     16  H2  UNL     1       4.068   1.995  -1.164  1.00  0.00     0.166 HD
BRANCH  13  17
HETATM   17  N1  UNL     1       5.496   1.587   0.887  1.00  0.00    -0.385 N 
ATOM     18  H12 UNL     1       6.021   1.346   1.727  1.00  0.00     0.157 HD
ATOM     19  H11 UNL     1       5.721   2.430   0.359  1.00  0.00     0.157 HD
ENDBRANCH  13  17
ENDBRANCH   9  10
ENDBRANCH   5   9
BRANCH   8  20
HETATM   20  C11 UNL     1      -2.685   0.616   0.413  1.00  0.00     0.127 A 
HETATM   21  C12 UNL     1      -2.843   1.917  -0.035  1.00  0.00     0.052 A 
HETATM   22  C13 UNL     1      -3.839   2.456   0.752  1.00  0.00     0.021 A 
HETATM   23  C14 UNL     1      -4.283   1.514   1.659  1.00  0.00     0.090 A 
HETATM   24  N5  UNL     1      -3.551   0.412   1.413  1.00  0.00    -0.351 N 
ATOM     25  H5  UNL     1      -3.644  -0.466   1.923  1.00  0.00     0.166 HD
ENDBRANCH   8  20
TORSDOF 4
