REMARK  4 active torsions:
REMARK  status: ('A' for Active; 'I' for Inactive)
REMARK    1  A    between atoms: N1_1  and  C1_5 
REMARK    2  A    between atoms: C1_5  and  C2_6 
REMARK    3  A    between atoms: C2_6  and  N2_7 
REMARK    4  A    between atoms: N2_7  and  C3_9 
ROOT
HETATM    1  N2  UNL     1      -0.073   0.993   0.689  1.00  0.00    -0.223 N 
ATOM      2  H2  UNL     1       0.143   1.524   1.533  1.00  0.00     0.177 HD
ENDROOT
BRANCH   1   3
HETATM    3  C2  UNL     1       1.012   0.688  -0.186  1.00  0.00     0.165 C 
BRANCH   3   4
HETATM    4  C1  UNL     1       1.693  -0.620   0.159  1.00  0.00     0.249 C 
BRANCH   4   5
HETATM    5  N1  UNL     1       2.790  -0.901  -0.748  1.00  0.00    -0.078 N 
ATOM      6  H13 UNL     1       2.484  -0.884  -1.721  1.00  0.00     0.274 HD
ATOM      7  H12 UNL     1       3.456  -0.129  -0.779  1.00  0.00     0.274 HD
ATOM      8  H11 UNL     1       3.249  -1.782  -0.516  1.00  0.00     0.274 HD
ENDBRANCH   4   5
ENDBRANCH   3   4
ENDBRANCH   1   3
BRANCH   1   9
HETATM    9  C3  UNL     1      -1.293   0.658   0.506  1.00  0.00     0.703 A 
HETATM   10  N3  UNL     1      -2.270   0.993   1.396  1.00  0.00    -0.117 N 
HETATM   11  N4  UNL     1      -3.412   0.509   0.935  1.00  0.00     0.006 NA
ATOM     12  H3  UNL     1      -2.144   1.521   2.260  1.00  0.00     0.202 HD
HETATM   13  N5  UNL     1      -3.210  -0.125  -0.219  1.00  0.00     0.006 NA
HETATM   14  N6  UNL     1      -1.904  -0.019  -0.458  1.00  0.00    -0.117 N 
ATOM     15  H6  UNL     1      -1.434  -0.408  -1.276  1.00  0.00     0.202 HD
ENDBRANCH   1   9
TORSDOF 4
