REMARK  2 active torsions:
REMARK  status: ('A' for Active; 'I' for Inactive)
REMARK    1  A    between atoms: C2_2  and  C3_3 
REMARK    2  A    between atoms: C3_3  and  N1_4 
ROOT
HETATM    1  N1  UNL     1      -0.751   0.508   0.443  1.00  0.00    -0.361 N 
HETATM    2  C4  UNL     1      -0.368  -0.499   1.272  1.00  0.00     0.093 A 
HETATM    3  C5  UNL     1       0.906  -0.986   1.272  1.00  0.00     0.049 A 
HETATM    4  C6  UNL     1       1.832  -0.454   0.417  1.00  0.00     0.062 A 
HETATM    5  N2  UNL     1       3.135  -0.699   0.173  1.00  0.00    -0.350 N 
ATOM      6  H2  UNL     1       3.705  -1.403   0.642  1.00  0.00     0.166 HD
HETATM    7  C7  UNL     1       3.559   0.137  -0.791  1.00  0.00     0.181 A 
HETATM    8  N3  UNL     1       2.522   0.911  -1.153  1.00  0.00    -0.349 N 
ATOM      9  H3  UNL     1       2.548   1.641  -1.865  1.00  0.00     0.166 HD
HETATM   10  C8  UNL     1       1.442   0.567  -0.423  1.00  0.00     0.075 A 
HETATM   11  C9  UNL     1       0.157   1.030  -0.396  1.00  0.00     0.122 A 
ENDROOT
BRANCH   1  12
HETATM   12  C3  UNL     1      -2.110   0.992   0.481  1.00  0.00     0.154 C 
BRANCH  12  13
HETATM   13  C2  UNL     1      -2.975   0.240  -0.468  1.00  0.00    -0.017 C 
HETATM   14  C1  UNL     1      -2.464  -0.731  -1.206  1.00  0.00     0.008 C 
ENDBRANCH  12  13
ENDBRANCH   1  12
TORSDOF 2
