REMARK  8 active torsions:
REMARK  status: ('A' for Active; 'I' for Inactive)
REMARK    1  A    between atoms: C1_2  and  C2_4 
REMARK    2  A    between atoms: C2_4  and  C3_5 
REMARK    3  A    between atoms: C4_6  and  C5_7 
REMARK    4  A    between atoms: C7_9  and  C8_10 
REMARK       I    between atoms: C8_10  and  N1_12 
REMARK    5  A    between atoms: N1_12  and  C9_14 
REMARK    6  A    between atoms: C9_14  and  C10_15 
REMARK    7  A    between atoms: C10_15  and  C11_16 
REMARK    8  A    between atoms: C11_16  and  C12_17 
ROOT
HETATM    1  C8  UNL     1       1.291  -1.367   1.596  1.00  0.00     0.222 C 
HETATM    2  O3  UNL     1       1.288  -2.085   2.625  1.00  0.00    -0.273 OA
HETATM    3  N1  UNL     1       0.166  -0.533   1.310  1.00  0.00    -0.361 N 
ATOM      4  H1  UNL     1       0.175   0.047   0.471  1.00  0.00     0.162 HD
ENDROOT
BRANCH   1   5
HETATM    5  C7  UNL     1       2.470  -1.386   0.673  1.00  0.00     0.086 A 
HETATM    6  C5  UNL     1       2.710  -0.245  -0.225  1.00  0.00     0.022 A 
HETATM    7  C6  UNL     1       2.073  -1.528  -0.787  1.00  0.00     0.024 A 
BRANCH   6   8
HETATM    8  C4  UNL     1       4.083   0.073  -0.640  1.00  0.00    -0.025 C 
HETATM    9  C3  UNL     1       5.138  -0.605  -0.255  1.00  0.00    -0.020 C 
BRANCH   9  10
HETATM   10  C2  UNL     1       6.512  -0.233  -0.712  1.00  0.00     0.140 C 
BRANCH  10  11
HETATM   11  C1  UNL     1       6.394   0.942  -1.601  1.00  0.00     0.176 C 
HETATM   12  O1  UNL     1       6.123   0.787  -2.838  1.00  0.00    -0.648 OA
HETATM   13  O2  UNL     1       6.568   2.242  -1.142  1.00  0.00    -0.648 OA
ENDBRANCH  10  11
ENDBRANCH   9  10
ENDBRANCH   6   8
ENDBRANCH   1   5
BRANCH   3  14
HETATM   14  C9  UNL     1      -0.985  -0.494   2.185  1.00  0.00     0.122 C 
BRANCH  14  15
HETATM   15  C10 UNL     1      -2.053   0.450   1.690  1.00  0.00     0.020 C 
BRANCH  15  16
HETATM   16  C11 UNL     1      -2.523   0.004   0.339  1.00  0.00     0.006 C 
BRANCH  16  17
HETATM   17  C12 UNL     1      -3.606   0.921  -0.216  1.00  0.00    -0.013 C 
HETATM   18  C13 UNL     1      -3.975   0.334  -1.584  1.00  0.00     0.006 C 
HETATM   19  C14 UNL     1      -5.101  -0.623  -1.174  1.00  0.00     0.020 C 
HETATM   20  C15 UNL     1      -5.926   0.268  -0.272  1.00  0.00     0.082 C 
HETATM   21 CL1  UNL     1      -6.668   1.531  -1.276  1.00  0.00    -0.125 Cl
HETATM   22  C16 UNL     1      -4.860   0.915   0.589  1.00  0.00     0.024 C 
ENDBRANCH  16  17
ENDBRANCH  15  16
ENDBRANCH  14  15
ENDBRANCH   3  14
TORSDOF 8
