REMARK  7 active torsions:
REMARK  status: ('A' for Active; 'I' for Inactive)
REMARK       I    between atoms: C1_2  and  N3_9 
REMARK    1  A    between atoms: N2_3  and  C2_5 
REMARK    2  A    between atoms: C2_5  and  C3_6 
REMARK    3  A    between atoms: N3_9  and  N4_11 
REMARK    4  A    between atoms: C8_16  and  C9_17 
REMARK    5  A    between atoms: C9_17  and  O1_18 
REMARK    6  A    between atoms: O1_18  and  C10_19 
REMARK    7  A    between atoms: C10_19  and  C11_20 
ROOT
HETATM    1  N4  UNL     1       2.813   0.047   0.627  1.00  0.00    -0.307 N 
ATOM      2  H4  UNL     1       3.150  -0.282   1.532  1.00  0.00     0.186 HD
HETATM    3  C5  UNL     1       1.753  -0.478   0.123  1.00  0.00     0.004 C 
HETATM    4  C6  UNL     1       1.051  -1.548   0.875  1.00  0.00     0.054 C 
HETATM    5  C7  UNL     1       0.152  -2.231  -0.127  1.00  0.00     0.012 C 
HETATM    6  C8  UNL     1      -0.951  -1.307  -0.624  1.00  0.00     0.010 C 
HETATM    7  C16 UNL     1      -0.350  -0.003  -0.991  1.00  0.00     0.012 C 
HETATM    8  C17 UNL     1       1.152  -0.099  -1.178  1.00  0.00     0.054 C 
ENDROOT
BRANCH   1   9
HETATM    9  N3  UNL     1       3.516   1.059  -0.036  1.00  0.00    -0.274 N 
HETATM   10  C1  UNL     1       4.642   0.706  -0.824  1.00  0.00     0.203 C 
HETATM   11  N1  UNL     1       4.552   0.804  -2.239  1.00  0.00    -0.062 NA
HETATM   12  N2  UNL     1       5.763   0.295  -0.336  1.00  0.00    -0.360 N 
ATOM     13  H2  UNL     1       6.510   0.067  -0.992  1.00  0.00     0.162 HD
ATOM     14  H3  UNL     1       3.224   2.033   0.046  1.00  0.00     0.189 HD
BRANCH  12  15
HETATM   15  C2  UNL     1       6.032   0.136   1.061  1.00  0.00     0.151 C 
BRANCH  15  16
HETATM   16  C3  UNL     1       7.447   0.360   1.417  1.00  0.00     0.022 C 
HETATM   17  C4  UNL     1       8.381   0.677   0.536  1.00  0.00     0.186 C 
HETATM   18  F1  UNL     1       9.653   0.863   0.962  1.00  0.00    -0.220 F 
ENDBRANCH  15  16
ENDBRANCH  12  15
ENDBRANCH   1   9
BRANCH   6  19
HETATM   19  C9  UNL     1      -2.008  -1.292   0.423  1.00  0.00     0.172 C 
BRANCH  19  20
HETATM   20  O1  UNL     1      -3.129  -0.584   0.270  1.00  0.00    -0.390 OA
BRANCH  20  21
HETATM   21  C10 UNL     1      -3.144   0.754   0.114  1.00  0.00     0.172 C 
BRANCH  21  22
HETATM   22  C11 UNL     1      -4.566   1.319   0.046  1.00  0.00     0.009 C 
HETATM   23  C12 UNL     1      -5.326   0.738  -1.102  1.00  0.00     0.007 C 
HETATM   24  C13 UNL     1      -6.552   0.071  -0.510  1.00  0.00     0.000 C 
HETATM   25  C14 UNL     1      -6.098  -0.248   0.899  1.00  0.00     0.000 C 
HETATM   26  C15 UNL     1      -5.348   1.029   1.279  1.00  0.00     0.007 C 
ENDBRANCH  21  22
ENDBRANCH  20  21
ENDBRANCH  19  20
ENDBRANCH   6  19
TORSDOF 7
