REMARK  6 active torsions:
REMARK  status: ('A' for Active; 'I' for Inactive)
REMARK    1  A    between atoms: C4_6  and  N2_7 
REMARK    2  A    between atoms: N2_7  and  C5_9 
REMARK    3  A    between atoms: C10_14  and  O1_15 
REMARK    4  A    between atoms: C12_20  and  N4_21 
REMARK    5  A    between atoms: N4_21  and  S1_23 
REMARK    6  A    between atoms: S1_23  and  C13_26 
ROOT
HETATM    1  C1  UNL     1      -1.262  -3.756   0.816  1.00  0.00     0.052 C 
HETATM    2  C2  UNL     1      -1.886  -2.430   0.566  1.00  0.00    -0.017 A 
HETATM    3  C3  UNL     1      -3.248  -2.225   0.638  1.00  0.00     0.099 A 
HETATM    4  N1  UNL     1      -3.813  -1.026   0.412  1.00  0.00    -0.350 N 
ATOM      5  H1  UNL     1      -4.823  -0.898   0.470  1.00  0.00     0.166 HD
HETATM    6  C4  UNL     1      -2.996  -0.002   0.106  1.00  0.00     0.135 A 
HETATM    7  C11 UNL     1      -1.623  -0.132   0.016  1.00  0.00     0.121 A 
HETATM    8  N3  UNL     1      -0.606   0.711  -0.266  1.00  0.00    -0.185 N 
ATOM      9  H3  UNL     1      -0.700   1.703  -0.486  1.00  0.00     0.184 HD
HETATM   10  C12 UNL     1       0.559   0.023  -0.209  1.00  0.00     0.693 A 
HETATM   11  N7  UNL     1       0.286  -1.256   0.108  1.00  0.00    -0.188 N 
ATOM     12  H7  UNL     1       0.968  -2.006   0.221  1.00  0.00     0.184 HD
HETATM   13  C21 UNL     1      -1.060  -1.369   0.251  1.00  0.00     0.087 A 
ENDROOT
BRANCH  10  14
HETATM   14  N4  UNL     1       1.712   0.560  -0.433  1.00  0.00    -0.112 N 
ATOM     15  H4  UNL     1       1.782   1.550  -0.666  1.00  0.00     0.197 HD
BRANCH  14  16
HETATM   16  S1  UNL     1       3.133  -0.413  -0.334  1.00  0.00     0.279 S 
HETATM   17  O2  UNL     1       3.159  -1.175   0.974  1.00  0.00    -0.200 OA
HETATM   18  O3  UNL     1       3.247  -1.361  -1.495  1.00  0.00    -0.200 OA
BRANCH  16  19
HETATM   19  C13 UNL     1       4.550   0.644  -0.416  1.00  0.00     0.109 A 
HETATM   20  C14 UNL     1       4.384   2.016  -0.540  1.00  0.00     0.028 A 
HETATM   21  C15 UNL     1       5.489   2.838  -0.603  1.00  0.00     0.004 A 
HETATM   22  C16 UNL     1       6.741   2.262  -0.541  1.00  0.00     0.032 A 
HETATM   23  C17 UNL     1       6.946   0.904  -0.418  1.00  0.00     0.060 A 
HETATM   24  N5  UNL     1       8.140   0.332  -0.356  1.00  0.00    -0.363 N 
HETATM   25  C20 UNL     1       5.816   0.099  -0.356  1.00  0.00     0.082 A 
HETATM   26  C18 UNL     1       8.237  -1.004  -0.236  1.00  0.00     0.105 A 
ATOM     27  H5  UNL     1       8.984   0.904  -0.399  1.00  0.00     0.165 HD
HETATM   28  C19 UNL     1       7.117  -1.805  -0.175  1.00  0.00     0.105 A 
HETATM   29  N6  UNL     1       5.897  -1.239  -0.236  1.00  0.00    -0.362 N 
ATOM     30  H6  UNL     1       5.054  -1.811  -0.192  1.00  0.00     0.165 HD
ENDBRANCH  16  19
ENDBRANCH  14  16
ENDBRANCH  10  14
BRANCH   6  31
HETATM   31  N2  UNL     1      -3.489   1.169  -0.120  1.00  0.00    -0.338 N 
ATOM     32  H2  UNL     1      -2.854   1.933  -0.351  1.00  0.00     0.167 HD
BRANCH  31  33
HETATM   33  C5  UNL     1      -4.884   1.434  -0.059  1.00  0.00     0.067 A 
HETATM   34  C6  UNL     1      -5.417   2.017   1.056  1.00  0.00     0.032 A 
HETATM   35  C7  UNL     1      -6.757   2.290   1.155  1.00  0.00     0.002 A 
HETATM   36  C8  UNL     1      -7.569   1.960   0.094  1.00  0.00     0.003 A 
HETATM   37  C9  UNL     1      -7.028   1.367  -1.041  1.00  0.00     0.039 A 
HETATM   38  C10 UNL     1      -5.679   1.095  -1.134  1.00  0.00     0.092 A 
BRANCH  38  39
HETATM   39  O1  UNL     1      -5.141   0.499  -2.275  1.00  0.00    -0.358 OA
ATOM     40  H1  UNL     1      -5.689   0.266  -3.015  1.00  0.00     0.217 HD
ENDBRANCH  38  39
ENDBRANCH  31  33
ENDBRANCH   6  31
TORSDOF 6
