REMARK  2 active torsions:
REMARK  status: ('A' for Active; 'I' for Inactive)
REMARK    1  A    between atoms: C2_2  and  C3_3 
REMARK    2  A    between atoms: N1_5  and  C5_6 
ROOT
HETATM    1  C3  UNL     1      -0.683  -0.602   0.351  1.00  0.00     0.227 C 
HETATM    2  C4  UNL     1      -0.012   0.724   0.196  1.00  0.00     0.164 C 
HETATM    3  N1  UNL     1       1.389   0.383   0.088  1.00  0.00    -0.333 N 
HETATM    4  C6  UNL     1       1.492  -1.081   0.078  1.00  0.00     0.359 C 
HETATM    5  N2  UNL     1       0.197  -1.571  -0.281  1.00  0.00    -0.050 N 
ATOM      6  H21 UNL     1       0.047  -1.701  -1.282  1.00  0.00     0.280 HD
ATOM      7  H22 UNL     1       0.019  -2.543  -0.029  1.00  0.00     0.280 HD
ENDROOT
BRANCH   1   8
HETATM    8  C2  UNL     1      -2.043  -0.629  -0.220  1.00  0.00    -0.003 C 
HETATM    9  C1  UNL     1      -2.764   0.474  -0.198  1.00  0.00     0.009 C 
ENDBRANCH   1   8
BRANCH   3  10
HETATM   10  C5  UNL     1       2.488   1.279   0.005  1.00  0.00     0.352 C 
HETATM   11  O1  UNL     1       2.259   2.521   0.024  1.00  0.00    -0.283 OA
ENDBRANCH   3  10
TORSDOF 2
