REMARK  13 active torsions:
REMARK  status: ('A' for Active; 'I' for Inactive)
REMARK    1  A    between atoms: C2_2  and  C3_3 
REMARK    2  A    between atoms: C3_3  and  N1_4 
REMARK    3  A    between atoms: N1_4  and  C5_6 
REMARK    4  A    between atoms: N1_4  and  C7_8 
REMARK    5  A    between atoms: C7_8  and  C8_9 
REMARK    6  A    between atoms: C8_9  and  C9_10 
REMARK    7  A    between atoms: C9_10  and  S1_11 
REMARK    8  A    between atoms: S1_11  and  C10_12 
REMARK    9  A    between atoms: S1_11  and  O4_26 
REMARK   10  A    between atoms: C10_12  and  C11_13 
REMARK   11  A    between atoms: C12_17  and  O1_18 
REMARK   12  A    between atoms: C13_20  and  O2_21 
REMARK   13  A    between atoms: C14_23  and  O3_24 
ROOT
HETATM    1  C10 UNL     1       3.077  -1.223  -0.601  1.00  0.00     0.127 C 
ENDROOT
BRANCH   1   2
HETATM    2  S1  UNL     1       1.446  -0.924  -1.207  1.00  0.00    -0.088 SA
BRANCH   2   3
HETATM    3  C9  UNL     1       0.277  -0.727   0.114  1.00  0.00     0.093 C 
BRANCH   3   4
HETATM    4  C8  UNL     1      -1.085  -0.476  -0.540  1.00  0.00     0.039 C 
BRANCH   4   5
HETATM    5  C7  UNL     1      -2.074  -0.310   0.581  1.00  0.00     0.238 C 
BRANCH   5   6
HETATM    6  N1  UNL     1      -3.417  -0.064   0.126  1.00  0.00    -0.068 N 
HETATM    7  C4  UNL     1      -3.595  -0.510  -1.257  1.00  0.00     0.272 C 
BRANCH   6   8
HETATM    8  C3  UNL     1      -3.822   1.315   0.260  1.00  0.00     0.263 C 
BRANCH   8   9
HETATM    9  C2  UNL     1      -3.398   2.189  -0.824  1.00  0.00    -0.009 C 
HETATM   10  C1  UNL     1      -4.325   2.820  -1.535  1.00  0.00     0.008 C 
ENDBRANCH   8   9
ENDBRANCH   6   8
BRANCH   6  11
HETATM   11  C5  UNL     1      -4.336  -0.848   0.919  1.00  0.00     0.233 C 
HETATM   12  C6  UNL     1      -4.161  -0.655   2.401  1.00  0.00     0.035 C 
ENDBRANCH   6  11
ENDBRANCH   5   6
ENDBRANCH   4   5
ENDBRANCH   3   4
ENDBRANCH   2   3
BRANCH   2  13
HETATM   13  O4  UNL     1       0.907  -2.107  -2.239  1.00  0.00    -0.337 OA
HETATM   14  C15 UNL     1       1.232  -3.388  -1.844  1.00  0.00     0.219 C 
ENDBRANCH   2  13
ENDBRANCH   1   2
BRANCH   1  15
HETATM   15  C11 UNL     1       3.488  -0.047   0.245  1.00  0.00     0.230 C 
HETATM   16  N2  UNL     1       3.469   1.140  -0.553  1.00  0.00    -0.039 N 
HETATM   17  C12 UNL     1       4.675   1.886  -0.276  1.00  0.00     0.350 C 
ATOM     18  H22 UNL     1       3.346   0.945  -1.547  1.00  0.00     0.281 HD
ATOM     19  H21 UNL     1       2.623   1.693  -0.416  1.00  0.00     0.281 HD
HETATM   20  C13 UNL     1       5.281   1.279   0.980  1.00  0.00     0.205 C 
HETATM   21  C14 UNL     1       4.901  -0.195   0.787  1.00  0.00     0.182 C 
BRANCH  17  22
HETATM   22  O1  UNL     1       4.419   3.229  -0.108  1.00  0.00    -0.368 OA
ATOM     23  H1  UNL     1       5.212   3.719   0.074  1.00  0.00     0.212 HD
ENDBRANCH  17  22
BRANCH  20  24
HETATM   24  O2  UNL     1       4.559   1.748   2.055  1.00  0.00    -0.389 OA
ATOM     25  H2  UNL     1       4.938   1.369   2.840  1.00  0.00     0.210 HD
ENDBRANCH  20  24
BRANCH  21  26
HETATM   26  O3  UNL     1       4.817  -0.861   1.998  1.00  0.00    -0.391 OA
ATOM     27  H3  UNL     1       5.700  -0.953   2.337  1.00  0.00     0.210 HD
ENDBRANCH  21  26
ENDBRANCH   1  15
TORSDOF 13
