REMARK  17 active torsions:
REMARK  status: ('A' for Active; 'I' for Inactive)
REMARK    1  A    between atoms: C2_2  and  N1_3 
REMARK    2  A    between atoms: N1_3  and  C3_5 
REMARK    3  A    between atoms: C3_5  and  S1_9 
REMARK    4  A    between atoms: S1_9  and  C5_10 
REMARK    5  A    between atoms: C5_10  and  C6_11 
REMARK    6  A    between atoms: C6_11  and  N3_12 
REMARK    7  A    between atoms: N3_12  and  C7_13 
REMARK    8  A    between atoms: N3_12  and  C18_35 
REMARK    9  A    between atoms: C7_13  and  C8_14 
REMARK   10  A    between atoms: N4_15  and  C9_17 
REMARK   11  A    between atoms: C9_17  and  C10_18 
REMARK   12  A    between atoms: C10_18  and  N5_19 
REMARK   13  A    between atoms: N5_19  and  C11_21 
REMARK   14  A    between atoms: C11_21  and  N6_23 
REMARK   15  A    between atoms: N6_23  and  C12_25 
REMARK   16  A    between atoms: C20_37  and  O1_38 
REMARK   17  A    between atoms: C22_41  and  O2_42 
ROOT
HETATM    1  N3  UNL     1      -1.420  -1.529   0.262  1.00  0.00    -0.374 N 
ENDROOT
BRANCH   1   2
HETATM    2  C6  UNL     1      -2.020  -1.031   1.499  1.00  0.00     0.134 C 
BRANCH   2   3
HETATM    3  C5  UNL     1      -3.046   0.027   1.258  1.00  0.00     0.102 C 
BRANCH   3   4
HETATM    4  S1  UNL     1      -4.424  -0.499   0.246  1.00  0.00    -0.093 SA
BRANCH   4   5
HETATM    5  C3  UNL     1      -5.582   0.845   0.033  1.00  0.00     0.135 C 
HETATM    6  N2  UNL     1      -6.638   0.753  -0.669  1.00  0.00    -0.375 N 
HETATM    7  C4  UNL     1      -7.590   1.817  -0.870  1.00  0.00     0.148 C 
ATOM      8  H2  UNL     1      -6.826  -0.140  -1.124  1.00  0.00     0.161 HD
BRANCH   5   9
HETATM    9  N1  UNL     1      -5.297   2.084   0.681  1.00  0.00    -0.371 N 
ATOM     10  H1  UNL     1      -4.674   2.741   0.211  1.00  0.00     0.161 HD
BRANCH   9  11
HETATM   11  C2  UNL     1      -5.836   2.456   1.951  1.00  0.00     0.117 C 
HETATM   12  C1  UNL     1      -5.302   3.820   2.333  1.00  0.00     0.026 C 
ENDBRANCH   9  11
ENDBRANCH   5   9
ENDBRANCH   4   5
ENDBRANCH   3   4
ENDBRANCH   2   3
ENDBRANCH   1   2
BRANCH   1  13
HETATM   13  C7  UNL     1      -0.595  -0.593  -0.451  1.00  0.00     0.167 C 
BRANCH  13  14
HETATM   14  C8  UNL     1       0.024  -1.112  -1.676  1.00  0.00     0.075 C 
HETATM   15  N4  UNL     1       1.254  -1.068  -1.944  1.00  0.00    -0.399 N 
ATOM     16  H4  UNL     1       1.544  -1.469  -2.836  1.00  0.00     0.158 HD
BRANCH  15  17
HETATM   17  C9  UNL     1       2.288  -0.510  -1.119  1.00  0.00     0.138 C 
BRANCH  17  18
HETATM   18  C10 UNL     1       2.561   0.914  -1.514  1.00  0.00     0.141 C 
BRANCH  18  19
HETATM   19  N5  UNL     1       3.560   1.572  -0.761  1.00  0.00    -0.365 N 
ATOM     20  H5  UNL     1       3.267   2.306  -0.116  1.00  0.00     0.161 HD
BRANCH  19  21
HETATM   21  C11 UNL     1       4.979   1.267  -0.849  1.00  0.00     0.172 C 
HETATM   22  S2  UNL     1       5.355   0.136  -1.943  1.00  0.00    -0.041 SA
BRANCH  21  23
HETATM   23  N6  UNL     1       5.880   1.985  -0.036  1.00  0.00    -0.331 N 
ATOM     24  H6  UNL     1       5.450   2.691   0.562  1.00  0.00     0.168 HD
BRANCH  23  25
HETATM   25  C12 UNL     1       7.274   1.881   0.080  1.00  0.00     0.079 A 
HETATM   26  C13 UNL     1       8.043   0.924  -0.510  1.00  0.00     0.078 A 
HETATM   27  C14 UNL     1       9.428   0.862  -0.339  1.00  0.00     0.160 A 
HETATM   28  F1  UNL     1      10.135  -0.110  -0.950  1.00  0.00    -0.203 F 
HETATM   29  C15 UNL     1      10.064   1.790   0.450  1.00  0.00     0.196 A 
HETATM   30  F2  UNL     1      11.394   1.740   0.622  1.00  0.00    -0.199 F 
HETATM   31  C16 UNL     1       9.307   2.773   1.062  1.00  0.00     0.198 A 
HETATM   32  F3  UNL     1       9.933   3.689   1.841  1.00  0.00    -0.199 F 
HETATM   33  C17 UNL     1       7.962   2.826   0.891  1.00  0.00     0.184 A 
HETATM   34  F4  UNL     1       7.251   3.798   1.499  1.00  0.00    -0.200 F 
ENDBRANCH  23  25
ENDBRANCH  21  23
ENDBRANCH  19  21
ENDBRANCH  18  19
ENDBRANCH  17  18
ENDBRANCH  15  17
ENDBRANCH  13  14
ENDBRANCH   1  13
BRANCH   1  35
HETATM   35  C18 UNL     1      -1.701  -2.853  -0.091  1.00  0.00     0.058 A 
HETATM   36  C19 UNL     1      -2.415  -3.149  -1.217  1.00  0.00     0.067 A 
HETATM   37  C20 UNL     1      -2.684  -4.462  -1.530  1.00  0.00     0.070 A 
HETATM   38  C21 UNL     1      -2.237  -5.482  -0.713  1.00  0.00     0.074 A 
HETATM   39  C22 UNL     1      -1.505  -5.199   0.443  1.00  0.00     0.092 A 
HETATM   40  C23 UNL     1      -1.246  -3.876   0.739  1.00  0.00     0.093 A 
HETATM   41 CL1  UNL     1      -0.318  -3.554   2.198  1.00  0.00    -0.079 Cl
BRANCH  37  42
HETATM   42  O1  UNL     1      -3.407  -4.784  -2.669  1.00  0.00    -0.361 OA
ATOM     43  H1  UNL     1      -3.593  -5.690  -2.885  1.00  0.00     0.217 HD
ENDBRANCH  37  42
BRANCH  39  44
HETATM   44  O2  UNL     1      -1.054  -6.210   1.265  1.00  0.00    -0.359 OA
ATOM     45  H2  UNL     1      -0.556  -6.018   2.051  1.00  0.00     0.217 HD
ENDBRANCH  39  44
ENDBRANCH   1  35
TORSDOF 17
