REMARK  13 active torsions:
REMARK  status: ('A' for Active; 'I' for Inactive)
REMARK    1  A    between atoms: N1_1  and  C1_5 
REMARK    2  A    between atoms: C1_5  and  C2_6 
REMARK    3  A    between atoms: C2_6  and  C3_7 
REMARK    4  A    between atoms: C12_16  and  O1_17 
REMARK    5  A    between atoms: C13_19  and  O2_20 
REMARK    6  A    between atoms: O2_20  and  C14_21 
REMARK    7  A    between atoms: C15_23  and  C16_24 
REMARK    8  A    between atoms: C16_24  and  O4_25 
REMARK    9  A    between atoms: O4_25  and  C17_26 
REMARK   10  A    between atoms: C19_29  and  O6_30 
REMARK   11  A    between atoms: C20_32  and  O7_33 
REMARK   12  A    between atoms: C21_35  and  O8_36 
REMARK   13  A    between atoms: C22_38  and  O9_39 
ROOT
HETATM    1  C14 UNL     1       0.315   0.682   0.613  1.00  0.00     0.292 C 
HETATM    2  O3  UNL     1       1.297   1.403  -0.114  1.00  0.00    -0.348 OA
HETATM    3  C15 UNL     1       1.980   1.497   1.101  1.00  0.00     0.182 C 
HETATM    4  C22 UNL     1       1.474   0.110   1.413  1.00  0.00     0.204 C 
ENDROOT
BRANCH   1   5
HETATM    5  O2  UNL     1      -0.381  -0.228  -0.139  1.00  0.00    -0.350 OA
BRANCH   5   6
HETATM    6  C13 UNL     1      -1.772  -0.152  -0.049  1.00  0.00     0.157 C 
HETATM    7  C3  UNL     1      -2.360   0.216  -1.367  1.00  0.00     0.019 C 
HETATM    8  C4  UNL     1      -3.631  -0.452  -1.749  1.00  0.00     0.007 C 
HETATM    9  C5  UNL     1      -4.851   0.028  -1.006  1.00  0.00     0.000 C 
HETATM   10  C6  UNL     1      -5.926  -1.065  -0.974  1.00  0.00     0.000 C 
HETATM   11  C7  UNL     1      -6.514  -1.184   0.403  1.00  0.00     0.000 C 
HETATM   12  C8  UNL     1      -5.850  -2.295   1.207  1.00  0.00     0.000 C 
HETATM   13  C9  UNL     1      -5.131  -1.686   2.364  1.00  0.00     0.000 C 
HETATM   14  C10 UNL     1      -3.692  -2.132   2.499  1.00  0.00     0.002 C 
HETATM   15  C11 UNL     1      -2.721  -1.091   2.006  1.00  0.00     0.034 C 
HETATM   16  C12 UNL     1      -2.256  -1.398   0.582  1.00  0.00     0.147 C 
BRANCH   7  17
HETATM   17  C2  UNL     1      -2.530   1.712  -1.395  1.00  0.00     0.034 C 
BRANCH  17  18
HETATM   18  C1  UNL     1      -2.914   2.277  -2.716  1.00  0.00     0.230 C 
BRANCH  18  19
HETATM   19  N1  UNL     1      -1.907   1.980  -3.744  1.00  0.00    -0.079 N 
ATOM     20  H13 UNL     1      -0.980   2.295  -3.459  1.00  0.00     0.274 HD
ATOM     21  H12 UNL     1      -1.722   0.979  -3.806  1.00  0.00     0.274 HD
ATOM     22  H11 UNL     1      -2.170   2.368  -4.650  1.00  0.00     0.274 HD
ENDBRANCH  18  19
ENDBRANCH  17  18
ENDBRANCH   7  17
BRANCH  16  23
HETATM   23  O1  UNL     1      -1.261  -2.372   0.742  1.00  0.00    -0.393 OA
ATOM     24  H1  UNL     1      -0.972  -2.563  -0.143  1.00  0.00     0.210 HD
ENDBRANCH  16  23
ENDBRANCH   5   6
ENDBRANCH   1   5
BRANCH   4  25
HETATM   25  O9  UNL     1       2.187  -0.882   0.745  1.00  0.00    -0.388 OA
ATOM     26  H9  UNL     1       2.911  -1.239   1.245  1.00  0.00     0.210 HD
ENDBRANCH   4  25
BRANCH   3  27
HETATM   27  C16 UNL     1       3.476   1.613   0.974  1.00  0.00     0.205 C 
BRANCH  27  28
HETATM   28  O4  UNL     1       4.047   0.542   0.329  1.00  0.00    -0.356 OA
BRANCH  28  29
HETATM   29  C17 UNL     1       5.428   0.767   0.272  1.00  0.00     0.290 C 
HETATM   30  O5  UNL     1       6.137  -0.235   0.927  1.00  0.00    -0.356 OA
HETATM   31  C18 UNL     1       7.463   0.182   1.006  1.00  0.00     0.205 C 
HETATM   32  C19 UNL     1       8.052   0.278  -0.400  1.00  0.00     0.173 C 
HETATM   33  C20 UNL     1       6.983  -0.085  -1.434  1.00  0.00     0.182 C 
HETATM   34  C21 UNL     1       5.836   0.882  -1.182  1.00  0.00     0.204 C 
BRANCH  32  35
HETATM   35  O6  UNL     1       9.092  -0.639  -0.571  1.00  0.00    -0.391 OA
ATOM     36  H6  UNL     1       9.458  -0.579  -1.445  1.00  0.00     0.210 HD
ENDBRANCH  32  35
BRANCH  33  37
HETATM   37  O7  UNL     1       6.570  -1.392  -1.280  1.00  0.00    -0.390 OA
ATOM     38  H7  UNL     1       5.907  -1.617  -1.922  1.00  0.00     0.210 HD
ENDBRANCH  33  37
BRANCH  34  39
HETATM   39  O8  UNL     1       6.322   2.153  -1.489  1.00  0.00    -0.388 OA
ATOM     40  H8  UNL     1       6.578   2.225  -2.401  1.00  0.00     0.210 HD
ENDBRANCH  34  39
ENDBRANCH  28  29
ENDBRANCH  27  28
ENDBRANCH   3  27
TORSDOF 13
