REMARK  9 active torsions:
REMARK  status: ('A' for Active; 'I' for Inactive)
REMARK    1  A    between atoms: C2_2  and  C3_4 
REMARK    2  A    between atoms: C3_4  and  C4_5 
REMARK    3  A    between atoms: C3_4  and  N1_12 
REMARK    4  A    between atoms: C4_5  and  C5_6 
REMARK       I    between atoms: N1_12  and  C11_14 
REMARK    5  A    between atoms: C11_14  and  C12_16 
REMARK    6  A    between atoms: C12_16  and  N2_17 
REMARK    7  A    between atoms: C12_16  and  C29_41 
REMARK       I    between atoms: N2_17  and  C13_19 
REMARK       I    between atoms: C13_19  and  N3_21 
REMARK    8  A    between atoms: C16_24  and  C17_25 
REMARK       I    between atoms: C17_25  and  N4_27 
REMARK    9  A    between atoms: N4_27  and  C18_29 
ROOT
HETATM    1  N2  UNL     1      -1.428   1.723  -0.285  1.00  0.00    -0.326 N 
ATOM      2  H2  UNL     1      -1.280   1.437   0.683  1.00  0.00     0.165 HD
HETATM    3  C13 UNL     1      -0.378   1.602  -1.231  1.00  0.00     0.319 C 
HETATM    4  O2  UNL     1      -0.597   1.974  -2.450  1.00  0.00    -0.247 OA
HETATM    5  N3  UNL     1       0.911   1.098  -0.952  1.00  0.00    -0.334 N 
HETATM    6  C14 UNL     1       1.239   0.667   0.385  1.00  0.00     0.128 C 
HETATM    7  C15 UNL     1       2.054  -0.640   0.323  1.00  0.00     0.034 C 
HETATM    8  C16 UNL     1       3.234  -0.374  -0.567  1.00  0.00     0.081 C 
HETATM    9  C27 UNL     1       2.669  -0.261  -1.986  1.00  0.00     0.034 C 
HETATM   10  C28 UNL     1       1.885   1.021  -2.035  1.00  0.00     0.128 C 
ENDROOT
BRANCH   1  11
HETATM   11  C12 UNL     1      -2.737   2.264  -0.706  1.00  0.00     0.211 C 
BRANCH  11  12
HETATM   12  C11 UNL     1      -3.667   1.125  -0.802  1.00  0.00     0.245 C 
HETATM   13  N1  UNL     1      -5.023   1.186  -1.170  1.00  0.00    -0.348 N 
ATOM     14  H1  UNL     1      -5.434   2.093  -1.390  1.00  0.00     0.163 HD
HETATM   15  O1  UNL     1      -3.218  -0.034  -0.533  1.00  0.00    -0.271 OA
BRANCH  13  16
HETATM   16  C3  UNL     1      -5.875  -0.028  -1.248  1.00  0.00     0.141 C 
BRANCH  16  17
HETATM   17  C2  UNL     1      -6.179  -0.312  -2.683  1.00  0.00     0.192 C 
HETATM   18  C1  UNL     1      -4.831  -0.384  -3.473  1.00  0.00     0.047 C 
HETATM   19  F1  UNL     1      -6.832  -1.503  -2.916  1.00  0.00    -0.247 F 
ENDBRANCH  16  17
BRANCH  16  20
HETATM   20  C4  UNL     1      -6.939   0.140  -0.274  1.00  0.00     0.004 C 
BRANCH  20  21
HETATM   21  C5  UNL     1      -7.930  -0.872   0.076  1.00  0.00    -0.082 C 
HETATM   22  C6  UNL     1      -7.412  -2.188   0.606  1.00  0.00     0.034 C 
HETATM   23  C7  UNL     1      -8.560  -2.802   1.410  1.00  0.00     0.004 C 
HETATM   24  C8  UNL     1      -9.848  -2.868   0.664  1.00  0.00     0.001 C 
HETATM   25  C9  UNL     1     -10.269  -1.497   0.119  1.00  0.00     0.004 C 
HETATM   26  C10 UNL     1      -9.089  -1.127  -0.830  1.00  0.00     0.034 C 
ENDBRANCH  20  21
ENDBRANCH  16  20
ENDBRANCH  13  16
ENDBRANCH  11  12
BRANCH  11  27
HETATM   27  C29 UNL     1      -3.139   3.304   0.235  1.00  0.00    -0.026 A 
HETATM   28  C30 UNL     1      -3.061   3.045   1.600  1.00  0.00     0.010 A 
HETATM   29  C31 UNL     1      -3.425   4.013   2.519  1.00  0.00     0.001 A 
HETATM   30  C32 UNL     1      -3.868   5.244   2.114  1.00  0.00     0.000 A 
HETATM   31  C33 UNL     1      -3.938   5.481   0.743  1.00  0.00     0.001 A 
HETATM   32  C34 UNL     1      -3.581   4.531  -0.174  1.00  0.00     0.010 A 
ENDBRANCH  11  27
ENDBRANCH   1  11
BRANCH   8  33
HETATM   33  C17 UNL     1       4.271  -1.424  -0.524  1.00  0.00     0.222 C 
HETATM   34  O3  UNL     1       3.878  -2.611  -0.699  1.00  0.00    -0.273 OA
HETATM   35  N4  UNL     1       5.613  -1.081  -0.300  1.00  0.00    -0.356 N 
ATOM     36  H4  UNL     1       5.863  -0.102  -0.161  1.00  0.00     0.162 HD
BRANCH  35  37
HETATM   37  C18 UNL     1       6.636  -2.079  -0.263  1.00  0.00     0.086 C 
HETATM   38  C19 UNL     1       7.599  -1.971  -1.420  1.00  0.00     0.027 C 
HETATM   39  C20 UNL     1       8.668  -0.951  -1.213  1.00  0.00     0.030 C 
HETATM   40  C21 UNL     1       9.627  -1.443  -0.126  1.00  0.00     0.237 C 
HETATM   41  N5  UNL     1       9.352  -0.742   1.115  1.00  0.00    -0.067 N 
HETATM   42  C22 UNL     1       9.712   0.648   0.948  1.00  0.00     0.239 C 
HETATM   43  C24 UNL     1      10.335  -0.865   2.146  1.00  0.00     0.239 C 
HETATM   44  C25 UNL     1       7.968  -0.864   1.508  1.00  0.00     0.239 C 
HETATM   45  C23 UNL     1      10.354   0.634   2.303  1.00  0.00     0.056 C 
HETATM   46  C26 UNL     1       7.320  -2.130   1.082  1.00  0.00     0.053 C 
ENDBRANCH  35  37
ENDBRANCH   8  33
TORSDOF 9
