REMARK  13 active torsions:
REMARK  status: ('A' for Active; 'I' for Inactive)
REMARK    1  A    between atoms: C2_2  and  C3_3 
REMARK    2  A    between atoms: C3_3  and  C4_4 
REMARK    3  A    between atoms: C5_6  and  C6_7 
REMARK    4  A    between atoms: C6_7  and  C7_8 
REMARK    5  A    between atoms: C7_8  and  O2_9 
REMARK    6  A    between atoms: C7_8  and  C8_11 
REMARK    7  A    between atoms: N1_23  and  C20_24 
REMARK    8  A    between atoms: C20_24  and  C21_25 
REMARK    9  A    between atoms: C21_25  and  C23_27 
REMARK   10  A    between atoms: C23_27  and  N2_28 
REMARK       I    between atoms: N2_28  and  C24_30 
REMARK   11  A    between atoms: C24_30  and  C25_32 
REMARK   12  A    between atoms: C25_32  and  N3_33 
REMARK   13  A    between atoms: C36_48  and  O5_49 
ROOT
HETATM    1  C8  UNL     1      -0.600  -0.252   0.130  1.00  0.00     0.019 C 
HETATM    2  C9  UNL     1      -0.034   1.123   0.326  1.00  0.00     0.008 C 
HETATM    3  C10 UNL     1       1.475   1.023   0.040  1.00  0.00     0.008 C 
HETATM    4  C11 UNL     1       1.551  -0.261  -0.708  1.00  0.00     0.029 C 
HETATM    5  C12 UNL     1       0.630  -1.121   0.166  1.00  0.00    -0.001 C 
HETATM    6  C13 UNL     1       0.438  -2.452  -0.504  1.00  0.00     0.006 C 
HETATM    7  C14 UNL     1       1.402  -2.682  -1.646  1.00  0.00     0.012 C 
HETATM    8  C15 UNL     1       2.823  -2.307  -1.290  1.00  0.00    -0.003 C 
HETATM    9  C16 UNL     1       3.668  -2.631  -2.502  1.00  0.00     0.018 C 
HETATM   10  C17 UNL     1       3.355  -3.080  -0.133  1.00  0.00     0.020 C 
HETATM   11  C18 UNL     1       4.176  -4.286  -0.539  1.00  0.00     0.012 C 
HETATM   12  C19 UNL     1       4.270  -2.066   0.546  1.00  0.00     0.278 C 
HETATM   13  N1  UNL     1       3.748  -0.786   0.274  1.00  0.00     0.099 N 
HETATM   14  C26 UNL     1       2.919  -0.843  -0.883  1.00  0.00     0.167 C 
HETATM   15  C27 UNL     1       3.522  -0.114  -2.087  1.00  0.00     0.050 C 
ENDROOT
BRANCH   1  16
HETATM   16  C7  UNL     1      -1.627  -0.611   1.185  1.00  0.00     0.125 C 
BRANCH  16  17
HETATM   17  C6  UNL     1      -2.782   0.294   1.210  1.00  0.00     0.067 C 
BRANCH  17  18
HETATM   18  C5  UNL     1      -3.693   0.394   0.047  1.00  0.00     0.160 C 
HETATM   19  O1  UNL     1      -4.644   1.391   0.438  1.00  0.00    -0.368 OA
HETATM   20  C4  UNL     1      -5.931   1.144   0.051  1.00  0.00     0.095 C 
HETATM   21  C30 UNL     1      -5.887   0.960  -1.465  1.00  0.00    -0.011 C 
HETATM   22  C36 UNL     1      -6.565  -0.096   0.613  1.00  0.00     0.167 C 
HETATM   23  C29 UNL     1      -5.189  -0.358  -1.698  1.00  0.00     0.053 C 
HETATM   24  C31 UNL     1      -5.048   2.121  -2.019  1.00  0.00     0.018 C 
HETATM   25  C32 UNL     1      -7.202   1.022  -2.149  1.00  0.00     0.018 C 
HETATM   26  C28 UNL     1      -4.497  -0.736  -0.386  1.00  0.00     0.101 C 
HETATM   27  O4  UNL     1      -4.104  -2.026  -0.456  1.00  0.00    -0.370 OA
HETATM   28  C35 UNL     1      -5.449  -1.097   0.705  1.00  0.00     0.051 A 
HETATM   29  C33 UNL     1      -5.384  -2.356  -0.008  1.00  0.00     0.138 A 
HETATM   30  C34 UNL     1      -5.517  -2.321   1.456  1.00  0.00     0.051 A 
BRANCH  20  31
HETATM   31  C3  UNL     1      -6.740   2.349   0.429  1.00  0.00     0.041 C 
BRANCH  31  32
HETATM   32  C2  UNL     1      -6.640   2.595   1.906  1.00  0.00    -0.002 C 
HETATM   33  C1  UNL     1      -7.439   3.826   2.319  1.00  0.00     0.005 C 
ENDBRANCH  31  32
ENDBRANCH  20  31
BRANCH  22  34
HETATM   34  O5  UNL     1      -7.610  -0.549  -0.185  1.00  0.00    -0.392 OA
ATOM     35  H5  UNL     1      -8.011  -1.333   0.171  1.00  0.00     0.210 HD
ENDBRANCH  22  34
ENDBRANCH  17  18
ENDBRANCH  16  17
BRANCH  16  36
HETATM   36  O2  UNL     1      -1.893  -1.947   1.035  1.00  0.00    -0.395 OA
ATOM     37  H2  UNL     1      -1.145  -2.533   1.019  1.00  0.00     0.210 HD
ENDBRANCH  16  36
ENDBRANCH   1  16
BRANCH  13  38
HETATM   38  C20 UNL     1       4.654   0.305   0.321  1.00  0.00     0.279 C 
BRANCH  38  39
HETATM   39  C21 UNL     1       5.180   0.715   1.647  1.00  0.00     0.028 C 
HETATM   40  C22 UNL     1       5.963  -0.355   2.360  1.00  0.00     0.013 C 
BRANCH  39  41
HETATM   41  C23 UNL     1       6.132   1.890   1.475  1.00  0.00     0.128 C 
BRANCH  41  42
HETATM   42  N2  UNL     1       7.273   1.567   0.636  1.00  0.00    -0.359 N 
HETATM   43  C24 UNL     1       8.280   2.510   0.338  1.00  0.00     0.243 C 
HETATM   44  O3  UNL     1       8.191   3.665   0.812  1.00  0.00    -0.272 OA
ATOM     45  H2  UNL     1       7.349   0.626   0.249  1.00  0.00     0.162 HD
BRANCH  43  46
HETATM   46  C25 UNL     1       9.427   2.163  -0.516  1.00  0.00     0.331 C 
BRANCH  46  47
HETATM   47  N3  UNL     1      10.343   3.273  -0.683  1.00  0.00    -0.071 N 
ATOM     48  H33 UNL     1       9.860   4.100  -1.033  1.00  0.00     0.274 HD
ATOM     49  H32 UNL     1      10.652   3.635   0.219  1.00  0.00     0.274 HD
ATOM     50  H31 UNL     1      11.138   3.032  -1.275  1.00  0.00     0.274 HD
ENDBRANCH  46  47
ENDBRANCH  43  46
ENDBRANCH  41  42
ENDBRANCH  39  41
ENDBRANCH  38  39
ENDBRANCH  13  38
TORSDOF 13
