REMARK  5 active torsions:
REMARK  status: ('A' for Active; 'I' for Inactive)
REMARK    1  A    between atoms: C2_2  and  C3_3 
REMARK    2  A    between atoms: C3_3  and  C4_4 
REMARK    3  A    between atoms: C4_4  and  N1_5 
REMARK       I    between atoms: N1_5  and  C5_7 
REMARK       I    between atoms: C5_7  and  N2_9 
REMARK       I    between atoms: N3_11  and  C7_12 
REMARK       I    between atoms: C7_12  and  N4_14 
REMARK    4  A    between atoms: C8_16  and  N5_17 
REMARK    5  A    between atoms: N5_17  and  C9_19 
ROOT
HETATM    1  N1  UNL     1       3.860  -0.625  -0.881  1.00  0.00    -0.343 N 
ATOM      2  H1  UNL     1       4.042  -1.629  -0.877  1.00  0.00     0.164 HD
HETATM    3  C5  UNL     1       2.625  -0.166  -0.385  1.00  0.00     0.320 C 
HETATM    4  O1  UNL     1       2.396   1.068  -0.394  1.00  0.00    -0.247 OA
HETATM    5  N2  UNL     1       1.596  -1.025   0.137  1.00  0.00    -0.307 N 
HETATM    6  C6  UNL     1       0.325  -0.519   0.630  1.00  0.00     0.259 C 
HETATM    7  N3  UNL     1      -0.539  -1.692   0.691  1.00  0.00    -0.315 N 
HETATM    8  C7  UNL     1      -1.938  -1.806   0.490  1.00  0.00     0.324 C 
HETATM    9  O2  UNL     1      -2.503  -2.947   0.594  1.00  0.00    -0.247 OA
HETATM   10  N4  UNL     1      -2.794  -0.742   0.176  1.00  0.00    -0.305 N 
ATOM     11  H4  UNL     1      -3.561  -0.956  -0.462  1.00  0.00     0.171 HD
HETATM   12  C8  UNL     1      -2.729   0.457   0.591  1.00  0.00     0.186 C 
HETATM   13  C14 UNL     1       0.344  -2.784   1.013  1.00  0.00     0.160 C 
HETATM   14  C15 UNL     1       1.603  -2.442   0.270  1.00  0.00     0.047 C 
HETATM   15  C16 UNL     1       1.570  -3.064  -1.111  1.00  0.00     0.040 C 
HETATM   16  C17 UNL     1       2.800  -2.949   1.062  1.00  0.00     0.040 C 
ENDROOT
BRANCH  12  17
HETATM   17  N5  UNL     1      -3.706   1.415   0.154  1.00  0.00    -0.337 N 
ATOM     18  H5  UNL     1      -3.427   2.223  -0.402  1.00  0.00     0.168 HD
BRANCH  17  19
HETATM   19  C9  UNL     1      -4.944   1.235   0.478  1.00  0.00     0.128 A 
HETATM   20  N6  UNL     1      -5.452   0.210   1.210  1.00  0.00    -0.285 N 
HETATM   21  N7  UNL     1      -6.752   0.372   1.329  1.00  0.00    -0.303 N 
ATOM     22  H6  UNL     1      -4.913  -0.561   1.604  1.00  0.00     0.188 HD
HETATM   23  C10 UNL     1      -7.130   1.489   0.690  1.00  0.00     0.031 A 
ATOM     24  H7  UNL     1      -7.378  -0.257   1.832  1.00  0.00     0.186 HD
HETATM   25  C11 UNL     1      -8.486   2.069   0.555  1.00  0.00     0.070 C 
HETATM   26  C12 UNL     1      -5.994   2.064   0.135  1.00  0.00     0.007 A 
HETATM   27  C13 UNL     1      -5.971   3.321  -0.661  1.00  0.00     0.054 C 
ENDBRANCH  17  19
ENDBRANCH  12  17
BRANCH   1  28
HETATM   28  C4  UNL     1       4.876   0.253  -1.393  1.00  0.00     0.124 C 
BRANCH  28  29
HETATM   29  C3  UNL     1       5.375   1.226  -0.356  1.00  0.00     0.019 C 
BRANCH  29  30
HETATM   30  C2  UNL     1       6.440   2.123  -0.945  1.00  0.00    -0.003 C 
HETATM   31  C1  UNL     1       7.607   1.307  -1.436  1.00  0.00     0.005 C 
ENDBRANCH  29  30
ENDBRANCH  28  29
ENDBRANCH   1  28
TORSDOF 5
