REMARK  7 active torsions:
REMARK  status: ('A' for Active; 'I' for Inactive)
REMARK    1  A    between atoms: C2_2  and  N1_5 
REMARK       I    between atoms: C5_7  and  N2_8 
REMARK       I    between atoms: C5_7  and  N4_19 
REMARK    2  A    between atoms: N2_8  and  C6_10 
REMARK    3  A    between atoms: C6_10  and  C7_11 
REMARK    4  A    between atoms: C8_12  and  C9_13 
REMARK    5  A    between atoms: C9_13  and  C10_14 
REMARK    6  A    between atoms: C10_14  and  N3_15 
REMARK       I    between atoms: N4_19  and  C14_21 
REMARK       I    between atoms: C14_21  and  N5_23 
REMARK    7  A    between atoms: N5_23  and  C15_25 
ROOT
HETATM    1  N1  UNL     1       1.699  -2.579  -1.231  1.00  0.00    -0.218 N 
ATOM      2  H1  UNL     1       1.339  -3.157  -1.990  1.00  0.00     0.178 HD
HETATM    3  C5  UNL     1       1.397  -1.361  -1.342  1.00  0.00     0.679 C 
HETATM    4  N2  UNL     1       0.627  -0.938  -2.452  1.00  0.00    -0.216 N 
ATOM      5  H2  UNL     1       0.998  -0.213  -3.066  1.00  0.00     0.178 HD
HETATM    6  N4  UNL     1       1.801  -0.411  -0.392  1.00  0.00    -0.141 N 
ATOM      7  H4  UNL     1       2.350  -0.755   0.396  1.00  0.00     0.189 HD
HETATM    8  C14 UNL     1       1.524   0.971  -0.418  1.00  0.00     0.339 C 
HETATM    9  O1  UNL     1       0.851   1.473  -1.360  1.00  0.00    -0.246 OA
HETATM   10  N5  UNL     1       2.000   1.819   0.620  1.00  0.00    -0.308 N 
ATOM     11  H5  UNL     1       1.375   1.998   1.406  1.00  0.00     0.170 HD
ENDROOT
BRANCH   1  12
HETATM   12  C2  UNL     1       2.433  -3.306  -0.271  1.00  0.00     0.036 C 
HETATM   13  C1  UNL     1       3.870  -2.879  -0.124  1.00  0.00     0.038 C 
HETATM   14  C3  UNL     1       1.820  -3.332   1.106  1.00  0.00     0.038 C 
HETATM   15  C4  UNL     1       2.472  -4.767  -0.768  1.00  0.00     0.038 C 
ENDBRANCH   1  12
BRANCH   4  16
HETATM   16  C6  UNL     1      -0.688  -1.513  -2.743  1.00  0.00     0.232 C 
BRANCH  16  17
HETATM   17  C7  UNL     1      -1.650  -1.126  -1.716  1.00  0.00    -0.086 C 
HETATM   18  C8  UNL     1      -2.446  -0.781  -0.857  1.00  0.00    -0.103 C 
BRANCH  18  19
HETATM   19  C9  UNL     1      -3.386  -0.344   0.176  1.00  0.00     0.122 C 
BRANCH  19  20
HETATM   20  C10 UNL     1      -4.104   0.881  -0.338  1.00  0.00     0.248 C 
BRANCH  20  21
HETATM   21  N3  UNL     1      -5.056   1.409   0.587  1.00  0.00    -0.078 N 
HETATM   22  C11 UNL     1      -4.508   2.673   1.095  1.00  0.00     0.271 C 
HETATM   23  C12 UNL     1      -6.337   1.724  -0.026  1.00  0.00     0.271 C 
HETATM   24  C13 UNL     1      -5.282   0.555   1.727  1.00  0.00     0.271 C 
ENDBRANCH  20  21
ENDBRANCH  19  20
ENDBRANCH  18  19
ENDBRANCH  16  17
ENDBRANCH   4  16
BRANCH  10  25
HETATM   25  C15 UNL     1       3.145   2.371   0.642  1.00  0.00     0.038 A 
HETATM   26  C16 UNL     1       4.087   2.215  -0.354  1.00  0.00     0.046 A 
HETATM   27  C17 UNL     1       5.315   2.855  -0.252  1.00  0.00     0.090 A 
HETATM   28  N6  UNL     1       5.540   3.607   0.822  1.00  0.00    -0.375 N 
HETATM   29  C18 UNL     1       4.660   3.782   1.803  1.00  0.00     0.090 A 
ATOM     30  H6  UNL     1       6.442   4.078   0.897  1.00  0.00     0.164 HD
HETATM   31  C19 UNL     1       3.441   3.169   1.736  1.00  0.00     0.046 A 
ENDBRANCH  10  25
TORSDOF 7
