REMARK  11 active torsions:
REMARK  status: ('A' for Active; 'I' for Inactive)
REMARK    1  A    between atoms: C6_6  and  N1_7 
REMARK    2  A    between atoms: N1_7  and  C7_9 
REMARK    3  A    between atoms: C7_9  and  N2_11 
REMARK    4  A    between atoms: N2_11  and  C8_13 
REMARK    5  A    between atoms: C8_13  and  C9_14 
REMARK    6  A    between atoms: C9_14  and  O1_15 
REMARK    7  A    between atoms: C9_14  and  C10_17 
REMARK    8  A    between atoms: C10_17  and  N3_18 
REMARK       I    between atoms: N3_18  and  C12_20 
REMARK    9  A    between atoms: C12_20  and  O3_22 
REMARK   10  A    between atoms: O3_22  and  C13_23 
REMARK   11  A    between atoms: C13_23  and  C14_24 
ROOT
HETATM    1  N2  UNL     1       0.723  -1.786  -0.163  1.00  0.00    -0.364 N 
ATOM      2  H2  UNL     1       0.386  -2.414  -0.893  1.00  0.00     0.162 HD
ENDROOT
BRANCH   1   3
HETATM    3  C7  UNL     1       2.014  -1.297  -0.367  1.00  0.00     0.172 C 
HETATM    4  S1  UNL     1       2.771  -1.755  -1.789  1.00  0.00    -0.041 SA
BRANCH   3   5
HETATM    5  N1  UNL     1       2.762  -0.458   0.478  1.00  0.00    -0.332 N 
ATOM      6  H1  UNL     1       2.351  -0.158   1.362  1.00  0.00     0.168 HD
BRANCH   5   7
HETATM    7  C6  UNL     1       4.084  -0.008   0.142  1.00  0.00     0.046 A 
HETATM    8  C4  UNL     1       5.213  -0.727   0.511  1.00  0.00    -0.034 A 
HETATM    9  C3  UNL     1       6.495  -0.298   0.184  1.00  0.00     0.015 A 
HETATM   10  C5  UNL     1       5.086  -1.979   1.275  1.00  0.00     0.050 C 
HETATM   11  C2  UNL     1       6.672   0.865  -0.523  1.00  0.00    -0.061 A 
HETATM   12  C1  UNL     1       8.045   1.321  -0.873  1.00  0.00     0.048 C 
HETATM   13  C19 UNL     1       5.574   1.585  -0.894  1.00  0.00     0.015 A 
HETATM   14  C17 UNL     1       4.290   1.158  -0.568  1.00  0.00    -0.034 A 
HETATM   15  C18 UNL     1       3.155   1.997  -1.005  1.00  0.00     0.050 C 
ENDBRANCH   5   7
ENDBRANCH   3   5
ENDBRANCH   1   3
BRANCH   1  16
HETATM   16  C8  UNL     1      -0.201  -1.555   0.892  1.00  0.00     0.155 C 
BRANCH  16  17
HETATM   17  C9  UNL     1      -0.906  -0.235   0.876  1.00  0.00     0.153 C 
BRANCH  17  18
HETATM   18  O1  UNL     1      -0.047   0.816   0.940  1.00  0.00    -0.392 OA
ATOM     19  H1  UNL     1      -0.495   1.654   0.930  1.00  0.00     0.210 HD
ENDBRANCH  17  18
BRANCH  17  20
HETATM   20  C10 UNL     1      -1.782  -0.131  -0.392  1.00  0.00     0.161 C 
BRANCH  20  21
HETATM   21  N3  UNL     1      -2.563   1.076  -0.399  1.00  0.00    -0.330 N 
HETATM   22  C11 UNL     1      -2.012   2.264  -0.996  1.00  0.00     0.155 C 
HETATM   23  C12 UNL     1      -3.889   1.100   0.184  1.00  0.00     0.362 C 
HETATM   24  O2  UNL     1      -4.529   2.173   0.154  1.00  0.00    -0.238 OA
BRANCH  23  25
HETATM   25  O3  UNL     1      -4.462   0.029   0.756  1.00  0.00    -0.304 OA
BRANCH  25  26
HETATM   26  C13 UNL     1      -5.645  -0.265   1.352  1.00  0.00     0.184 C 
BRANCH  26  27
HETATM   27  C14 UNL     1      -6.917  -0.270   0.603  1.00  0.00     0.002 C 
HETATM   28  C15 UNL     1      -7.348   1.012  -0.031  1.00  0.00     0.011 C 
HETATM   29  C16 UNL     1      -7.006  -1.407  -0.407  1.00  0.00     0.011 C 
ENDBRANCH  26  27
ENDBRANCH  25  26
ENDBRANCH  23  25
ENDBRANCH  20  21
ENDBRANCH  17  20
ENDBRANCH  16  17
ENDBRANCH   1  16
TORSDOF 11
