REMARK  12 active torsions:
REMARK  status: ('A' for Active; 'I' for Inactive)
REMARK    1  A    between atoms: O1_2  and  C2_3 
REMARK    2  A    between atoms: C2_3  and  C3_5 
REMARK    3  A    between atoms: C4_6  and  O3_7 
REMARK    4  A    between atoms: C5_9  and  O4_10 
REMARK    5  A    between atoms: C6_12  and  S1_13 
REMARK    6  A    between atoms: S1_13  and  C7_14 
REMARK    7  A    between atoms: C8_15  and  C9_16 
REMARK    8  A    between atoms: C17_27  and  S2_28 
REMARK    9  A    between atoms: C19_30  and  C20_31 
REMARK   10  A    between atoms: C20_31  and  N4_37 
REMARK   11  A    between atoms: N2_32  and  N3_34 
REMARK   12  A    between atoms: N4_37  and  N5_38 
ROOT
HETATM    1  C3  UNL     1       3.248  -0.051   0.690  1.00  0.00     0.130 C 
HETATM    2  C4  UNL     1       2.119   0.590   1.452  1.00  0.00     0.162 C 
HETATM    3  C5  UNL     1       1.014   1.107   0.595  1.00  0.00     0.163 C 
HETATM    4  C6  UNL     1       0.732   0.070  -0.478  1.00  0.00     0.098 C 
HETATM    5  C17 UNL     1       1.902  -0.049  -1.434  1.00  0.00     0.077 C 
HETATM    6  C19 UNL     1       3.220   0.177  -0.766  1.00  0.00     0.103 C 
ENDROOT
BRANCH   4   7
HETATM    7  S1  UNL     1      -0.782   0.451  -1.333  1.00  0.00    -0.123 SA
BRANCH   7   8
HETATM    8  C7  UNL     1      -2.288   0.246  -0.506  1.00  0.00     0.016 C 
HETATM    9  C8  UNL     1      -3.369   0.862  -1.099  1.00  0.00     0.122 C 
HETATM   10  N1  UNL     1      -4.563   0.723  -0.383  1.00  0.00    -0.361 N 
HETATM   11  C10 UNL     1      -5.759   0.634   0.528  1.00  0.00     0.104 A 
HETATM   12  C12 UNL     1      -4.512   1.150   1.074  1.00  0.00     0.112 A 
HETATM   13  C11 UNL     1      -6.852   1.576   0.150  1.00  0.00     0.034 C 
HETATM   14  C13 UNL     1      -3.409   0.382   1.723  1.00  0.00     0.015 C 
HETATM   15  C14 UNL     1      -3.880  -0.473   2.865  1.00  0.00     0.012 C 
HETATM   16  C15 UNL     1      -2.666  -0.485   0.701  1.00  0.00     0.029 C 
HETATM   17  C16 UNL     1      -1.663  -1.357   1.343  1.00  0.00     0.016 C 
BRANCH   9  18
HETATM   18  C9  UNL     1      -3.244   1.608  -2.325  1.00  0.00     0.227 C 
HETATM   19  O5  UNL     1      -2.138   1.750  -2.925  1.00  0.00    -0.643 OA
HETATM   20  O6  UNL     1      -4.332   2.204  -2.903  1.00  0.00    -0.643 OA
ENDBRANCH   9  18
ENDBRANCH   7   8
ENDBRANCH   4   7
BRANCH   3  21
HETATM   21  O4  UNL     1       1.340   2.306  -0.040  1.00  0.00    -0.392 OA
ATOM     22  H4  UNL     1       0.636   2.635  -0.586  1.00  0.00     0.210 HD
ENDBRANCH   3  21
BRANCH   5  23
HETATM   23  S2  UNL     1       1.649   1.175  -2.745  1.00  0.00    -0.167 SA
HETATM   24  C18 UNL     1       2.955   1.174  -3.972  1.00  0.00     0.090 C 
ENDBRANCH   5  23
BRANCH   2  25
HETATM   25  O3  UNL     1       2.581   1.683   2.214  1.00  0.00    -0.392 OA
ATOM     26  H3  UNL     1       1.869   2.088   2.695  1.00  0.00     0.210 HD
ENDBRANCH   2  25
BRANCH   6  27
HETATM   27  C20 UNL     1       4.240  -0.668  -1.423  1.00  0.00     0.204 C 
HETATM   28  N2  UNL     1       3.948  -1.480  -2.400  1.00  0.00    -0.215 N 
ATOM     29  H2  UNL     1       2.980  -1.531  -2.719  1.00  0.00     0.195 HD
BRANCH  28  30
HETATM   30  N3  UNL     1       4.889  -2.274  -3.022  1.00  0.00    -0.037 N 
HETATM   31  O7  UNL     1       5.392  -3.230  -2.441  1.00  0.00    -0.516 OA
HETATM   32  O8  UNL     1       5.277  -1.993  -4.319  1.00  0.00    -0.516 OA
ENDBRANCH  28  30
BRANCH  27  33
HETATM   33  N4  UNL     1       5.577  -0.623  -1.034  1.00  0.00    -0.317 NA
BRANCH  33  34
HETATM   34  N5  UNL     1       6.659  -0.586  -0.721  1.00  0.00    -0.279 N 
ATOM     35  H52 UNL     1       5.704  -0.592  -1.080  1.00  0.00     0.191 HD
ATOM     36  H51 UNL     1       7.638  -0.553  -0.436  1.00  0.00     0.191 HD
ENDBRANCH  33  34
ENDBRANCH  27  33
ENDBRANCH   6  27
BRANCH   1  37
HETATM   37  C2  UNL     1       3.320  -1.462   1.128  1.00  0.00     0.266 C 
HETATM   38  O2  UNL     1       3.111  -2.372   0.297  1.00  0.00    -0.265 OA
BRANCH  37  39
HETATM   39  O1  UNL     1       3.608  -1.844   2.420  1.00  0.00    -0.326 OA
HETATM   40  C1  UNL     1       3.681  -3.180   2.857  1.00  0.00     0.213 C 
ENDBRANCH  37  39
ENDBRANCH   1  37
TORSDOF 12
