REMARK  9 active torsions:
REMARK  status: ('A' for Active; 'I' for Inactive)
REMARK    1  A    between atoms: C2_2  and  O1_3 
REMARK    2  A    between atoms: O1_3  and  C3_4 
REMARK    3  A    between atoms: C3_4  and  C4_5 
REMARK    4  A    between atoms: C4_5  and  O2_6 
REMARK    5  A    between atoms: C5_8  and  O3_9 
REMARK    6  A    between atoms: C14_21  and  C15_22 
REMARK    7  A    between atoms: C15_22  and  O6_23 
REMARK    8  A    between atoms: C24_35  and  C25_36 
REMARK    9  A    between atoms: C25_36  and  O9_37 
ROOT
HETATM    1  C4  UNL     1       2.779  -1.717   0.824  1.00  0.00     0.132 C 
HETATM    2  C5  UNL     1       1.679  -2.403   0.045  1.00  0.00     0.166 C 
HETATM    3  C6  UNL     1       0.322  -1.733   0.332  1.00  0.00     0.077 C 
HETATM    4  C7  UNL     1       0.460  -1.484   1.855  1.00  0.00     0.178 C 
HETATM    5  O4  UNL     1       1.326  -0.434   2.049  1.00  0.00    -0.382 OA
HETATM    6  C8  UNL     1       2.278  -0.275   1.005  1.00  0.00     0.168 C 
HETATM    7  C9  UNL     1       1.701   0.089  -0.275  1.00  0.00     0.060 C 
HETATM    8  C10 UNL     1       1.569   1.440  -0.779  1.00  0.00     0.027 C 
HETATM    9  C11 UNL     1       0.653   1.138  -1.988  1.00  0.00     0.018 C 
HETATM   10  C12 UNL     1      -0.204  -0.065  -1.552  1.00  0.00     0.054 C 
HETATM   11  C13 UNL     1      -1.653   0.424  -1.329  1.00  0.00     0.166 C 
HETATM   12  O5  UNL     1      -2.392  -0.722  -1.420  1.00  0.00    -0.366 OA
HETATM   13  C14 UNL     1      -3.642  -0.693  -0.898  1.00  0.00     0.108 C 
HETATM   14  C16 UNL     1      -4.196  -2.125  -0.961  1.00  0.00     0.045 C 
HETATM   15  C17 UNL     1      -4.841  -2.497   0.344  1.00  0.00     0.034 C 
HETATM   16  C18 UNL     1      -5.577  -1.378   1.002  1.00  0.00     0.118 C 
HETATM   17  C19 UNL     1      -5.779  -1.772   2.469  1.00  0.00     0.039 C 
HETATM   18  O7  UNL     1      -4.889  -0.175   1.016  1.00  0.00    -0.378 OA
HETATM   19  C20 UNL     1      -3.592  -0.328   0.537  1.00  0.00     0.161 C 
HETATM   20  C21 UNL     1      -2.796   0.866   0.874  1.00  0.00     0.078 C 
HETATM   21  C22 UNL     1      -1.543   1.037   0.014  1.00  0.00     0.112 C 
HETATM   22  C23 UNL     1      -1.301   2.515   0.021  1.00  0.00     0.209 C 
HETATM   23  O8  UNL     1      -0.149   2.957  -0.498  1.00  0.00    -0.380 OA
HETATM   24  C24 UNL     1       1.027   2.519   0.064  1.00  0.00     0.149 C 
HETATM   25  O10 UNL     1      -0.516   0.424   0.662  1.00  0.00    -0.363 OA
HETATM   26  C27 UNL     1       0.221  -0.343  -0.195  1.00  0.00     0.083 C 
ENDROOT
BRANCH   1  27
HETATM   27  C3  UNL     1       4.017  -1.672  -0.022  1.00  0.00     0.210 C 
BRANCH  27  28
HETATM   28  O1  UNL     1       5.023  -0.936   0.624  1.00  0.00    -0.388 OA
BRANCH  28  29
HETATM   29  C2  UNL     1       6.174  -0.876  -0.128  1.00  0.00     0.163 C 
HETATM   30  C1  UNL     1       7.194  -0.069   0.643  1.00  0.00     0.033 C 
ENDBRANCH  28  29
ENDBRANCH  27  28
ENDBRANCH   1  27
BRANCH   1  31
HETATM   31  O2  UNL     1       3.021  -2.315   2.053  1.00  0.00    -0.382 OA
ATOM     32  H2  UNL     1       2.237  -2.343   2.589  1.00  0.00     0.210 HD
ENDBRANCH   1  31
BRANCH   2  33
HETATM   33  O3  UNL     1       1.544  -3.701   0.593  1.00  0.00    -0.392 OA
ATOM     34  H3  UNL     1       0.853  -4.132   0.104  1.00  0.00     0.210 HD
ENDBRANCH   2  33
BRANCH  24  35
HETATM   35  C25 UNL     1       1.984   3.726  -0.006  1.00  0.00     0.199 C 
BRANCH  35  36
HETATM   36  O9  UNL     1       2.178   4.123  -1.324  1.00  0.00    -0.393 OA
HETATM   37  C26 UNL     1       3.050   5.211  -1.287  1.00  0.00     0.201 C 
ENDBRANCH  35  36
ENDBRANCH  24  35
BRANCH  13  38
HETATM   38  C15 UNL     1      -4.554   0.182  -1.721  1.00  0.00     0.204 C 
BRANCH  38  39
HETATM   39  O6  UNL     1      -4.661  -0.271  -3.033  1.00  0.00    -0.398 OA
ATOM     40  H6  UNL     1      -5.235   0.280  -3.551  1.00  0.00     0.209 HD
ENDBRANCH  38  39
ENDBRANCH  13  38
TORSDOF 9
