REMARK  13 active torsions:
REMARK  status: ('A' for Active; 'I' for Inactive)
REMARK    1  A    between atoms: C2_2  and  C3_3 
REMARK    2  A    between atoms: C3_3  and  C5_5 
REMARK    3  A    between atoms: C5_5  and  C6_6 
REMARK    4  A    between atoms: C6_6  and  O2_8 
REMARK    5  A    between atoms: O2_8  and  C7_9 
REMARK    6  A    between atoms: C8_10  and  O3_11 
REMARK    7  A    between atoms: C10_14  and  O4_15 
REMARK    8  A    between atoms: O4_15  and  C11_16 
REMARK    9  A    between atoms: C13_19  and  C14_20 
REMARK   10  A    between atoms: C14_20  and  O6_21 
REMARK   11  A    between atoms: C19_28  and  C20_29 
REMARK   12  A    between atoms: C21_31  and  C22_32 
REMARK   13  A    between atoms: C24_35  and  O10_36 
ROOT
HETATM    1  C7  UNL     1       0.884  -0.699  -0.463  1.00  0.00     0.175 C 
HETATM    2  C8  UNL     1      -0.313  -0.440   0.359  1.00  0.00     0.156 C 
HETATM    3  C9  UNL     1      -1.596   0.020  -0.047  1.00  0.00     0.063 C 
HETATM    4  C10 UNL     1      -1.597   1.511   0.130  1.00  0.00     0.170 C 
HETATM    5  C13 UNL     1      -0.614   1.946  -0.970  1.00  0.00    -0.028 C 
HETATM    6  C15 UNL     1      -0.019   1.316  -1.999  1.00  0.00     0.022 C 
HETATM    7  C16 UNL     1       0.046  -0.015  -2.627  1.00  0.00     0.125 A 
HETATM    8  O7  UNL     1      -0.708  -0.385  -3.700  1.00  0.00    -0.356 OA
HETATM    9  C17 UNL     1      -0.602  -1.196  -2.463  1.00  0.00     0.112 A 
HETATM   10  C18 UNL     1      -1.826  -1.771  -2.048  1.00  0.00     0.061 C 
HETATM   11  C19 UNL     1      -2.403  -2.097  -0.741  1.00  0.00     0.036 C 
HETATM   12  C21 UNL     1      -3.857  -2.564  -1.034  1.00  0.00     0.066 C 
HETATM   13  C23 UNL     1      -4.741  -1.890  -0.050  1.00  0.00     0.045 C 
HETATM   14  C24 UNL     1      -4.062  -0.510  -0.002  1.00  0.00     0.128 C 
HETATM   15  C25 UNL     1      -2.643  -0.952   0.259  1.00  0.00     0.005 C 
HETATM   16  C26 UNL     1      -2.585  -1.335   1.682  1.00  0.00     0.020 C 
HETATM   17  C27 UNL     1       0.664  -1.103  -1.874  1.00  0.00     0.058 A 
HETATM   18  C28 UNL     1       1.661  -2.055  -2.542  1.00  0.00     0.025 C 
ENDROOT
BRANCH   1  19
HETATM   19  O2  UNL     1       1.859   0.273  -0.243  1.00  0.00    -0.312 OA
BRANCH  19  20
HETATM   20  C6  UNL     1       3.090   0.152   0.299  1.00  0.00     0.259 C 
HETATM   21  O1  UNL     1       3.310  -1.020   0.621  1.00  0.00    -0.265 OA
BRANCH  20  22
HETATM   22  C5  UNL     1       4.115   1.179   0.530  1.00  0.00     0.115 C 
BRANCH  22  23
HETATM   23  C3  UNL     1       5.348   0.577   1.167  1.00  0.00    -0.010 C 
HETATM   24  C4  UNL     1       6.001  -0.473   0.334  1.00  0.00     0.010 C 
BRANCH  23  25
HETATM   25  C2  UNL     1       6.347   1.715   1.365  1.00  0.00     0.000 C 
HETATM   26  C1  UNL     1       7.594   1.260   2.054  1.00  0.00     0.005 C 
ENDBRANCH  23  25
ENDBRANCH  22  23
ENDBRANCH  20  22
ENDBRANCH  19  20
ENDBRANCH   1  19
BRANCH   2  27
HETATM   27  O3  UNL     1       0.146   0.384   1.453  1.00  0.00    -0.392 OA
ATOM     28  H3  UNL     1      -0.625   0.551   1.982  1.00  0.00     0.210 HD
ENDBRANCH   2  27
BRANCH   4  29
HETATM   29  O4  UNL     1      -2.811   2.148  -0.002  1.00  0.00    -0.311 OA
BRANCH  29  30
HETATM   30  C11 UNL     1      -3.309   3.011   0.950  1.00  0.00     0.255 C 
HETATM   31  C12 UNL     1      -4.597   3.718   0.862  1.00  0.00     0.126 C 
HETATM   32  O5  UNL     1      -2.582   3.184   1.958  1.00  0.00    -0.266 OA
ENDBRANCH  29  30
ENDBRANCH   4  29
BRANCH   5  33
HETATM   33  C14 UNL     1      -0.228   3.349  -0.899  1.00  0.00     0.200 C 
BRANCH  33  34
HETATM   34  O6  UNL     1       0.398   3.710   0.285  1.00  0.00    -0.397 OA
ATOM     35  H6  UNL     1       0.650   4.625   0.331  1.00  0.00     0.209 HD
ENDBRANCH  33  34
ENDBRANCH   5  33
BRANCH  11  36
HETATM   36  C20 UNL     1      -1.820  -3.314  -0.127  1.00  0.00     0.242 C 
HETATM   37  O8  UNL     1      -0.882  -3.850  -0.668  1.00  0.00    -0.306 OA
ENDBRANCH  11  36
BRANCH  14  38
HETATM   38  O10 UNL     1      -4.284   0.029  -1.252  1.00  0.00    -0.395 OA
ATOM     39  H10 UNL     1      -3.865   0.881  -1.222  1.00  0.00     0.210 HD
ENDBRANCH  14  38
BRANCH  12  40
HETATM   40  C22 UNL     1      -4.006  -4.012  -1.068  1.00  0.00     0.236 C 
HETATM   41  O9  UNL     1      -4.383  -4.613  -0.084  1.00  0.00    -0.306 OA
ENDBRANCH  12  40
TORSDOF 13
