REMARK  6 active torsions:
REMARK  status: ('A' for Active; 'I' for Inactive)
REMARK    1  A    between atoms: C1_4  and  C2_6 
REMARK    2  A    between atoms: C5_9  and  C6_10 
REMARK    3  A    between atoms: C9_13  and  C10_14 
REMARK    4  A    between atoms: C14_18  and  C15_19 
REMARK       I    between atoms: C15_19  and  N3_21 
REMARK    5  A    between atoms: N3_21  and  C16_23 
REMARK    6  A    between atoms: C16_23  and  C17_24 
ROOT
HETATM    1  C6  UNL     1      -3.235  -0.533   0.413  1.00  0.00    -0.026 A 
HETATM    2  C7  UNL     1      -2.434  -0.080  -0.612  1.00  0.00     0.013 A 
HETATM    3  C8  UNL     1      -1.041  -0.192  -0.545  1.00  0.00     0.013 A 
HETATM    4  C9  UNL     1      -0.456  -0.764   0.560  1.00  0.00    -0.026 A 
HETATM    5  C22 UNL     1      -1.250  -1.215   1.579  1.00  0.00     0.013 A 
HETATM    6  C23 UNL     1      -2.624  -1.102   1.509  1.00  0.00     0.013 A 
ENDROOT
BRANCH   4   7
HETATM    7  C10 UNL     1       1.011  -0.883   0.643  1.00  0.00    -0.025 A 
HETATM    8  C11 UNL     1       1.523  -1.946   1.331  1.00  0.00     0.012 A 
HETATM    9  C12 UNL     1       2.894  -2.058   1.416  1.00  0.00     0.002 A 
HETATM   10  C13 UNL     1       3.727  -1.132   0.828  1.00  0.00     0.017 A 
HETATM   11  C14 UNL     1       3.225  -0.058   0.132  1.00  0.00     0.032 A 
HETATM   12  C21 UNL     1       1.829   0.046   0.052  1.00  0.00     0.029 A 
BRANCH  11  13
HETATM   13  C15 UNL     1       4.057   0.953  -0.503  1.00  0.00     0.251 C 
HETATM   14  O1  UNL     1       3.495   1.800  -1.255  1.00  0.00    -0.268 OA
HETATM   15  N3  UNL     1       5.438   0.987  -0.288  1.00  0.00    -0.352 N 
ATOM     16  H3  UNL     1       5.885   0.301   0.320  1.00  0.00     0.163 HD
BRANCH  15  17
HETATM   17  C16 UNL     1       6.232   2.023  -0.950  1.00  0.00     0.169 C 
BRANCH  17  18
HETATM   18  C17 UNL     1       7.679   1.856  -0.557  1.00  0.00     0.000 A 
HETATM   19  C18 UNL     1       8.634   1.114  -1.200  1.00  0.00     0.017 A 
HETATM   20  C19 UNL     1       9.864   1.106  -0.675  1.00  0.00     0.008 A 
HETATM   21  C20 UNL     1      10.068   1.840   0.463  1.00  0.00     0.050 A 
HETATM   22  S1  UNL     1       8.533   2.518   0.762  1.00  0.00    -0.105 SA
ENDBRANCH  17  18
ENDBRANCH  15  17
ENDBRANCH  11  13
ENDBRANCH   4   7
BRANCH   1  23
HETATM   23  C5  UNL     1      -4.687  -0.428   0.378  1.00  0.00    -0.026 A 
HETATM   24  C4  UNL     1      -5.384  -0.499  -0.809  1.00  0.00     0.013 A 
HETATM   25  C3  UNL     1      -6.750  -0.402  -0.866  1.00  0.00     0.015 A 
HETATM   26  C2  UNL     1      -7.519  -0.224   0.280  1.00  0.00     0.004 A 
HETATM   27  C25 UNL     1      -6.837  -0.152   1.475  1.00  0.00     0.015 A 
HETATM   28  C24 UNL     1      -5.444  -0.253   1.518  1.00  0.00     0.013 A 
BRANCH  26  29
HETATM   29  C1  UNL     1      -8.959  -0.125   0.187  1.00  0.00     0.120 C 
HETATM   30  N1  UNL     1      -9.677   0.038   1.219  1.00  0.00    -0.387 N 
ATOM     31  H12 UNL     1     -10.692   0.108   1.153  1.00  0.00     0.157 HD
ATOM     32  H11 UNL     1      -9.229   0.101   2.133  1.00  0.00     0.157 HD
HETATM   33  N2  UNL     1      -9.582  -0.213  -1.085  1.00  0.00    -0.082 NA
ENDBRANCH  26  29
ENDBRANCH   1  23
TORSDOF 6
