REMARK  14 active torsions:
REMARK  status: ('A' for Active; 'I' for Inactive)
REMARK    1  A    between atoms: O1_2  and  N1_3 
REMARK    2  A    between atoms: C2_5  and  O2_6 
REMARK    3  A    between atoms: C2_5  and  C3_8 
REMARK    4  A    between atoms: C4_9  and  C5_10 
REMARK    5  A    between atoms: C5_10  and  C6_11 
REMARK    6  A    between atoms: C6_11  and  C7_12 
REMARK    7  A    between atoms: C7_12  and  C8_13 
REMARK    8  A    between atoms: C15_21  and  O4_22 
REMARK    9  A    between atoms: O4_22  and  C16_23 
REMARK   10  A    between atoms: C17_25  and  C18_26 
REMARK   11  A    between atoms: C18_26  and  O6_27 
REMARK   12  A    between atoms: C19_29  and  O7_30 
REMARK   13  A    between atoms: C20_32  and  O8_33 
REMARK   14  A    between atoms: C21_35  and  O9_36 
ROOT
HETATM    1  C3  UNL     1      -0.548   1.041   0.133  1.00  0.00     0.123 C 
HETATM    2  C4  UNL     1       0.664   0.213  -0.390  1.00  0.00     0.026 C 
HETATM    3  C14 UNL     1       0.588  -0.964   0.516  1.00  0.00     0.176 C 
HETATM    4  O3  UNL     1      -0.647  -1.022   1.146  1.00  0.00    -0.360 OA
HETATM    5  C15 UNL     1      -1.461  -0.085   0.513  1.00  0.00     0.275 C 
ENDROOT
BRANCH   5   6
HETATM    6  O4  UNL     1      -2.443   0.272   1.400  1.00  0.00    -0.328 OA
BRANCH   6   7
HETATM    7  C16 UNL     1      -3.687  -0.010   0.835  1.00  0.00     0.294 C 
HETATM    8  O5  UNL     1      -4.293  -0.948   1.626  1.00  0.00    -0.348 OA
HETATM    9  C17 UNL     1      -5.579  -1.274   1.342  1.00  0.00     0.179 C 
HETATM   10  C19 UNL     1      -6.447  -0.118   0.906  1.00  0.00     0.180 C 
HETATM   11  C20 UNL     1      -5.846   1.215   1.237  1.00  0.00     0.183 C 
HETATM   12  C21 UNL     1      -4.430   1.289   0.717  1.00  0.00     0.204 C 
BRANCH   9  13
HETATM   13  C18 UNL     1      -5.733  -2.436   0.377  1.00  0.00     0.198 C 
BRANCH  13  14
HETATM   14  O6  UNL     1      -5.157  -2.215  -0.846  1.00  0.00    -0.398 OA
ATOM     15  H6  UNL     1      -5.253  -2.942  -1.450  1.00  0.00     0.209 HD
ENDBRANCH  13  14
ENDBRANCH   9  13
BRANCH  10  16
HETATM   16  O7  UNL     1      -7.712  -0.156   1.537  1.00  0.00    -0.390 OA
ATOM     17  H7  UNL     1      -8.258   0.571   1.263  1.00  0.00     0.210 HD
ENDBRANCH  10  16
BRANCH  11  18
HETATM   18  O8  UNL     1      -5.900   1.418   2.610  1.00  0.00    -0.390 OA
ATOM     19  H8  UNL     1      -5.519   2.263   2.820  1.00  0.00     0.210 HD
ENDBRANCH  11  18
BRANCH  12  20
HETATM   20  O9  UNL     1      -3.800   2.320   1.453  1.00  0.00    -0.388 OA
ATOM     21  H9  UNL     1      -4.270   3.142   1.378  1.00  0.00     0.210 HD
ENDBRANCH  12  20
ENDBRANCH   6   7
ENDBRANCH   5   6
BRANCH   1  22
HETATM   22  C2  UNL     1      -1.095   1.882  -0.957  1.00  0.00     0.144 C 
HETATM   23  N1  UNL     1      -1.117   3.145  -0.834  1.00  0.00    -0.249 N 
ATOM     24  H1  UNL     1      -0.743   3.516   0.040  1.00  0.00     0.196 HD
BRANCH  23  25
HETATM   25  O1  UNL     1      -1.574   4.058  -1.717  1.00  0.00    -0.284 OA
HETATM   26  C1  UNL     1      -1.149   4.144  -3.068  1.00  0.00     0.237 C 
ENDBRANCH  23  25
BRANCH  22  27
HETATM   27  O2  UNL     1      -1.568   1.248  -2.081  1.00  0.00    -0.348 OA
ATOM     28  H2  UNL     1      -1.552   0.303  -2.173  1.00  0.00     0.219 HD
ENDBRANCH  22  27
ENDBRANCH   1  22
BRANCH   2  29
HETATM   29  C5  UNL     1       1.883   1.049  -0.322  1.00  0.00     0.007 C 
BRANCH  29  30
HETATM   30  C6  UNL     1       3.164   0.505  -0.801  1.00  0.00     0.001 C 
BRANCH  30  31
HETATM   31  C7  UNL     1       3.630  -0.698  -0.084  1.00  0.00     0.005 C 
BRANCH  31  32
HETATM   32  C8  UNL     1       5.022  -1.146  -0.627  1.00  0.00    -0.014 C 
HETATM   33  C9  UNL     1       5.943  -0.012  -0.394  1.00  0.00     0.004 C 
HETATM   34  C10 UNL     1       7.384  -0.358  -0.261  1.00  0.00     0.000 C 
HETATM   35  C11 UNL     1       7.688  -1.784   0.019  1.00  0.00     0.000 C 
HETATM   36  C12 UNL     1       6.585  -2.326   0.932  1.00  0.00     0.000 C 
HETATM   37  C13 UNL     1       5.344  -2.411   0.091  1.00  0.00     0.004 C 
ENDBRANCH  31  32
ENDBRANCH  30  31
ENDBRANCH  29  30
ENDBRANCH   2  29
TORSDOF 14
