REMARK  9 active torsions:
REMARK  status: ('A' for Active; 'I' for Inactive)
REMARK    1  A    between atoms: C4_5  and  N2_6 
REMARK    2  A    between atoms: N2_6  and  C5_8 
REMARK    3  A    between atoms: C8_11  and  C9_12 
REMARK       I    between atoms: C9_12  and  N3_14 
REMARK    4  A    between atoms: N3_14  and  C10_16 
REMARK    5  A    between atoms: C10_16  and  C11_17 
REMARK       I    between atoms: C11_17  and  N4_19 
REMARK    6  A    between atoms: N4_19  and  C12_21 
REMARK    7  A    between atoms: C12_21  and  C15_24 
REMARK    8  A    between atoms: C15_24  and  N5_25 
REMARK       I    between atoms: N5_25  and  C16_27 
REMARK    9  A    between atoms: C16_27  and  C17_29 
ROOT
HETATM    1  C10 UNL     1      -0.617   2.162  -1.701  1.00  0.00     0.114 C 
HETATM    2  C23 UNL     1      -0.742   2.638  -3.139  1.00  0.00     0.041 C 
HETATM    3  C24 UNL     1      -0.467   4.112  -3.272  1.00  0.00     0.003 C 
HETATM    4  C25 UNL     1       0.698   4.585  -2.457  1.00  0.00     0.000 C 
HETATM    5  C26 UNL     1       0.602   4.200  -1.016  1.00  0.00     0.003 C 
HETATM    6  C27 UNL     1      -0.635   3.381  -0.800  1.00  0.00     0.041 C 
ENDROOT
BRANCH   1   7
HETATM    7  N3  UNL     1       0.649   1.473  -1.571  1.00  0.00    -0.339 N 
HETATM    8  C9  UNL     1       1.149   0.955  -0.359  1.00  0.00     0.252 C 
HETATM    9  O1  UNL     1       0.524   1.057   0.740  1.00  0.00    -0.268 OA
ATOM     10  H3  UNL     1       1.216   1.355  -2.410  1.00  0.00     0.164 HD
BRANCH   8  11
HETATM   11  C8  UNL     1       2.435   0.260  -0.304  1.00  0.00     0.032 A 
HETATM   12  C7  UNL     1       3.068  -0.188  -1.426  1.00  0.00     0.019 A 
HETATM   13  C6  UNL     1       4.285  -0.838  -1.323  1.00  0.00     0.030 A 
HETATM   14  C5  UNL     1       4.896  -1.055  -0.099  1.00  0.00     0.028 A 
HETATM   15  C29 UNL     1       4.276  -0.613   1.036  1.00  0.00     0.030 A 
HETATM   16  C28 UNL     1       3.060   0.037   0.924  1.00  0.00     0.019 A 
BRANCH  14  17
HETATM   17  N2  UNL     1       6.128  -1.731  -0.017  1.00  0.00    -0.385 N 
ATOM     18  H2  UNL     1       6.521  -2.164  -0.853  1.00  0.00     0.160 HD
BRANCH  17  19
HETATM   19  C4  UNL     1       6.838  -1.820   1.225  1.00  0.00     0.085 C 
HETATM   20  C3  UNL     1       8.030  -2.737   0.975  1.00  0.00     0.055 C 
HETATM   21  C2  UNL     1       8.896  -2.627   2.229  1.00  0.00     0.274 C 
HETATM   22  N1  UNL     1       9.573  -1.360   2.123  1.00  0.00     0.084 N 
HETATM   23  C1  UNL     1      10.797  -1.444   1.357  1.00  0.00     0.309 C 
HETATM   24  C31 UNL     1       8.753  -0.263   1.804  1.00  0.00     0.274 C 
HETATM   25  C30 UNL     1       7.281  -0.483   1.737  1.00  0.00     0.055 C 
ENDBRANCH  17  19
ENDBRANCH  14  17
ENDBRANCH   8  11
ENDBRANCH   1   7
BRANCH   1  26
HETATM   26  C11 UNL     1      -1.714   1.247  -1.338  1.00  0.00     0.246 C 
HETATM   27  O2  UNL     1      -1.473   0.070  -1.007  1.00  0.00    -0.271 OA
HETATM   28  N4  UNL     1      -3.059   1.691  -1.362  1.00  0.00    -0.349 N 
ATOM     29  H4  UNL     1      -3.247   2.656  -1.635  1.00  0.00     0.163 HD
BRANCH  28  30
HETATM   30  C12 UNL     1      -4.173   0.846  -1.020  1.00  0.00     0.041 C 
HETATM   31  C13 UNL     1      -4.262  -0.370  -1.899  1.00  0.00     0.039 C 
HETATM   32  C14 UNL     1      -5.452   1.669  -1.213  1.00  0.00     0.039 C 
BRANCH  30  33
HETATM   33  C15 UNL     1      -4.184   0.409   0.422  1.00  0.00     0.152 C 
BRANCH  33  34
HETATM   34  N5  UNL     1      -5.337  -0.432   0.650  1.00  0.00    -0.358 N 
HETATM   35  C16 UNL     1      -5.622  -1.001   1.936  1.00  0.00     0.226 C 
HETATM   36  O3  UNL     1      -4.821  -0.738   2.866  1.00  0.00    -0.273 OA
ATOM     37  H5  UNL     1      -5.968  -0.627  -0.127  1.00  0.00     0.162 HD
BRANCH  35  38
HETATM   38  C17 UNL     1      -6.810  -1.862   2.155  1.00  0.00     0.037 C 
HETATM   39  C18 UNL     1      -6.823  -2.285   3.611  1.00  0.00     0.025 C 
HETATM   40  C19 UNL     1      -8.090  -1.143   1.851  1.00  0.00     0.019 C 
HETATM   41  C20 UNL     1      -8.638  -1.721   0.577  1.00  0.00     0.001 C 
HETATM   42  C21 UNL     1      -7.867  -2.978   0.285  1.00  0.00     0.001 C 
HETATM   43  C22 UNL     1      -6.781  -3.104   1.297  1.00  0.00     0.019 C 
ENDBRANCH  35  38
ENDBRANCH  33  34
ENDBRANCH  30  33
ENDBRANCH  28  30
ENDBRANCH   1  26
TORSDOF 9
