REMARK  1 active torsions:
REMARK  status: ('A' for Active; 'I' for Inactive)
REMARK    1  A    between atoms: C4_11  and  N4_12 
ROOT
HETATM    1  C1  UNL     1       2.004  -0.362  -0.038  1.00  0.00     0.180 C 
HETATM    2  N1  UNL     1       0.562  -0.223  -0.008  1.00  0.00    -0.273 N 
HETATM    3  N2  UNL     1      -0.222  -1.285   0.040  1.00  0.00    -0.248 N 
ATOM      4  H2  UNL     1       0.196  -2.215   0.055  1.00  0.00     0.192 HD
HETATM    5  C2  UNL     1      -1.564  -1.162   0.069  1.00  0.00     0.342 A 
HETATM    6  O1  UNL     1      -2.318  -2.158   0.114  1.00  0.00    -0.245 OA
HETATM    7  N3  UNL     1      -2.125   0.073   0.049  1.00  0.00    -0.271 N 
ATOM      8  H3  UNL     1      -3.141   0.163   0.072  1.00  0.00     0.174 HD
HETATM    9  C3  UNL     1      -1.367   1.174   0.000  1.00  0.00     0.294 A 
HETATM   10  O2  UNL     1      -1.831   2.341  -0.020  1.00  0.00    -0.264 OA
HETATM   11  C4  UNL     1       0.010   1.012  -0.028  1.00  0.00     0.185 A 
ENDROOT
BRANCH  11  12
HETATM   12  N4  UNL     1       0.814   2.019  -0.075  1.00  0.00    -0.380 N 
ATOM     13  H42 UNL     1       1.827   1.900  -0.096  1.00  0.00     0.158 HD
ATOM     14  H41 UNL     1       0.398   2.950  -0.090  1.00  0.00     0.158 HD
ENDBRANCH  11  12
TORSDOF 1
