REMARK  15 active torsions:
REMARK  status: ('A' for Active; 'I' for Inactive)
REMARK    1  A    between atoms: O1_2  and  C2_3 
REMARK    2  A    between atoms: C2_3  and  C3_7 
REMARK    3  A    between atoms: C6_14  and  C7_15 
REMARK       I    between atoms: N6_20  and  C8_21 
REMARK       I    between atoms: C8_21  and  N7_23 
REMARK    4  A    between atoms: N7_23  and  N8_25 
REMARK       I    between atoms: N8_25  and  C9_27 
REMARK    5  A    between atoms: C9_27  and  C10_29 
REMARK    6  A    between atoms: C10_29  and  N9_30 
REMARK    7  A    between atoms: C10_29  and  C14_39 
REMARK    8  A    between atoms: N9_30  and  O4_31 
REMARK    9  A    between atoms: O4_31  and  C11_32 
REMARK   10  A    between atoms: C11_32  and  C12_33 
REMARK   11  A    between atoms: C12_33  and  C13_34 
REMARK   12  A    between atoms: C13_34  and  N10_35 
REMARK   13  A    between atoms: C16_42  and  N11_43 
REMARK   14  A    between atoms: C21_55  and  O5_56 
REMARK   15  A    between atoms: N15_58  and  O6_59 
ROOT
HETATM    1  C7  UNL     1       1.889   0.893   0.117  1.00  0.00     0.137 A 
HETATM    2  N4  UNL     1       1.682   2.086   0.670  1.00  0.00    -0.279 N 
ATOM      3  H4  UNL     1       2.407   2.706   1.031  1.00  0.00     0.189 HD
HETATM    4  N5  UNL     1       0.412   2.332   0.675  1.00  0.00    -0.230 N 
ATOM      5  H5  UNL     1      -0.005   3.186   1.047  1.00  0.00     0.209 HD
HETATM    6  N6  UNL     1      -0.295   1.319   0.127  1.00  0.00    -0.173 N 
HETATM    7  C8  UNL     1      -1.703   1.314  -0.000  1.00  0.00     0.362 C 
HETATM    8  O2  UNL     1      -2.345   2.317   0.420  1.00  0.00    -0.243 OA
HETATM    9  N7  UNL     1      -2.450   0.272  -0.565  1.00  0.00    -0.247 N 
ATOM     10  H7  UNL     1      -1.966  -0.555  -0.916  1.00  0.00     0.192 HD
HETATM   11  C17 UNL     1       0.627   0.411  -0.225  1.00  0.00     0.176 A 
HETATM   12  N13 UNL     1       0.410  -0.846  -0.845  1.00  0.00    -0.078 NA
ENDROOT
BRANCH   1  13
HETATM   13  C6  UNL     1       3.134   0.159  -0.123  1.00  0.00     0.138 A 
HETATM   14  N3  UNL     1       4.268   0.697   0.236  1.00  0.00    -0.337 N 
HETATM   15  C5  UNL     1       5.528   0.162   0.091  1.00  0.00     0.096 A 
ATOM     16  H3  UNL     1       4.214   1.617   0.673  1.00  0.00     0.167 HD
HETATM   17  C4  UNL     1       6.671   0.905   0.550  1.00  0.00     0.112 A 
HETATM   18  C23 UNL     1       5.534  -1.079  -0.504  1.00  0.00     0.121 A 
HETATM   19  N2  UNL     1       7.961   0.777   0.617  1.00  0.00    -0.328 N 
HETATM   20  C24 UNL     1       6.471   2.189   1.124  1.00  0.00     0.188 A 
HETATM   21  C3  UNL     1       8.611   1.828   1.166  1.00  0.00     0.201 A 
ATOM     22  H2  UNL     1       8.448  -0.054   0.281  1.00  0.00     0.168 HD
HETATM   23  O7  UNL     1       7.644   2.647   1.450  1.00  0.00    -0.272 OA
HETATM   24  N16 UNL     1       5.223   2.856   1.309  1.00  0.00    -0.072 NA
HETATM   25  C18 UNL     1       4.311  -1.659  -0.891  1.00  0.00     0.066 A 
HETATM   26  N15 UNL     1       6.664  -1.732  -0.720  1.00  0.00    -0.197 N 
HETATM   27  N14 UNL     1       3.141  -1.045  -0.701  1.00  0.00    -0.338 N 
HETATM   28  C19 UNL     1       4.268  -2.898  -1.493  1.00  0.00     0.036 A 
ATOM     29  H14 UNL     1       2.269  -1.487  -0.992  1.00  0.00     0.167 HD
HETATM   30  C20 UNL     1       5.459  -3.539  -1.698  1.00  0.00     0.060 A 
HETATM   31  C21 UNL     1       6.632  -2.955  -1.314  1.00  0.00     0.169 A 
BRANCH  21  32
HETATM   32  C2  UNL     1      10.044   1.959   1.367  1.00  0.00     0.188 C 
HETATM   33  N1  UNL     1      10.836   1.015   1.008  1.00  0.00    -0.376 N 
ATOM     34  H12 UNL     1      11.842   1.107   1.149  1.00  0.00     0.158 HD
ATOM     35  H11 UNL     1      10.427   0.182   0.584  1.00  0.00     0.158 HD
BRANCH  32  36
HETATM   36  O1  UNL     1      10.596   3.083   1.940  1.00  0.00    -0.338 OA
HETATM   37  C1  UNL     1      11.861   3.602   1.521  1.00  0.00     0.211 C 
ENDBRANCH  32  36
ENDBRANCH  21  32
BRANCH  31  38
HETATM   38  O5  UNL     1       7.817  -3.604  -1.523  1.00  0.00    -0.339 OA
HETATM   39  C22 UNL     1       7.852  -4.866  -2.130  1.00  0.00     0.211 C 
ENDBRANCH  31  38
BRANCH  26  40
HETATM   40  O6  UNL     1       7.876  -1.220  -0.370  1.00  0.00    -0.280 OA
ATOM     41  H6  UNL     1       7.898  -0.366   0.045  1.00  0.00     0.245 HD
ENDBRANCH  26  40
ENDBRANCH   1  13
BRANCH   9  42
HETATM   42  N8  UNL     1      -3.861   0.340  -0.660  1.00  0.00    -0.264 N 
HETATM   43  C9  UNL     1      -4.715   0.022   0.417  1.00  0.00     0.263 C 
HETATM   44  O3  UNL     1      -4.213  -0.334   1.512  1.00  0.00    -0.269 OA
ATOM     45  H8  UNL     1      -4.278   0.631  -1.544  1.00  0.00     0.190 HD
BRANCH  43  46
HETATM   46  C10 UNL     1      -6.188   0.109   0.257  1.00  0.00     0.250 C 
BRANCH  46  47
HETATM   47  N9  UNL     1      -6.903  -0.254   1.463  1.00  0.00    -0.080 NA
BRANCH  47  48
HETATM   48  O4  UNL     1      -8.209  -0.150   1.185  1.00  0.00    -0.285 OA
BRANCH  48  49
HETATM   49  C11 UNL     1      -8.955   0.446   2.186  1.00  0.00     0.197 C 
BRANCH  49  50
HETATM   50  C12 UNL     1     -10.416   0.529   1.798  1.00  0.00     0.055 C 
BRANCH  50  51
HETATM   51  C13 UNL     1     -11.170   1.190   2.939  1.00  0.00     0.231 C 
BRANCH  51  52
HETATM   52  N10 UNL     1     -12.586   1.305   2.635  1.00  0.00    -0.079 N 
ATOM     53 3H10 UNL     1     -12.742   1.790   1.751  1.00  0.00     0.274 HD
ATOM     54 2H10 UNL     1     -12.992   0.402   2.391  1.00  0.00     0.274 HD
ATOM     55 1H10 UNL     1     -13.092   1.749   3.401  1.00  0.00     0.274 HD
ENDBRANCH  51  52
ENDBRANCH  50  51
ENDBRANCH  49  50
ENDBRANCH  48  49
ENDBRANCH  47  48
ENDBRANCH  46  47
BRANCH  46  56
HETATM   56  C14 UNL     1      -6.628  -0.791  -0.890  1.00  0.00     0.049 A 
HETATM   57  C15 UNL     1      -6.735  -2.140  -0.678  1.00  0.00     0.080 A 
HETATM   58  S1  UNL     1      -7.242  -2.702  -2.208  1.00  0.00    -0.064 SA
HETATM   59  C16 UNL     1      -7.288  -1.202  -3.021  1.00  0.00     0.142 A 
HETATM   60  N12 UNL     1      -6.911  -0.339  -2.077  1.00  0.00    -0.338 N 
ATOM     61  H12 UNL     1      -6.846   0.658  -2.282  1.00  0.00     0.168 HD
BRANCH  59  62
HETATM   62  N11 UNL     1      -7.613  -0.942  -4.270  1.00  0.00    -0.380 N 
ATOM     63 2H11 UNL     1      -7.901  -1.602  -4.992  1.00  0.00     0.158 HD
ATOM     64 1H11 UNL     1      -7.640  -0.046  -4.756  1.00  0.00     0.158 HD
ENDBRANCH  59  62
ENDBRANCH  46  56
ENDBRANCH  43  46
ENDBRANCH   9  42
TORSDOF 15
