REMARK  3 active torsions:
REMARK  status: ('A' for Active; 'I' for Inactive)
REMARK    1  A    between atoms: N1_4  and  N2_6 
REMARK       I    between atoms: N2_6  and  C4_8 
REMARK       I    between atoms: C4_8  and  N3_10 
REMARK    2  A    between atoms: N3_10  and  C5_11 
REMARK    3  A    between atoms: C7_13  and  N4_14 
ROOT
HETATM    1  N2  UNL     1      -0.561  -1.357   0.064  1.00  0.00    -0.239 N 
ATOM      2  H2  UNL     1      -0.364  -0.813  -0.776  1.00  0.00     0.193 HD
HETATM    3  C4  UNL     1       0.171  -1.073   1.294  1.00  0.00     0.413 C 
HETATM    4  O1  UNL     1      -0.212  -1.844   2.246  1.00  0.00    -0.228 OA
HETATM    5  N3  UNL     1       1.077  -0.132   1.294  1.00  0.00    -0.343 NA
ENDROOT
BRANCH   1   6
HETATM    6  N1  UNL     1      -1.513  -2.348   0.022  1.00  0.00    -0.305 N 
HETATM    7  C2  UNL     1      -2.770  -2.104  -0.184  1.00  0.00    -0.004 C 
HETATM    8  C1  UNL     1      -3.749  -3.210  -0.217  1.00  0.00     0.064 C 
HETATM    9  C3  UNL     1      -3.212  -0.688  -0.395  1.00  0.00     0.064 C 
ATOM     10  H1  UNL     1      -1.219  -3.315   0.158  1.00  0.00     0.186 HD
ENDBRANCH   1   6
BRANCH   5  11
HETATM   11  C5  UNL     1       2.039   0.867   1.294  1.00  0.00     0.156 A 
HETATM   12  C6  UNL     1       2.269   1.663   0.135  1.00  0.00     0.089 A 
HETATM   13  C7  UNL     1       3.205   2.581   0.200  1.00  0.00     0.113 A 
HETATM   14  C8  UNL     1       3.906   2.719   1.381  1.00  0.00     0.089 A 
HETATM   15  S1  UNL     1       3.185   1.516   2.351  1.00  0.00    -0.067 SA
BRANCH  13  16
HETATM   16  N4  UNL     1       3.534   3.472  -0.921  1.00  0.00    -0.115 N 
HETATM   17  O2  UNL     1       4.420   4.307  -0.830  1.00  0.00    -0.532 OA
HETATM   18  O3  UNL     1       2.853   3.393  -2.117  1.00  0.00    -0.532 OA
ENDBRANCH  13  16
ENDBRANCH   5  11
TORSDOF 3
