REMARK  6 active torsions:
REMARK  status: ('A' for Active; 'I' for Inactive)
REMARK    1  A    between atoms: C2_5  and  C3_6 
REMARK    2  A    between atoms: C8_11  and  C9_12 
REMARK    3  A    between atoms: C16_23  and  N5_24 
REMARK    4  A    between atoms: N5_24  and  C17_25 
REMARK    5  A    between atoms: C17_25  and  C18_26 
REMARK    6  A    between atoms: C25_33  and  N6_34 
ROOT
HETATM    1  C3  UNL     1      -0.988  -1.743   0.136  1.00  0.00     0.034 A 
HETATM    2  C4  UNL     1      -0.026  -2.727  -0.088  1.00  0.00     0.018 A 
HETATM    3  C5  UNL     1       1.321  -2.500  -0.149  1.00  0.00     0.013 A 
HETATM    4  C6  UNL     1       1.730  -1.200   0.025  1.00  0.00    -0.019 A 
HETATM    5  C7  UNL     1       3.082  -0.904  -0.027  1.00  0.00     0.044 A 
HETATM    6  C8  UNL     1       3.581   0.388   0.140  1.00  0.00     0.059 A 
HETATM    7  N4  UNL     1       2.691   1.348   0.355  1.00  0.00    -0.363 N 
ATOM      8  H4  UNL     1       3.030   2.302   0.479  1.00  0.00     0.165 HD
HETATM    9  C14 UNL     1       1.336   1.126   0.419  1.00  0.00     0.104 A 
HETATM   10  C15 UNL     1       0.789  -0.120   0.263  1.00  0.00     0.031 A 
HETATM   11  C16 UNL     1      -0.572  -0.407   0.317  1.00  0.00     0.131 A 
ENDROOT
BRANCH   1  12
HETATM   12  C2  UNL     1      -2.383  -2.142   0.219  1.00  0.00     0.065 A 
HETATM   13  N2  UNL     1      -2.776  -3.452   0.353  1.00  0.00    -0.296 N 
HETATM   14  N1  UNL     1      -4.080  -3.555   0.357  1.00  0.00    -0.281 N 
ATOM     15  H2  UNL     1      -2.135  -4.241   0.438  1.00  0.00     0.187 HD
HETATM   16  C1  UNL     1      -4.898  -4.755   0.478  1.00  0.00     0.179 C 
HETATM   17  C25 UNL     1      -4.609  -2.340   0.228  1.00  0.00     0.117 A 
HETATM   18  C24 UNL     1      -3.542  -1.430   0.138  1.00  0.00     0.081 A 
BRANCH  17  19
HETATM   19  N6  UNL     1      -5.837  -1.959   0.182  1.00  0.00    -0.384 N 
ATOM     20  H62 UNL     1      -6.611  -2.620   0.247  1.00  0.00     0.157 HD
ATOM     21  H61 UNL     1      -6.242  -1.028   0.083  1.00  0.00     0.157 HD
ENDBRANCH  17  19
ENDBRANCH   1  12
BRANCH  11  22
HETATM   22  N5  UNL     1      -1.362   0.479   0.543  1.00  0.00    -0.415 NA
BRANCH  22  23
HETATM   23  C17 UNL     1      -1.852   1.713   0.798  1.00  0.00     0.194 C 
BRANCH  23  24
HETATM   24  C18 UNL     1      -2.108   2.490  -0.467  1.00  0.00    -0.007 A 
HETATM   25  C19 UNL     1      -1.862   1.980  -1.709  1.00  0.00     0.014 A 
HETATM   26  C20 UNL     1      -2.101   2.703  -2.868  1.00  0.00     0.001 A 
HETATM   27  C21 UNL     1      -2.606   3.986  -2.719  1.00  0.00     0.000 A 
HETATM   28  C22 UNL     1      -2.864   4.528  -1.477  1.00  0.00     0.001 A 
HETATM   29  C23 UNL     1      -2.607   3.760  -0.341  1.00  0.00     0.014 A 
ENDBRANCH  23  24
ENDBRANCH  22  23
ENDBRANCH  11  22
BRANCH   6  30
HETATM   30  C9  UNL     1       5.023   0.578   0.065  1.00  0.00     0.059 A 
HETATM   31  C10 UNL     1       5.574   1.821   0.220  1.00  0.00     0.032 A 
HETATM   32  C11 UNL     1       6.963   2.007   0.148  1.00  0.00     0.004 A 
HETATM   33  C12 UNL     1       7.762   0.910  -0.082  1.00  0.00     0.017 A 
HETATM   34  C13 UNL     1       7.193  -0.336  -0.236  1.00  0.00     0.088 A 
HETATM   35  N3  UNL     1       5.861  -0.460  -0.159  1.00  0.00    -0.364 N 
ATOM     36  H3  UNL     1       5.456  -1.389  -0.276  1.00  0.00     0.165 HD
ENDBRANCH   6  30
TORSDOF 6
