REMARK  6 active torsions:
REMARK  status: ('A' for Active; 'I' for Inactive)
REMARK    1  A    between atoms: N1_1  and  C1_4 
REMARK    2  A    between atoms: C2_7  and  C3_8 
REMARK    3  A    between atoms: C4_9  and  C5_10 
REMARK    4  A    between atoms: C5_10  and  N3_11 
REMARK    5  A    between atoms: C5_10  and  C6_15 
REMARK    6  A    between atoms: C7_19  and  N5_20 
ROOT
HETATM    1  C1  UNL     1       2.849  -0.530  -0.925  1.00  0.00     0.692 A 
HETATM    2  N2  UNL     1       1.507  -0.419  -0.991  1.00  0.00    -0.168 N 
ATOM      3  H2  UNL     1       1.031  -0.553  -1.883  1.00  0.00     0.186 HD
HETATM    4  C2  UNL     1       0.792  -0.133   0.110  1.00  0.00     0.191 A 
HETATM    5  N4  UNL     1       1.459   0.037   1.267  1.00  0.00    -0.168 N 
ATOM      6  H4  UNL     1       0.929   0.255   2.111  1.00  0.00     0.186 HD
HETATM    7  C7  UNL     1       2.797  -0.069   1.355  1.00  0.00     0.692 A 
HETATM    8  N6  UNL     1       3.497  -0.355   0.249  1.00  0.00    -0.023 N 
ATOM      9  H6  UNL     1       4.513  -0.440   0.292  1.00  0.00     0.203 HD
ENDROOT
BRANCH   4  10
HETATM   10  C3  UNL     1      -0.638  -0.022   0.007  1.00  0.00    -0.027 C 
HETATM   11  C4  UNL     1      -1.841   0.080  -0.094  1.00  0.00    -0.058 C 
BRANCH  11  12
HETATM   12  C5  UNL     1      -3.305   0.203  -0.240  1.00  0.00     0.323 C 
BRANCH  12  13
HETATM   13  N3  UNL     1      -3.680   1.577  -0.451  1.00  0.00    -0.058 N 
ATOM     14  H33 UNL     1      -3.321   2.185   0.285  1.00  0.00     0.276 HD
ATOM     15  H32 UNL     1      -3.185   1.987  -1.243  1.00  0.00     0.276 HD
ATOM     16  H31 UNL     1      -4.691   1.662  -0.552  1.00  0.00     0.276 HD
ENDBRANCH  12  13
BRANCH  12  17
HETATM   17  C6  UNL     1      -3.683  -0.648  -1.404  1.00  0.00     0.276 C 
HETATM   18  O1  UNL     1      -4.233  -0.140  -2.356  1.00  0.00    -0.304 OA
ENDBRANCH  12  17
ENDBRANCH  11  12
ENDBRANCH   4  10
BRANCH   1  19
HETATM   19  N1  UNL     1       3.553  -0.806  -1.981  1.00  0.00    -0.234 N 
ATOM     20  H12 UNL     1       3.064  -0.938  -2.866  1.00  0.00     0.174 HD
ATOM     21  H11 UNL     1       4.568  -0.890  -1.931  1.00  0.00     0.174 HD
ENDBRANCH   1  19
BRANCH   7  22
HETATM   22  N5  UNL     1       3.368   0.107   2.501  1.00  0.00    -0.234 N 
ATOM     23  H52 UNL     1       2.835   0.325   3.343  1.00  0.00     0.174 HD
ATOM     24  H51 UNL     1       4.383   0.027   2.568  1.00  0.00     0.174 HD
ENDBRANCH   7  22
TORSDOF 6
