REMARK  7 active torsions:
REMARK  status: ('A' for Active; 'I' for Inactive)
REMARK    1  A    between atoms: O1_2  and  C2_3 
REMARK    2  A    between atoms: C5_8  and  C6_9 
REMARK    3  A    between atoms: C6_9  and  C7_10 
REMARK    4  A    between atoms: C7_10  and  C8_11 
REMARK    5  A    between atoms: N3_17  and  C12_18 
REMARK    6  A    between atoms: C13_19  and  N4_20 
REMARK    7  A    between atoms: C17_24  and  C18_25 
ROOT
HETATM    1  C8  UNL     1       3.386  -1.476   0.440  1.00  0.00    -0.030 A 
HETATM    2  C9  UNL     1       3.503  -2.272   1.542  1.00  0.00     0.096 A 
HETATM    3  N2  UNL     1       2.278  -2.482   2.016  1.00  0.00    -0.364 N 
ATOM      4  H2  UNL     1       2.060  -3.045   2.838  1.00  0.00     0.165 HD
HETATM    5  C10 UNL     1       1.361  -1.841   1.250  1.00  0.00     0.058 A 
HETATM    6  C11 UNL     1      -0.009  -1.766   1.339  1.00  0.00     0.123 A 
HETATM    7  N3  UNL     1      -0.723  -1.042   0.418  1.00  0.00    -0.334 N 
HETATM    8  C24 UNL     1      -0.015  -0.429  -0.545  1.00  0.00     0.093 A 
HETATM    9  C25 UNL     1       1.346  -0.482  -0.664  1.00  0.00     0.031 A 
HETATM   10  C26 UNL     1       2.068  -1.209   0.258  1.00  0.00     0.001 A 
ENDROOT
BRANCH   7  11
HETATM   11  C12 UNL     1      -2.137  -1.017   0.570  1.00  0.00     0.328 C 
HETATM   12  C13 UNL     1      -2.988  -0.628  -0.595  1.00  0.00     0.271 C 
HETATM   13  C17 UNL     1      -3.666   0.261   0.438  1.00  0.00     0.240 C 
HETATM   14  N6  UNL     1      -2.692   0.040   1.426  1.00  0.00    -0.044 N 
HETATM   15  C22 UNL     1      -1.792   1.025   1.871  1.00  0.00     0.275 C 
HETATM   16  C23 UNL     1      -3.242  -0.623   2.643  1.00  0.00     0.275 C 
BRANCH  12  17
HETATM   17  N4  UNL     1      -3.779  -1.641  -1.201  1.00  0.00    -0.069 N 
HETATM   18  C14 UNL     1      -2.994  -2.191  -2.311  1.00  0.00     0.272 C 
HETATM   19  C15 UNL     1      -4.142  -2.758  -0.377  1.00  0.00     0.272 C 
HETATM   20  C16 UNL     1      -5.016  -1.142  -1.789  1.00  0.00     0.272 C 
ENDBRANCH  12  17
BRANCH  13  21
HETATM   21  C18 UNL     1      -4.070   1.570  -0.073  1.00  0.00     0.112 C 
HETATM   22  C19 UNL     1      -3.073   2.489  -0.657  1.00  0.00     0.036 C 
HETATM   23  C20 UNL     1      -3.846   3.801  -0.700  1.00  0.00     0.123 C 
HETATM   24  N5  UNL     1      -4.799   3.717   0.420  1.00  0.00    -0.361 N 
HETATM   25  C21 UNL     1      -4.910   2.376   0.840  1.00  0.00     0.224 C 
ATOM     26  H5  UNL     1      -5.300   4.506   0.828  1.00  0.00     0.162 HD
HETATM   27  O2  UNL     1      -5.574   1.950   1.780  1.00  0.00    -0.273 OA
ENDBRANCH  13  21
ENDBRANCH   7  11
BRANCH   1  28
HETATM   28  C7  UNL     1       4.491  -0.980  -0.416  1.00  0.00     0.045 C 
BRANCH  28  29
HETATM   29  C6  UNL     1       4.732   0.468  -0.061  1.00  0.00     0.048 C 
BRANCH  29  30
HETATM   30  C5  UNL     1       5.835   1.032  -0.898  1.00  0.00    -0.006 A 
HETATM   31  C2  UNL     1       7.160   0.769  -0.698  1.00  0.00     0.148 A 
HETATM   32  N1  UNL     1       7.847   1.456  -1.646  1.00  0.00    -0.346 N 
HETATM   33  C3  UNL     1       6.982   2.132  -2.420  1.00  0.00     0.091 A 
ATOM     34  H1  UNL     1       8.861   1.459  -1.754  1.00  0.00     0.167 HD
HETATM   35  C4  UNL     1       5.718   1.877  -1.965  1.00  0.00     0.028 A 
BRANCH  31  36
HETATM   36  O1  UNL     1       7.669  -0.048   0.292  1.00  0.00    -0.340 OA
HETATM   37  C1  UNL     1       8.112   0.512   1.503  1.00  0.00     0.211 C 
ENDBRANCH  31  36
ENDBRANCH  29  30
ENDBRANCH  28  29
ENDBRANCH   1  28
TORSDOF 7
