REMARK  3 active torsions:
REMARK  status: ('A' for Active; 'I' for Inactive)
REMARK    1  A    between atoms: C1_4  and  C2_6 
REMARK    2  A    between atoms: C2_6  and  N3_7 
REMARK    3  A    between atoms: C2_6  and  C3_11 
ROOT
HETATM    1  C2  UNL     1      -1.291   0.145  -0.694  1.00  0.00     0.277 C 
ENDROOT
BRANCH   1   2
HETATM    2  C1  UNL     1      -2.378  -0.408   0.155  1.00  0.00     0.119 C 
HETATM    3  N1  UNL     1      -2.856  -1.564  -0.120  1.00  0.00    -0.389 N 
ATOM      4  H12 UNL     1      -3.602  -1.944   0.463  1.00  0.00     0.157 HD
ATOM      5  H11 UNL     1      -2.475  -2.072  -0.918  1.00  0.00     0.157 HD
HETATM    6  N2  UNL     1      -2.911   0.302   1.270  1.00  0.00    -0.086 NA
ENDBRANCH   1   2
BRANCH   1   7
HETATM    7  N3  UNL     1      -0.971  -0.769  -1.710  1.00  0.00    -0.067 N 
ATOM      8  H33 UNL     1      -0.737  -1.690  -1.338  1.00  0.00     0.275 HD
ATOM      9  H32 UNL     1      -1.789  -1.035  -2.259  1.00  0.00     0.275 HD
ATOM     10  H31 UNL     1      -0.225  -0.389  -2.293  1.00  0.00     0.275 HD
ENDBRANCH   1   7
BRANCH   1  11
HETATM   11  C3  UNL     1      -0.153   0.581   0.181  1.00  0.00     0.223 C 
HETATM   12  C4  UNL     1       0.456  -0.485   1.007  1.00  0.00     0.036 C 
HETATM   13  C5  UNL     1       1.674  -1.036   0.291  1.00  0.00     0.004 C 
HETATM   14  C6  UNL     1       2.744   0.021   0.373  1.00  0.00     0.027 C 
HETATM   15  C7  UNL     1       2.125   1.342  -0.014  1.00  0.00     0.233 C 
HETATM   16  N4  UNL     1       0.848   1.191  -0.664  1.00  0.00    -0.069 N 
ATOM     17  H42 UNL     1       0.945   0.677  -1.540  1.00  0.00     0.277 HD
ATOM     18  H41 UNL     1       0.519   2.085  -1.029  1.00  0.00     0.277 HD
ENDBRANCH   1  11
TORSDOF 3
