REMARK  4 active torsions:
REMARK  status: ('A' for Active; 'I' for Inactive)
REMARK    1  A    between atoms: C2_2  and  N1_3 
REMARK    2  A    between atoms: N1_3  and  C3_5 
REMARK    3  A    between atoms: C4_8  and  N3_9 
REMARK    4  A    between atoms: N3_9  and  C5_11 
ROOT
HETATM    1  C5  UNL     1      -2.014   2.385   0.063  1.00  0.00     0.245 C 
HETATM    2  C6  UNL     1      -1.526   2.858   1.353  1.00  0.00     0.078 C 
HETATM    3  N4  UNL     1      -1.125   3.246   2.371  1.00  0.00    -0.196 NA
ENDROOT
BRANCH   1   4
HETATM    4  N3  UNL     1      -2.188   0.943   0.074  1.00  0.00    -0.363 N 
ATOM      5  H3  UNL     1      -3.132   0.567   0.158  1.00  0.00     0.162 HD
BRANCH   4   6
HETATM    6  C4  UNL     1      -1.206   0.120  -0.017  1.00  0.00     0.130 A 
HETATM    7  N2  UNL     1       0.087   0.504  -0.133  1.00  0.00    -0.176 N 
HETATM    8  C3  UNL     1       1.080  -0.380  -0.226  1.00  0.00     0.680 A 
ATOM      9  H2  UNL     1       0.308   1.500  -0.150  1.00  0.00     0.186 HD
HETATM   10  N6  UNL     1       0.806  -1.685  -0.205  1.00  0.00    -0.190 N 
HETATM   11  C11 UNL     1      -0.465  -2.160  -0.092  1.00  0.00     0.078 A 
ATOM     12  H6  UNL     1       1.576  -2.351  -0.276  1.00  0.00     0.184 HD
HETATM   13  C7  UNL     1      -1.484  -1.230   0.003  1.00  0.00     0.038 A 
HETATM   14  C10 UNL     1      -0.749  -3.509  -0.071  1.00  0.00     0.118 A 
HETATM   15  C8  UNL     1      -2.766  -1.738   0.117  1.00  0.00     0.034 A 
HETATM   16  C9  UNL     1      -3.040  -3.091   0.137  1.00  0.00     0.088 A 
HETATM   17  N5  UNL     1      -2.019  -3.970   0.042  1.00  0.00    -0.373 N 
ATOM     18  H5  UNL     1      -2.202  -4.973   0.055  1.00  0.00     0.164 HD
BRANCH   8  19
HETATM   19  N1  UNL     1       2.286   0.011  -0.333  1.00  0.00    -0.226 N 
ATOM     20  H1  UNL     1       3.042  -0.670  -0.403  1.00  0.00     0.177 HD
BRANCH  19  21
HETATM   21  C2  UNL     1       2.579   1.427  -0.355  1.00  0.00     0.133 C 
HETATM   22  C1  UNL     1       4.073   1.577  -0.540  1.00  0.00     0.027 C 
ENDBRANCH  19  21
ENDBRANCH   8  19
ENDBRANCH   4   6
ENDBRANCH   1   4
TORSDOF 4
