REMARK  2 active torsions:
REMARK  status: ('A' for Active; 'I' for Inactive)
REMARK    1  A    between atoms: N1_7  and  C6_8 
REMARK    2  A    between atoms: C6_8  and  C7_9 
ROOT
HETATM    1  C7  UNL     1      -0.805  -0.327   0.104  1.00  0.00     0.021 A 
HETATM    2  C8  UNL     1      -1.434  -0.426  -1.150  1.00  0.00     0.019 A 
HETATM    3  C9  UNL     1      -0.725  -0.926  -2.371  1.00  0.00     0.069 C 
HETATM    4  N2  UNL     1      -2.685   0.010  -1.110  1.00  0.00    -0.344 N 
ATOM      5  H2  UNL     1      -3.334   0.037  -1.896  1.00  0.00     0.167 HD
HETATM    6  C10 UNL     1      -2.948   0.407   0.132  1.00  0.00     0.126 A 
HETATM    7  N3  UNL     1      -4.090   0.848   0.683  1.00  0.00    -0.293 N 
ATOM      8  H3  UNL     1      -4.907   0.982   0.088  1.00  0.00     0.172 HD
HETATM    9  C11 UNL     1      -4.187   1.116   1.986  1.00  0.00     0.328 A 
HETATM   10  O1  UNL     1      -5.251   1.524   2.507  1.00  0.00    -0.247 OA
HETATM   11  N4  UNL     1      -3.078   0.928   2.761  1.00  0.00    -0.275 N 
ATOM     12  H4  UNL     1      -3.138   1.126   3.760  1.00  0.00     0.173 HD
HETATM   13  C12 UNL     1      -1.912   0.492   2.258  1.00  0.00     0.264 A 
HETATM   14  O2  UNL     1      -0.917   0.352   3.058  1.00  0.00    -0.267 OA
HETATM   15  C13 UNL     1      -1.809   0.218   0.925  1.00  0.00     0.090 A 
ENDROOT
BRANCH   1  16
HETATM   16  C6  UNL     1       0.425  -0.981   0.443  1.00  0.00     0.105 C 
BRANCH  16  17
HETATM   17  N1  UNL     1       1.681  -0.464   0.013  1.00  0.00    -0.359 N 
HETATM   18  C2  UNL     1       2.330   0.719  -0.024  1.00  0.00     0.003 C 
HETATM   19  C1  UNL     1       1.810   1.923  -0.081  1.00  0.00     0.038 C 
HETATM   20  C3  UNL     1       3.861   0.486  -0.081  1.00  0.00     0.073 C 
HETATM   21  C4  UNL     1       3.899  -0.789  -0.871  1.00  0.00     0.081 C 
HETATM   22 BR1  UNL     1       4.100  -0.348  -2.754  1.00  0.00    -0.089 Br
HETATM   23  C5  UNL     1       2.609  -1.488  -0.626  1.00  0.00     0.144 C 
ENDBRANCH  16  17
ENDBRANCH   1  16
TORSDOF 2
