REMARK  3 active torsions:
REMARK  status: ('A' for Active; 'I' for Inactive)
REMARK    1  A    between atoms: N3_11  and  C8_13 
REMARK    2  A    between atoms: C8_13  and  C9_14 
REMARK    3  A    between atoms: C9_14  and  O1_15 
ROOT
HETATM    1  C1  UNL     1      -3.688  -1.043   0.091  1.00  0.00     0.044 C 
HETATM    2  C2  UNL     1      -2.514  -0.132   0.349  1.00  0.00     0.231 C 
HETATM    3  N1  UNL     1      -2.512   1.033  -0.476  1.00  0.00     0.093 N 
HETATM    4  C3  UNL     1      -3.796   1.523  -0.844  1.00  0.00     0.310 C 
HETATM    5  C4  UNL     1      -1.732   2.027   0.293  1.00  0.00     0.313 C 
HETATM    6  C5  UNL     1      -0.332   1.516   0.183  1.00  0.00    -0.006 A 
HETATM    7  C6  UNL     1       0.721   2.420   0.122  1.00  0.00     0.099 A 
HETATM    8  N2  UNL     1       1.971   1.991   0.009  1.00  0.00    -0.351 N 
ATOM      9  H2  UNL     1       2.729   2.672  -0.034  1.00  0.00     0.166 HD
HETATM   10  C7  UNL     1       2.272   0.643  -0.052  1.00  0.00     0.119 A 
HETATM   11  N3  UNL     1       3.499   0.337  -0.160  1.00  0.00    -0.373 N 
ATOM     12  H3  UNL     1       4.101   1.160  -0.187  1.00  0.00     0.161 HD
HETATM   13  C10 UNL     1       1.213  -0.232   0.010  1.00  0.00     0.062 A 
HETATM   14 BR1  UNL     1       1.532  -2.090  -0.082  1.00  0.00    -0.046 Br
HETATM   15  C11 UNL     1      -0.121   0.163   0.130  1.00  0.00    -0.018 A 
HETATM   16  C12 UNL     1      -1.191  -0.841   0.199  1.00  0.00     0.012 C 
HETATM   17  C13 UNL     1      -1.258  -1.710  -1.039  1.00  0.00     0.022 C 
HETATM   18  C14 UNL     1      -1.007  -1.681   1.448  1.00  0.00     0.022 C 
ENDROOT
BRANCH  11  19
HETATM   19  C8  UNL     1       4.224  -0.848  -0.251  1.00  0.00     0.147 C 
BRANCH  19  20
HETATM   20  C9  UNL     1       5.738  -0.582  -0.416  1.00  0.00     0.183 C 
BRANCH  20  21
HETATM   21  O1  UNL     1       5.884   0.154  -1.588  1.00  0.00    -0.399 OA
ATOM     22  H1  UNL     1       6.814   0.317  -1.689  1.00  0.00     0.209 HD
ENDBRANCH  20  21
ENDBRANCH  19  20
ENDBRANCH  11  19
TORSDOF 3
