REMARK  5 active torsions:
REMARK  status: ('A' for Active; 'I' for Inactive)
REMARK    1  A    between atoms: C2_2  and  C4_4 
REMARK    2  A    between atoms: C5_6  and  C6_7 
REMARK    3  A    between atoms: C6_7  and  O2_8 
REMARK    4  A    between atoms: C6_7  and  C7_10 
REMARK    5  A    between atoms: C7_10  and  O3_11 
ROOT
HETATM    1  C4  UNL     1       1.511   0.134  -0.843  1.00  0.00     0.130 C 
HETATM    2  O1  UNL     1       0.568   1.022  -0.515  1.00  0.00    -0.367 OA
HETATM    3  C5  UNL     1      -0.577   0.755   0.112  1.00  0.00     0.111 C 
HETATM    4  C8  UNL     1      -1.706   1.169  -0.753  1.00  0.00     0.011 C 
HETATM    5  C9  UNL     1      -2.698   0.309  -0.778  1.00  0.00    -0.018 C 
HETATM    6  C10 UNL     1      -2.339  -0.834   0.100  1.00  0.00    -0.023 C 
HETATM    7  C11 UNL     1      -2.561  -2.071  -0.765  1.00  0.00     0.019 C 
HETATM    8  C12 UNL     1      -3.282  -0.995   1.270  1.00  0.00     0.019 C 
HETATM    9  C13 UNL     1      -0.905  -0.628   0.499  1.00  0.00     0.039 C 
HETATM   10  C14 UNL     1       0.027  -1.700   0.089  1.00  0.00     0.016 C 
HETATM   11  C15 UNL     1       1.166  -1.327  -0.799  1.00  0.00     0.011 C 
HETATM   12  C16 UNL     1       1.030  -1.946  -2.184  1.00  0.00     0.012 C 
ENDROOT
BRANCH   3  13
HETATM   13  C6  UNL     1      -0.651   1.728   1.310  1.00  0.00     0.180 C 
BRANCH  13  14
HETATM   14  O2  UNL     1      -1.785   1.594   2.055  1.00  0.00    -0.390 OA
ATOM     15  H2  UNL     1      -1.830   2.192   2.792  1.00  0.00     0.210 HD
ENDBRANCH  13  14
BRANCH  13  16
HETATM   16  C7  UNL     1      -0.481   3.120   0.741  1.00  0.00     0.199 C 
BRANCH  16  17
HETATM   17  O3  UNL     1      -0.407   4.063   1.781  1.00  0.00    -0.398 OA
ATOM     18  H3  UNL     1      -0.300   4.937   1.424  1.00  0.00     0.209 HD
ENDBRANCH  16  17
ENDBRANCH  13  16
ENDBRANCH   3  13
BRANCH   1  19
HETATM   19  C2  UNL     1       2.886   0.427  -0.267  1.00  0.00     0.007 C 
HETATM   20  C1  UNL     1       3.012   0.475   1.187  1.00  0.00     0.012 C 
HETATM   21  C3  UNL     1       3.932  -0.514  -0.826  1.00  0.00     0.012 C 
ENDBRANCH   1  19
TORSDOF 5
