REMARK  10 active torsions:
REMARK  status: ('A' for Active; 'I' for Inactive)
REMARK    1  A    between atoms: C2_2  and  C3_3 
REMARK    2  A    between atoms: C3_3  and  N1_4 
REMARK    3  A    between atoms: N1_4  and  C4_6 
REMARK    4  A    between atoms: C6_10  and  C7_11 
REMARK    5  A    between atoms: C7_11  and  C8_12 
REMARK    6  A    between atoms: C8_12  and  C9_13 
REMARK    7  A    between atoms: C8_12  and  N3_22 
REMARK    8  A    between atoms: C9_13  and  C10_14 
REMARK    9  A    between atoms: N3_22  and  S1_24 
REMARK   10  A    between atoms: S1_24  and  N4_25 
ROOT
HETATM    1  C8  UNL     1      -1.665   0.800   0.669  1.00  0.00     0.103 C 
ENDROOT
BRANCH   1   2
HETATM    2  C7  UNL     1      -0.604   1.726   1.190  1.00  0.00     0.066 C 
BRANCH   2   3
HETATM    3  C6  UNL     1       0.763   1.295   0.827  1.00  0.00    -0.039 A 
HETATM    4  C5  UNL     1       1.527   0.496   1.657  1.00  0.00     0.097 A 
HETATM    5  N2  UNL     1       2.764   0.100   1.340  1.00  0.00    -0.351 N 
HETATM    6  C4  UNL     1       3.373   0.457   0.160  1.00  0.00     0.122 A 
ATOM      7  H2  UNL     1       3.275  -0.489   1.998  1.00  0.00     0.166 HD
HETATM    8  C17 UNL     1       2.647   1.247  -0.688  1.00  0.00     0.055 A 
HETATM    9  C16 UNL     1       1.355   1.669  -0.372  1.00  0.00     0.031 A 
HETATM   10 BR1  UNL     1       3.351   1.824  -2.357  1.00  0.00    -0.047 Br
BRANCH   6  11
HETATM   11  N1  UNL     1       4.529   0.042  -0.053  1.00  0.00    -0.351 N 
ATOM     12  H1  UNL     1       4.868  -0.530   0.720  1.00  0.00     0.166 HD
BRANCH  11  13
HETATM   13  C3  UNL     1       5.485   0.150  -1.066  1.00  0.00     0.089 C 
BRANCH  13  14
HETATM   14  C2  UNL     1       6.766  -0.561  -0.706  1.00  0.00     0.007 C 
HETATM   15  C1  UNL     1       7.182  -1.537  -1.474  1.00  0.00     0.012 C 
ENDBRANCH  13  14
ENDBRANCH  11  13
ENDBRANCH   6  11
ENDBRANCH   2   3
ENDBRANCH   1   2
BRANCH   1  16
HETATM   16  C9  UNL     1      -1.476  -0.564   1.216  1.00  0.00     0.064 C 
BRANCH  16  17
HETATM   17  C10 UNL     1      -2.494  -1.539   0.759  1.00  0.00    -0.053 A 
HETATM   18  C11 UNL     1      -2.257  -2.254  -0.394  1.00  0.00     0.010 A 
HETATM   19  C12 UNL     1      -3.159  -3.186  -0.889  1.00  0.00     0.046 A 
HETATM   20  C13 UNL     1      -4.321  -3.370  -0.169  1.00  0.00     0.154 A 
HETATM   21  F1  UNL     1      -5.266  -4.274  -0.592  1.00  0.00    -0.203 F 
HETATM   22  C14 UNL     1      -4.558  -2.653   0.986  1.00  0.00     0.155 A 
HETATM   23  F2  UNL     1      -5.714  -2.831   1.709  1.00  0.00    -0.203 F 
HETATM   24  C15 UNL     1      -3.657  -1.727   1.475  1.00  0.00     0.052 A 
ENDBRANCH  16  17
ENDBRANCH   1  16
BRANCH   1  25
HETATM   25  N3  UNL     1      -2.972   1.362   0.941  1.00  0.00    -0.298 N 
ATOM     26  H3  UNL     1      -3.350   1.482   1.881  1.00  0.00     0.174 HD
BRANCH  25  27
HETATM   27  S1  UNL     1      -3.821   1.807  -0.492  1.00  0.00     0.313 S 
HETATM   28  O1  UNL     1      -3.513   0.934  -1.649  1.00  0.00    -0.183 OA
HETATM   29  O2  UNL     1      -5.313   1.751  -0.234  1.00  0.00    -0.183 OA
BRANCH  27  30
HETATM   30  N4  UNL     1      -3.468   3.459  -0.929  1.00  0.00    -0.312 N 
ATOM     31  H42 UNL     1      -2.843   4.066  -0.399  1.00  0.00     0.170 HD
ATOM     32  H41 UNL     1      -3.970   3.722  -1.777  1.00  0.00     0.170 HD
ENDBRANCH  27  30
ENDBRANCH  25  27
ENDBRANCH   1  25
TORSDOF 10
