REMARK  11 active torsions:
REMARK  status: ('A' for Active; 'I' for Inactive)
REMARK    1  A    between atoms: C1_2  and  C2_3 
REMARK       I    between atoms: C1_2  and  N1_12 
REMARK    2  A    between atoms: C2_3  and  C3_4 
REMARK    3  A    between atoms: N1_12  and  C9_14 
REMARK    4  A    between atoms: C9_14  and  C10_15 
REMARK    5  A    between atoms: C10_15  and  N2_16 
REMARK    6  A    between atoms: N2_16  and  C11_18 
REMARK    7  A    between atoms: C15_28  and  N5_29 
REMARK    8  A    between atoms: N5_29  and  C16_31 
REMARK    9  A    between atoms: C16_31  and  C17_32 
REMARK   10  A    between atoms: C17_32  and  C18_33 
REMARK   11  A    between atoms: C18_33  and  C19_34 
ROOT
HETATM    1  C11 UNL     1      -0.342  -0.288   0.354  1.00  0.00     0.148 C 
HETATM    2  N3  UNL     1       0.277  -1.425  -0.048  1.00  0.00    -0.304 N 
ATOM      3  H3  UNL     1       0.899  -1.856   0.636  1.00  0.00     0.171 HD
HETATM    4  C12 UNL     1       0.180  -2.056  -1.222  1.00  0.00     0.287 C 
HETATM    5  O2  UNL     1       1.059  -2.951  -1.385  1.00  0.00    -0.265 OA
HETATM    6  C13 UNL     1      -0.724  -1.876  -2.263  1.00  0.00     0.199 C 
HETATM    7  F3  UNL     1      -0.563  -2.673  -3.329  1.00  0.00    -0.199 F 
HETATM    8  C14 UNL     1      -1.762  -0.974  -2.318  1.00  0.00     0.138 C 
HETATM    9  N4  UNL     1      -2.027  -0.019  -1.409  1.00  0.00    -0.346 N 
ATOM     10  H4  UNL     1      -2.704   0.678  -1.718  1.00  0.00     0.167 HD
HETATM   11  C15 UNL     1      -1.557   0.179  -0.166  1.00  0.00     0.145 C 
ENDROOT
BRANCH   1  12
HETATM   12  N2  UNL     1       0.198   0.431   1.272  1.00  0.00    -0.372 N 
ATOM     13  H2  UNL     1      -0.290   1.281   1.555  1.00  0.00     0.161 HD
BRANCH  12  14
HETATM   14  C10 UNL     1       1.436   0.125   1.927  1.00  0.00     0.141 C 
BRANCH  14  15
HETATM   15  C9  UNL     1       2.590   0.403   0.998  1.00  0.00     0.142 C 
BRANCH  15  16
HETATM   16  N1  UNL     1       3.852   0.102   1.639  1.00  0.00    -0.359 N 
HETATM   17  C1  UNL     1       5.095   0.273   0.988  1.00  0.00     0.221 C 
HETATM   18  O1  UNL     1       5.125   0.707  -0.205  1.00  0.00    -0.273 OA
ATOM     19  H1  UNL     1       3.844  -0.247   2.597  1.00  0.00     0.162 HD
BRANCH  17  20
HETATM   20  C2  UNL     1       6.339  -0.062   1.725  1.00  0.00     0.141 C 
BRANCH  20  21
HETATM   21  C3  UNL     1       7.546   0.176   0.894  1.00  0.00    -0.044 A 
HETATM   22  C4  UNL     1       8.110  -0.777   0.076  1.00  0.00     0.050 A 
HETATM   23  C5  UNL     1       9.235  -0.480  -0.668  1.00  0.00     0.119 A 
HETATM   24  F1  UNL     1       9.797  -1.433  -1.485  1.00  0.00    -0.206 F 
HETATM   25  C6  UNL     1       9.820   0.776  -0.610  1.00  0.00     0.084 A 
HETATM   26  C7  UNL     1       9.260   1.727   0.203  1.00  0.00     0.119 A 
HETATM   27  F2  UNL     1       9.838   2.950   0.253  1.00  0.00    -0.206 F 
HETATM   28  C8  UNL     1       8.136   1.425   0.945  1.00  0.00     0.050 A 
ENDBRANCH  20  21
ENDBRANCH  17  20
ENDBRANCH  15  16
ENDBRANCH  14  15
ENDBRANCH  12  14
ENDBRANCH   1  12
BRANCH  11  29
HETATM   29  N5  UNL     1      -2.254   0.856   0.649  1.00  0.00    -0.373 N 
ATOM     30  H5  UNL     1      -1.864   0.988   1.582  1.00  0.00     0.161 HD
BRANCH  29  31
HETATM   31  C16 UNL     1      -3.524   1.452   0.399  1.00  0.00     0.121 C 
BRANCH  31  32
HETATM   32  C17 UNL     1      -4.659   0.474   0.252  1.00  0.00     0.024 C 
BRANCH  32  33
HETATM   33  C18 UNL     1      -5.914   1.276  -0.008  1.00  0.00     0.040 C 
BRANCH  33  34
HETATM   34  C19 UNL     1      -7.106   0.419  -0.172  1.00  0.00    -0.058 A 
HETATM   35  C20 UNL     1      -7.507  -0.071  -1.400  1.00  0.00     0.007 A 
HETATM   36  C21 UNL     1      -8.610  -0.867  -1.571  1.00  0.00     0.001 A 
HETATM   37  C22 UNL     1      -9.363  -1.198  -0.456  1.00  0.00     0.000 A 
HETATM   38  C23 UNL     1      -9.000  -0.731   0.794  1.00  0.00     0.001 A 
HETATM   39  C24 UNL     1      -7.867   0.080   0.928  1.00  0.00     0.007 A 
ENDBRANCH  33  34
ENDBRANCH  32  33
ENDBRANCH  31  32
ENDBRANCH  29  31
ENDBRANCH  11  29
TORSDOF 11
