REMARK  7 active torsions:
REMARK  status: ('A' for Active; 'I' for Inactive)
REMARK    1  A    between atoms: C1_4  and  C2_6 
REMARK    2  A    between atoms: C4_10  and  N4_11 
REMARK    3  A    between atoms: N4_11  and  C5_13 
REMARK    4  A    between atoms: C5_13  and  C6_14 
REMARK    5  A    between atoms: C9_17  and  C10_18 
REMARK    6  A    between atoms: C10_18  and  C11_19 
REMARK    7  A    between atoms: C11_19  and  C12_20 
ROOT
HETATM    1  C6  UNL     1      -0.458   1.240   0.321  1.00  0.00    -0.025 A 
HETATM    2  C7  UNL     1      -0.099  -0.000   0.798  1.00  0.00     0.012 A 
HETATM    3  C8  UNL     1       1.194  -0.456   0.652  1.00  0.00     0.025 A 
HETATM    4  C9  UNL     1       2.167   0.316   0.023  1.00  0.00     0.009 A 
HETATM    5  N5  UNL     1       1.786   1.523  -0.433  1.00  0.00    -0.369 N 
ATOM      6  H5  UNL     1       2.477   2.111  -0.898  1.00  0.00     0.165 HD
HETATM    7  C18 UNL     1       0.517   1.989  -0.298  1.00  0.00     0.096 A 
ENDROOT
BRANCH   1   8
HETATM    8  C5  UNL     1      -1.876   1.715   0.493  1.00  0.00     0.161 C 
BRANCH   8   9
HETATM    9  N4  UNL     1      -2.650   1.371  -0.658  1.00  0.00    -0.369 N 
ATOM     10  H4  UNL     1      -2.227   1.506  -1.576  1.00  0.00     0.161 HD
BRANCH   9  11
HETATM   11  C4  UNL     1      -3.832   0.908  -0.608  1.00  0.00     0.140 A 
HETATM   12  N3  UNL     1      -4.555   0.662   0.492  1.00  0.00    -0.349 N 
HETATM   13  C3  UNL     1      -5.807   0.162   0.413  1.00  0.00     0.104 A 
ATOM     14  H3  UNL     1      -4.152   0.856   1.409  1.00  0.00     0.167 HD
HETATM   15  C2  UNL     1      -6.438  -0.132  -0.774  1.00  0.00     0.023 A 
HETATM   16  C20 UNL     1      -5.728   0.107  -1.920  1.00  0.00     0.062 A 
HETATM   17  C19 UNL     1      -4.439   0.622  -1.823  1.00  0.00     0.161 A 
HETATM   18  F5  UNL     1      -3.780   0.843  -2.966  1.00  0.00    -0.202 F 
BRANCH  15  19
HETATM   19  C1  UNL     1      -7.807  -0.678  -0.761  1.00  0.00     0.121 C 
HETATM   20  N1  UNL     1      -8.414  -0.955  -1.845  1.00  0.00    -0.387 N 
ATOM     21  H12 UNL     1      -9.361  -1.333  -1.836  1.00  0.00     0.157 HD
ATOM     22  H11 UNL     1      -7.989  -0.813  -2.761  1.00  0.00     0.157 HD
HETATM   23  N2  UNL     1      -8.402  -0.877   0.521  1.00  0.00    -0.082 NA
ENDBRANCH  15  19
ENDBRANCH   9  11
ENDBRANCH   8   9
ENDBRANCH   1   8
BRANCH   4  24
HETATM   24  C10 UNL     1       3.543  -0.205  -0.116  1.00  0.00     0.062 C 
BRANCH  24  25
HETATM   25  C11 UNL     1       4.431   0.158   1.048  1.00  0.00     0.051 C 
BRANCH  25  26
HETATM   26  C12 UNL     1       5.774  -0.433   0.771  1.00  0.00     0.023 A 
HETATM   27  C13 UNL     1       6.004  -1.794   0.941  1.00  0.00     0.128 A 
HETATM   28  F1  UNL     1       4.985  -2.581   1.366  1.00  0.00    -0.205 F 
HETATM   29  C14 UNL     1       7.246  -2.327   0.679  1.00  0.00     0.088 A 
HETATM   30  C15 UNL     1       8.247  -1.492   0.251  1.00  0.00     0.161 A 
HETATM   31  F2  UNL     1       9.476  -2.015  -0.008  1.00  0.00    -0.203 F 
HETATM   32  C16 UNL     1       8.035  -0.141   0.078  1.00  0.00     0.194 A 
HETATM   33  F3  UNL     1       9.036   0.666  -0.345  1.00  0.00    -0.200 F 
HETATM   34  C17 UNL     1       6.787   0.393   0.341  1.00  0.00     0.167 A 
HETATM   35  F4  UNL     1       6.559   1.734   0.174  1.00  0.00    -0.202 F 
ENDBRANCH  25  26
ENDBRANCH  24  25
ENDBRANCH   4  24
TORSDOF 7
