REMARK  11 active torsions:
REMARK  status: ('A' for Active; 'I' for Inactive)
REMARK    1  A    between atoms: C2_2  and  C3_3 
REMARK    2  A    between atoms: C5_8  and  C6_9 
REMARK    3  A    between atoms: C6_9  and  N2_10 
REMARK    4  A    between atoms: N3_13  and  C9_14 
REMARK    5  A    between atoms: C9_14  and  C10_15 
REMARK    6  A    between atoms: C10_15  and  C11_16 
REMARK    7  A    between atoms: C11_16  and  C12_17 
REMARK    8  A    between atoms: C12_17  and  C13_18 
REMARK    9  A    between atoms: C19_24  and  C20_25 
REMARK   10  A    between atoms: C24_31  and  O4_32 
REMARK   11  A    between atoms: C25_34  and  O5_35 
ROOT
HETATM    1  C3  UNL     1      -4.749   1.182  -0.309  1.00  0.00     0.082 C 
HETATM    2  N1  UNL     1      -3.853   0.787  -1.373  1.00  0.00    -0.345 N 
ATOM      3  H1  UNL     1      -3.957   1.171  -2.312  1.00  0.00     0.163 HD
HETATM    4  C4  UNL     1      -2.807  -0.165  -1.075  1.00  0.00     0.232 C 
HETATM    5  O1  UNL     1      -2.259  -0.703  -2.045  1.00  0.00    -0.272 OA
HETATM    6  C5  UNL     1      -2.503  -0.400   0.360  1.00  0.00     0.106 C 
HETATM    7  C19 UNL     1      -3.552  -1.334   0.856  1.00  0.00     0.109 C 
HETATM    8  C21 UNL     1      -4.915  -0.833   1.104  1.00  0.00     0.024 C 
HETATM    9  C22 UNL     1      -5.560  -0.012   0.043  1.00  0.00     0.017 C 
HETATM   10  C23 UNL     1      -6.876   0.507   0.646  1.00  0.00     0.013 C 
HETATM   11  C24 UNL     1      -2.616   0.987   0.985  1.00  0.00     0.170 C 
HETATM   12  C25 UNL     1      -3.998   1.575   0.944  1.00  0.00     0.180 C 
ENDROOT
BRANCH   6  13
HETATM   13  C6  UNL     1      -1.237  -1.058   0.672  1.00  0.00     0.260 C 
BRANCH  13  14
HETATM   14  N2  UNL     1       0.068  -0.675   0.447  1.00  0.00    -0.061 N 
HETATM   15  C7  UNL     1       0.791  -1.962   0.733  1.00  0.00     0.265 C 
HETATM   16  C8  UNL     1       2.182  -1.964   0.246  1.00  0.00     0.265 C 
HETATM   17  N3  UNL     1       2.652  -0.580   0.443  1.00  0.00    -0.062 N 
HETATM   18  C15 UNL     1       2.118  -0.224   1.746  1.00  0.00     0.265 C 
HETATM   19  C17 UNL     1       2.028   0.153  -0.626  1.00  0.00     0.265 C 
HETATM   20  C16 UNL     1       0.667   0.214   1.456  1.00  0.00     0.265 C 
HETATM   21  C18 UNL     1       0.559  -0.287  -0.819  1.00  0.00     0.265 C 
BRANCH  17  22
HETATM   22  C9  UNL     1       4.083  -0.588   0.376  1.00  0.00     0.237 C 
BRANCH  22  23
HETATM   23  C10 UNL     1       4.697   0.768   0.357  1.00  0.00     0.028 C 
BRANCH  23  24
HETATM   24  C11 UNL     1       6.198   0.638   0.296  1.00  0.00     0.002 C 
BRANCH  24  25
HETATM   25  C12 UNL     1       6.671  -0.092  -0.921  1.00  0.00    -0.000 C 
BRANCH  25  26
HETATM   26  C13 UNL     1       8.189  -0.198  -0.957  1.00  0.00    -0.005 C 
HETATM   27  C14 UNL     1       8.771   1.192  -0.967  1.00  0.00     0.005 C 
ENDBRANCH  25  26
ENDBRANCH  24  25
ENDBRANCH  23  24
ENDBRANCH  22  23
ENDBRANCH  17  22
ENDBRANCH  13  14
ENDBRANCH   6  13
BRANCH   7  28
HETATM   28  C20 UNL     1      -3.640  -2.563   0.051  1.00  0.00     0.178 C 
HETATM   29  O2  UNL     1      -4.557  -2.639  -0.842  1.00  0.00    -0.648 OA
HETATM   30  O3  UNL     1      -2.857  -3.692   0.113  1.00  0.00    -0.648 OA
ENDBRANCH   7  28
BRANCH  11  31
HETATM   31  O4  UNL     1      -1.825   1.932   0.411  1.00  0.00    -0.392 OA
ATOM     32  H4  UNL     1      -1.895   2.796   0.800  1.00  0.00     0.210 HD
ENDBRANCH  11  31
BRANCH  12  33
HETATM   33  O5  UNL     1      -3.934   2.999   0.859  1.00  0.00    -0.390 OA
ATOM     34  H5  UNL     1      -3.462   3.246   1.646  1.00  0.00     0.210 HD
ENDBRANCH  12  33
BRANCH   1  35
HETATM   35  C2  UNL     1      -5.635   2.303  -0.786  1.00  0.00    -0.003 C 
HETATM   36  C1  UNL     1      -6.168   2.287  -1.999  1.00  0.00     0.009 C 
ENDBRANCH   1  35
TORSDOF 11
