REMARK  8 active torsions:
REMARK  status: ('A' for Active; 'I' for Inactive)
REMARK    1  A    between atoms: C2_2  and  C4_4 
REMARK    2  A    between atoms: C4_4  and  C6_6 
REMARK    3  A    between atoms: C6_6  and  O2_8 
REMARK    4  A    between atoms: O2_8  and  C7_9 
REMARK    5  A    between atoms: C8_10  and  O3_11 
REMARK    6  A    between atoms: C19_24  and  C20_25 
REMARK    7  A    between atoms: C20_25  and  O5_26 
REMARK    8  A    between atoms: C22_29  and  O6_30 
ROOT
HETATM    1  O5  UNL     1      -5.318   1.458   1.782  1.00  0.00    -0.282 OA
HETATM    2  C21 UNL     1      -5.920   1.863   2.933  1.00  0.00     0.228 C 
HETATM    3  N1  UNL     1      -6.405   2.198   3.905  1.00  0.00    -0.164 NA
ENDROOT
BRANCH   1   4
HETATM    4  C20 UNL     1      -4.088   0.813   1.726  1.00  0.00     0.211 C 
BRANCH   4   5
HETATM    5  C19 UNL     1      -3.616   0.453   0.309  1.00  0.00     0.055 C 
HETATM    6  C14 UNL     1      -4.524  -0.454  -0.392  1.00  0.00    -0.059 C 
HETATM    7  C13 UNL     1      -4.146  -1.536  -1.006  1.00  0.00    -0.022 C 
HETATM    8  C15 UNL     1      -5.982  -0.108  -0.436  1.00  0.00     0.118 C 
HETATM    9  C12 UNL     1      -2.760  -2.049  -1.085  1.00  0.00     0.035 C 
HETATM   10  C11 UNL     1      -1.917  -1.429  -0.047  1.00  0.00     0.030 C 
HETATM   11  C10 UNL     1      -0.470  -1.612  -0.443  1.00  0.00     0.006 C 
HETATM   12  C22 UNL     1      -2.240  -0.080   0.454  1.00  0.00     0.079 C 
HETATM   13  C9  UNL     1      -0.141  -1.223  -1.849  1.00  0.00     0.040 C 
HETATM   14  C25 UNL     1       0.513  -0.850   0.379  1.00  0.00    -0.011 C 
HETATM   15  C8  UNL     1       1.222  -0.545  -1.819  1.00  0.00     0.148 C 
HETATM   16  C7  UNL     1       1.765  -1.024  -0.503  1.00  0.00     0.169 C 
HETATM   17  C24 UNL     1       0.173   0.597   0.543  1.00  0.00     0.015 C 
HETATM   18  C26 UNL     1       0.786  -1.464   1.716  1.00  0.00     0.018 C 
HETATM   19  C23 UNL     1      -1.188   0.979   0.045  1.00  0.00     0.040 C 
HETATM   20  C16 UNL     1      -6.027   1.248  -1.087  1.00  0.00     0.153 C 
HETATM   21  O4  UNL     1      -7.106   1.595  -1.618  1.00  0.00    -0.293 OA
HETATM   22  C17 UNL     1      -4.814   2.054  -1.050  1.00  0.00     0.048 C 
HETATM   23  C18 UNL     1      -3.694   1.745  -0.435  1.00  0.00    -0.004 C 
BRANCH  15  24
HETATM   24  O3  UNL     1       1.944  -0.966  -2.910  1.00  0.00    -0.393 OA
ATOM     25  H3  UNL     1       1.601  -0.663  -3.742  1.00  0.00     0.210 HD
ENDBRANCH  15  24
BRANCH  16  26
HETATM   26  O2  UNL     1       2.845  -0.303  -0.022  1.00  0.00    -0.312 OA
BRANCH  26  27
HETATM   27  C6  UNL     1       4.073  -0.810   0.336  1.00  0.00     0.263 C 
HETATM   28  O1  UNL     1       4.214  -2.067   0.204  1.00  0.00    -0.265 OA
BRANCH  27  29
HETATM   29  C4  UNL     1       5.195   0.004   0.846  1.00  0.00     0.085 C 
HETATM   30  C5  UNL     1       6.360  -0.894   1.201  1.00  0.00     0.021 C 
BRANCH  29  31
HETATM   31  C2  UNL     1       5.629   1.066  -0.134  1.00  0.00    -0.010 C 
HETATM   32  C1  UNL     1       6.727   1.934   0.436  1.00  0.00     0.010 C 
HETATM   33  C3  UNL     1       4.499   1.886  -0.653  1.00  0.00     0.010 C 
ENDBRANCH  29  31
ENDBRANCH  27  29
ENDBRANCH  26  27
ENDBRANCH  16  26
BRANCH  12  34
HETATM   34  O6  UNL     1      -2.002  -0.082   1.887  1.00  0.00    -0.388 OA
ATOM     35  H6  UNL     1      -2.210   0.787   2.210  1.00  0.00     0.210 HD
ENDBRANCH  12  34
ENDBRANCH   4   5
ENDBRANCH   1   4
TORSDOF 8
