REMARK  7 active torsions:
REMARK  status: ('A' for Active; 'I' for Inactive)
REMARK    1  A    between atoms: N1_2  and  C3_4 
REMARK    2  A    between atoms: C3_4  and  C4_5 
REMARK    3  A    between atoms: C4_5  and  N2_6 
REMARK    4  A    between atoms: N2_6  and  C6_8 
REMARK    5  A    between atoms: C6_8  and  C7_9 
REMARK    6  A    between atoms: C13_15  and  O1_16 
REMARK    7  A    between atoms: C15_19  and  O2_20 
ROOT
HETATM    1  C7  UNL     1       0.378  -0.590  -0.871  1.00  0.00     0.031 C 
HETATM    2  C8  UNL     1      -0.663  -1.215  -1.845  1.00  0.00     0.013 C 
HETATM    3  C9  UNL     1      -1.591  -1.824  -0.813  1.00  0.00     0.008 C 
HETATM    4  C10 UNL     1      -2.878  -2.282  -1.344  1.00  0.00    -0.017 C 
HETATM    5  C11 UNL     1      -3.453  -1.518  -2.509  1.00  0.00     0.018 C 
HETATM    6  C12 UNL     1      -2.675  -3.702  -1.923  1.00  0.00     0.018 C 
HETATM    7  C13 UNL     1      -3.906  -2.444  -0.276  1.00  0.00     0.128 C 
HETATM    8  C14 UNL     1      -3.988  -1.354   0.715  1.00  0.00     0.065 C 
HETATM    9  C15 UNL     1      -2.991  -0.249   0.557  1.00  0.00     0.130 C 
HETATM   10  C16 UNL     1      -1.621  -0.782   0.285  1.00  0.00     0.002 C 
HETATM   11  C17 UNL     1      -1.266  -1.544   1.549  1.00  0.00     0.019 C 
HETATM   12  C18 UNL     1      -0.602   0.261  -0.079  1.00  0.00     0.040 C 
HETATM   13  C19 UNL     1      -1.166   1.373  -0.927  1.00  0.00     0.030 C 
HETATM   14  C20 UNL     1      -1.519   2.633  -0.208  1.00  0.00     0.046 C 
HETATM   15  C21 UNL     1      -1.440   3.818  -1.195  1.00  0.00     0.038 C 
HETATM   16  C22 UNL     1      -1.435   4.967  -0.191  1.00  0.00     0.176 C 
HETATM   17  O3  UNL     1      -0.622   4.470   0.862  1.00  0.00    -0.355 OA
HETATM   18  C23 UNL     1      -0.535   3.069   0.781  1.00  0.00     0.054 C 
HETATM   19  C24 UNL     1       0.232   2.206   1.410  1.00  0.00     0.083 C 
HETATM   20  C25 UNL     1       0.094   0.767   1.112  1.00  0.00     0.161 C 
HETATM   21  O4  UNL     1       0.643   0.025   1.998  1.00  0.00    -0.292 OA
ENDROOT
BRANCH   1  22
HETATM   22  C6  UNL     1       1.454   0.069  -1.597  1.00  0.00     0.277 C 
BRANCH  22  23
HETATM   23  N2  UNL     1       2.520   0.679  -0.851  1.00  0.00     0.086 N 
HETATM   24  C5  UNL     1       3.375   1.507  -1.684  1.00  0.00     0.310 C 
BRANCH  23  25
HETATM   25  C4  UNL     1       3.395  -0.287  -0.200  1.00  0.00     0.302 C 
BRANCH  25  26
HETATM   26  C3  UNL     1       4.261   0.495   0.774  1.00  0.00     0.301 C 
BRANCH  26  27
HETATM   27  N1  UNL     1       5.183  -0.367   1.490  1.00  0.00     0.081 N 
HETATM   28  C1  UNL     1       6.186  -0.900   0.601  1.00  0.00     0.309 C 
HETATM   29  C2  UNL     1       5.858   0.431   2.495  1.00  0.00     0.309 C 
ENDBRANCH  26  27
ENDBRANCH  25  26
ENDBRANCH  23  25
ENDBRANCH  22  23
ENDBRANCH   1  22
BRANCH   9  30
HETATM   30  O2  UNL     1      -2.925   0.371   1.835  1.00  0.00    -0.395 OA
ATOM     31  H2  UNL     1      -2.292   1.072   1.735  1.00  0.00     0.210 HD
ENDBRANCH   9  30
BRANCH   7  32
HETATM   32  O1  UNL     1      -5.143  -2.624  -0.942  1.00  0.00    -0.395 OA
ATOM     33  H1  UNL     1      -5.798  -2.727  -0.262  1.00  0.00     0.210 HD
ENDBRANCH   7  32
TORSDOF 7
