REMARK  10 active torsions:
REMARK  status: ('A' for Active; 'I' for Inactive)
REMARK    1  A    between atoms: O1_2  and  C2_3 
REMARK    2  A    between atoms: C3_4  and  O2_5 
REMARK    3  A    between atoms: C4_7  and  C5_8 
REMARK    4  A    between atoms: C5_8  and  O3_9 
REMARK    5  A    between atoms: N1_11  and  C6_12 
REMARK    6  A    between atoms: C6_12  and  O4_13 
REMARK    7  A    between atoms: C6_12  and  C7_15 
REMARK    8  A    between atoms: C7_15  and  N2_16 
REMARK       I    between atoms: N2_16  and  C8_18 
REMARK    9  A    between atoms: C15_26  and  N3_27 
REMARK       I    between atoms: N3_27  and  C16_28 
REMARK   10  A    between atoms: C16_28  and  C17_30 
ROOT
HETATM    1  C2  UNL     1      -0.137  -1.944  -0.990  1.00  0.00     0.215 C 
HETATM    2  C3  UNL     1       1.310  -2.266  -1.145  1.00  0.00     0.201 C 
HETATM    3  C4  UNL     1       2.208  -1.094  -1.315  1.00  0.00     0.046 C 
HETATM    4  N1  UNL     1       2.482  -0.345  -0.083  1.00  0.00    -0.327 N 
HETATM    5  C10 UNL     1       1.717  -0.528   1.075  1.00  0.00     0.102 C 
HETATM    6  C11 UNL     1       1.944   0.344   2.280  1.00  0.00     0.026 C 
HETATM    7  C12 UNL     1       0.842  -0.268   3.208  1.00  0.00     0.003 C 
HETATM    8  C13 UNL     1      -0.219  -0.784   2.264  1.00  0.00     0.014 C 
HETATM    9  C14 UNL     1       0.257  -0.258   0.883  1.00  0.00     0.072 C 
HETATM   10  C15 UNL     1      -0.495  -0.722  -0.247  1.00  0.00     0.104 C 
ENDROOT
BRANCH   4  11
HETATM   11  C6  UNL     1       3.597   0.484  -0.209  1.00  0.00     0.136 C 
BRANCH  11  12
HETATM   12  O4  UNL     1       4.226   0.532  -1.357  1.00  0.00    -0.348 OA
ATOM     13  H4  UNL     1       4.985   1.097  -1.443  1.00  0.00     0.219 HD
ENDBRANCH  11  12
BRANCH  11  14
HETATM   14  C7  UNL     1       4.213   1.350   0.790  1.00  0.00     0.206 C 
BRANCH  14  15
HETATM   15  N2  UNL     1       5.359   2.045   0.151  1.00  0.00    -0.354 N 
HETATM   16  C8  UNL     1       6.140   2.931   0.936  1.00  0.00     0.213 C 
HETATM   17  C9  UNL     1       7.290   3.645   0.331  1.00  0.00     0.117 C 
HETATM   18  O5  UNL     1       5.865   3.114   2.138  1.00  0.00    -0.274 OA
ATOM     19  H2  UNL     1       5.580   1.888  -0.832  1.00  0.00     0.162 HD
ENDBRANCH  14  15
ENDBRANCH  11  14
ENDBRANCH   4  11
BRANCH   3  20
HETATM   20  C5  UNL     1       1.953  -0.359  -2.554  1.00  0.00     0.219 C 
BRANCH  20  21
HETATM   21  O3  UNL     1       1.655  -1.364  -3.554  1.00  0.00    -0.395 OA
ATOM     22  H3  UNL     1       1.489  -0.887  -4.359  1.00  0.00     0.209 HD
ENDBRANCH  20  21
ENDBRANCH   3  20
BRANCH   2  23
HETATM   23  O2  UNL     1       1.776  -3.227  -0.246  1.00  0.00    -0.387 OA
ATOM     24  H2  UNL     1       2.698  -3.432  -0.345  1.00  0.00     0.210 HD
ENDBRANCH   2  23
BRANCH   1  25
HETATM   25  O1  UNL     1      -0.692  -3.081  -0.399  1.00  0.00    -0.381 OA
HETATM   26  C1  UNL     1      -1.540  -3.789  -1.226  1.00  0.00     0.202 C 
ENDBRANCH   1  25
BRANCH  10  27
HETATM   27  N3  UNL     1      -1.894  -0.672  -0.071  1.00  0.00    -0.376 NA
HETATM   28  C16 UNL     1      -3.220  -0.626   0.097  1.00  0.00     0.295 C 
HETATM   29  O6  UNL     1      -3.876  -1.130   1.051  1.00  0.00    -0.257 OA
BRANCH  28  30
HETATM   30  C17 UNL     1      -4.145   0.075  -0.894  1.00  0.00     0.093 C 
HETATM   31  C18 UNL     1      -3.859   1.529  -0.807  1.00  0.00     0.015 C 
HETATM   32  C19 UNL     1      -4.659   2.264   0.232  1.00  0.00     0.001 C 
HETATM   33  C20 UNL     1      -6.127   1.948   0.108  1.00  0.00     0.000 C 
HETATM   34  C21 UNL     1      -6.302   0.465   0.320  1.00  0.00     0.001 C 
HETATM   35  C22 UNL     1      -5.538  -0.354  -0.688  1.00  0.00     0.015 C 
ENDBRANCH  28  30
ENDBRANCH  10  27
TORSDOF 10
