REMARK  10 active torsions:
REMARK  status: ('A' for Active; 'I' for Inactive)
REMARK    1  A    between atoms: C5_5  and  N1_6 
REMARK    2  A    between atoms: N1_6  and  C8_9 
REMARK    3  A    between atoms: C8_9  and  N2_10 
REMARK    4  A    between atoms: N2_10  and  C9_12 
REMARK    5  A    between atoms: C9_12  and  C10_14 
REMARK    6  A    between atoms: C13_22  and  C14_23 
REMARK       I    between atoms: C14_23  and  N5_25 
REMARK    7  A    between atoms: C16_27  and  C17_28 
REMARK    8  A    between atoms: C17_28  and  C18_29 
REMARK    9  A    between atoms: C18_29  and  C19_30 
REMARK   10  A    between atoms: C21_32  and  C22_33 
ROOT
HETATM    1  C1  UNL     1      -5.267   4.141   0.653  1.00  0.00     0.102 C 
HETATM    2  C2  UNL     1      -5.306   2.928   0.479  1.00  0.00    -0.152 C 
HETATM    3  C3  UNL     1      -5.381   1.529   0.270  1.00  0.00     0.002 C 
HETATM    4  C4  UNL     1      -6.677   0.988  -0.248  1.00  0.00     0.059 C 
HETATM    5  C5  UNL     1      -4.361   0.733   0.518  1.00  0.00     0.218 C 
ENDROOT
BRANCH   5   6
HETATM    6  N1  UNL     1      -3.129   1.189   1.003  1.00  0.00    -0.038 N 
HETATM    7  C6  UNL     1      -2.518   2.060   0.027  1.00  0.00     0.280 C 
HETATM    8  C7  UNL     1      -3.232   1.894   2.251  1.00  0.00     0.280 C 
BRANCH   6   9
HETATM    9  C8  UNL     1      -2.253   0.030   1.226  1.00  0.00     0.365 C 
BRANCH   9  10
HETATM   10  N2  UNL     1      -1.921  -0.589  -0.021  1.00  0.00    -0.360 N 
ATOM     11  H2  UNL     1      -2.376  -0.206  -0.850  1.00  0.00     0.161 HD
BRANCH  10  12
HETATM   12  C9  UNL     1      -1.038  -1.668  -0.237  1.00  0.00     0.083 C 
HETATM   13  S1  UNL     1      -0.862  -2.165  -1.800  1.00  0.00    -0.065 SA
BRANCH  12  14
HETATM   14  C10 UNL     1      -0.320  -2.310   0.870  1.00  0.00     0.097 C 
HETATM   15  C11 UNL     1      -1.172  -3.106   1.819  1.00  0.00     0.138 C 
HETATM   16  N3  UNL     1      -1.923  -4.068   1.021  1.00  0.00    -0.342 N 
HETATM   17  C12 UNL     1      -1.096  -4.867   0.155  1.00  0.00     0.316 C 
ATOM     18  H3  UNL     1      -2.937  -4.165   1.072  1.00  0.00     0.164 HD
HETATM   19  O1  UNL     1      -1.577  -5.839  -0.437  1.00  0.00    -0.247 OA
HETATM   20  N4  UNL     1       0.268  -4.517  -0.002  1.00  0.00    -0.329 N 
HETATM   21  C13 UNL     1       0.792  -3.236   0.419  1.00  0.00     0.190 C 
ATOM     22  H4  UNL     1       0.903  -5.192  -0.427  1.00  0.00     0.165 HD
BRANCH  21  23
HETATM   23  C14 UNL     1       1.749  -2.664  -0.510  1.00  0.00     0.244 C 
HETATM   24  O2  UNL     1       2.005  -3.358  -1.557  1.00  0.00    -0.271 OA
HETATM   25  N5  UNL     1       2.431  -1.429  -0.392  1.00  0.00    -0.335 N 
HETATM   26  C15 UNL     1       3.416  -0.710  -1.227  1.00  0.00     0.134 A 
HETATM   27  C21 UNL     1       2.497  -0.330   0.550  1.00  0.00     0.193 A 
HETATM   28  C16 UNL     1       3.496   0.423  -0.282  1.00  0.00     0.037 A 
BRANCH  28  29
HETATM   29  C17 UNL     1       3.054   1.776  -0.782  1.00  0.00     0.009 C 
BRANCH  29  30
HETATM   30  C18 UNL     1       3.855   2.245  -1.957  1.00  0.00     0.000 C 
BRANCH  30  31
HETATM   31  C19 UNL     1       5.331   2.370  -1.635  1.00  0.00    -0.005 C 
HETATM   32  C20 UNL     1       6.115   2.845  -2.839  1.00  0.00     0.005 C 
ENDBRANCH  30  31
ENDBRANCH  29  30
ENDBRANCH  28  29
BRANCH  27  33
HETATM   33  C22 UNL     1       3.151  -0.660   1.862  1.00  0.00     0.197 C 
HETATM   34  O3  UNL     1       3.205   0.252   2.718  1.00  0.00    -0.646 OA
HETATM   35  O4  UNL     1       3.665  -1.901   2.111  1.00  0.00    -0.646 OA
ENDBRANCH  27  33
ENDBRANCH  21  23
ENDBRANCH  12  14
ENDBRANCH  10  12
ENDBRANCH   9  10
ENDBRANCH   6   9
ENDBRANCH   5   6
TORSDOF 10
