REMARK  11 active torsions:
REMARK  status: ('A' for Active; 'I' for Inactive)
REMARK    1  A    between atoms: C2_2  and  C4_4 
REMARK    2  A    between atoms: C4_4  and  C5_5 
REMARK    3  A    between atoms: C5_5  and  N1_6 
REMARK    4  A    between atoms: C5_5  and  C22_30 
REMARK       I    between atoms: N1_6  and  C6_8 
REMARK    5  A    between atoms: C6_8  and  O2_10 
REMARK    6  A    between atoms: O2_10  and  C7_11 
REMARK    7  A    between atoms: C11_15  and  O3_16 
REMARK    8  A    between atoms: O3_16  and  C12_17 
REMARK    9  A    between atoms: C12_17  and  C13_21 
REMARK       I    between atoms: C22_30  and  N3_32 
REMARK   10  A    between atoms: N3_32  and  C23_34 
REMARK   11  A    between atoms: C23_34  and  C24_35 
ROOT
HETATM    1  N1  UNL     1      -1.951   0.116  -0.471  1.00  0.00    -0.324 N 
ATOM      2  H1  UNL     1      -2.066  -0.419  -1.332  1.00  0.00     0.165 HD
HETATM    3  C6  UNL     1      -0.663   0.308   0.027  1.00  0.00     0.361 C 
HETATM    4  O1  UNL     1      -0.552   0.964   1.106  1.00  0.00    -0.238 OA
ENDROOT
BRANCH   3   5
HETATM    5  O2  UNL     1       0.448  -0.168  -0.578  1.00  0.00    -0.297 OA
BRANCH   5   6
HETATM    6  C7  UNL     1       1.760  -0.012  -0.148  1.00  0.00     0.146 C 
HETATM    7  C8  UNL     1       2.740   0.444  -1.230  1.00  0.00     0.021 C 
HETATM    8  C9  UNL     1       3.306   1.769  -0.915  1.00  0.00     0.010 C 
HETATM    9  C18 UNL     1       3.548  -0.755  -0.919  1.00  0.00     0.005 C 
HETATM   10  C10 UNL     1       4.784   1.898  -0.825  1.00  0.00     0.033 C 
HETATM   11  C11 UNL     1       5.532   0.630  -1.013  1.00  0.00     0.130 C 
HETATM   12  C17 UNL     1       4.860  -0.447  -0.193  1.00  0.00     0.038 C 
HETATM   13  C19 UNL     1       2.475  -1.326  -0.009  1.00  0.00    -0.016 C 
HETATM   14  C20 UNL     1       1.859  -2.532  -0.657  1.00  0.00     0.018 C 
HETATM   15  C21 UNL     1       2.978  -1.594   1.407  1.00  0.00     0.018 C 
BRANCH  11  16
HETATM   16  O3  UNL     1       6.891   0.650  -0.930  1.00  0.00    -0.333 OA
BRANCH  16  17
HETATM   17  C12 UNL     1       7.743   0.998   0.087  1.00  0.00     0.119 C 
HETATM   18  N2  UNL     1       7.414   1.932   0.817  1.00  0.00    -0.383 N 
ATOM     19  H22 UNL     1       6.538   2.436   0.677  1.00  0.00     0.158 HD
ATOM     20  H21 UNL     1       8.048   2.191   1.573  1.00  0.00     0.158 HD
BRANCH  17  21
HETATM   21  C13 UNL     1       9.045   0.249   0.295  1.00  0.00     0.013 C 
HETATM   22  C14 UNL     1       9.764   0.232  -1.037  1.00  0.00     0.023 C 
HETATM   23  C15 UNL     1       8.738  -1.173   0.688  1.00  0.00     0.023 C 
HETATM   24  C16 UNL     1       9.899   0.930   1.335  1.00  0.00     0.023 C 
ENDBRANCH  17  21
ENDBRANCH  16  17
ENDBRANCH  11  16
ENDBRANCH   5   6
ENDBRANCH   3   5
BRANCH   1  25
HETATM   25  C5  UNL     1      -3.124   0.639   0.176  1.00  0.00     0.179 C 
BRANCH  25  26
HETATM   26  C4  UNL     1      -3.874   1.587  -0.700  1.00  0.00     0.038 C 
BRANCH  26  27
HETATM   27  C2  UNL     1      -5.047   2.184   0.086  1.00  0.00    -0.020 C 
HETATM   28  C1  UNL     1      -5.783   3.110  -0.866  1.00  0.00     0.009 C 
HETATM   29  C3  UNL     1      -4.438   3.075   1.184  1.00  0.00     0.009 C 
ENDBRANCH  26  27
ENDBRANCH  25  26
BRANCH  25  30
HETATM   30  C22 UNL     1      -4.011  -0.532   0.577  1.00  0.00     0.240 C 
HETATM   31  O4  UNL     1      -4.137  -0.865   1.743  1.00  0.00    -0.271 OA
HETATM   32  N3  UNL     1      -4.681  -1.232  -0.466  1.00  0.00    -0.359 N 
ATOM     33  H3  UNL     1      -4.515  -0.937  -1.428  1.00  0.00     0.162 HD
BRANCH  32  34
HETATM   34  C23 UNL     1      -5.594  -2.351  -0.233  1.00  0.00     0.127 C 
BRANCH  34  35
HETATM   35  C24 UNL     1      -6.861  -1.777   0.387  1.00  0.00     0.006 C 
HETATM   36  C25 UNL     1      -7.889  -2.827   0.707  1.00  0.00     0.034 C 
HETATM   37  C26 UNL     1      -9.114  -2.103   1.263  1.00  0.00     0.232 C 
HETATM   38  N4  UNL     1      -9.675  -1.161   0.316  1.00  0.00    -0.075 N 
HETATM   39  C27 UNL     1      -8.674  -0.190  -0.079  1.00  0.00     0.232 C 
ATOM     40  H42 UNL     1     -10.088  -1.631  -0.489  1.00  0.00     0.277 HD
ATOM     41  H41 UNL     1     -10.517  -0.714   0.678  1.00  0.00     0.277 HD
HETATM   42  C28 UNL     1      -7.537  -0.928  -0.730  1.00  0.00     0.034 C 
ENDBRANCH  34  35
ENDBRANCH  32  34
ENDBRANCH  25  30
ENDBRANCH   1  25
TORSDOF 11
