REMARK  7 active torsions:
REMARK  status: ('A' for Active; 'I' for Inactive)
REMARK    1  A    between atoms: N3_7  and  C4_8 
REMARK    2  A    between atoms: C4_8  and  C5_9 
REMARK    3  A    between atoms: C5_9  and  C6_10 
REMARK    4  A    between atoms: C6_10  and  C7_11 
REMARK    5  A    between atoms: C9_13  and  N4_14 
REMARK    6  A    between atoms: N4_14  and  C10_16 
REMARK    7  A    between atoms: N6_22  and  C14_24 
ROOT
HETATM    1  C7  UNL     1      -2.420   1.389   0.451  1.00  0.00     0.031 A 
HETATM    2  C8  UNL     1      -1.658   0.379  -0.096  1.00  0.00     0.076 A 
HETATM    3  C9  UNL     1      -0.281   0.531  -0.288  1.00  0.00     0.124 A 
HETATM    4  N8  UNL     1       0.297   1.684   0.071  1.00  0.00    -0.271 N 
ATOM      5  H8  UNL     1       1.299   1.826  -0.056  1.00  0.00     0.190 HD
HETATM    6  N9  UNL     1      -0.457   2.631   0.592  1.00  0.00    -0.241 N 
ATOM      7  H9  UNL     1      -0.005   3.505   0.861  1.00  0.00     0.208 HD
HETATM    8  N10 UNL     1      -1.759   2.525   0.789  1.00  0.00    -0.290 N 
ATOM      9  H10 UNL     1      -2.273   3.305   1.199  1.00  0.00     0.188 HD
ENDROOT
BRANCH   3  10
HETATM   10  N4  UNL     1       0.420  -0.415  -0.798  1.00  0.00    -0.327 N 
ATOM     11  H4  UNL     1      -0.026  -1.291  -1.070  1.00  0.00     0.169 HD
BRANCH  10  12
HETATM   12  C10 UNL     1       1.815  -0.243  -0.984  1.00  0.00     0.123 A 
HETATM   13  C11 UNL     1       2.246   0.070  -2.252  1.00  0.00     0.067 A 
HETATM   14  C12 UNL     1       3.589   0.245  -2.488  1.00  0.00     0.110 A 
HETATM   15  N5  UNL     1       4.473   0.108  -1.478  1.00  0.00    -0.202 N 
HETATM   16  C13 UNL     1       4.063  -0.196  -0.242  1.00  0.00     0.679 A 
ATOM     17  H5  UNL     1       5.468   0.238  -1.660  1.00  0.00     0.183 HD
HETATM   18  N6  UNL     1       4.915  -0.322   0.701  1.00  0.00    -0.221 N 
HETATM   19  N7  UNL     1       2.726  -0.369  -0.012  1.00  0.00    -0.177 N 
ATOM     20  H6  UNL     1       4.592  -0.555   1.640  1.00  0.00     0.178 HD
ATOM     21  H7  UNL     1       2.413  -0.602   0.931  1.00  0.00     0.186 HD
BRANCH  18  22
HETATM   22  C14 UNL     1       6.314  -0.142   0.463  1.00  0.00     0.099 C 
HETATM   23  C15 UNL     1       6.819  -1.441  -0.179  1.00  0.00     0.026 C 
HETATM   24  C16 UNL     1       7.107  -2.273   1.078  1.00  0.00     0.002 C 
HETATM   25  C17 UNL     1       7.950  -1.274   1.860  1.00  0.00     0.002 C 
HETATM   26  C18 UNL     1       7.092  -0.031   1.774  1.00  0.00     0.026 C 
ENDBRANCH  18  22
ENDBRANCH  10  12
ENDBRANCH   3  10
BRANCH   1  27
HETATM   27  C6  UNL     1      -3.872   1.244   0.660  1.00  0.00     0.060 C 
BRANCH  27  28
HETATM   28  C5  UNL     1      -4.678   1.705  -0.533  1.00  0.00     0.026 C 
BRANCH  28  29
HETATM   29  C4  UNL     1      -6.136   1.532  -0.249  1.00  0.00     0.126 C 
BRANCH  29  30
HETATM   30  N3  UNL     1      -6.501   0.176   0.017  1.00  0.00    -0.354 N 
HETATM   31  C1  UNL     1      -6.943  -0.368   1.255  1.00  0.00     0.186 C 
HETATM   32  N1  UNL     1      -6.689   0.151   2.563  1.00  0.00    -0.064 NA
HETATM   33  N2  UNL     1      -7.639  -1.444   1.052  1.00  0.00    -0.363 N 
HETATM   34  C2  UNL     1      -7.724  -1.721  -0.381  1.00  0.00     0.142 C 
ATOM     35  H2  UNL     1      -8.064  -2.013   1.784  1.00  0.00     0.162 HD
HETATM   36  C3  UNL     1      -6.512  -0.969  -0.900  1.00  0.00     0.145 C 
ENDBRANCH  29  30
ENDBRANCH  28  29
ENDBRANCH  27  28
ENDBRANCH   1  27
TORSDOF 7
