REMARK  4 active torsions:
REMARK  status: ('A' for Active; 'I' for Inactive)
REMARK    1  A    between atoms: N1_1  and  C1_5 
REMARK    2  A    between atoms: C1_5  and  C2_6 
REMARK    3  A    between atoms: C2_6  and  C3_7 
REMARK    4  A    between atoms: C3_7  and  N2_8 
ROOT
HETATM    1  N2  UNL     1       1.651   0.213  -1.079  1.00  0.00    -0.352 N 
HETATM    2  C4  UNL     1       0.750   1.359  -1.074  1.00  0.00     0.126 C 
HETATM    3  C5  UNL     1      -0.675   0.855  -1.171  1.00  0.00     0.030 C 
HETATM    4  C6  UNL     1      -1.006   0.032   0.076  1.00  0.00    -0.021 C 
HETATM    5  C7  UNL     1      -0.684   0.960   1.256  1.00  0.00     0.011 C 
HETATM    6  C8  UNL     1      -1.783   0.689   2.260  1.00  0.00     0.002 C 
HETATM    7  C9  UNL     1      -2.999   0.622   1.327  1.00  0.00     0.012 C 
HETATM    8  C10 UNL     1      -2.452  -0.253   0.218  1.00  0.00    -0.009 C 
HETATM    9  C11 UNL     1      -3.270  -0.047  -1.013  1.00  0.00     0.038 C 
HETATM   10  C12 UNL     1      -3.477  -1.423  -1.537  1.00  0.00     0.168 C 
HETATM   11  O1  UNL     1      -3.081  -2.337  -0.605  1.00  0.00    -0.390 OA
HETATM   12  C13 UNL     1      -2.774  -1.684   0.571  1.00  0.00     0.177 C 
HETATM   13  C14 UNL     1      -0.116  -1.176   0.137  1.00  0.00     0.113 C 
HETATM   14  C15 UNL     1       1.140  -1.015  -0.633  1.00  0.00     0.220 C 
HETATM   15  O2  UNL     1       1.784  -2.067  -0.899  1.00  0.00    -0.273 OA
ENDROOT
BRANCH   1  16
HETATM   16  C3  UNL     1       3.020   0.363  -1.532  1.00  0.00     0.127 C 
BRANCH  16  17
HETATM   17  C2  UNL     1       3.957   0.732  -0.410  1.00  0.00     0.047 C 
BRANCH  17  18
HETATM   18  C1  UNL     1       3.986  -0.296   0.679  1.00  0.00     0.231 C 
BRANCH  18  19
HETATM   19  N1  UNL     1       4.907   0.111   1.730  1.00  0.00    -0.079 N 
ATOM     20  H13 UNL     1       5.839   0.306   1.365  1.00  0.00     0.274 HD
ATOM     21  H12 UNL     1       4.689   1.040   2.089  1.00  0.00     0.274 HD
ATOM     22  H11 UNL     1       4.927  -0.589   2.472  1.00  0.00     0.274 HD
ENDBRANCH  18  19
ENDBRANCH  17  18
ENDBRANCH  16  17
ENDBRANCH   1  16
TORSDOF 4
