REMARK  7 active torsions:
REMARK  status: ('A' for Active; 'I' for Inactive)
REMARK    1  A    between atoms: N1_1  and  C1_4 
REMARK    2  A    between atoms: C3_8  and  C4_9 
REMARK    3  A    between atoms: C4_9  and  C5_10 
REMARK    4  A    between atoms: C5_10  and  C6_12 
REMARK    5  A    between atoms: C6_12  and  N3_13 
REMARK    6  A    between atoms: C8_15  and  C9_16 
REMARK    7  A    between atoms: C9_16  and  C10_17 
ROOT
HETATM    1  C5  UNL     1       0.916  -1.229  -0.190  1.00  0.00     0.150 C 
HETATM    2  O1  UNL     1       0.456  -0.144  -0.508  1.00  0.00    -0.296 OA
ENDROOT
BRANCH   1   3
HETATM    3  C4  UNL     1       2.381  -1.329  -0.008  1.00  0.00     0.125 C 
BRANCH   3   4
HETATM    4  C3  UNL     1       3.045  -0.047  -0.255  1.00  0.00     0.033 A 
HETATM    5  C2  UNL     1       3.508   0.744   0.789  1.00  0.00     0.119 A 
HETATM    6  N2  UNL     1       4.108   1.909   0.506  1.00  0.00    -0.201 N 
HETATM    7  C1  UNL     1       4.299   2.379  -0.738  1.00  0.00     0.678 A 
ATOM      8  H2  UNL     1       4.441   2.475   1.286  1.00  0.00     0.183 HD
HETATM    9  N7  UNL     1       3.856   1.625  -1.759  1.00  0.00    -0.156 N 
HETATM   10  C11 UNL     1       3.247   0.447  -1.528  1.00  0.00     0.267 A 
ATOM     11  H7  UNL     1       3.983   1.949  -2.718  1.00  0.00     0.187 HD
HETATM   12  O3  UNL     1       2.824  -0.276  -2.489  1.00  0.00    -0.267 OA
BRANCH   7  13
HETATM   13  N1  UNL     1       4.892   3.523  -0.943  1.00  0.00    -0.234 N 
ATOM     14  H12 UNL     1       5.228   4.095  -0.168  1.00  0.00     0.174 HD
ATOM     15  H11 UNL     1       5.037   3.880  -1.887  1.00  0.00     0.174 HD
ENDBRANCH   7  13
ENDBRANCH   3   4
ENDBRANCH   1   3
BRANCH   1  16
HETATM   16  C6  UNL     1      -0.009  -2.374  -0.005  1.00  0.00     0.228 C 
BRANCH  16  17
HETATM   17  N3  UNL     1      -1.375  -1.958  -0.255  1.00  0.00    -0.280 N 
HETATM   18  C7  UNL     1      -2.257  -1.466   0.634  1.00  0.00     0.139 A 
HETATM   19  C8  UNL     1      -3.462  -1.191  -0.016  1.00  0.00     0.052 A 
HETATM   20  N5  UNL     1      -3.231  -1.543  -1.299  1.00  0.00    -0.289 N 
HETATM   21  N6  UNL     1      -2.000  -1.990  -1.415  1.00  0.00    -0.240 N 
ATOM     22  H5  UNL     1      -3.907  -1.473  -2.060  1.00  0.00     0.188 HD
ATOM     23  H6  UNL     1      -1.584  -2.318  -2.287  1.00  0.00     0.208 HD
BRANCH  19  24
HETATM   24  C9  UNL     1      -4.711  -0.637   0.569  1.00  0.00     0.159 C 
BRANCH  24  25
HETATM   25  C10 UNL     1      -4.739   0.838   0.516  1.00  0.00     0.236 C 
HETATM   26  N4  UNL     1      -5.817   1.616   1.007  1.00  0.00    -0.062 NA
HETATM   27  O2  UNL     1      -3.763   1.452   0.011  1.00  0.00    -0.277 OA
ENDBRANCH  24  25
ENDBRANCH  19  24
ENDBRANCH  16  17
ENDBRANCH   1  16
TORSDOF 7
