REMARK  7 active torsions:
REMARK  status: ('A' for Active; 'I' for Inactive)
REMARK    1  A    between atoms: N1_1  and  N2_4 
REMARK    2  A    between atoms: N2_4  and  C1_5 
REMARK    3  A    between atoms: C1_5  and  C2_6 
REMARK    4  A    between atoms: C2_6  and  C3_7 
REMARK    5  A    between atoms: C3_7  and  N3_8 
REMARK    6  A    between atoms: C5_10  and  C6_11 
REMARK    7  A    between atoms: C7_12  and  N4_13 
ROOT
HETATM    1  N3  UNL     1      -1.799   0.262   0.417  1.00  0.00    -0.303 N 
HETATM    2  C4  UNL     1      -0.735  -0.501   0.163  1.00  0.00     0.122 A 
HETATM    3  C5  UNL     1       0.423   0.188   0.437  1.00  0.00    -0.001 A 
HETATM    4  C11 UNL     1       0.008   1.427   0.877  1.00  0.00     0.120 A 
HETATM    5  N7  UNL     1      -1.339   1.421   0.847  1.00  0.00    -0.309 N 
ATOM      6  H7  UNL     1      -1.926   2.209   1.121  1.00  0.00     0.186 HD
ENDROOT
BRANCH   3   7
HETATM    7  C6  UNL     1       1.810  -0.283   0.296  1.00  0.00     0.032 C 
HETATM    8  C7  UNL     1       2.779   0.501   0.600  1.00  0.00     0.107 C 
BRANCH   8   9
HETATM    9  N4  UNL     1       4.179   0.276   0.548  1.00  0.00    -0.226 N 
HETATM   10  C8  UNL     1       5.026   1.285   0.931  1.00  0.00     0.338 A 
HETATM   11  O1  UNL     1       4.510   2.375   1.315  1.00  0.00    -0.246 OA
HETATM   12  N5  UNL     1       6.356   1.169   0.917  1.00  0.00    -0.260 N 
HETATM   13  C9  UNL     1       6.935   0.028   0.515  1.00  0.00     0.332 A 
ATOM     14  H5  UNL     1       6.936   1.954   1.214  1.00  0.00     0.175 HD
HETATM   15  O2  UNL     1       8.205  -0.086   0.501  1.00  0.00    -0.246 OA
HETATM   16  N6  UNL     1       6.146  -0.978   0.135  1.00  0.00    -0.260 N 
HETATM   17  C10 UNL     1       4.789  -0.841   0.156  1.00  0.00     0.338 A 
ATOM     18  H6  UNL     1       6.561  -1.857  -0.174  1.00  0.00     0.175 HD
HETATM   19  O3  UNL     1       4.080  -1.825  -0.216  1.00  0.00    -0.246 OA
ENDBRANCH   8   9
ENDBRANCH   3   7
BRANCH   1  20
HETATM   20  C3  UNL     1      -3.211  -0.042   0.277  1.00  0.00     0.149 C 
BRANCH  20  21
HETATM   21  C2  UNL     1      -3.679   0.336  -1.106  1.00  0.00     0.039 C 
BRANCH  21  22
HETATM   22  C1  UNL     1      -5.145   0.044  -1.314  1.00  0.00     0.136 C 
BRANCH  22  23
HETATM   23  N2  UNL     1      -5.470  -1.345  -1.150  1.00  0.00    -0.148 NA
BRANCH  23  24
HETATM   24  N1  UNL     1      -6.864  -1.461  -1.374  1.00  0.00    -0.348 N 
ATOM     25  H12 UNL     1      -7.499  -0.698  -1.606  1.00  0.00     0.172 HD
ATOM     26  H11 UNL     1      -7.095  -2.448  -1.258  1.00  0.00     0.172 HD
ENDBRANCH  23  24
ENDBRANCH  22  23
ENDBRANCH  21  22
ENDBRANCH  20  21
ENDBRANCH   1  20
TORSDOF 7
