REMARK  9 active torsions:
REMARK  status: ('A' for Active; 'I' for Inactive)
REMARK    1  A    between atoms: C2_2  and  N1_4 
REMARK    2  A    between atoms: C2_2  and  C4_8 
REMARK       I    between atoms: C4_8  and  N2_10 
REMARK    3  A    between atoms: N2_10  and  N3_11 
REMARK       I    between atoms: N2_10  and  C5_15 
REMARK    4  A    between atoms: N3_11  and  O2_13 
REMARK    5  A    between atoms: C5_15  and  O4_17 
REMARK    6  A    between atoms: O4_17  and  C6_18 
REMARK    7  A    between atoms: C6_18  and  N4_19 
REMARK    8  A    between atoms: C6_18  and  C8_24 
REMARK    9  A    between atoms: N4_19  and  C7_21 
ROOT
HETATM    1  C4  UNL     1       1.807  -0.096  -0.053  1.00  0.00     0.284 C 
HETATM    2  O1  UNL     1       1.225  -0.944  -0.791  1.00  0.00    -0.268 OA
HETATM    3  N2  UNL     1       0.971   0.732   0.731  1.00  0.00    -0.143 N 
HETATM    4  C5  UNL     1      -0.450   0.637   0.710  1.00  0.00     0.393 C 
HETATM    5  O3  UNL     1      -1.161   1.395   1.426  1.00  0.00    -0.236 OA
ENDROOT
BRANCH   3   6
HETATM    6  N3  UNL     1       1.586   1.677   1.556  1.00  0.00    -0.196 N 
ATOM      7  H3  UNL     1       2.284   1.404   2.248  1.00  0.00     0.216 HD
BRANCH   6   8
HETATM    8  O2  UNL     1       1.241   2.886   1.408  1.00  0.00    -0.274 OA
ATOM      9  H2  UNL     1       1.659   3.529   1.969  1.00  0.00     0.246 HD
ENDBRANCH   6   8
ENDBRANCH   3   6
BRANCH   1  10
HETATM   10  C2  UNL     1       3.266  -0.036  -0.065  1.00  0.00     0.198 C 
HETATM   11  C1  UNL     1       3.877  -0.334   1.289  1.00  0.00     0.056 C 
HETATM   12  C3  UNL     1       3.801   1.313  -0.497  1.00  0.00     0.056 C 
BRANCH  10  13
HETATM   13  N1  UNL     1       3.792  -1.026  -0.984  1.00  0.00    -0.062 N 
ATOM     14  H13 UNL     1       4.811  -1.060  -1.000  1.00  0.00     0.275 HD
ATOM     15  H12 UNL     1       3.638  -1.986  -0.674  1.00  0.00     0.275 HD
ATOM     16  H11 UNL     1       3.381  -0.825  -1.896  1.00  0.00     0.275 HD
ENDBRANCH  10  13
ENDBRANCH   1  10
BRANCH   4  17
HETATM   17  O4  UNL     1      -1.112  -0.282  -0.088  1.00  0.00    -0.266 OA
BRANCH  17  18
HETATM   18  C6  UNL     1      -2.522  -0.334  -0.072  1.00  0.00     0.336 C 
BRANCH  18  19
HETATM   19  N4  UNL     1      -3.084  -0.024  -1.376  1.00  0.00    -0.334 N 
ATOM     20  H4  UNL     1      -2.439   0.038  -2.164  1.00  0.00     0.164 HD
BRANCH  19  21
HETATM   21  C7  UNL     1      -4.445   0.196  -1.634  1.00  0.00     0.183 C 
HETATM   22  N5  UNL     1      -5.386   0.128  -0.583  1.00  0.00    -0.070 NA
HETATM   23  S1  UNL     1      -4.943   0.530  -3.139  1.00  0.00    -0.044 SA
ENDBRANCH  19  21
ENDBRANCH  18  19
BRANCH  18  24
HETATM   24  C8  UNL     1      -3.036  -1.625   0.395  1.00  0.00     0.224 C 
HETATM   25  O5  UNL     1      -3.822  -2.385  -0.211  1.00  0.00    -0.645 OA
HETATM   26  O6  UNL     1      -2.623  -2.098   1.658  1.00  0.00    -0.645 OA
ENDBRANCH  18  24
ENDBRANCH  17  18
ENDBRANCH   4  17
TORSDOF 9
