REMARK  6 active torsions:
REMARK  status: ('A' for Active; 'I' for Inactive)
REMARK    1  A    between atoms: N3_4  and  C2_6 
REMARK    2  A    between atoms: C2_6  and  C3_7 
REMARK    3  A    between atoms: C3_7  and  C4_8 
REMARK    4  A    between atoms: C4_8  and  C5_9 
REMARK    5  A    between atoms: C5_9  and  N4_10 
REMARK    6  A    between atoms: C5_9  and  C6_14 
ROOT
HETATM    1  C6  UNL     1      -1.476  -1.249   1.121  1.00  0.00     0.207 C 
HETATM    2  N5  UNL     1      -2.722  -1.887   0.617  1.00  0.00    -0.344 N 
ATOM      3  H5  UNL     1      -2.708  -2.895   0.776  1.00  0.00     0.163 HD
HETATM    4  C7  UNL     1      -3.920  -1.489  -0.020  1.00  0.00     0.236 C 
HETATM    5  O1  UNL     1      -4.289  -2.348  -0.903  1.00  0.00    -0.272 OA
HETATM    6  C8  UNL     1      -4.859  -0.370   0.046  1.00  0.00     0.225 C 
HETATM    7  N6  UNL     1      -4.288   0.767  -0.690  1.00  0.00    -0.356 N 
ATOM      8  H6  UNL     1      -4.840   1.102  -1.480  1.00  0.00     0.162 HD
HETATM    9  C9  UNL     1      -3.179   1.403  -0.473  1.00  0.00     0.191 C 
HETATM   10  N7  UNL     1      -2.973   2.436  -1.389  1.00  0.00    -0.063 NA
HETATM   11  N8  UNL     1      -2.123   1.268   0.502  1.00  0.00    -0.299 N 
ATOM     12  H8  UNL     1      -1.597   2.130   0.649  1.00  0.00     0.171 HD
HETATM   13  C10 UNL     1      -1.657   0.172   1.310  1.00  0.00     0.248 C 
HETATM   14  O2  UNL     1      -1.342   0.598   2.454  1.00  0.00    -0.271 OA
ENDROOT
BRANCH   1  15
HETATM   15  C5  UNL     1      -0.400  -1.770   0.267  1.00  0.00     0.215 C 
BRANCH  15  16
HETATM   16  C4  UNL     1       0.998  -1.392   0.433  1.00  0.00     0.037 C 
BRANCH  16  17
HETATM   17  C3  UNL     1       1.381   0.033   0.173  1.00  0.00     0.022 C 
BRANCH  17  18
HETATM   18  C2  UNL     1       2.887   0.238   0.376  1.00  0.00     0.122 C 
BRANCH  18  19
HETATM   19  N3  UNL     1       3.261   1.604   0.127  1.00  0.00    -0.367 N 
HETATM   20  C1  UNL     1       4.468   1.921  -0.209  1.00  0.00     0.196 C 
HETATM   21  N1  UNL     1       5.432   0.896  -0.332  1.00  0.00    -0.067 NA
HETATM   22  N2  UNL     1       4.875   3.248  -0.462  1.00  0.00    -0.067 NA
ATOM     23  H3  UNL     1       2.559   2.338   0.217  1.00  0.00     0.161 HD
ENDBRANCH  18  19
ENDBRANCH  17  18
ENDBRANCH  16  17
ENDBRANCH  15  16
BRANCH  15  24
HETATM   24  N4  UNL     1      -0.452  -3.253   0.552  1.00  0.00    -0.073 N 
ATOM     25  H43 UNL     1       0.192  -3.803  -0.016  1.00  0.00     0.274 HD
ATOM     26  H42 UNL     1      -0.062  -3.511   1.459  1.00  0.00     0.274 HD
ATOM     27  H41 UNL     1      -1.430  -3.518   0.436  1.00  0.00     0.274 HD
ENDBRANCH  15  24
ENDBRANCH   1  15
TORSDOF 6
