REMARK  5 active torsions:
REMARK  status: ('A' for Active; 'I' for Inactive)
REMARK    1  A    between atoms: C2_2  and  C3_3 
REMARK    2  A    between atoms: C2_2  and  C4_6 
REMARK    3  A    between atoms: C3_3  and  O1_4 
REMARK    4  A    between atoms: C9_12  and  C10_13 
REMARK    5  A    between atoms: C10_13  and  O2_14 
ROOT
HETATM    1  C4  UNL     1      -2.254  -0.839  -0.258  1.00  0.00    -0.027 C 
HETATM    2  C5  UNL     1      -2.485  -2.141   0.421  1.00  0.00    -0.013 C 
HETATM    3  C6  UNL     1      -2.384  -3.423  -0.282  1.00  0.00     0.042 C 
HETATM    4  C7  UNL     1      -0.987  -4.007  -0.043  1.00  0.00     0.048 C 
HETATM    5  C8  UNL     1      -0.642  -4.080   1.417  1.00  0.00     0.021 C 
HETATM    6  S1  UNL     1       0.143  -3.110  -1.005  1.00  0.00    -0.143 SA
HETATM    7  C9  UNL     1      -0.121  -1.460  -1.545  1.00  0.00     0.072 C 
HETATM    8  C11 UNL     1       1.332  -1.030  -1.769  1.00  0.00    -0.003 C 
HETATM    9  C12 UNL     1       1.825   0.020  -1.346  1.00  0.00    -0.023 C 
HETATM   10  C13 UNL     1       1.092   1.013  -0.562  1.00  0.00     0.025 C 
HETATM   11  C14 UNL     1       2.074   1.758   0.280  1.00  0.00     0.002 C 
HETATM   12  C15 UNL     1       2.104   3.259   0.067  1.00  0.00     0.006 C 
HETATM   13  C16 UNL     1       3.555   3.677   0.378  1.00  0.00     0.000 C 
HETATM   14  C17 UNL     1       3.759   3.348   1.836  1.00  0.00     0.001 C 
HETATM   15  C18 UNL     1       2.631   2.595   2.480  1.00  0.00     0.009 C 
HETATM   16  C19 UNL     1       2.269   1.329   1.677  1.00  0.00    -0.040 C 
HETATM   17  C20 UNL     1       3.524   0.452   1.846  1.00  0.00     0.015 C 
HETATM   18  C21 UNL     1       1.173   0.595   2.327  1.00  0.00     0.010 C 
HETATM   19  C22 UNL     1       0.288  -0.225   1.454  1.00  0.00     0.015 C 
HETATM   20  C23 UNL     1      -0.104   0.430   0.160  1.00  0.00    -0.011 C 
HETATM   21  C24 UNL     1      -0.852   1.693   0.561  1.00  0.00     0.021 C 
HETATM   22  C25 UNL     1      -0.900  -0.485  -0.766  1.00  0.00    -0.036 C 
ENDROOT
BRANCH   1  23
HETATM   23  C2  UNL     1      -3.451  -0.453  -1.016  1.00  0.00    -0.034 C 
HETATM   24  C1  UNL     1      -4.334  -1.337  -1.454  1.00  0.00     0.022 C 
BRANCH  23  25
HETATM   25  C3  UNL     1      -3.848   0.920  -1.442  1.00  0.00     0.202 C 
BRANCH  25  26
HETATM   26  O1  UNL     1      -4.074   1.697  -0.325  1.00  0.00    -0.396 OA
ATOM     27  H1  UNL     1      -4.327   2.572  -0.596  1.00  0.00     0.209 HD
ENDBRANCH  25  26
ENDBRANCH  23  25
ENDBRANCH   1  23
BRANCH   7  28
HETATM   28  C10 UNL     1      -0.515  -1.481  -3.056  1.00  0.00     0.193 C 
BRANCH  28  29
HETATM   29  O2  UNL     1      -1.604  -2.159  -3.401  1.00  0.00    -0.399 OA
ATOM     30  H2  UNL     1      -1.844  -2.172  -4.320  1.00  0.00     0.209 HD
ENDBRANCH  28  29
ENDBRANCH   7  28
TORSDOF 5
