REMARK  14 active torsions:
REMARK  status: ('A' for Active; 'I' for Inactive)
REMARK    1  A    between atoms: N1_5  and  C5_7 
REMARK    2  A    between atoms: C5_7  and  O1_8 
REMARK    3  A    between atoms: C5_7  and  C6_10 
REMARK       I    between atoms: C6_10  and  N2_12 
REMARK    4  A    between atoms: N2_12  and  C7_14 
REMARK    5  A    between atoms: C7_14  and  C8_15 
REMARK    6  A    between atoms: C7_14  and  C9_24 
REMARK    7  A    between atoms: C8_15  and  N3_16 
REMARK    8  A    between atoms: C8_15  and  N4_20 
REMARK    9  A    between atoms: C9_24  and  N5_26 
REMARK   10  A    between atoms: N5_26  and  C11_28 
REMARK   11  A    between atoms: C12_33  and  C13_34 
REMARK   12  A    between atoms: N9_37  and  N10_38 
REMARK   13  A    between atoms: C14_43  and  N12_44 
REMARK   14  A    between atoms: N12_44  and  C15_46 
ROOT
HETATM    1  C7  UNL     1      -1.988   0.232   0.168  1.00  0.00     0.165 C 
ENDROOT
BRANCH   1   2
HETATM    2  N2  UNL     1      -1.011   1.162  -0.371  1.00  0.00    -0.347 N 
HETATM    3  C6  UNL     1      -0.135   1.895   0.463  1.00  0.00     0.267 C 
HETATM    4  O2  UNL     1      -0.136   1.799   1.704  1.00  0.00    -0.269 OA
ATOM      5  H2  UNL     1      -0.955   1.290  -1.381  1.00  0.00     0.163 HD
BRANCH   3   6
HETATM    6  C5  UNL     1       0.838   2.829  -0.152  1.00  0.00     0.313 C 
BRANCH   6   7
HETATM    7  N1  UNL     1       2.154   2.768   0.375  1.00  0.00    -0.342 N 
HETATM    8  C4  UNL     1       2.989   1.845   0.123  1.00  0.00     0.121 A 
HETATM    9  C3  UNL     1       2.762   0.764  -0.691  1.00  0.00     0.074 A 
HETATM   10  N11 UNL     1       4.242   1.886   0.691  1.00  0.00    -0.177 N 
HETATM   11  C2  UNL     1       3.723  -0.229  -0.934  1.00  0.00     0.026 A 
HETATM   12  C1  UNL     1       3.434  -1.382  -1.823  1.00  0.00     0.069 C 
HETATM   13  N13 UNL     1       4.912  -0.084  -0.326  1.00  0.00    -0.196 N 
HETATM   14  C14 UNL     1       5.180   0.959   0.481  1.00  0.00     0.684 A 
ATOM     15  H13 UNL     1       5.635  -0.787  -0.481  1.00  0.00     0.184 HD
ATOM     16  H11 UNL     1       4.467   2.668   1.306  1.00  0.00     0.186 HD
ATOM     17  H1  UNL     1       2.450   3.518   1.000  1.00  0.00     0.164 HD
BRANCH  14  18
HETATM   18  N12 UNL     1       6.335   1.078   1.058  1.00  0.00    -0.192 N 
ATOM     19  H12 UNL     1       6.490   1.886   1.661  1.00  0.00     0.184 HD
BRANCH  18  20
HETATM   20  C15 UNL     1       7.382   0.160   0.901  1.00  0.00     0.049 A 
HETATM   21  C16 UNL     1       8.433   0.528   0.057  1.00  0.00     0.030 A 
HETATM   22  C17 UNL     1       9.463  -0.361  -0.104  1.00  0.00     0.002 A 
HETATM   23  C18 UNL     1       9.448  -1.580   0.555  1.00  0.00     0.000 A 
HETATM   24  C19 UNL     1       8.397  -1.927   1.389  1.00  0.00     0.002 A 
HETATM   25  C20 UNL     1       7.355  -1.045   1.561  1.00  0.00     0.030 A 
ENDBRANCH  18  20
ENDBRANCH  14  18
ENDBRANCH   6   7
BRANCH   6  26
HETATM   26  O1  UNL     1       0.851   2.807  -1.526  1.00  0.00    -0.368 OA
ATOM     27  H1  UNL     1      -0.030   2.848  -1.879  1.00  0.00     0.212 HD
ENDBRANCH   6  26
ENDBRANCH   3   6
ENDBRANCH   1   2
BRANCH   1  28
HETATM   28  C8  UNL     1      -1.641  -1.131  -0.335  1.00  0.00     0.402 C 
BRANCH  28  29
HETATM   29  N3  UNL     1      -2.537  -2.167   0.126  1.00  0.00    -0.048 N 
ATOM     30  H33 UNL     1      -2.597  -2.164   1.144  1.00  0.00     0.276 HD
ATOM     31  H32 UNL     1      -3.503  -1.935  -0.103  1.00  0.00     0.276 HD
ATOM     32  H31 UNL     1      -2.300  -3.098  -0.217  1.00  0.00     0.276 HD
ENDBRANCH  28  29
BRANCH  28  33
HETATM   33  N4  UNL     1      -1.505  -1.172  -1.779  1.00  0.00    -0.048 N 
ATOM     34  H43 UNL     1      -2.343  -0.814  -2.237  1.00  0.00     0.276 HD
ATOM     35  H42 UNL     1      -0.832  -0.478  -2.104  1.00  0.00     0.276 HD
ATOM     36  H41 UNL     1      -1.268  -2.103  -2.122  1.00  0.00     0.276 HD
ENDBRANCH  28  33
ENDBRANCH   1  28
BRANCH   1  37
HETATM   37  C9  UNL     1      -3.407   0.640  -0.244  1.00  0.00     0.121 C 
HETATM   38  C10 UNL     1      -3.712   2.025   0.282  1.00  0.00     0.035 C 
BRANCH  37  39
HETATM   39  N5  UNL     1      -4.306  -0.294   0.351  1.00  0.00    -0.217 N 
ATOM     40  H5  UNL     1      -3.916  -1.046   0.920  1.00  0.00     0.178 HD
BRANCH  39  41
HETATM   41  C11 UNL     1      -5.587  -0.237   0.207  1.00  0.00     0.716 A 
HETATM   42  N6  UNL     1      -6.323   0.651  -0.487  1.00  0.00    -0.129 N 
HETATM   43  N7  UNL     1      -7.607   0.354  -0.377  1.00  0.00    -0.265 N 
ATOM     44  H6  UNL     1      -5.947   1.436  -1.019  1.00  0.00     0.205 HD
HETATM   45  C12 UNL     1      -7.748  -0.748   0.399  1.00  0.00     0.225 A 
ATOM     46  H7  UNL     1      -8.372   0.873  -0.809  1.00  0.00     0.189 HD
HETATM   47  N9  UNL     1      -6.472  -1.091   0.747  1.00  0.00    -0.069 N 
BRANCH  45  48
HETATM   48  C13 UNL     1      -8.975  -1.419   0.781  1.00  0.00     0.302 C 
HETATM   49  N8  UNL     1     -10.210  -0.925   0.329  1.00  0.00    -0.054 NA
HETATM   50  O3  UNL     1      -8.931  -2.428   1.506  1.00  0.00    -0.268 OA
ENDBRANCH  45  48
BRANCH  47  51
HETATM   51  N10 UNL     1      -6.147  -2.174   1.548  1.00  0.00    -0.322 N 
ATOM     52 2H10 UNL     1      -5.194  -2.430   1.808  1.00  0.00     0.178 HD
ATOM     53 1H10 UNL     1      -6.819  -2.823   1.958  1.00  0.00     0.178 HD
ENDBRANCH  47  51
ENDBRANCH  39  41
ENDBRANCH  37  39
ENDBRANCH   1  37
TORSDOF 14
