REMARK  12 active torsions:
REMARK  status: ('A' for Active; 'I' for Inactive)
REMARK    1  A    between atoms: O1_2  and  C2_3 
REMARK    2  A    between atoms: C3_4  and  C4_5 
REMARK    3  A    between atoms: C4_5  and  C5_6 
REMARK    4  A    between atoms: C8_15  and  C9_16 
REMARK    5  A    between atoms: N3_17  and  N4_19 
REMARK    6  A    between atoms: N4_19  and  C10_20 
REMARK    7  A    between atoms: C10_20  and  O4_21 
REMARK    8  A    between atoms: C10_20  and  C11_23 
REMARK       I    between atoms: C11_23  and  N5_25 
REMARK    9  A    between atoms: N5_25  and  C12_27 
REMARK   10  A    between atoms: C12_27  and  C13_28 
REMARK   11  A    between atoms: C13_28  and  C14_29 
REMARK   12  A    between atoms: C14_29  and  N6_30 
ROOT
HETATM    1  C5  UNL     1      -5.074   0.418  -1.470  1.00  0.00     0.035 A 
HETATM    2  N1  UNL     1      -6.425   0.245  -1.649  1.00  0.00    -0.311 N 
ATOM      3  H1  UNL     1      -6.932  -0.451  -1.102  1.00  0.00     0.170 HD
HETATM    4  C6  UNL     1      -7.063   0.990  -2.539  1.00  0.00     0.327 A 
HETATM    5  O2  UNL     1      -8.331   0.850  -2.726  1.00  0.00    -0.247 OA
HETATM    6  N2  UNL     1      -6.405   1.916  -3.274  1.00  0.00    -0.275 N 
ATOM      7  H2  UNL     1      -6.919   2.480  -3.951  1.00  0.00     0.173 HD
HETATM    8  C7  UNL     1      -5.098   2.100  -3.124  1.00  0.00     0.263 A 
HETATM    9  O3  UNL     1      -4.502   2.985  -3.835  1.00  0.00    -0.267 OA
HETATM   10  C8  UNL     1      -4.364   1.326  -2.188  1.00  0.00     0.073 A 
ENDROOT
BRANCH  10  11
HETATM   11  C9  UNL     1      -2.943   1.447  -2.286  1.00  0.00     0.140 C 
HETATM   12  N3  UNL     1      -2.092   0.711  -1.719  1.00  0.00    -0.243 N 
ATOM     13  H3  UNL     1      -2.502  -0.019  -1.136  1.00  0.00     0.201 HD
BRANCH  12  14
HETATM   14  N4  UNL     1      -0.768   0.703  -1.734  1.00  0.00    -0.294 NA
BRANCH  14  15
HETATM   15  C10 UNL     1       0.542   0.697  -1.751  1.00  0.00     0.306 C 
BRANCH  15  16
HETATM   16  O4  UNL     1       1.236   1.379  -2.725  1.00  0.00    -0.330 OA
ATOM     17  H4  UNL     1       2.186   1.375  -2.737  1.00  0.00     0.220 HD
ENDBRANCH  15  16
BRANCH  15  18
HETATM   18  C11 UNL     1       1.538   0.064  -0.890  1.00  0.00     0.309 C 
HETATM   19  O5  UNL     1       1.230  -0.434   0.207  1.00  0.00    -0.262 OA
HETATM   20  N5  UNL     1       2.879   0.009  -1.331  1.00  0.00    -0.353 N 
ATOM     21  H5  UNL     1       3.134   0.406  -2.235  1.00  0.00     0.162 HD
BRANCH  20  22
HETATM   22  C12 UNL     1       3.889  -0.608  -0.503  1.00  0.00     0.128 C 
BRANCH  22  23
HETATM   23  C13 UNL     1       5.183  -0.722  -1.282  1.00  0.00     0.064 C 
BRANCH  23  24
HETATM   24  C14 UNL     1       6.340  -1.235  -0.493  1.00  0.00     0.059 C 
BRANCH  24  25
HETATM   25  N6  UNL     1       6.846  -0.504   0.558  1.00  0.00    -0.393 N 
HETATM   26  C15 UNL     1       6.232  -0.250   1.775  1.00  0.00     0.122 C 
HETATM   27  C16 UNL     1       7.404  -0.411   2.773  1.00  0.00     0.021 C 
HETATM   28  C17 UNL     1       8.522   0.281   2.023  1.00  0.00     0.021 C 
HETATM   29  C18 UNL     1       8.232  -0.172   0.585  1.00  0.00     0.122 C 
ENDBRANCH  24  25
ENDBRANCH  23  24
ENDBRANCH  22  23
ENDBRANCH  20  22
ENDBRANCH  15  18
ENDBRANCH  14  15
ENDBRANCH  12  14
ENDBRANCH  10  11
BRANCH   1  30
HETATM   30  C4  UNL     1      -4.540  -0.317  -0.320  1.00  0.00     0.107 C 
BRANCH  30  31
HETATM   31  C3  UNL     1      -5.351   0.240   0.867  1.00  0.00     0.025 A 
HETATM   32  C2  UNL     1      -5.583  -0.366   2.072  1.00  0.00     0.105 A 
HETATM   33  C20 UNL     1      -6.384   0.285   2.933  1.00  0.00     0.097 A 
HETATM   34  C19 UNL     1      -6.893   1.492   2.525  1.00  0.00     0.099 A 
HETATM   35 CL2  UNL     1      -6.820  -0.343   4.557  1.00  0.00    -0.079 Cl
HETATM   36  S1  UNL     1      -6.235   1.678   0.961  1.00  0.00    -0.077 SA
HETATM   37 CL1  UNL     1      -7.979   2.601   3.384  1.00  0.00    -0.074 Cl
BRANCH  32  38
HETATM   38  O1  UNL     1      -4.975  -1.622   2.341  1.00  0.00    -0.353 OA
HETATM   39  C1  UNL     1      -5.562  -2.851   2.015  1.00  0.00     0.210 C 
ENDBRANCH  32  38
ENDBRANCH  30  31
ENDBRANCH   1  30
TORSDOF 12
