REMARK  13 active torsions:
REMARK  status: ('A' for Active; 'I' for Inactive)
REMARK       I    between atoms: N1_2  and  C2_4 
REMARK       I    between atoms: C2_4  and  N2_5 
REMARK    1  A    between atoms: C3_7  and  C4_8 
REMARK    2  A    between atoms: C3_7  and  N6_24 
REMARK    3  A    between atoms: C4_8  and  O1_9 
REMARK    4  A    between atoms: O1_9  and  C5_10 
REMARK    5  A    between atoms: C5_10  and  C6_12 
REMARK    6  A    between atoms: C6_12  and  C7_13 
REMARK    7  A    between atoms: C7_13  and  N3_14 
REMARK    8  A    between atoms: C8_16  and  N4_17 
REMARK    9  A    between atoms: C8_16  and  O5_22 
REMARK   10  A    between atoms: N4_17  and  N5_19 
REMARK   11  A    between atoms: N6_24  and  C10_26 
REMARK   12  A    between atoms: C12_28  and  C13_29 
REMARK   13  A    between atoms: C13_29  and  N7_31 
REMARK       I    between atoms: N7_31  and  C15_33 
ROOT
HETATM    1  C1  UNL     1      -2.017   5.180  -0.787  1.00  0.00     0.165 C 
HETATM    2  N1  UNL     1      -2.285   3.888  -0.159  1.00  0.00    -0.230 N 
ATOM      3  H1  UNL     1      -3.013   3.283  -0.541  1.00  0.00     0.177 HD
HETATM    4  C2  UNL     1      -1.548   3.466   0.971  1.00  0.00     0.689 C 
HETATM    5  N2  UNL     1      -0.637   2.409   0.863  1.00  0.00    -0.178 N 
ATOM      6  H2  UNL     1       0.069   2.491   0.131  1.00  0.00     0.185 HD
HETATM    7  C3  UNL     1      -0.594   1.362   1.575  1.00  0.00     0.122 C 
HETATM    8  N8  UNL     1      -1.707   4.049   2.102  1.00  0.00    -0.131 N 
ATOM      9  H8  UNL     1      -1.153   3.711   2.889  1.00  0.00     0.199 HD
HETATM   10 CL2  UNL     1      -2.782   5.356   2.392  1.00  0.00     0.026 Cl
ENDROOT
BRANCH   7  11
HETATM   11  C4  UNL     1       0.457   0.348   1.302  1.00  0.00     0.255 C 
BRANCH  11  12
HETATM   12  O1  UNL     1       1.288   0.742   0.224  1.00  0.00    -0.314 OA
BRANCH  12  13
HETATM   13  C5  UNL     1       2.339  -0.009  -0.238  1.00  0.00     0.260 C 
HETATM   14  O2  UNL     1       2.596  -1.101   0.304  1.00  0.00    -0.265 OA
BRANCH  13  15
HETATM   15  C6  UNL     1       3.136   0.498  -1.364  1.00  0.00     0.131 C 
BRANCH  15  16
HETATM   16  C7  UNL     1       4.259  -0.478  -1.735  1.00  0.00     0.133 C 
BRANCH  16  17
HETATM   17  N3  UNL     1       5.107  -0.653  -0.629  1.00  0.00    -0.355 N 
HETATM   18  C8  UNL     1       6.160  -1.260  -0.400  1.00  0.00     0.238 C 
ATOM     19  H3  UNL     1       4.769  -0.153   0.193  1.00  0.00     0.163 HD
BRANCH  18  20
HETATM   20  N4  UNL     1       6.724  -1.178   0.923  1.00  0.00    -0.205 N 
ATOM     21  H4  UNL     1       6.692  -1.997   1.530  1.00  0.00     0.197 HD
BRANCH  20  22
HETATM   22  N5  UNL     1       7.313  -0.004   1.392  1.00  0.00    -0.036 N 
HETATM   23  O3  UNL     1       7.725   0.819   0.550  1.00  0.00    -0.516 OA
HETATM   24  O4  UNL     1       7.429   0.228   2.727  1.00  0.00    -0.516 OA
ENDBRANCH  20  22
ENDBRANCH  18  20
BRANCH  18  25
HETATM   25  O5  UNL     1       6.841  -2.011  -1.310  1.00  0.00    -0.326 OA
HETATM   26  C9  UNL     1       6.744  -1.743  -2.686  1.00  0.00     0.213 C 
ENDBRANCH  18  25
ENDBRANCH  16  17
ENDBRANCH  15  16
ENDBRANCH  13  15
ENDBRANCH  12  13
ENDBRANCH  11  12
ENDBRANCH   7  11
BRANCH   7  27
HETATM   27  N6  UNL     1      -1.514   1.113   2.630  1.00  0.00    -0.342 N 
ATOM     28  H6  UNL     1      -1.337   1.508   3.554  1.00  0.00     0.167 HD
BRANCH  27  29
HETATM   29  C10 UNL     1      -2.676   0.323   2.419  1.00  0.00     0.056 A 
HETATM   30  C11 UNL     1      -2.969  -0.239   1.187  1.00  0.00     0.040 A 
HETATM   31  C12 UNL     1      -4.086  -1.000   0.981  1.00  0.00    -0.034 A 
HETATM   32  C17 UNL     1      -4.970  -1.232   2.016  1.00  0.00     0.011 A 
HETATM   33  C18 UNL     1      -4.711  -0.690   3.250  1.00  0.00     0.027 A 
HETATM   34  C19 UNL     1      -3.571   0.078   3.434  1.00  0.00     0.060 A 
HETATM   35 CL1  UNL     1      -3.311   0.735   5.043  1.00  0.00    -0.082 Cl
BRANCH  31  36
HETATM   36  C13 UNL     1      -4.329  -1.567  -0.367  1.00  0.00     0.113 C 
HETATM   37  C14 UNL     1      -5.371  -2.664  -0.320  1.00  0.00     0.037 C 
BRANCH  36  38
HETATM   38  N7  UNL     1      -3.131  -2.147  -0.933  1.00  0.00    -0.353 N 
HETATM   39  C15 UNL     1      -2.654  -1.653  -2.175  1.00  0.00     0.214 C 
HETATM   40  C16 UNL     1      -1.440  -2.210  -2.795  1.00  0.00     0.117 C 
HETATM   41  O6  UNL     1      -3.262  -0.717  -2.787  1.00  0.00    -0.274 OA
ATOM     42  H7  UNL     1      -2.638  -2.897  -0.448  1.00  0.00     0.163 HD
ENDBRANCH  36  38
ENDBRANCH  31  36
ENDBRANCH  27  29
ENDBRANCH   7  27
TORSDOF 13
