REMARK  11 active torsions:
REMARK  status: ('A' for Active; 'I' for Inactive)
REMARK    1  A    between atoms: C4_4  and  N1_5 
REMARK    2  A    between atoms: N1_5  and  C5_7 
REMARK    3  A    between atoms: C8_12  and  N3_13 
REMARK    4  A    between atoms: N3_13  and  C9_15 
REMARK    5  A    between atoms: C9_15  and  S1_16 
REMARK    6  A    between atoms: S1_16  and  C10_17 
REMARK    7  A    between atoms: C10_17  and  C11_18 
REMARK       I    between atoms: C11_18  and  N4_20 
REMARK    8  A    between atoms: N4_20  and  N5_22 
REMARK    9  A    between atoms: N5_22  and  S2_24 
REMARK   10  A    between atoms: S2_24  and  C12_27 
REMARK   11  A    between atoms: C15_31  and  N6_32 
ROOT
HETATM    1  C11 UNL     1       2.109  -0.643  -1.372  1.00  0.00     0.245 C 
HETATM    2  O1  UNL     1       2.455  -0.255  -2.508  1.00  0.00    -0.271 OA
HETATM    3  N4  UNL     1       2.873  -1.634  -0.696  1.00  0.00    -0.260 N 
ATOM      4  H4  UNL     1       2.596  -1.954   0.232  1.00  0.00     0.190 HD
ENDROOT
BRANCH   1   5
HETATM    5  C10 UNL     1       0.895  -0.048  -0.762  1.00  0.00     0.180 C 
BRANCH   5   6
HETATM    6  S1  UNL     1       0.695  -0.791   0.893  1.00  0.00    -0.140 SA
BRANCH   6   7
HETATM    7  C9  UNL     1      -0.874  -0.196   1.636  1.00  0.00     0.212 C 
BRANCH   7   8
HETATM    8  N3  UNL     1      -1.932  -0.729   0.858  1.00  0.00    -0.217 N 
ATOM      9  H3  UNL     1      -1.794  -1.656   0.455  1.00  0.00     0.178 HD
BRANCH   8  10
HETATM   10  C8  UNL     1      -3.044  -0.147   0.618  1.00  0.00     0.680 A 
HETATM   11  N2  UNL     1      -3.894  -0.879  -0.161  1.00  0.00    -0.177 N 
HETATM   12  C4  UNL     1      -5.104  -0.406  -0.510  1.00  0.00     0.119 A 
ATOM     13  H2  UNL     1      -3.606  -1.802  -0.485  1.00  0.00     0.185 HD
HETATM   14  C3  UNL     1      -5.431   0.849  -0.038  1.00  0.00     0.073 A 
HETATM   15  C2  UNL     1      -4.588   1.605   0.750  1.00  0.00     0.026 A 
HETATM   16  C1  UNL     1      -4.943   2.950   1.255  1.00  0.00     0.069 C 
HETATM   17  N7  UNL     1      -3.393   1.074   1.063  1.00  0.00    -0.196 N 
ATOM     18  H7  UNL     1      -2.743   1.603   1.645  1.00  0.00     0.184 HD
BRANCH  12  19
HETATM   19  N1  UNL     1      -5.887  -1.116  -1.247  1.00  0.00    -0.371 N 
ATOM     20  H1  UNL     1      -5.541  -2.030  -1.539  1.00  0.00     0.161 HD
BRANCH  19  21
HETATM   21  C5  UNL     1      -7.180  -0.752  -1.691  1.00  0.00     0.083 A 
HETATM   22  C6  UNL     1      -8.233  -0.503  -0.667  1.00  0.00     0.027 A 
HETATM   23  C7  UNL     1      -8.336  -1.704  -1.507  1.00  0.00     0.027 A 
ENDBRANCH  19  21
ENDBRANCH  12  19
ENDBRANCH   8  10
ENDBRANCH   7   8
ENDBRANCH   6   7
ENDBRANCH   5   6
ENDBRANCH   1   5
BRANCH   3  24
HETATM   24  N5  UNL     1       4.008  -2.165  -1.317  1.00  0.00    -0.220 N 
ATOM     25  H5  UNL     1       4.022  -2.469  -2.290  1.00  0.00     0.200 HD
BRANCH  24  26
HETATM   26  S2  UNL     1       5.373  -2.255  -0.285  1.00  0.00     0.279 S 
HETATM   27  O2  UNL     1       4.894  -2.480   1.119  1.00  0.00    -0.199 OA
HETATM   28  O3  UNL     1       6.236  -3.431  -0.663  1.00  0.00    -0.199 OA
BRANCH  26  29
HETATM   29  C12 UNL     1       6.328  -0.797  -0.343  1.00  0.00     0.124 A 
HETATM   30  C13 UNL     1       6.033   0.236   0.522  1.00  0.00     0.061 A 
HETATM   31 CL1  UNL     1       4.725   0.144   1.690  1.00  0.00    -0.083 Cl
HETATM   32  C14 UNL     1       6.790   1.390   0.484  1.00  0.00     0.061 A 
HETATM   33  C15 UNL     1       7.822   1.464  -0.429  1.00  0.00     0.106 A 
HETATM   34  C16 UNL     1       8.114   0.425  -1.296  1.00  0.00     0.061 A 
HETATM   35  C17 UNL     1       7.369  -0.737  -1.272  1.00  0.00     0.061 A 
HETATM   36 CL2  UNL     1       7.704  -2.073  -2.351  1.00  0.00    -0.083 Cl
BRANCH  33  37
HETATM   37  N6  UNL     1       8.611   2.660  -0.469  1.00  0.00    -0.116 N 
HETATM   38  O4  UNL     1       9.557   2.742  -1.271  1.00  0.00    -0.532 OA
HETATM   39  O5  UNL     1       8.355   3.708   0.352  1.00  0.00    -0.532 OA
ENDBRANCH  33  37
ENDBRANCH  26  29
ENDBRANCH  24  26
ENDBRANCH   3  24
TORSDOF 11
