REMARK  9 active torsions:
REMARK  status: ('A' for Active; 'I' for Inactive)
REMARK    1  A    between atoms: C2_2  and  C3_3 
REMARK    2  A    between atoms: C3_3  and  C4_4 
REMARK    3  A    between atoms: C4_4  and  C5_5 
REMARK    4  A    between atoms: C5_5  and  C6_6 
REMARK    5  A    between atoms: C6_6  and  O1_7 
REMARK    6  A    between atoms: O1_7  and  C7_8 
REMARK    7  A    between atoms: C8_9  and  O2_10 
REMARK    8  A    between atoms: C18_20  and  O3_21 
REMARK    9  A    between atoms: C21_24  and  O4_25 
ROOT
HETATM    1  C7  UNL     1       1.808   0.790  -0.141  1.00  0.00     0.109 A 
HETATM    2  C8  UNL     1       2.763   1.778  -0.210  1.00  0.00     0.102 A 
HETATM    3  C10 UNL     1       2.373   3.004  -0.652  1.00  0.00     0.040 A 
HETATM    4  C11 UNL     1       1.059   3.218  -1.010  1.00  0.00     0.011 A 
HETATM    5  C12 UNL     1       0.085   2.208  -0.937  1.00  0.00    -0.044 A 
HETATM    6  C13 UNL     1       0.463   0.980  -0.497  1.00  0.00    -0.011 A 
HETATM    7  C14 UNL     1      -0.475  -0.173  -0.364  1.00  0.00     0.077 C 
HETATM    8  C15 UNL     1      -1.539  -0.025   0.665  1.00  0.00    -0.064 C 
HETATM    9  C16 UNL     1      -1.134   0.915   1.731  1.00  0.00     0.044 C 
HETATM   10  C17 UNL     1      -2.925   0.025   0.199  1.00  0.00     0.027 A 
HETATM   11  C18 UNL     1      -3.877  -0.395   1.160  1.00  0.00     0.083 A 
HETATM   12  C20 UNL     1      -5.221  -0.497   0.884  1.00  0.00     0.075 A 
HETATM   13  C21 UNL     1      -5.688  -0.186  -0.371  1.00  0.00     0.079 A 
HETATM   14  C23 UNL     1      -4.764   0.222  -1.305  1.00  0.00     0.005 A 
HETATM   15  C24 UNL     1      -3.389   0.334  -1.029  1.00  0.00     0.056 A 
HETATM   16  N1  UNL     1      -2.781   0.845  -2.177  1.00  0.00    -0.359 N 
HETATM   17  C25 UNL     1      -1.918   1.753  -2.355  1.00  0.00     0.069 C 
HETATM   18  C26 UNL     1      -1.257   2.606  -1.367  1.00  0.00     0.084 C 
HETATM   19  C27 UNL     1      -3.533   0.148  -3.277  1.00  0.00     0.133 C 
HETATM   20  C28 UNL     1      -4.971   0.517  -2.768  1.00  0.00     0.064 C 
ENDROOT
BRANCH   1  21
HETATM   21  O1  UNL     1       2.243  -0.468   0.319  1.00  0.00    -0.348 OA
BRANCH  21  22
HETATM   22  C6  UNL     1       2.736  -1.359  -0.645  1.00  0.00     0.176 C 
BRANCH  22  23
HETATM   23  C5  UNL     1       3.158  -2.677  -0.083  1.00  0.00     0.027 C 
BRANCH  23  24
HETATM   24  C4  UNL     1       4.244  -2.623   0.935  1.00  0.00     0.002 C 
BRANCH  24  25
HETATM   25  C3  UNL     1       5.516  -2.030   0.392  1.00  0.00    -0.000 C 
BRANCH  25  26
HETATM   26  C2  UNL     1       6.534  -2.031   1.522  1.00  0.00    -0.005 C 
HETATM   27  C1  UNL     1       7.859  -1.439   1.039  1.00  0.00     0.005 C 
ENDBRANCH  25  26
ENDBRANCH  24  25
ENDBRANCH  23  24
ENDBRANCH  22  23
ENDBRANCH  21  22
ENDBRANCH   1  21
BRANCH   2  28
HETATM   28  O2  UNL     1       4.085   1.566   0.149  1.00  0.00    -0.353 OA
HETATM   29  C9  UNL     1       5.048   2.600   0.069  1.00  0.00     0.210 C 
ENDBRANCH   2  28
BRANCH  11  30
HETATM   30  O3  UNL     1      -3.443  -0.716   2.427  1.00  0.00    -0.355 OA
HETATM   31  C19 UNL     1      -4.392  -1.133   3.381  1.00  0.00     0.210 C 
ENDBRANCH  11  30
BRANCH  13  32
HETATM   32  O4  UNL     1      -7.052  -0.283  -0.681  1.00  0.00    -0.355 OA
HETATM   33  C22 UNL     1      -7.953  -0.716   0.345  1.00  0.00     0.210 C 
ENDBRANCH  13  32
TORSDOF 9
