REMARK  7 active torsions:
REMARK  status: ('A' for Active; 'I' for Inactive)
REMARK    1  A    between atoms: C2_2  and  C3_3 
REMARK    2  A    between atoms: C4_4  and  C5_5 
REMARK    3  A    between atoms: C6_6  and  C7_7 
REMARK    4  A    between atoms: C7_7  and  C8_8 
REMARK    5  A    between atoms: C8_8  and  C9_9 
REMARK    6  A    between atoms: C9_9  and  C10_10 
REMARK    7  A    between atoms: C10_10  and  N1_11 
ROOT
HETATM    1  N1  UNL     1      -0.123  -1.758  -0.877  1.00  0.00    -0.314 N 
HETATM    2  C11 UNL     1       0.128  -3.167  -0.905  1.00  0.00     0.248 C 
HETATM    3  O1  UNL     1       1.302  -3.617  -0.883  1.00  0.00    -0.271 OA
HETATM    4  C12 UNL     1      -0.970  -4.160  -0.960  1.00  0.00     0.279 C 
HETATM    5  O2  UNL     1      -2.085  -3.665  -0.243  1.00  0.00    -0.340 OA
HETATM    6  C13 UNL     1      -2.404  -2.318  -0.193  1.00  0.00     0.097 A 
HETATM    7  C14 UNL     1      -3.673  -1.877   0.163  1.00  0.00     0.056 A 
HETATM    8  C15 UNL     1      -3.940  -0.535   0.198  1.00  0.00     0.041 A 
HETATM    9  C16 UNL     1      -2.993   0.429  -0.109  1.00  0.00    -0.040 A 
HETATM   10  C17 UNL     1      -1.722  -0.019  -0.466  1.00  0.00     0.040 A 
HETATM   11  C18 UNL     1      -1.433  -1.366  -0.507  1.00  0.00     0.071 A 
HETATM   12  C19 UNL     1      -2.987   1.888  -0.152  1.00  0.00     0.040 C 
HETATM   13  C20 UNL     1      -3.903   2.544  -1.107  1.00  0.00     0.007 C 
HETATM   14  C21 UNL     1      -5.349   2.258  -1.012  1.00  0.00     0.037 C 
HETATM   15  C22 UNL     1      -5.943   2.141   0.341  1.00  0.00     0.154 C 
HETATM   16  S1  UNL     1      -7.508   2.983   0.588  1.00  0.00    -0.138 SA
HETATM   17  C23 UNL     1      -8.304   1.613   1.534  1.00  0.00     0.120 C 
HETATM   18  C24 UNL     1      -7.608   0.465   0.898  1.00  0.00     0.079 C 
HETATM   19  N2  UNL     1      -6.256   0.740   0.608  1.00  0.00    -0.313 N 
HETATM   20  C25 UNL     1      -5.361  -0.379   0.605  1.00  0.00     0.259 C 
HETATM   21  O3  UNL     1      -5.850  -1.456   1.024  1.00  0.00    -0.267 OA
ENDROOT
BRANCH   1  22
HETATM   22  C10 UNL     1       0.924  -0.825  -1.211  1.00  0.00     0.132 C 
BRANCH  22  23
HETATM   23  C9  UNL     1       1.676  -0.461   0.035  1.00  0.00     0.021 C 
BRANCH  23  24
HETATM   24  C8  UNL     1       2.791   0.502  -0.160  1.00  0.00     0.005 C 
BRANCH  24  25
HETATM   25  C7  UNL     1       3.871   0.036  -1.099  1.00  0.00     0.027 C 
BRANCH  25  26
HETATM   26  C6  UNL     1       4.557  -1.185  -0.721  1.00  0.00    -0.027 C 
HETATM   27  C5  UNL     1       5.275  -1.463   0.493  1.00  0.00    -0.004 C 
BRANCH  27  28
HETATM   28  C4  UNL     1       6.463  -0.866   1.047  1.00  0.00    -0.004 C 
HETATM   29  C3  UNL     1       6.597   0.486   1.528  1.00  0.00    -0.027 C 
BRANCH  29  30
HETATM   30  C2  UNL     1       6.463   1.672   0.687  1.00  0.00     0.022 C 
HETATM   31  C1  UNL     1       7.425   1.655  -0.488  1.00  0.00     0.009 C 
ENDBRANCH  29  30
ENDBRANCH  27  28
ENDBRANCH  25  26
ENDBRANCH  24  25
ENDBRANCH  23  24
ENDBRANCH  22  23
ENDBRANCH   1  22
TORSDOF 7
