REMARK  9 active torsions:
REMARK  status: ('A' for Active; 'I' for Inactive)
REMARK    1  A    between atoms: O1_2  and  C2_3 
REMARK    2  A    between atoms: C2_3  and  C3_4 
REMARK    3  A    between atoms: C3_4  and  S1_5 
REMARK    4  A    between atoms: S1_5  and  C4_7 
REMARK    5  A    between atoms: C7_10  and  C8_11 
REMARK    6  A    between atoms: C9_12  and  C10_13 
REMARK    7  A    between atoms: C13_16  and  O3_17 
REMARK    8  A    between atoms: O3_17  and  C14_18 
REMARK    9  A    between atoms: C23_28  and  O5_29 
ROOT
HETATM    1  C10 UNL     1      -0.560   0.005  -0.726  1.00  0.00    -0.033 A 
HETATM    2  C11 UNL     1      -1.056  -0.866  -1.663  1.00  0.00     0.014 A 
HETATM    3  C12 UNL     1      -2.362  -0.788  -2.141  1.00  0.00     0.041 A 
HETATM    4  C13 UNL     1      -3.201   0.216  -1.645  1.00  0.00     0.109 A 
HETATM    5  C23 UNL     1      -2.703   1.089  -0.706  1.00  0.00     0.102 A 
HETATM    6  C25 UNL     1      -1.409   0.985  -0.255  1.00  0.00     0.051 A 
ENDROOT
BRANCH   1   7
HETATM    7  C9  UNL     1       0.790  -0.066  -0.223  1.00  0.00     0.012 C 
HETATM    8  C8  UNL     1       1.662  -0.960  -0.613  1.00  0.00     0.012 C 
BRANCH   8   9
HETATM    9  C7  UNL     1       3.025  -1.023  -0.098  1.00  0.00    -0.036 A 
HETATM   10  C6  UNL     1       3.540  -0.161   0.842  1.00  0.00     0.013 A 
HETATM   11  C5  UNL     1       4.858  -0.262   1.305  1.00  0.00     0.022 A 
HETATM   12  C4  UNL     1       5.707  -1.239   0.836  1.00  0.00     0.031 A 
HETATM   13  C27 UNL     1       5.202  -2.109  -0.107  1.00  0.00     0.022 A 
HETATM   14  C26 UNL     1       3.905  -2.007  -0.561  1.00  0.00     0.013 A 
BRANCH  12  15
HETATM   15  S1  UNL     1       7.357  -1.364   1.418  1.00  0.00     0.051 S 
HETATM   16  O2  UNL     1       7.914  -2.923   1.434  1.00  0.00    -0.253 OA
BRANCH  15  17
HETATM   17  C3  UNL     1       8.466  -0.387   0.418  1.00  0.00     0.140 C 
BRANCH  17  18
HETATM   18  C2  UNL     1       9.819  -0.480   1.061  1.00  0.00     0.180 C 
BRANCH  18  19
HETATM   19  O1  UNL     1      10.758   0.220   0.368  1.00  0.00    -0.395 OA
HETATM   20  C1  UNL     1      10.473   1.567   0.288  1.00  0.00     0.201 C 
ENDBRANCH  18  19
ENDBRANCH  17  18
ENDBRANCH  15  17
ENDBRANCH  12  15
ENDBRANCH   8   9
ENDBRANCH   1   7
BRANCH   5  21
HETATM   21  O5  UNL     1      -3.518   2.117  -0.183  1.00  0.00    -0.353 OA
HETATM   22  C24 UNL     1      -3.005   3.016   0.784  1.00  0.00     0.210 C 
ENDBRANCH   5  21
BRANCH   4  23
HETATM   23  O3  UNL     1      -4.499   0.324  -2.097  1.00  0.00    -0.308 OA
BRANCH  23  24
HETATM   24  C14 UNL     1      -5.562   0.157  -1.227  1.00  0.00     0.077 A 
HETATM   25  C15 UNL     1      -5.446  -0.275   0.072  1.00  0.00     0.038 A 
HETATM   26  C16 UNL     1      -6.570  -0.416   0.889  1.00  0.00     0.011 A 
HETATM   27  C17 UNL     1      -7.822  -0.132   0.427  1.00  0.00    -0.044 A 
HETATM   28  C18 UNL     1      -7.936   0.301  -0.877  1.00  0.00     0.019 A 
HETATM   29  C22 UNL     1      -9.141  -0.202   1.091  1.00  0.00     0.047 C 
HETATM   30  C19 UNL     1      -6.850   0.448  -1.698  1.00  0.00     0.053 A 
HETATM   31  C20 UNL     1      -9.366   0.532  -1.116  1.00  0.00     0.160 C 
HETATM   32  O4  UNL     1      -9.911   0.640  -2.225  1.00  0.00    -0.292 OA
HETATM   33  C21 UNL     1     -10.039   0.614   0.201  1.00  0.00     0.088 C 
ENDBRANCH  23  24
ENDBRANCH   4  23
TORSDOF 9
