REMARK  0 active torsions:
REMARK  status: ('A' for Active; 'I' for Inactive)
REMARK       I    between atoms: C2_2  and  N1_4 
ROOT
HETATM    1  C1  UNL     1      -1.576   3.822  -0.291  1.00  0.00     0.117 C 
HETATM    2  C2  UNL     1      -2.726   2.918  -0.481  1.00  0.00     0.221 C 
HETATM    3  O1  UNL     1      -3.615   3.273  -1.295  1.00  0.00    -0.273 OA
HETATM    4  N1  UNL     1      -2.825   1.708   0.226  1.00  0.00    -0.299 N 
HETATM    5  C3  UNL     1      -1.586   1.264   0.871  1.00  0.00     0.177 C 
HETATM    6  C4  UNL     1      -1.205  -0.094   0.327  1.00  0.00     0.023 C 
HETATM    7  C5  UNL     1      -0.036  -0.250  -0.224  1.00  0.00     0.089 C 
HETATM    8  N2  UNL     1       0.466  -1.435  -0.793  1.00  0.00    -0.316 N 
ATOM      9  H2  UNL     1      -0.204  -2.148  -1.083  1.00  0.00     0.169 HD
HETATM   10  C6  UNL     1       1.848  -1.700  -0.988  1.00  0.00     0.259 C 
HETATM   11  O2  UNL     1       2.126  -2.850  -1.509  1.00  0.00    -0.267 OA
HETATM   12  C7  UNL     1       2.920  -0.810  -0.659  1.00  0.00     0.067 A 
HETATM   13  C8  UNL     1       4.219  -1.300  -0.774  1.00  0.00     0.033 A 
HETATM   14  C9  UNL     1       5.307  -0.533  -0.351  1.00  0.00    -0.008 A 
HETATM   15  C10 UNL     1       6.600  -1.023  -0.466  1.00  0.00     0.014 A 
HETATM   16  C11 UNL     1       7.653  -0.254  -0.043  1.00  0.00     0.001 A 
HETATM   17  C12 UNL     1       7.456   0.995   0.494  1.00  0.00     0.002 A 
HETATM   18  C13 UNL     1       6.177   1.457   0.597  1.00  0.00     0.030 A 
HETATM   19  C14 UNL     1       5.075   0.717   0.183  1.00  0.00     0.043 A 
HETATM   20  N3  UNL     1       3.823   1.178   0.287  1.00  0.00    -0.349 N 
ATOM     21  H3  UNL     1       3.663   2.104   0.683  1.00  0.00     0.166 HD
HETATM   22  C15 UNL     1       2.768   0.442  -0.122  1.00  0.00     0.092 A 
HETATM   23  S1  UNL     1       1.120   1.126  -0.127  1.00  0.00    -0.053 SA
HETATM   24  C16 UNL     1      -2.084  -1.259   0.493  1.00  0.00     0.070 A 
HETATM   25  N4  UNL     1      -1.402  -2.390   0.744  1.00  0.00    -0.364 N 
ATOM     26  H4  UNL     1      -0.384  -2.333   0.775  1.00  0.00     0.165 HD
HETATM   27  C17 UNL     1      -1.965  -3.584   0.956  1.00  0.00     0.088 A 
HETATM   28  C18 UNL     1      -3.333  -3.665   0.917  1.00  0.00     0.019 A 
HETATM   29  C19 UNL     1      -4.130  -2.534   0.662  1.00  0.00     0.034 A 
HETATM   30  C20 UNL     1      -3.482  -1.349   0.455  1.00  0.00     0.068 A 
HETATM   31  N5  UNL     1      -4.393  -0.284   0.269  1.00  0.00    -0.306 N 
HETATM   32  C21 UNL     1      -5.721  -0.449   0.187  1.00  0.00     0.099 A 
HETATM   33  C22 UNL     1      -6.269   0.810   0.066  1.00  0.00     0.021 A 
HETATM   34  C23 UNL     1      -5.253   1.748   0.074  1.00  0.00     0.051 A 
HETATM   35  C24 UNL     1      -4.082   1.029   0.201  1.00  0.00     0.117 A 
ENDROOT
TORSDOF 0
