REMARK  5 active torsions:
REMARK  status: ('A' for Active; 'I' for Inactive)
REMARK    1  A    between atoms: N1_2  and  C2_4 
REMARK    2  A    between atoms: N3_8  and  C4_9 
REMARK    3  A    between atoms: C4_9  and  O1_10 
REMARK    4  A    between atoms: C6_13  and  N4_14 
REMARK    5  A    between atoms: C8_18  and  N6_19 
ROOT
HETATM    1  C2  UNL     1      -1.508  -1.528  -0.564  1.00  0.00     0.706 A 
HETATM    2  N2  UNL     1      -0.231  -1.304  -0.297  1.00  0.00    -0.020 N 
ATOM      3  H2  UNL     1       0.436  -2.058  -0.463  1.00  0.00     0.203 HD
HETATM    4  C3  UNL     1       0.247  -0.106   0.194  1.00  0.00     0.730 A 
HETATM    5  N3  UNL     1       1.535   0.112   0.461  1.00  0.00    -0.124 N 
HETATM    6  S1  UNL     1       1.539   1.701   1.019  1.00  0.00     0.045 SA
HETATM    7  C6  UNL     1      -0.132   2.013   0.881  1.00  0.00     0.202 A 
HETATM    8  N5  UNL     1      -0.605   0.853   0.404  1.00  0.00     0.047 N 
HETATM    9  C8  UNL     1      -1.931   0.626   0.128  1.00  0.00     0.713 A 
HETATM   10  N7  UNL     1      -2.376  -0.553  -0.351  1.00  0.00    -0.021 N 
ATOM     11  H7  UNL     1      -3.368  -0.691  -0.546  1.00  0.00     0.203 HD
ENDROOT
BRANCH   1  12
HETATM   12  N1  UNL     1      -1.891  -2.686  -1.027  1.00  0.00    -0.229 N 
HETATM   13  C1  UNL     1      -3.299  -2.891  -1.308  1.00  0.00     0.165 C 
ATOM     14  H1  UNL     1      -1.214  -3.432  -1.188  1.00  0.00     0.177 HD
ENDBRANCH   1  12
BRANCH   9  15
HETATM   15  N6  UNL     1      -2.817   1.544   0.319  1.00  0.00    -0.233 N 
ATOM     16  H62 UNL     1      -2.480   2.436   0.681  1.00  0.00     0.174 HD
ATOM     17  H61 UNL     1      -3.802   1.375   0.114  1.00  0.00     0.174 HD
ENDBRANCH   9  15
BRANCH   5  18
HETATM   18  C4  UNL     1       2.680  -0.809   0.308  1.00  0.00     0.324 C 
BRANCH  18  19
HETATM   19  O1  UNL     1       3.181  -0.635  -0.961  1.00  0.00    -0.375 OA
HETATM   20  C5  UNL     1       4.270  -1.494  -1.142  1.00  0.00     0.203 C 
ENDBRANCH  18  19
ENDBRANCH   5  18
BRANCH   7  21
HETATM   21  N4  UNL     1      -0.749   3.120   1.178  1.00  0.00    -0.372 N 
HETATM   22  C7  UNL     1       0.022   4.215   1.676  1.00  0.00     0.148 C 
ATOM     23  H4  UNL     1      -1.758   3.204   1.058  1.00  0.00     0.161 HD
ENDBRANCH   7  21
TORSDOF 5
