REMARK  7 active torsions:
REMARK  status: ('A' for Active; 'I' for Inactive)
REMARK    1  A    between atoms: C2_2  and  O1_3 
REMARK    2  A    between atoms: C2_2  and  C3_5 
REMARK    3  A    between atoms: C3_5  and  C4_6 
REMARK    4  A    between atoms: C4_6  and  O3_8 
REMARK    5  A    between atoms: O3_8  and  C5_9 
REMARK    6  A    between atoms: C5_9  and  C8_12 
REMARK    7  A    between atoms: C12_19  and  C13_20 
ROOT
HETATM    1  C8  UNL     1       0.129  -0.630  -0.199  1.00  0.00     0.035 C 
HETATM    2  C9  UNL     1       0.544  -0.901  -1.639  1.00  0.00     0.044 C 
HETATM    3  C10 UNL     1      -0.699  -0.697  -2.466  1.00  0.00     0.171 C 
HETATM    4  O4  UNL     1      -0.638   0.536  -3.165  1.00  0.00    -0.205 OA
HETATM    5  O5  UNL     1      -1.822   0.809  -3.655  1.00  0.00    -0.066 OA
HETATM    6  O6  UNL     1      -2.629   1.181  -2.685  1.00  0.00    -0.204 OA
HETATM    7  C11 UNL     1      -2.061   0.924  -1.426  1.00  0.00     0.184 C 
HETATM    8  C12 UNL     1      -3.023   1.417  -0.424  1.00  0.00     0.129 C 
HETATM    9  C14 UNL     1      -2.570   1.374   1.002  1.00  0.00     0.043 C 
HETATM   10  C15 UNL     1      -2.715   0.017   1.513  1.00  0.00    -0.023 C 
HETATM   11  C16 UNL     1      -2.233  -1.168   0.794  1.00  0.00    -0.078 C 
HETATM   12  C17 UNL     1      -2.306  -2.342   1.778  1.00  0.00     0.044 C 
HETATM   13  C18 UNL     1      -1.195  -1.177  -0.205  1.00  0.00    -0.006 C 
HETATM   14  C19 UNL     1      -1.090  -2.660  -0.670  1.00  0.00     0.021 C 
HETATM   15  C20 UNL     1      -1.782  -0.530  -1.451  1.00  0.00     0.063 C 
ENDROOT
BRANCH   1  16
HETATM   16  C5  UNL     1       1.247  -0.852   0.668  1.00  0.00     0.068 C 
HETATM   17  C6  UNL     1       1.623  -2.173   1.229  1.00  0.00     0.047 C 
HETATM   18  C7  UNL     1       0.838  -0.093   2.045  1.00  0.00     0.047 C 
BRANCH  16  19
HETATM   19  O3  UNL     1       2.304  -0.012   0.332  1.00  0.00    -0.310 OA
BRANCH  19  20
HETATM   20  C4  UNL     1       3.379  -0.260  -0.426  1.00  0.00     0.262 C 
HETATM   21  O2  UNL     1       3.507  -1.402  -0.895  1.00  0.00    -0.265 OA
BRANCH  20  22
HETATM   22  C3  UNL     1       4.447   0.735  -0.756  1.00  0.00     0.142 C 
BRANCH  22  23
HETATM   23  C2  UNL     1       4.163   2.084  -0.117  1.00  0.00     0.123 C 
HETATM   24  C1  UNL     1       4.093   1.976   1.369  1.00  0.00     0.040 C 
BRANCH  23  25
HETATM   25  O1  UNL     1       5.203   2.929  -0.485  1.00  0.00    -0.395 OA
ATOM     26  H1  UNL     1       5.248   2.998  -1.431  1.00  0.00     0.210 HD
ENDBRANCH  23  25
ENDBRANCH  22  23
ENDBRANCH  20  22
ENDBRANCH  19  20
ENDBRANCH  16  19
ENDBRANCH   1  16
BRANCH   8  27
HETATM   27  C13 UNL     1      -3.479   2.810  -0.804  1.00  0.00     0.394 C 
HETATM   28  F1  UNL     1      -4.379   3.284   0.147  1.00  0.00    -0.171 F 
HETATM   29  F2  UNL     1      -2.459   3.687  -1.007  1.00  0.00    -0.171 F 
HETATM   30  F3  UNL     1      -4.269   2.677  -1.958  1.00  0.00    -0.171 F 
ENDBRANCH   8  27
TORSDOF 7
