REMARK  5 active torsions:
REMARK  status: ('A' for Active; 'I' for Inactive)
REMARK    1  A    between atoms: C2_2  and  N1_3 
REMARK    2  A    between atoms: N1_3  and  C3_5 
REMARK    3  A    between atoms: N3_12  and  C7_14 
REMARK    4  A    between atoms: C7_14  and  C8_15 
REMARK    5  A    between atoms: C8_15  and  N4_16 
ROOT
HETATM    1  C3  UNL     1       4.523  -0.552   0.030  1.00  0.00     0.679 A 
HETATM    2  N2  UNL     1       4.664   0.493  -0.798  1.00  0.00    -0.200 N 
ATOM      3  H2  UNL     1       5.599   0.864  -0.968  1.00  0.00     0.183 HD
HETATM    4  C4  UNL     1       3.617   1.069  -1.412  1.00  0.00     0.133 A 
HETATM    5  C5  UNL     1       2.324   0.601  -1.214  1.00  0.00     0.094 A 
HETATM    6 CL1  UNL     1       0.995   1.389  -2.038  1.00  0.00    -0.079 Cl
HETATM    7  C6  UNL     1       2.164  -0.468  -0.369  1.00  0.00     0.144 A 
HETATM    8  N3  UNL     1       1.082  -1.014  -0.081  1.00  0.00    -0.349 N 
ATOM      9  H3  UNL     1       1.228  -1.787   0.568  1.00  0.00     0.167 HD
HETATM   10  N5  UNL     1       3.278  -0.999   0.218  1.00  0.00    -0.175 N 
ATOM     11  H5  UNL     1       3.150  -1.794   0.845  1.00  0.00     0.186 HD
ENDROOT
BRANCH   8  12
HETATM   12  C7  UNL     1      -0.271  -0.874  -0.389  1.00  0.00     0.107 C 
BRANCH  12  13
HETATM   13  C8  UNL     1      -1.045  -0.004   0.593  1.00  0.00     0.108 C 
BRANCH  13  14
HETATM   14  N4  UNL     1      -2.392   0.139   0.252  1.00  0.00    -0.357 N 
HETATM   15  C9  UNL     1      -3.209  -0.967   0.368  1.00  0.00     0.064 C 
HETATM   16  C10 UNL     1      -4.269  -1.307  -0.675  1.00  0.00     0.047 C 
HETATM   17  C11 UNL     1      -5.611  -0.702  -0.372  1.00  0.00     0.033 C 
HETATM   18  C12 UNL     1      -6.013   0.626  -0.801  1.00  0.00     0.187 C 
HETATM   19  O1  UNL     1      -5.476   1.776  -0.133  1.00  0.00    -0.313 OA
HETATM   20  C13 UNL     1      -4.244   1.492   0.120  1.00  0.00    -0.007 C 
HETATM   21  C14 UNL     1      -2.931   1.482   0.603  1.00  0.00     0.239 C 
ENDBRANCH  13  14
ENDBRANCH  12  13
ENDBRANCH   8  12
BRANCH   1  22
HETATM   22  N1  UNL     1       5.540  -1.093   0.608  1.00  0.00    -0.226 N 
ATOM     23  H1  UNL     1       5.405  -1.888   1.233  1.00  0.00     0.177 HD
BRANCH  22  24
HETATM   24  C2  UNL     1       6.855  -0.585   0.378  1.00  0.00     0.133 C 
HETATM   25  C1  UNL     1       7.181   0.675   1.130  1.00  0.00     0.027 C 
ENDBRANCH  22  24
ENDBRANCH   1  22
TORSDOF 5
