REMARK  6 active torsions:
REMARK  status: ('A' for Active; 'I' for Inactive)
REMARK    1  A    between atoms: N1_2  and  C2_5 
REMARK    2  A    between atoms: C2_5  and  C3_6 
REMARK    3  A    between atoms: C3_6  and  C4_7 
REMARK    4  A    between atoms: C3_6  and  N2_13 
REMARK    5  A    between atoms: C4_7  and  C5_8 
REMARK    6  A    between atoms: C6_9  and  C7_10 
REMARK       I    between atoms: N2_13  and  C9_15 
REMARK       I    between atoms: C9_15  and  N3_17 
ROOT
HETATM    1  C3  UNL     1       1.392  -0.180   0.243  1.00  0.00     0.122 C 
ENDROOT
BRANCH   1   2
HETATM    2  C2  UNL     1       2.080  -1.010  -0.833  1.00  0.00     0.257 C 
BRANCH   2   3
HETATM    3  N1  UNL     1       1.635  -0.601  -2.131  1.00  0.00    -0.077 N 
HETATM    4  C1  UNL     1       2.288  -1.388  -3.149  1.00  0.00     0.267 C 
ATOM      5  H12 UNL     1       1.763   0.400  -2.281  1.00  0.00     0.276 HD
ATOM      6  H11 UNL     1       0.619  -0.635  -2.215  1.00  0.00     0.276 HD
ENDBRANCH   2   3
ENDBRANCH   1   2
BRANCH   1   7
HETATM    7  C4  UNL     1       1.923  -0.681   1.579  1.00  0.00     0.121 C 
BRANCH   7   8
HETATM    8  C5  UNL     1       3.388  -0.456   1.530  1.00  0.00    -0.100 C 
HETATM    9  C6  UNL     1       4.579  -0.262   1.492  1.00  0.00    -0.076 C 
BRANCH   9  10
HETATM   10  C7  UNL     1       5.998  -0.013   1.451  1.00  0.00     0.093 C 
HETATM   11  C8  UNL     1       6.516   1.184   1.559  1.00  0.00     0.197 C 
HETATM   12  F1  UNL     1       5.707   2.239   1.714  1.00  0.00    -0.219 F 
ENDBRANCH   9  10
ENDBRANCH   7   8
ENDBRANCH   1   7
BRANCH   1  13
HETATM   13  N2  UNL     1      -0.031  -0.323   0.205  1.00  0.00    -0.336 N 
HETATM   14  C9  UNL     1      -0.876   0.791  -0.024  1.00  0.00     0.319 C 
HETATM   15  O1  UNL     1      -0.401   1.939  -0.200  1.00  0.00    -0.247 OA
HETATM   16  N3  UNL     1      -2.265   0.602  -0.053  1.00  0.00    -0.323 N 
HETATM   17  C10 UNL     1      -3.265   1.615  -0.270  1.00  0.00     0.098 C 
HETATM   18  C13 UNL     1      -2.964  -0.645   0.130  1.00  0.00     0.098 C 
HETATM   19  C11 UNL     1      -4.419   0.894  -0.971  1.00  0.00     0.028 C 
HETATM   20  C15 UNL     1      -3.737   2.127   1.093  1.00  0.00     0.099 C 
HETATM   21  C12 UNL     1      -4.113  -0.576  -0.853  1.00  0.00     0.028 C 
HETATM   22  S1  UNL     1      -3.310   0.873   2.344  1.00  0.00    -0.165 SA
HETATM   23  C14 UNL     1      -3.459  -0.754   1.560  1.00  0.00     0.099 C 
ATOM     24  H2  UNL     1      -0.445  -1.245   0.345  1.00  0.00     0.164 HD
ENDBRANCH   1  13
TORSDOF 6
