REMARK  13 active torsions:
REMARK  status: ('A' for Active; 'I' for Inactive)
REMARK    1  A    between atoms: C2_2  and  C5_5 
REMARK    2  A    between atoms: C5_5  and  C6_6 
REMARK    3  A    between atoms: C6_6  and  C7_7 
REMARK    4  A    between atoms: C7_7  and  C8_8 
REMARK    5  A    between atoms: C8_8  and  C9_9 
REMARK       I    between atoms: C9_9  and  N1_11 
REMARK    6  A    between atoms: N1_11  and  C10_13 
REMARK    7  A    between atoms: C10_13  and  C11_14 
REMARK    8  A    between atoms: C15_20  and  C16_21 
REMARK    9  A    between atoms: C21_26  and  O4_27 
REMARK   10  A    between atoms: C21_26  and  N2_29 
REMARK   11  A    between atoms: C24_32  and  C25_33 
REMARK   12  A    between atoms: C24_32  and  N4_41 
REMARK       I    between atoms: C25_33  and  N3_35 
REMARK   13  A    between atoms: N3_35  and  S1_37 
ROOT
HETATM    1  C5  UNL     1      -0.673  -1.258  -1.355  1.00  0.00    -0.004 C 
HETATM    2  C21 UNL     1      -1.224   0.030  -1.069  1.00  0.00     0.144 C 
ENDROOT
BRANCH   1   3
HETATM    3  C2  UNL     1      -1.548  -2.465  -1.501  1.00  0.00    -0.020 C 
HETATM    4  C1  UNL     1      -2.269  -2.786  -0.240  1.00  0.00     0.019 C 
HETATM    5  C3  UNL     1      -2.430  -2.336  -2.734  1.00  0.00     0.019 C 
HETATM    6  C4  UNL     1      -0.713  -3.735  -1.804  1.00  0.00     0.019 C 
ENDBRANCH   1   3
BRANCH   1   7
HETATM    7  C6  UNL     1       0.652  -1.493  -1.437  1.00  0.00    -0.014 C 
BRANCH   7   8
HETATM    8  C7  UNL     1       1.783  -0.602  -1.357  1.00  0.00     0.037 C 
BRANCH   8   9
HETATM    9  C8  UNL     1       2.544  -0.722  -0.048  1.00  0.00     0.106 C 
BRANCH   9  10
HETATM   10  C9  UNL     1       3.705   0.211  -0.013  1.00  0.00     0.218 C 
HETATM   11  O1  UNL     1       3.941   0.838  -1.071  1.00  0.00    -0.274 OA
HETATM   12  N1  UNL     1       4.505   0.403   1.119  1.00  0.00    -0.342 N 
ATOM     13  H1  UNL     1       4.285  -0.114   1.971  1.00  0.00     0.163 HD
BRANCH  12  14
HETATM   14  C10 UNL     1       5.617   1.296   1.123  1.00  0.00     0.125 C 
HETATM   15  C12 UNL     1       5.249   2.692   0.694  1.00  0.00     0.043 C 
HETATM   16  C13 UNL     1       6.069   3.021  -0.520  1.00  0.00     0.004 C 
HETATM   17  C14 UNL     1       6.875   1.807  -0.890  1.00  0.00     0.008 C 
HETATM   18  C15 UNL     1       6.792   0.875   0.280  1.00  0.00     0.029 C 
BRANCH  14  19
HETATM   19  C11 UNL     1       6.164   1.381   2.533  1.00  0.00     0.203 C 
HETATM   20  O2  UNL     1       5.672   0.757   3.490  1.00  0.00    -0.646 OA
HETATM   21  O3  UNL     1       7.254   2.197   2.727  1.00  0.00    -0.646 OA
ENDBRANCH  14  19
BRANCH  18  22
HETATM   22  C16 UNL     1       6.872  -0.574  -0.045  1.00  0.00    -0.007 C 
HETATM   23  C17 UNL     1       6.974  -1.371   1.243  1.00  0.00     0.005 C 
HETATM   24  C18 UNL     1       7.804  -2.593   0.895  1.00  0.00     0.000 C 
HETATM   25  C19 UNL     1       8.647  -2.210  -0.283  1.00  0.00     0.000 C 
HETATM   26  C20 UNL     1       8.220  -0.819  -0.723  1.00  0.00     0.005 C 
ENDBRANCH  18  22
ENDBRANCH  12  14
ENDBRANCH   9  10
ENDBRANCH   8   9
ENDBRANCH   7   8
ENDBRANCH   1   7
BRANCH   2  27
HETATM   27  O4  UNL     1      -0.255   0.936  -0.872  1.00  0.00    -0.346 OA
ATOM     28  H4  UNL     1      -0.621   1.792  -0.682  1.00  0.00     0.219 HD
ENDBRANCH   2  27
BRANCH   2  29
HETATM   29  N2  UNL     1      -2.458   0.624  -0.937  1.00  0.00    -0.359 N 
HETATM   30  C22 UNL     1      -2.533   2.121  -0.663  1.00  0.00     0.128 C 
HETATM   31  C23 UNL     1      -3.542   2.133   0.444  1.00  0.00     0.062 C 
HETATM   32  C24 UNL     1      -4.507   1.079   0.190  1.00  0.00     0.128 C 
HETATM   33  C32 UNL     1      -3.851   0.317  -0.983  1.00  0.00     0.166 C 
BRANCH  32  34
HETATM   34  C25 UNL     1      -4.511   0.097   1.305  1.00  0.00     0.261 C 
HETATM   35  O5  UNL     1      -3.442   0.025   1.989  1.00  0.00    -0.270 OA
HETATM   36  N3  UNL     1      -5.588  -0.745   1.654  1.00  0.00    -0.253 N 
ATOM     37  H3  UNL     1      -6.455  -0.715   1.117  1.00  0.00     0.181 HD
BRANCH  36  38
HETATM   38  S1  UNL     1      -5.434  -1.838   3.007  1.00  0.00     0.229 S 
HETATM   39  C26 UNL     1      -6.731  -3.026   3.045  1.00  0.00     0.186 C 
HETATM   40  O6  UNL     1      -4.083  -2.480   2.899  1.00  0.00    -0.206 OA
HETATM   41  O7  UNL     1      -5.479  -1.002   4.282  1.00  0.00    -0.206 OA
ENDBRANCH  36  38
ENDBRANCH  32  34
BRANCH  32  42
HETATM   42  N4  UNL     1      -5.845   1.361  -0.154  1.00  0.00    -0.394 N 
HETATM   43  C27 UNL     1      -6.627   2.035   0.817  1.00  0.00     0.118 C 
HETATM   44  C28 UNL     1      -8.092   1.761   0.558  1.00  0.00     0.019 C 
HETATM   45  C29 UNL     1      -8.453   2.336  -0.807  1.00  0.00     0.003 C 
HETATM   46  C30 UNL     1      -7.199   2.876  -1.468  1.00  0.00     0.019 C 
HETATM   47  C31 UNL     1      -6.060   1.885  -1.461  1.00  0.00     0.118 C 
ENDBRANCH  32  42
ENDBRANCH   2  29
TORSDOF 13
