REMARK  12 active torsions:
REMARK  status: ('A' for Active; 'I' for Inactive)
REMARK    1  A    between atoms: C2_2  and  N1_3 
REMARK       I    between atoms: N1_3  and  C3_5 
REMARK    2  A    between atoms: C3_5  and  C4_7 
REMARK    3  A    between atoms: C4_7  and  C5_8 
REMARK    4  A    between atoms: C5_8  and  N2_9 
REMARK    5  A    between atoms: C5_8  and  C13_20 
REMARK       I    between atoms: N2_9  and  C6_10 
REMARK    6  A    between atoms: C6_10  and  C7_12 
REMARK       I    between atoms: C13_20  and  N3_22 
REMARK    7  A    between atoms: N3_22  and  C14_24 
REMARK    8  A    between atoms: C14_24  and  C15_25 
REMARK    9  A    between atoms: C14_24  and  C22_32 
REMARK   10  A    between atoms: C15_25  and  C16_26 
REMARK   11  A    between atoms: C22_32  and  C23_34 
REMARK   12  A    between atoms: C23_34  and  C24_35 
REMARK       I    between atoms: C24_35  and  N4_37 
ROOT
HETATM    1  C14 UNL     1      -0.410   2.001  -0.512  1.00  0.00     0.178 C 
ENDROOT
BRANCH   1   2
HETATM    2  N3  UNL     1      -1.318   0.787  -0.384  1.00  0.00    -0.344 N 
HETATM    3  C13 UNL     1      -2.687   0.878  -0.630  1.00  0.00     0.255 C 
HETATM    4  O5  UNL     1      -3.240   1.963  -0.910  1.00  0.00    -0.270 OA
ATOM      5  H3  UNL     1      -0.917  -0.111  -0.113  1.00  0.00     0.163 HD
BRANCH   3   6
HETATM    6  C5  UNL     1      -3.543  -0.326  -0.576  1.00  0.00     0.267 C 
BRANCH   6   7
HETATM    7  C4  UNL     1      -2.771  -1.584  -0.165  1.00  0.00     0.152 C 
BRANCH   7   8
HETATM    8  C3  UNL     1      -3.543  -2.797  -0.575  1.00  0.00     0.221 C 
HETATM    9  N1  UNL     1      -3.048  -4.089  -0.313  1.00  0.00    -0.361 N 
ATOM     10  H1  UNL     1      -2.156  -4.231   0.160  1.00  0.00     0.162 HD
HETATM   11  O1  UNL     1      -4.628  -2.641  -1.155  1.00  0.00    -0.273 OA
BRANCH   9  12
HETATM   12  C2  UNL     1      -3.861  -5.209  -0.745  1.00  0.00     0.118 C 
HETATM   13  C1  UNL     1      -3.298  -6.551  -0.460  1.00  0.00     0.026 C 
ENDBRANCH   9  12
ENDBRANCH   7   8
ENDBRANCH   6   7
BRANCH   6  14
HETATM   14  N2  UNL     1      -4.765  -0.248   0.046  1.00  0.00    -0.399 NA
HETATM   15  C6  UNL     1      -5.975  -0.168   0.674  1.00  0.00     0.294 C 
HETATM   16  O2  UNL     1      -6.196   0.155   1.883  1.00  0.00    -0.257 OA
BRANCH  15  17
HETATM   17  C7  UNL     1      -7.273  -0.476  -0.052  1.00  0.00     0.125 C 
HETATM   18  C8  UNL     1      -8.233   0.660  -0.026  1.00  0.00     0.186 C 
HETATM   19  O3  UNL     1      -9.299   0.368   0.789  1.00  0.00    -0.360 OA
HETATM   20  C9  UNL     1      -9.161  -0.927   1.268  1.00  0.00     0.264 C 
HETATM   21  O4  UNL     1     -10.322  -1.673   0.978  1.00  0.00    -0.361 OA
HETATM   22  C12 UNL     1      -8.031  -1.595   0.556  1.00  0.00     0.059 C 
HETATM   23  C10 UNL     1     -10.233  -2.050  -0.349  1.00  0.00     0.171 C 
HETATM   24  C11 UNL     1      -8.755  -2.415  -0.507  1.00  0.00     0.036 C 
ENDBRANCH  15  17
ENDBRANCH   6  14
ENDBRANCH   3   6
ENDBRANCH   1   2
BRANCH   1  25
HETATM   25  C15 UNL     1      -0.448   2.659   0.794  1.00  0.00     0.008 C 
BRANCH  25  26
HETATM   26  C16 UNL     1       0.121   3.987   1.034  1.00  0.00    -0.081 C 
HETATM   27  C17 UNL     1      -0.548   5.062   0.153  1.00  0.00     0.034 C 
HETATM   28  C18 UNL     1       0.449   6.134  -0.196  1.00  0.00     0.004 C 
HETATM   29  C19 UNL     1       1.215   6.666   0.983  1.00  0.00     0.001 C 
HETATM   30  C20 UNL     1       1.670   5.609   1.946  1.00  0.00     0.004 C 
HETATM   31  C21 UNL     1       1.563   4.255   1.211  1.00  0.00     0.034 C 
ENDBRANCH  25  26
ENDBRANCH   1  25
BRANCH   1  32
HETATM   32  C22 UNL     1       0.847   1.407  -0.994  1.00  0.00     0.161 C 
HETATM   33  O6  UNL     1       0.610   0.570  -1.951  1.00  0.00    -0.295 OA
BRANCH  32  34
HETATM   34  C23 UNL     1       2.235   1.559  -0.616  1.00  0.00     0.183 C 
BRANCH  34  35
HETATM   35  C24 UNL     1       3.061   0.415  -1.147  1.00  0.00     0.226 C 
HETATM   36  O7  UNL     1       2.486  -0.528  -1.713  1.00  0.00    -0.273 OA
HETATM   37  N4  UNL     1       4.475   0.470  -0.978  1.00  0.00    -0.351 N 
HETATM   38  C25 UNL     1       5.308   1.494  -0.414  1.00  0.00     0.126 C 
HETATM   39  C34 UNL     1       5.328  -0.620  -1.405  1.00  0.00     0.135 C 
HETATM   40  C26 UNL     1       6.684   0.894  -0.206  1.00  0.00     0.031 C 
HETATM   41  C27 UNL     1       6.515  -0.580  -0.488  1.00  0.00    -0.023 C 
HETATM   42  C28 UNL     1       6.343  -1.326   0.794  1.00  0.00     0.011 C 
HETATM   43  C33 UNL     1       7.745  -1.138  -1.207  1.00  0.00     0.011 C 
HETATM   44  C29 UNL     1       7.718  -1.807   1.283  1.00  0.00     0.005 C 
HETATM   45  C30 UNL     1       8.143  -2.948   0.390  1.00  0.00    -0.019 C 
HETATM   46  C31 UNL     1       9.645  -3.105   0.357  1.00  0.00     0.010 C 
HETATM   47  C32 UNL     1       7.652  -2.643  -1.039  1.00  0.00     0.005 C 
ENDBRANCH  34  35
ENDBRANCH  32  34
ENDBRANCH   1  32
TORSDOF 12
