REMARK  4 active torsions:
REMARK  status: ('A' for Active; 'I' for Inactive)
REMARK    1  A    between atoms: N2_5  and  C4_6 
REMARK    2  A    between atoms: C4_6  and  C5_7 
REMARK    3  A    between atoms: C5_7  and  N3_8 
REMARK    4  A    between atoms: C7_13  and  N4_14 
REMARK       I    between atoms: N5_19  and  C9_20 
ROOT
HETATM    1  C5  UNL     1      -1.231   0.135  -0.329  1.00  0.00     0.215 C 
HETATM    2  C6  UNL     1      -1.376   1.427   0.388  1.00  0.00     0.097 C 
HETATM    3  C7  UNL     1      -2.884   1.745   0.430  1.00  0.00     0.205 C 
HETATM    4  C8  UNL     1      -3.441   0.641  -0.442  1.00  0.00     0.161 C 
HETATM    5  N5  UNL     1      -2.561  -0.464  -0.063  1.00  0.00    -0.320 N 
HETATM    6  C9  UNL     1      -2.975  -1.696   0.420  1.00  0.00     0.186 C 
HETATM    7  N6  UNL     1      -3.443  -1.864   1.637  1.00  0.00    -0.374 N 
ATOM      8  H61 UNL     1      -3.748  -2.770   1.992  1.00  0.00     0.158 HD
ATOM      9  H62 UNL     1      -3.486  -1.027   2.219  1.00  0.00     0.158 HD
HETATM   10  N7  UNL     1      -2.916  -2.857  -0.387  1.00  0.00    -0.064 NA
ENDROOT
BRANCH   1  11
HETATM   11  C4  UNL     1      -0.131  -0.772   0.006  1.00  0.00     0.175 C 
BRANCH  11  12
HETATM   12  N2  UNL     1       1.158  -0.276  -0.428  1.00  0.00    -0.211 NA
HETATM   13  C3  UNL     1       2.130  -1.400  -0.376  1.00  0.00     0.134 C 
HETATM   14  C2  UNL     1       3.451  -0.896  -0.861  1.00  0.00     0.157 C 
HETATM   15  N1  UNL     1       4.003   0.023   0.146  1.00  0.00    -0.220 N 
HETATM   16  C1  UNL     1       5.412   0.277   0.287  1.00  0.00     0.168 C 
HETATM   17  C10 UNL     1       3.020   0.640   0.963  1.00  0.00     0.684 C 
HETATM   18  N8  UNL     1       1.669   0.691   0.432  1.00  0.00    -0.152 N 
HETATM   19  N9  UNL     1       3.309   1.134   2.093  1.00  0.00    -0.234 N 
ATOM     20  H8  UNL     1       1.068   1.470   0.701  1.00  0.00     0.199 HD
ATOM     21  H92 UNL     1       4.258   1.098   2.466  1.00  0.00     0.174 HD
ATOM     22  H91 UNL     1       2.603   1.577   2.680  1.00  0.00     0.174 HD
ENDBRANCH  11  12
ENDBRANCH   1  11
BRANCH   1  23
HETATM   23  N3  UNL     1      -1.214   0.306  -1.798  1.00  0.00    -0.051 N 
ATOM     24  H33 UNL     1      -0.312   0.620  -2.155  1.00  0.00     0.277 HD
ATOM     25  H32 UNL     1      -1.254  -0.578  -2.306  1.00  0.00     0.277 HD
ATOM     26  H31 UNL     1      -1.980   0.938  -2.031  1.00  0.00     0.277 HD
ENDBRANCH   1  23
BRANCH   3  27
HETATM   27  N4  UNL     1      -3.166   3.069  -0.068  1.00  0.00    -0.073 N 
ATOM     28  H43 UNL     1      -2.623   3.776   0.428  1.00  0.00     0.274 HD
ATOM     29  H42 UNL     1      -2.784   3.203  -1.004  1.00  0.00     0.274 HD
ATOM     30  H41 UNL     1      -4.164   3.279  -0.040  1.00  0.00     0.274 HD
ENDBRANCH   3  27
TORSDOF 4
