REMARK  18 active torsions:
REMARK  status: ('A' for Active; 'I' for Inactive)
REMARK    1  A    between atoms: C2_2  and  O1_3 
REMARK    2  A    between atoms: O1_3  and  C3_4 
REMARK       I    between atoms: C3_4  and  N1_6 
REMARK    3  A    between atoms: C6_9  and  C7_10 
REMARK    4  A    between atoms: C6_9  and  C24_34 
REMARK    5  A    between atoms: C7_10  and  N2_11 
REMARK    6  A    between atoms: N2_11  and  C9_13 
REMARK    7  A    between atoms: C9_13  and  O3_14 
REMARK    8  A    between atoms: C9_13  and  C10_16 
REMARK    9  A    between atoms: C10_16  and  N3_18 
REMARK   10  A    between atoms: N3_18  and  C12_20 
REMARK   11  A    between atoms: C12_20  and  C13_21 
REMARK   12  A    between atoms: C12_20  and  C18_28 
REMARK   13  A    between atoms: C13_21  and  O5_23 
REMARK   14  A    between atoms: O5_23  and  C14_24 
REMARK       I    between atoms: C24_34  and  N4_36 
REMARK   15  A    between atoms: N4_36  and  C25_38 
REMARK   16  A    between atoms: C25_38  and  C26_39 
REMARK   17  A    between atoms: C25_38  and  C30_46 
REMARK   18  A    between atoms: C26_39  and  C27_40 
ROOT
HETATM    1  C3  UNL     1       5.854   3.196   0.025  1.00  0.00     0.366 C 
HETATM    2  O2  UNL     1       6.870   2.710  -0.406  1.00  0.00    -0.238 OA
HETATM    3  N1  UNL     1       4.559   2.672   0.260  1.00  0.00    -0.308 N 
HETATM    4  C4  UNL     1       3.606   2.576  -0.832  1.00  0.00     0.135 C 
HETATM    5  C5  UNL     1       2.403   1.835  -0.408  1.00  0.00     0.045 C 
HETATM    6  C6  UNL     1       2.717   0.525   0.201  1.00  0.00     0.079 C 
HETATM    7  C31 UNL     1       3.446   0.856   1.537  1.00  0.00     0.069 C 
HETATM    8  C32 UNL     1       4.100   2.140   1.520  1.00  0.00     0.070 C 
ENDROOT
BRANCH   6   9
HETATM    9  C7  UNL     1       1.570  -0.231   0.619  1.00  0.00     0.085 C 
BRANCH   9  10
HETATM   10  N2  UNL     1       0.564  -0.662  -0.325  1.00  0.00    -0.347 N 
HETATM   11  C8  UNL     1       0.563  -0.564  -1.741  1.00  0.00     0.157 C 
BRANCH  10  12
HETATM   12  C9  UNL     1      -0.626  -0.994   0.341  1.00  0.00     0.139 C 
BRANCH  12  13
HETATM   13  O3  UNL     1      -0.711  -2.307   0.229  1.00  0.00    -0.348 OA
ATOM     14  H3  UNL     1      -1.516  -2.532   0.680  1.00  0.00     0.219 HD
ENDBRANCH  12  13
BRANCH  12  15
HETATM   15  C10 UNL     1      -1.669  -0.335   1.063  1.00  0.00     0.148 C 
HETATM   16  C11 UNL     1      -1.488  -0.844   2.519  1.00  0.00     0.040 C 
BRANCH  15  17
HETATM   17  N3  UNL     1      -2.915  -0.795   0.565  1.00  0.00    -0.397 N 
ATOM     18  H3  UNL     1      -3.133  -1.791   0.525  1.00  0.00     0.154 HD
BRANCH  17  19
HETATM   19  C12 UNL     1      -3.855   0.189   0.121  1.00  0.00     0.182 C 
BRANCH  19  20
HETATM   20  C13 UNL     1      -4.605   0.963   1.129  1.00  0.00     0.282 C 
HETATM   21  O4  UNL     1      -4.182   1.254   2.217  1.00  0.00    -0.263 OA
BRANCH  20  22
HETATM   22  O5  UNL     1      -5.934   1.272   0.759  1.00  0.00    -0.310 OA
BRANCH  22  23
HETATM   23  C14 UNL     1      -6.855   1.686   1.744  1.00  0.00     0.060 C 
HETATM   24  C15 UNL     1      -6.553   2.647   2.777  1.00  0.00     0.045 C 
HETATM   25  C16 UNL     1      -7.277   0.280   2.300  1.00  0.00     0.045 C 
HETATM   26  C17 UNL     1      -8.113   2.153   0.996  1.00  0.00     0.045 C 
ENDBRANCH  22  23
ENDBRANCH  20  22
ENDBRANCH  19  20
BRANCH  19  27
HETATM   27  C18 UNL     1      -4.759  -0.324  -0.951  1.00  0.00     0.018 C 
HETATM   28  C19 UNL     1      -4.224  -0.292  -2.346  1.00  0.00     0.007 C 
HETATM   29  C20 UNL     1      -5.274  -0.898  -3.248  1.00  0.00     0.000 C 
HETATM   30  C21 UNL     1      -6.544  -1.268  -2.518  1.00  0.00     0.000 C 
HETATM   31  C22 UNL     1      -6.284  -2.214  -1.363  1.00  0.00     0.000 C 
HETATM   32  C23 UNL     1      -4.954  -1.872  -0.712  1.00  0.00     0.007 C 
ENDBRANCH  19  27
ENDBRANCH  17  19
ENDBRANCH  15  17
ENDBRANCH  12  15
ENDBRANCH  10  12
ENDBRANCH   9  10
ENDBRANCH   6   9
BRANCH   6  33
HETATM   33  C24 UNL     1       3.769  -0.281  -0.503  1.00  0.00     0.236 C 
HETATM   34  O6  UNL     1       4.320   0.039  -1.592  1.00  0.00    -0.272 OA
HETATM   35  N4  UNL     1       4.147  -1.473  -0.004  1.00  0.00    -0.324 N 
ATOM     36  H4  UNL     1       3.724  -1.667   0.904  1.00  0.00     0.169 HD
BRANCH  35  37
HETATM   37  C25 UNL     1       5.031  -2.568  -0.461  1.00  0.00     0.094 C 
BRANCH  37  38
HETATM   38  C26 UNL     1       4.334  -3.591  -1.286  1.00  0.00     0.122 C 
BRANCH  38  39
HETATM   39  C27 UNL     1       5.116  -4.940  -1.112  1.00  0.00     0.021 A 
HETATM   40  C28 UNL     1       4.424  -5.990  -0.670  1.00  0.00     0.076 A 
HETATM   41  S1  UNL     1       5.779  -7.091  -0.190  1.00  0.00    -0.095 SA
HETATM   42  C29 UNL     1       7.002  -5.976  -0.845  1.00  0.00     0.138 A 
HETATM   43  N5  UNL     1       6.339  -4.964  -1.206  1.00  0.00    -0.363 N 
ATOM     44  H5  UNL     1       6.829  -4.152  -1.582  1.00  0.00     0.165 HD
ENDBRANCH  38  39
ENDBRANCH  37  38
BRANCH  37  45
HETATM   45  C30 UNL     1       6.032  -2.846   0.485  1.00  0.00     0.222 C 
HETATM   46  O7  UNL     1       7.214  -2.530   0.409  1.00  0.00    -0.643 OA
HETATM   47  O8  UNL     1       5.619  -3.472   1.657  1.00  0.00    -0.643 OA
ENDBRANCH  37  45
ENDBRANCH  35  37
ENDBRANCH   6  33
BRANCH   1  48
HETATM   48  O1  UNL     1       5.928   4.595   0.395  1.00  0.00    -0.304 OA
BRANCH  48  49
HETATM   49  C2  UNL     1       7.165   5.274   0.257  1.00  0.00     0.176 C 
HETATM   50  C1  UNL     1       7.000   6.687  -0.234  1.00  0.00     0.034 C 
ENDBRANCH  48  49
ENDBRANCH   1  48
TORSDOF 18
