REMARK  10 active torsions:
REMARK  status: ('A' for Active; 'I' for Inactive)
REMARK    1  A    between atoms: C2_2  and  N1_3 
REMARK    2  A    between atoms: C2_2  and  C20_31 
REMARK       I    between atoms: N1_3  and  C3_5 
REMARK    3  A    between atoms: C3_5  and  C4_7 
REMARK       I    between atoms: N2_12  and  C9_13 
REMARK    4  A    between atoms: C9_13  and  C10_15 
REMARK    5  A    between atoms: C10_15  and  N3_16 
REMARK    6  A    between atoms: C10_15  and  C16_27 
REMARK       I    between atoms: N3_16  and  C11_18 
REMARK    7  A    between atoms: C11_18  and  O4_20 
REMARK    8  A    between atoms: O4_20  and  C12_21 
REMARK    9  A    between atoms: C12_21  and  C13_22 
REMARK   10  A    between atoms: C13_22  and  O5_25 
ROOT
HETATM    1  C4  UNL     1       1.708  -0.991  -0.301  1.00  0.00     0.179 C 
HETATM    2  C5  UNL     1       1.680  -2.497  -0.385  1.00  0.00     0.035 C 
HETATM    3  C6  UNL     1       0.290  -3.024  -0.173  1.00  0.00     0.004 C 
HETATM    4  C7  UNL     1      -0.162  -2.766   1.256  1.00  0.00     0.020 C 
HETATM    5  C8  UNL     1       0.361  -1.408   1.722  1.00  0.00     0.127 C 
HETATM    6  N2  UNL     1       0.613  -0.571   0.555  1.00  0.00    -0.337 N 
HETATM    7  C9  UNL     1      -0.175   0.534   0.258  1.00  0.00     0.244 C 
HETATM    8  O2  UNL     1       0.118   1.132  -0.852  1.00  0.00    -0.271 OA
ENDROOT
BRANCH   7   9
HETATM    9  C10 UNL     1      -1.288   1.115   1.015  1.00  0.00     0.186 C 
BRANCH   9  10
HETATM   10  N3  UNL     1      -2.306   1.496   0.038  1.00  0.00    -0.323 N 
HETATM   11  C11 UNL     1      -3.663   1.031   0.168  1.00  0.00     0.361 C 
HETATM   12  O3  UNL     1      -3.942   0.291   1.145  1.00  0.00    -0.238 OA
ATOM     13  H3  UNL     1      -2.052   2.098  -0.745  1.00  0.00     0.165 HD
BRANCH  11  14
HETATM   14  O4  UNL     1      -4.640   1.344  -0.692  1.00  0.00    -0.301 OA
BRANCH  14  15
HETATM   15  C12 UNL     1      -5.952   1.073  -0.856  1.00  0.00     0.217 C 
BRANCH  15  16
HETATM   16  C13 UNL     1      -6.450  -0.278  -1.176  1.00  0.00     0.072 C 
HETATM   17  C14 UNL     1      -5.967  -0.810  -2.505  1.00  0.00     0.047 C 
HETATM   18  C15 UNL     1      -6.233  -1.302  -0.109  1.00  0.00     0.047 C 
BRANCH  16  19
HETATM   19  O5  UNL     1      -7.876  -0.181  -1.312  1.00  0.00    -0.388 OA
ATOM     20  H5  UNL     1      -8.197  -1.051  -1.518  1.00  0.00     0.210 HD
ENDBRANCH  16  19
ENDBRANCH  15  16
ENDBRANCH  14  15
ENDBRANCH  11  14
ENDBRANCH   9  10
BRANCH   9  21
HETATM   21  C16 UNL     1      -0.861   2.325   1.815  1.00  0.00    -0.022 C 
HETATM   22  C17 UNL     1       0.201   1.963   2.816  1.00  0.00     0.017 C 
HETATM   23  C18 UNL     1      -0.296   3.352   0.872  1.00  0.00     0.017 C 
HETATM   24  C19 UNL     1      -2.026   2.891   2.618  1.00  0.00     0.017 C 
ENDBRANCH   9  21
ENDBRANCH   7   9
BRANCH   1  25
HETATM   25  C3  UNL     1       3.018  -0.470   0.077  1.00  0.00     0.241 C 
HETATM   26  N1  UNL     1       4.130  -0.629  -0.798  1.00  0.00    -0.355 N 
ATOM     27  H1  UNL     1       4.003  -1.112  -1.687  1.00  0.00     0.162 HD
HETATM   28  O1  UNL     1       3.224   0.127   1.157  1.00  0.00    -0.271 OA
BRANCH  26  29
HETATM   29  C2  UNL     1       5.450  -0.112  -0.443  1.00  0.00     0.084 C 
HETATM   30  C1  UNL     1       5.765   1.095  -1.314  1.00  0.00     0.032 C 
BRANCH  29  31
HETATM   31  C20 UNL     1       6.481  -1.194  -0.628  1.00  0.00     0.008 A 
HETATM   32  C21 UNL     1       7.907  -0.894  -0.311  1.00  0.00     0.007 A 
HETATM   33  C22 UNL     1       7.506  -1.031  -1.721  1.00  0.00     0.007 A 
ENDBRANCH  29  31
ENDBRANCH  26  29
ENDBRANCH   1  25
TORSDOF 10
