REMARK  7 active torsions:
REMARK  status: ('A' for Active; 'I' for Inactive)
REMARK    1  A    between atoms: N1_1  and  N2_4 
REMARK    2  A    between atoms: N2_4  and  C1_5 
REMARK    3  A    between atoms: C3_9  and  N4_10 
REMARK    4  A    between atoms: N4_10  and  C4_12 
REMARK    5  A    between atoms: C4_12  and  C5_13 
REMARK    6  A    between atoms: C5_13  and  O1_14 
REMARK    7  A    between atoms: C5_13  and  C6_16 
ROOT
HETATM    1  C4  UNL     1       1.145   0.660  -0.767  1.00  0.00     0.146 C 
ENDROOT
BRANCH   1   2
HETATM    2  N4  UNL     1       2.452   0.217  -1.196  1.00  0.00    -0.406 N 
ATOM      3  H4  UNL     1       2.766   0.312  -2.162  1.00  0.00     0.154 HD
BRANCH   2   4
HETATM    4  C3  UNL     1       3.271  -0.357  -0.193  1.00  0.00     0.179 C 
HETATM    5  C1  UNL     1       3.700   0.434   0.950  1.00  0.00     0.199 C 
HETATM    6  N3  UNL     1       5.001  -0.178   0.833  1.00  0.00    -0.363 N 
HETATM    7  C2  UNL     1       4.738  -0.262  -0.589  1.00  0.00     0.156 C 
ATOM      8  H3  UNL     1       5.760  -0.435   1.464  1.00  0.00     0.162 HD
BRANCH   5   9
HETATM    9  N2  UNL     1       3.297   1.282   1.770  1.00  0.00    -0.317 NA
BRANCH   9  10
HETATM   10  N1  UNL     1       2.931   2.150   2.569  1.00  0.00    -0.279 N 
ATOM     11  H12 UNL     1       3.740   2.364   1.986  1.00  0.00     0.191 HD
ATOM     12  H11 UNL     1       2.601   2.844   3.240  1.00  0.00     0.191 HD
ENDBRANCH   9  10
ENDBRANCH   5   9
ENDBRANCH   2   4
ENDBRANCH   1   2
BRANCH   1  13
HETATM   13  C5  UNL     1       0.262  -0.508  -0.388  1.00  0.00     0.141 C 
BRANCH  13  14
HETATM   14  O1  UNL     1       0.124  -1.357  -1.516  1.00  0.00    -0.394 OA
ATOM     15  H1  UNL     1      -0.431  -2.091  -1.278  1.00  0.00     0.210 HD
ENDBRANCH  13  14
BRANCH  13  16
HETATM   16  C6  UNL     1      -1.154  -0.085  -0.062  1.00  0.00     0.042 C 
HETATM   17  C7  UNL     1      -1.887  -1.378   0.291  1.00  0.00     0.009 C 
HETATM   18  C8  UNL     1      -3.358  -1.304   0.075  1.00  0.00     0.002 C 
HETATM   19  C9  UNL     1      -3.904   0.062  -0.184  1.00  0.00     0.027 C 
HETATM   20  C10 UNL     1      -3.700   0.911   1.029  1.00  0.00     0.232 C 
HETATM   21  N5  UNL     1      -2.479   1.652   1.047  1.00  0.00    -0.075 N 
HETATM   22  C11 UNL     1      -1.288   0.830   1.100  1.00  0.00     0.239 C 
ATOM     23  H52 UNL     1      -2.437   2.291   0.253  1.00  0.00     0.277 HD
ATOM     24  H51 UNL     1      -2.482   2.327   1.812  1.00  0.00     0.277 HD
ENDBRANCH  13  16
ENDBRANCH   1  13
TORSDOF 7
