REMARK  3 active torsions:
REMARK  status: ('A' for Active; 'I' for Inactive)
REMARK       I    between atoms: C1_4  and  N3_6 
REMARK    1  A    between atoms: C3_8  and  O1_9 
REMARK    2  A    between atoms: O1_9  and  C4_10 
REMARK    3  A    between atoms: C4_10  and  C5_11 
REMARK       I    between atoms: N4_15  and  C9_16 
ROOT
HETATM    1  C4  UNL     1      -0.612   0.301   0.239  1.00  0.00     0.193 C 
ENDROOT
BRANCH   1   2
HETATM    2  O1  UNL     1       0.567  -0.336  -0.115  1.00  0.00    -0.381 OA
BRANCH   2   3
HETATM    3  C3  UNL     1       1.685   0.231   0.488  1.00  0.00     0.157 C 
HETATM    4  C2  UNL     1       2.605  -0.827   1.062  1.00  0.00     0.159 C 
HETATM    5  N3  UNL     1       3.721  -0.055   0.566  1.00  0.00    -0.351 N 
HETATM    6  C1  UNL     1       5.084   0.105   0.911  1.00  0.00     0.184 C 
HETATM    7  C10 UNL     1       2.844   0.490  -0.445  1.00  0.00     0.159 C 
HETATM    8  N1  UNL     1       5.430   0.426   2.133  1.00  0.00    -0.374 N 
HETATM    9  N2  UNL     1       6.142  -0.064  -0.011  1.00  0.00    -0.064 NA
ATOM     10  H12 UNL     1       6.412   0.541   2.382  1.00  0.00     0.158 HD
ATOM     11  H11 UNL     1       4.667   0.548   2.798  1.00  0.00     0.158 HD
ENDBRANCH   2   3
ENDBRANCH   1   2
BRANCH   1  12
HETATM   12  C5  UNL     1      -1.737  -0.413  -0.483  1.00  0.00     0.110 C 
HETATM   13  C6  UNL     1      -1.534  -0.333  -1.980  1.00  0.00     0.029 C 
HETATM   14  C7  UNL     1      -2.926  -0.372  -2.516  1.00  0.00     0.022 C 
HETATM   15  C8  UNL     1      -3.719   0.389  -1.446  1.00  0.00     0.126 C 
HETATM   16  N4  UNL     1      -3.019   0.142  -0.208  1.00  0.00    -0.349 N 
HETATM   17  C9  UNL     1      -3.545   0.416   1.077  1.00  0.00     0.184 C 
HETATM   18  N5  UNL     1      -3.128   1.349   1.835  1.00  0.00    -0.374 N 
HETATM   19  N6  UNL     1      -4.618  -0.447   1.509  1.00  0.00    -0.064 NA
ATOM     20  H52 UNL     1      -2.370   1.959   1.530  1.00  0.00     0.158 HD
ATOM     21  H51 UNL     1      -3.507   1.546   2.761  1.00  0.00     0.158 HD
ENDBRANCH   1  12
TORSDOF 3
