REMARK  5 active torsions:
REMARK  status: ('A' for Active; 'I' for Inactive)
REMARK    1  A    between atoms: O1_2  and  C2_3 
REMARK    2  A    between atoms: C2_3  and  C3_4 
REMARK    3  A    between atoms: C3_4  and  N1_5 
REMARK    4  A    between atoms: N1_5  and  C4_7 
REMARK    5  A    between atoms: N3_14  and  C8_16 
ROOT
HETATM    1  C4  UNL     1       1.583  -0.648  -0.282  1.00  0.00     0.679 A 
HETATM    2  N2  UNL     1       1.600  -1.917  -0.730  1.00  0.00    -0.201 N 
ATOM      3  H2  UNL     1       2.479  -2.333  -1.037  1.00  0.00     0.183 HD
HETATM    4  C5  UNL     1       0.470  -2.639  -0.776  1.00  0.00     0.129 A 
HETATM    5  C6  UNL     1      -0.737  -2.091  -0.362  1.00  0.00     0.071 A 
HETATM    6 BR1  UNL     1      -2.315  -3.171  -0.450  1.00  0.00    -0.046 Br
HETATM    7  C7  UNL     1      -0.764  -0.798   0.096  1.00  0.00     0.136 A 
HETATM    8  N3  UNL     1      -1.757  -0.180   0.495  1.00  0.00    -0.370 N 
ATOM      9  H3  UNL     1      -1.497   0.765   0.778  1.00  0.00     0.161 HD
HETATM   10  N4  UNL     1       0.431  -0.133   0.110  1.00  0.00    -0.176 N 
ATOM     11  H4  UNL     1       0.433   0.830   0.447  1.00  0.00     0.186 HD
ENDROOT
BRANCH   8  12
HETATM   12  C8  UNL     1      -3.121  -0.380   0.676  1.00  0.00     0.083 C 
HETATM   13  C9  UNL     1      -3.617   0.742   1.619  1.00  0.00     0.025 C 
HETATM   14  C10 UNL     1      -3.857   1.853   0.629  1.00  0.00     0.002 C 
HETATM   15  C11 UNL     1      -4.665   1.144  -0.438  1.00  0.00     0.002 C 
HETATM   16  C12 UNL     1      -3.971  -0.194  -0.561  1.00  0.00     0.025 C 
ENDBRANCH   8  12
BRANCH   1  17
HETATM   17  N1  UNL     1       2.702  -0.027  -0.272  1.00  0.00    -0.224 N 
ATOM     18  H1  UNL     1       2.706   0.936   0.065  1.00  0.00     0.177 HD
BRANCH  17  19
HETATM   19  C3  UNL     1       3.946  -0.586  -0.699  1.00  0.00     0.164 C 
BRANCH  19  20
HETATM   20  C2  UNL     1       5.100   0.352  -0.789  1.00  0.00     0.187 C 
BRANCH  20  21
HETATM   21  O1  UNL     1       5.527   0.983   0.305  1.00  0.00    -0.394 OA
HETATM   22  C1  UNL     1       4.661   1.796   0.944  1.00  0.00     0.201 C 
ENDBRANCH  20  21
ENDBRANCH  19  20
ENDBRANCH  17  19
ENDBRANCH   1  17
TORSDOF 5
