REMARK  6 active torsions:
REMARK  status: ('A' for Active; 'I' for Inactive)
REMARK    1  A    between atoms: N2_5  and  C4_6 
REMARK    2  A    between atoms: C4_6  and  C5_7 
REMARK    3  A    between atoms: C5_7  and  N3_8 
REMARK    4  A    between atoms: N3_8  and  C6_10 
REMARK    5  A    between atoms: C6_10  and  N4_12 
REMARK    6  A    between atoms: N4_12  and  C7_14 
ROOT
HETATM    1  C6  UNL     1      -1.321  -0.767   0.595  1.00  0.00     0.167 C 
HETATM    2  S1  UNL     1      -1.341   0.776   0.099  1.00  0.00    -0.041 SA
ENDROOT
BRANCH   1   3
HETATM    3  N3  UNL     1      -0.069  -1.387   0.828  1.00  0.00    -0.366 N 
ATOM      4  H3  UNL     1      -0.096  -2.352   1.158  1.00  0.00     0.161 HD
BRANCH   3   5
HETATM    5  C5  UNL     1       1.222  -0.815   0.654  1.00  0.00     0.141 C 
BRANCH   5   6
HETATM    6  C4  UNL     1       1.575  -0.585  -0.772  1.00  0.00     0.141 C 
BRANCH   6   7
HETATM    7  N2  UNL     1       2.854  -0.026  -1.001  1.00  0.00    -0.389 N 
HETATM    8  C3  UNL     1       3.102   1.299  -0.597  1.00  0.00     0.077 C 
HETATM    9  C2  UNL     1       4.177   1.439   0.456  1.00  0.00     0.160 C 
HETATM   10  N1  UNL     1       5.291   0.569   0.286  1.00  0.00    -0.411 N 
HETATM   11  C1  UNL     1       6.405   1.160  -0.383  1.00  0.00     0.143 C 
HETATM   12  C14 UNL     1       5.000  -0.778  -0.078  1.00  0.00     0.136 C 
HETATM   13  C13 UNL     1       3.951  -0.906  -1.129  1.00  0.00     0.141 C 
ENDBRANCH   6   7
ENDBRANCH   5   6
ENDBRANCH   3   5
ENDBRANCH   1   3
BRANCH   1  14
HETATM   14  N4  UNL     1      -2.557  -1.431   0.790  1.00  0.00    -0.363 N 
ATOM     15  H4  UNL     1      -2.504  -2.397   1.114  1.00  0.00     0.162 HD
BRANCH  14  16
HETATM   16  C7  UNL     1      -3.860  -0.907   0.587  1.00  0.00     0.084 C 
HETATM   17  C8  UNL     1      -4.153   0.259   1.460  1.00  0.00     0.031 C 
HETATM   18  C9  UNL     1      -5.009   1.307   0.783  1.00  0.00     0.081 C 
HETATM   19  C10 UNL     1      -6.112   0.682  -0.039  1.00  0.00     0.243 C 
HETATM   20  F1  UNL     1      -6.865   1.704  -0.584  1.00  0.00    -0.206 F 
HETATM   21  F2  UNL     1      -6.970  -0.069   0.741  1.00  0.00    -0.206 F 
HETATM   22  C11 UNL     1      -5.510  -0.114  -1.145  1.00  0.00     0.081 C 
HETATM   23  C12 UNL     1      -4.139  -0.646  -0.878  1.00  0.00     0.031 C 
ENDBRANCH  14  16
ENDBRANCH   1  14
TORSDOF 6
