REMARK  3 active torsions:
REMARK  status: ('A' for Active; 'I' for Inactive)
REMARK    1  A    between atoms: N1_2  and  C3_4 
REMARK    2  A    between atoms: C6_13  and  N5_14 
REMARK    3  A    between atoms: N5_14  and  C7_16 
ROOT
HETATM    1  C3  UNL     1      -3.176  -0.510   0.179  1.00  0.00     0.135 A 
HETATM    2  N2  UNL     1      -3.916  -1.490   0.726  1.00  0.00    -0.337 N 
ATOM      3  H2  UNL     1      -4.841  -1.676   0.338  1.00  0.00     0.168 HD
HETATM    4  C4  UNL     1      -3.491  -2.238   1.763  1.00  0.00     0.183 A 
HETATM    5  N3  UNL     1      -2.285  -2.053   2.327  1.00  0.00    -0.336 N 
ATOM      6  H3  UNL     1      -1.971  -2.624   3.112  1.00  0.00     0.168 HD
HETATM    7  C5  UNL     1      -1.506  -1.075   1.807  1.00  0.00     0.153 A 
HETATM    8  N4  UNL     1      -0.267  -0.629   2.123  1.00  0.00    -0.174 N 
ATOM      9  H4  UNL     1       0.312  -1.005   2.873  1.00  0.00     0.186 HD
HETATM   10  C6  UNL     1       0.096   0.389   1.301  1.00  0.00     0.686 A 
HETATM   11  N8  UNL     1      -0.955   0.574   0.453  1.00  0.00    -0.184 N 
ATOM     12  H8  UNL     1      -0.994   1.272  -0.290  1.00  0.00     0.184 HD
HETATM   13  C14 UNL     1      -1.933  -0.303   0.744  1.00  0.00     0.137 A 
ENDROOT
BRANCH  10  14
HETATM   14  N5  UNL     1       1.272   1.078   1.347  1.00  0.00    -0.175 N 
ATOM     15  H5  UNL     1       1.188   1.881   1.970  1.00  0.00     0.186 HD
BRANCH  14  16
HETATM   16  C7  UNL     1       2.409   1.026   0.864  1.00  0.00     0.133 A 
HETATM   17  N6  UNL     1       3.305   1.997   1.228  1.00  0.00    -0.351 N 
HETATM   18  C8  UNL     1       4.559   2.052   0.777  1.00  0.00     0.092 A 
ATOM     19  H6  UNL     1       2.996   2.718   1.880  1.00  0.00     0.166 HD
HETATM   20  C9  UNL     1       4.972   1.080  -0.101  1.00  0.00     0.047 A 
HETATM   21  C10 UNL     1       4.098   0.072  -0.500  1.00  0.00     0.047 A 
HETATM   22  N7  UNL     1       4.284  -0.980  -1.348  1.00  0.00    -0.365 N 
HETATM   23  C13 UNL     1       2.809   0.047  -0.014  1.00  0.00     0.036 A 
HETATM   24  C11 UNL     1       3.133  -1.654  -1.393  1.00  0.00     0.089 A 
ATOM     25  H7  UNL     1       5.141  -1.208  -1.852  1.00  0.00     0.165 HD
HETATM   26  C12 UNL     1       2.192  -1.056  -0.584  1.00  0.00     0.034 A 
ENDBRANCH  14  16
ENDBRANCH  10  14
BRANCH   1  27
HETATM   27  N1  UNL     1      -3.622   0.270  -0.903  1.00  0.00    -0.374 N 
HETATM   28  C1  UNL     1      -4.956  -0.020  -1.439  1.00  0.00     0.150 C 
HETATM   29  C2  UNL     1      -2.835   1.310  -1.483  1.00  0.00     0.150 C 
ENDBRANCH   1  27
TORSDOF 3
