REMARK  3 active torsions:
REMARK  status: ('A' for Active; 'I' for Inactive)
REMARK    1  A    between atoms: C6_8  and  C7_9 
REMARK    2  A    between atoms: C7_9  and  N3_10 
REMARK       I    between atoms: N3_10  and  C8_12 
REMARK    3  A    between atoms: C11_19  and  O1_20 
ROOT
HETATM    1  C1  UNL     1      -3.659   0.311   0.445  1.00  0.00     0.274 C 
HETATM    2  N1  UNL     1      -2.232  -0.052   0.600  1.00  0.00    -0.041 N 
HETATM    3  C2  UNL     1      -2.311  -1.432   1.003  1.00  0.00     0.274 C 
HETATM    4  C3  UNL     1      -1.708   0.798   1.625  1.00  0.00     0.267 C 
HETATM    5  C4  UNL     1      -0.699   1.680   0.898  1.00  0.00     0.268 C 
HETATM    6  N2  UNL     1      -0.311   0.971  -0.287  1.00  0.00    -0.032 N 
HETATM    7  C5  UNL     1      -0.173   2.019  -1.328  1.00  0.00     0.276 C 
HETATM    8  C6  UNL     1       0.958   0.321  -0.223  1.00  0.00     0.210 C 
HETATM    9  C9  UNL     1       1.160  -0.671  -1.330  1.00  0.00     0.038 C 
HETATM   10  C10 UNL     1       0.012  -1.583  -1.570  1.00  0.00     0.037 C 
HETATM   11  C11 UNL     1      -1.318  -0.934  -1.523  1.00  0.00     0.177 C 
HETATM   12  C12 UNL     1      -1.472   0.213  -0.597  1.00  0.00     0.419 C 
ENDROOT
BRANCH   8  13
HETATM   13  C7  UNL     1       1.350  -0.209   1.113  1.00  0.00     0.155 C 
BRANCH  13  14
HETATM   14  N3  UNL     1       2.647  -0.844   1.054  1.00  0.00    -0.363 N 
HETATM   15  C8  UNL     1       3.874  -0.159   0.882  1.00  0.00     0.181 C 
HETATM   16  N4  UNL     1       3.916   1.124   0.833  1.00  0.00    -0.374 N 
HETATM   17  N5  UNL     1       5.082  -0.868   0.779  1.00  0.00    -0.064 NA
ATOM     18  H42 UNL     1       3.039   1.639   0.908  1.00  0.00     0.158 HD
ATOM     19  H41 UNL     1       4.800   1.618   0.709  1.00  0.00     0.158 HD
ATOM     20  H3  UNL     1       2.681  -1.860   1.143  1.00  0.00     0.162 HD
ENDBRANCH  13  14
ENDBRANCH   8  13
BRANCH  11  21
HETATM   21  O1  UNL     1      -1.701  -0.631  -2.855  1.00  0.00    -0.392 OA
ATOM     22  H1  UNL     1      -2.554  -0.215  -2.825  1.00  0.00     0.210 HD
ENDBRANCH  11  21
TORSDOF 3
