REMARK  2 active torsions:
REMARK  status: ('A' for Active; 'I' for Inactive)
REMARK       I    between atoms: N4_11  and  C5_13 
REMARK       I    between atoms: C5_13  and  N5_15 
REMARK    1  A    between atoms: N5_15  and  C6_17 
REMARK    2  A    between atoms: C6_17  and  C7_18 
ROOT
HETATM    1  C1  UNL     1       7.301   1.015  -0.591  1.00  0.00     0.070 C 
HETATM    2  C2  UNL     1       5.990   0.464  -0.142  1.00  0.00     0.025 A 
HETATM    3  N1  UNL     1       5.753  -0.610   0.625  1.00  0.00    -0.343 N 
ATOM      4  H1  UNL     1       6.477  -1.213   1.015  1.00  0.00     0.167 HD
HETATM    5  C3  UNL     1       4.418  -0.788   0.813  1.00  0.00     0.136 A 
HETATM    6  N2  UNL     1       3.459  -1.533   1.383  1.00  0.00    -0.283 N 
ATOM      7  H2  UNL     1       3.642  -2.358   1.955  1.00  0.00     0.188 HD
HETATM    8  N3  UNL     1       2.252  -1.074   1.117  1.00  0.00    -0.283 N 
ATOM      9  H3  UNL     1       1.367  -1.468   1.436  1.00  0.00     0.188 HD
HETATM   10  C4  UNL     1       2.411   0.008   0.348  1.00  0.00     0.139 A 
HETATM   11  N4  UNL     1       1.470   0.734  -0.119  1.00  0.00    -0.293 N 
ATOM     12  H4  UNL     1       1.667   1.548  -0.702  1.00  0.00     0.172 HD
HETATM   13  C5  UNL     1       0.110   0.355   0.213  1.00  0.00     0.325 C 
HETATM   14  O1  UNL     1      -0.353   0.944   1.197  1.00  0.00    -0.247 OA
HETATM   15  N5  UNL     1      -0.514  -0.603  -0.586  1.00  0.00    -0.322 N 
ATOM     16  H5  UNL     1       0.083  -0.957  -1.333  1.00  0.00     0.169 HD
HETATM   17  C13 UNL     1       3.757   0.223   0.133  1.00  0.00     0.074 A 
HETATM   18  C14 UNL     1       4.749   0.983  -0.449  1.00  0.00     0.051 A 
HETATM   19 BR1  UNL     1       4.384   2.532  -1.522  1.00  0.00    -0.048 Br
ENDROOT
BRANCH  15  20
HETATM   20  C6  UNL     1      -1.797  -1.182  -0.575  1.00  0.00     0.070 C 
BRANCH  20  21
HETATM   21  C7  UNL     1      -2.918  -0.268  -0.918  1.00  0.00     0.024 C 
HETATM   22  C8  UNL     1      -4.247  -1.043  -0.891  1.00  0.00     0.010 C 
HETATM   23  C9  UNL     1      -5.075  -0.707   0.330  1.00  0.00     0.001 C 
HETATM   24  C10 UNL     1      -5.474   0.762   0.310  1.00  0.00     0.000 C 
HETATM   25  C11 UNL     1      -4.453   1.563  -0.479  1.00  0.00     0.001 C 
HETATM   26  C12 UNL     1      -3.072   0.964  -0.128  1.00  0.00     0.010 C 
ENDBRANCH  20  21
ENDBRANCH  15  20
TORSDOF 2
