REMARK  1 active torsions:
REMARK  status: ('A' for Active; 'I' for Inactive)
REMARK       I    between atoms: N3_13  and  C9_15 
REMARK    1  A    between atoms: N5_17  and  C10_19 
ROOT
HETATM    1  C1  UNL     1       0.645  -2.592  -0.435  1.00  0.00     0.040 C 
HETATM    2  C2  UNL     1       1.438  -1.360  -0.752  1.00  0.00     0.156 C 
HETATM    3  N1  UNL     1       2.758  -1.535  -0.181  1.00  0.00    -0.348 N 
ATOM      4  H1  UNL     1       3.115  -2.463   0.045  1.00  0.00     0.163 HD
HETATM    5  C3  UNL     1       3.538  -0.372   0.053  1.00  0.00     0.249 C 
HETATM    6  O1  UNL     1       4.777  -0.460   0.256  1.00  0.00    -0.271 OA
HETATM    7  C4  UNL     1       2.824   0.930   0.047  1.00  0.00     0.284 C 
HETATM    8  C5  UNL     1       3.592   2.000   0.784  1.00  0.00     0.051 C 
HETATM    9  N2  UNL     1       1.515   0.696   0.622  1.00  0.00    -0.019 N 
HETATM   10  C6  UNL     1       0.834   1.943   0.895  1.00  0.00     0.281 C 
HETATM   11  C7  UNL     1       1.555  -0.073   1.834  1.00  0.00     0.281 C 
HETATM   12  C8  UNL     1       0.813  -0.096  -0.360  1.00  0.00     0.209 C 
HETATM   13  N3  UNL     1      -0.284   0.383  -0.799  1.00  0.00    -0.312 N 
ATOM     14  H3  UNL     1      -0.577   1.282  -0.417  1.00  0.00     0.169 HD
HETATM   15  C9  UNL     1      -1.134  -0.206  -1.760  1.00  0.00     0.190 C 
HETATM   16  N4  UNL     1      -0.627  -0.699  -3.018  1.00  0.00    -0.063 NA
HETATM   17  N5  UNL     1      -2.399  -0.348  -1.600  1.00  0.00    -0.356 N 
ATOM     18  H5  UNL     1      -2.906  -0.789  -2.367  1.00  0.00     0.163 HD
ENDROOT
BRANCH  17  19
HETATM   19  C10 UNL     1      -3.174   0.043  -0.469  1.00  0.00     0.021 C 
HETATM   20  C11 UNL     1      -3.028   1.475  -0.075  1.00  0.00     0.037 C 
HETATM   21  C12 UNL     1      -2.825  -0.855   0.697  1.00  0.00     0.037 C 
HETATM   22  C13 UNL     1      -4.648  -0.201  -0.801  1.00  0.00     0.037 C 
ENDBRANCH  17  19
TORSDOF 1
