REMARK  1 active torsions:
REMARK  status: ('A' for Active; 'I' for Inactive)
REMARK       I    between atoms: C3_5  and  N3_7 
REMARK       I    between atoms: C4_9  and  N4_10 
REMARK       I    between atoms: C4_9  and  N5_17 
REMARK    1  A    between atoms: N4_10  and  C5_12 
ROOT
HETATM    1  C1  UNL     1      -0.800   5.632   1.157  1.00  0.00     0.037 C 
HETATM    2  C2  UNL     1      -0.997   4.433   1.049  1.00  0.00     0.001 C 
HETATM    3  N1  UNL     1      -1.227   3.059   0.907  1.00  0.00    -0.289 N 
ATOM      4  H1  UNL     1      -1.286   2.473   1.740  1.00  0.00     0.179 HD
HETATM    5  C3  UNL     1      -1.364   2.526  -0.241  1.00  0.00     0.214 C 
HETATM    6  N2  UNL     1      -1.285   3.324  -1.395  1.00  0.00    -0.062 NA
HETATM    7  N3  UNL     1      -1.594   1.146  -0.351  1.00  0.00    -0.163 N 
ATOM      8  H3  UNL     1      -2.455   0.852  -0.813  1.00  0.00     0.187 HD
HETATM    9  C4  UNL     1      -0.816   0.224   0.079  1.00  0.00     0.678 C 
HETATM   10  N4  UNL     1       0.386   0.583   0.725  1.00  0.00    -0.221 N 
ATOM     11  H4  UNL     1       0.437   0.486   1.739  1.00  0.00     0.178 HD
HETATM   12  N5  UNL     1      -1.196  -1.122  -0.113  1.00  0.00    -0.218 N 
HETATM   13  C10 UNL     1      -2.168  -1.507  -1.128  1.00  0.00     0.141 C 
HETATM   14  C11 UNL     1      -2.087  -3.016  -1.254  1.00  0.00     0.020 C 
HETATM   15  C12 UNL     1      -2.604  -3.609   0.034  1.00  0.00     0.003 C 
HETATM   16  C13 UNL     1      -1.734  -3.129   1.177  1.00  0.00     0.020 C 
HETATM   17  C14 UNL     1      -0.640  -2.199   0.691  1.00  0.00     0.141 C 
ENDROOT
BRANCH  10  18
HETATM   18  C5  UNL     1       1.549   1.081   0.024  1.00  0.00     0.099 C 
HETATM   19  C6  UNL     1       2.643   1.358   1.039  1.00  0.00     0.026 C 
HETATM   20  C7  UNL     1       3.885   0.679   0.501  1.00  0.00     0.002 C 
HETATM   21  C8  UNL     1       3.271  -0.544  -0.182  1.00  0.00     0.002 C 
HETATM   22  C9  UNL     1       2.125   0.081  -0.943  1.00  0.00     0.026 C 
ENDBRANCH  10  18
TORSDOF 1
