REMARK  0 active torsions:
REMARK  status: ('A' for Active; 'I' for Inactive)
ROOT
HETATM    1  C1  UNL     1      -4.589   1.004  -0.305  1.00  0.00     0.003 C 
HETATM    2  C2  UNL     1      -3.739   1.271   0.903  1.00  0.00     0.028 C 
HETATM    3  C3  UNL     1      -2.783   0.152   1.204  1.00  0.00     0.237 C 
HETATM    4  N1  UNL     1      -1.946  -0.187   0.085  1.00  0.00    -0.064 N 
HETATM    5  C4  UNL     1      -2.684  -0.381  -1.137  1.00  0.00     0.237 C 
HETATM    6  C5  UNL     1      -4.176  -0.291  -0.949  1.00  0.00     0.028 C 
HETATM    7  C6  UNL     1      -1.006   0.880  -0.124  1.00  0.00     0.265 C 
HETATM    8  C7  UNL     1       0.384   0.532   0.424  1.00  0.00     0.265 C 
HETATM    9  N2  UNL     1       0.980  -0.565  -0.292  1.00  0.00    -0.062 N 
HETATM   10  C8  UNL     1       1.938  -1.216   0.547  1.00  0.00     0.237 C 
HETATM   11  C9  UNL     1       2.788  -0.312   1.361  1.00  0.00     0.029 C 
HETATM   12  C10 UNL     1       4.228  -0.232   0.860  1.00  0.00     0.029 C 
HETATM   13  C11 UNL     1       4.433   0.994  -0.002  1.00  0.00     0.232 C 
HETATM   14  N3  UNL     1       3.331   1.236  -0.888  1.00  0.00    -0.074 N 
ATOM     15  H31 UNL     1       3.529   2.019  -1.512  1.00  0.00     0.277 HD
ATOM     16  H32 UNL     1       2.534   1.624  -0.383  1.00  0.00     0.277 HD
HETATM   17  C12 UNL     1       2.946   0.060  -1.638  1.00  0.00     0.260 C 
HETATM   18  C13 UNL     1       1.466  -0.104  -1.541  1.00  0.00     0.265 C 
HETATM   19  C14 UNL     1      -0.068  -1.560  -0.578  1.00  0.00     0.265 C 
HETATM   20  C15 UNL     1      -1.221  -1.406   0.389  1.00  0.00     0.265 C 
ENDROOT
TORSDOF 0
