REMARK  5 active torsions:
REMARK  status: ('A' for Active; 'I' for Inactive)
REMARK    1  A    between atoms: N1_2  and  C3_4 
REMARK    2  A    between atoms: C3_4  and  C4_5 
REMARK    3  A    between atoms: C4_5  and  N2_6 
REMARK    4  A    between atoms: N2_6  and  C5_9 
REMARK    5  A    between atoms: C5_9  and  C6_10 
ROOT
HETATM    1  C6  UNL     1       1.961   0.312  -0.021  1.00  0.00     0.275 C 
HETATM    2  N3  UNL     1       2.515   0.735   1.240  1.00  0.00    -0.061 N 
ATOM      3  H31 UNL     1       2.687  -0.054   1.863  1.00  0.00     0.278 HD
ATOM      4  H32 UNL     1       1.829   1.231   1.809  1.00  0.00     0.278 HD
HETATM    5  C7  UNL     1       3.723   1.532   1.024  1.00  0.00     0.253 C 
HETATM    6  C8  UNL     1       4.288   1.347  -0.364  1.00  0.00     0.148 C 
HETATM    7  N4  UNL     1       4.158  -0.041  -0.743  1.00  0.00    -0.379 N 
ATOM      8  H4  UNL     1       4.954  -0.555  -1.120  1.00  0.00     0.160 HD
HETATM    9  C9  UNL     1       3.006  -0.619  -0.593  1.00  0.00     0.121 C 
HETATM   10  N5  UNL     1       2.721  -1.961  -0.908  1.00  0.00    -0.086 NA
ENDROOT
BRANCH   1  11
HETATM   11  C5  UNL     1       0.617  -0.287   0.073  1.00  0.00     0.272 C 
BRANCH  11  12
HETATM   12  N2  UNL     1      -0.319   0.650   0.622  1.00  0.00    -0.071 N 
ATOM     13  H22 UNL     1      -0.267   1.544   0.134  1.00  0.00     0.277 HD
ATOM     14  H21 UNL     1      -0.030   0.950   1.553  1.00  0.00     0.277 HD
BRANCH  12  15
HETATM   15  C4  UNL     1      -1.687   0.147   0.640  1.00  0.00     0.251 C 
BRANCH  15  16
HETATM   16  C3  UNL     1      -2.247   0.020  -0.745  1.00  0.00     0.143 C 
BRANCH  16  17
HETATM   17  N1  UNL     1      -3.589  -0.471  -0.696  1.00  0.00    -0.419 N 
HETATM   18  C1  UNL     1      -3.726  -1.824  -0.258  1.00  0.00     0.142 C 
HETATM   19  C2  UNL     1      -4.525   0.461  -0.131  1.00  0.00     0.142 C 
ENDBRANCH  16  17
ENDBRANCH  15  16
ENDBRANCH  12  15
ENDBRANCH  11  12
ENDBRANCH   1  11
TORSDOF 5
