REMARK  17 active torsions:
REMARK  status: ('A' for Active; 'I' for Inactive)
REMARK    1  A    between atoms: O1_2  and  C2_3 
REMARK    2  A    between atoms: C3_4  and  C4_5 
REMARK    3  A    between atoms: C4_5  and  O2_6 
REMARK    4  A    between atoms: C4_5  and  O3_8 
REMARK    5  A    between atoms: O3_8  and  C5_9 
REMARK    6  A    between atoms: C6_10  and  O4_11 
REMARK    7  A    between atoms: C7_14  and  C8_15 
REMARK    8  A    between atoms: C8_15  and  O6_16 
REMARK    9  A    between atoms: C8_15  and  C9_18 
REMARK   10  A    between atoms: C9_18  and  O7_19 
REMARK   11  A    between atoms: C9_18  and  C10_21 
REMARK   12  A    between atoms: C10_21  and  O8_22 
REMARK   13  A    between atoms: C11_24  and  C12_25 
REMARK   14  A    between atoms: C12_25  and  O9_27 
REMARK   15  A    between atoms: C12_25  and  C14_29 
REMARK   16  A    between atoms: C20_37  and  O12_38 
REMARK   17  A    between atoms: C21_40  and  O13_41 
ROOT
HETATM    1  C5  UNL     1      -1.942   0.709  -1.800  1.00  0.00     0.189 C 
HETATM    2  C6  UNL     1      -3.169   0.118  -2.477  1.00  0.00     0.286 C 
HETATM    3  O5  UNL     1      -4.152   0.027  -1.548  1.00  0.00    -0.350 OA
HETATM    4  C7  UNL     1      -3.564  -0.121  -0.275  1.00  0.00     0.166 C 
HETATM    5  C11 UNL     1      -2.427   0.839  -0.378  1.00  0.00     0.096 C 
ENDROOT
BRANCH   1   6
HETATM    6  O3  UNL     1      -0.885  -0.185  -1.838  1.00  0.00    -0.350 OA
BRANCH   6   7
HETATM    7  C4  UNL     1       0.244   0.244  -2.485  1.00  0.00     0.264 C 
BRANCH   7   8
HETATM    8  C3  UNL     1       1.544  -0.141  -1.810  1.00  0.00     0.070 C 
HETATM    9  C2  UNL     1       1.814   0.528  -0.526  1.00  0.00     0.134 C 
HETATM   10  C23 UNL     1       2.305  -0.291   0.589  1.00  0.00     0.026 C 
HETATM   11  C17 UNL     1       3.097  -1.514   0.292  1.00  0.00    -0.035 C 
HETATM   12  C22 UNL     1       3.031   0.644   1.546  1.00  0.00     0.042 C 
HETATM   13  C16 UNL     1       2.903  -2.017  -1.117  1.00  0.00     0.010 C 
HETATM   14  C18 UNL     1       2.717  -2.661   1.198  1.00  0.00     0.016 C 
HETATM   15  C19 UNL     1       4.554  -1.231   0.504  1.00  0.00     0.044 C 
HETATM   16  C15 UNL     1       1.514  -1.633  -1.609  1.00  0.00     0.013 C 
HETATM   17  C20 UNL     1       4.874  -0.958   1.955  1.00  0.00     0.147 C 
HETATM   18  C21 UNL     1       3.815  -0.120   2.590  1.00  0.00     0.147 C 
BRANCH   9  19
HETATM   19  O1  UNL     1       2.689   1.637  -0.703  1.00  0.00    -0.390 OA
HETATM   20  C1  UNL     1       2.057   2.847  -0.469  1.00  0.00     0.202 C 
ENDBRANCH   9  19
BRANCH  17  21
HETATM   21  O12 UNL     1       6.084  -0.240   1.954  1.00  0.00    -0.393 OA
ATOM     22  H12 UNL     1       6.285  -0.068   2.866  1.00  0.00     0.210 HD
ENDBRANCH  17  21
BRANCH  18  23
HETATM   23  O13 UNL     1       4.426   0.872   3.409  1.00  0.00    -0.393 OA
ATOM     24  H13 UNL     1       3.752   1.405   3.813  1.00  0.00     0.210 HD
ENDBRANCH  18  23
ENDBRANCH   7   8
BRANCH   7  25
HETATM   25  O2  UNL     1       0.270  -0.541  -3.692  1.00  0.00    -0.371 OA
ATOM     26  H2  UNL     1      -0.545  -0.300  -4.115  1.00  0.00     0.212 HD
ENDBRANCH   7  25
ENDBRANCH   6   7
ENDBRANCH   1   6
BRANCH   2  27
HETATM   27  O4  UNL     1      -3.585   0.878  -3.567  1.00  0.00    -0.369 OA
ATOM     28  H4  UNL     1      -4.351   0.509  -3.990  1.00  0.00     0.212 HD
ENDBRANCH   2  27
BRANCH   5  29
HETATM   29  C12 UNL     1      -2.763   2.265   0.006  1.00  0.00     0.150 C 
HETATM   30  C13 UNL     1      -3.235   2.313   1.437  1.00  0.00     0.058 C 
BRANCH  29  31
HETATM   31  O9  UNL     1      -1.516   2.957   0.002  1.00  0.00    -0.379 OA
ATOM     32  H9  UNL     1      -1.727   3.851   0.243  1.00  0.00     0.211 HD
ENDBRANCH  29  31
BRANCH  29  33
HETATM   33  C14 UNL     1      -3.681   2.960  -0.900  1.00  0.00     0.209 C 
HETATM   34  O10 UNL     1      -4.883   2.635  -0.965  1.00  0.00    -0.646 OA
HETATM   35  O11 UNL     1      -3.236   3.995  -1.707  1.00  0.00    -0.646 OA
ENDBRANCH  29  33
ENDBRANCH   5  29
BRANCH   4  36
HETATM   36  C8  UNL     1      -3.114  -1.550  -0.091  1.00  0.00     0.178 C 
BRANCH  36  37
HETATM   37  O6  UNL     1      -4.216  -2.423  -0.331  1.00  0.00    -0.390 OA
ATOM     38  H6  UNL     1      -3.933  -3.322  -0.215  1.00  0.00     0.210 HD
ENDBRANCH  36  37
BRANCH  36  39
HETATM   39  C9  UNL     1      -2.697  -1.910   1.313  1.00  0.00     0.172 C 
BRANCH  39  40
HETATM   40  O7  UNL     1      -1.661  -1.224   1.854  1.00  0.00    -0.391 OA
ATOM     41  H7  UNL     1      -1.398  -1.451   2.738  1.00  0.00     0.210 HD
ENDBRANCH  39  40
BRANCH  39  42
HETATM   42  C10 UNL     1      -3.889  -2.086   2.247  1.00  0.00     0.198 C 
BRANCH  42  43
HETATM   43  O8  UNL     1      -4.415  -0.888   2.660  1.00  0.00    -0.398 OA
ATOM     44  H8  UNL     1      -5.158  -0.998   3.242  1.00  0.00     0.209 HD
ENDBRANCH  42  43
ENDBRANCH  39  42
ENDBRANCH  36  39
ENDBRANCH   4  36
TORSDOF 17
