REMARK  6 active torsions:
REMARK  status: ('A' for Active; 'I' for Inactive)
REMARK    1  A    between atoms: N3_4  and  N4_6 
REMARK    2  A    between atoms: C2_8  and  C3_9 
REMARK    3  A    between atoms: C4_10  and  S1_11 
REMARK    4  A    between atoms: N6_17  and  N7_18 
REMARK    5  A    between atoms: N8_21  and  C5_22 
REMARK    6  A    between atoms: C6_25  and  O4_26 
ROOT
HETATM    1  C3  UNL     1      -0.285   0.649  -0.452  1.00  0.00     0.112 C 
HETATM    2  C4  UNL     1      -0.065   1.946  -0.584  1.00  0.00     0.193 C 
HETATM    3  N5  UNL     1      -1.313   2.652  -0.552  1.00  0.00    -0.268 N 
ATOM      4  H5  UNL     1      -1.432   3.654  -0.400  1.00  0.00     0.185 HD
HETATM    5  N6  UNL     1      -2.322   1.741  -0.762  1.00  0.00    -0.039 NA
HETATM    6  N8  UNL     1      -1.727   0.512  -0.384  1.00  0.00    -0.226 N 
ENDROOT
BRANCH   1   7
HETATM    7  C2  UNL     1       0.598  -0.487  -0.375  1.00  0.00     0.141 C 
HETATM    8  N4  UNL     1       1.862  -0.410  -0.416  1.00  0.00    -0.307 N 
ATOM      9  H4  UNL     1       2.262   0.523  -0.510  1.00  0.00     0.186 HD
BRANCH   8  10
HETATM   10  N3  UNL     1       2.747  -1.459  -0.347  1.00  0.00    -0.276 N 
HETATM   11  C1  UNL     1       3.940  -1.285   0.075  1.00  0.00     0.215 C 
HETATM   12  N1  UNL     1       4.430  -0.029   0.493  1.00  0.00    -0.065 NA
HETATM   13  N2  UNL     1       4.804  -2.417   0.120  1.00  0.00    -0.065 NA
ATOM     14  H3  UNL     1       2.447  -2.390  -0.637  1.00  0.00     0.189 HD
ENDBRANCH   8  10
ENDBRANCH   1   7
BRANCH   2  15
HETATM   15  S1  UNL     1       1.468   2.720  -0.716  1.00  0.00     0.158 S 
HETATM   16  O1  UNL     1       1.266   4.151  -1.250  1.00  0.00    -0.590 OA
HETATM   17  O2  UNL     1       2.362   2.083  -1.713  1.00  0.00    -0.590 OA
HETATM   18  O3  UNL     1       2.212   2.952   0.784  1.00  0.00    -0.590 OA
ENDBRANCH   2  15
BRANCH   6  19
HETATM   19  C5  UNL     1      -2.515  -0.633  -0.007  1.00  0.00     0.361 C 
HETATM   20  N9  UNL     1      -2.198  -1.028   1.347  1.00  0.00    -0.089 NA
HETATM   21  N10 UNL     1      -2.522  -2.370   1.371  1.00  0.00    -0.085 NA
HETATM   22  C6  UNL     1      -2.895  -2.754   0.023  1.00  0.00     0.377 C 
HETATM   23  O5  UNL     1      -2.193  -1.783  -0.728  1.00  0.00    -0.304 OA
BRANCH  22  24
HETATM   24  O4  UNL     1      -4.255  -2.550  -0.131  1.00  0.00    -0.357 OA
ATOM     25  H4  UNL     1      -4.499  -2.802  -1.014  1.00  0.00     0.214 HD
ENDBRANCH  22  24
ENDBRANCH   6  19
BRANCH   5  26
HETATM   26  N7  UNL     1      -3.453   1.961   0.020  1.00  0.00    -0.327 NA
ATOM     27  H72 UNL     1      -3.881   2.846  -0.252  1.00  0.00     0.174 HD
ATOM     28  H71 UNL     1      -4.201   1.285  -0.136  1.00  0.00     0.174 HD
ENDBRANCH   5  26
TORSDOF 6
