REMARK  1 active torsions:
REMARK  status: ('A' for Active; 'I' for Inactive)
REMARK    1  A    between atoms: C2_2  and  C3_3 
ROOT
HETATM    1  C3  UNL     1      -0.030   0.575   0.203  1.00  0.00     0.102 C 
HETATM    2  N1  UNL     1       0.323   1.988   0.128  1.00  0.00    -0.173 NA
HETATM    3  S1  UNL     1       2.017   1.773  -0.181  1.00  0.00    -0.059 SA
HETATM    4  C4  UNL     1       1.111   0.275  -0.705  1.00  0.00     0.080 C 
HETATM    5  C5  UNL     1       1.946  -0.934  -0.344  1.00  0.00     0.024 C 
ENDROOT
BRANCH   1   6
HETATM    6  C2  UNL     1      -1.410   0.392  -0.336  1.00  0.00     0.019 C 
HETATM    7  C1  UNL     1      -1.892  -1.031  -0.313  1.00  0.00     0.007 C 
ENDBRANCH   1   6
TORSDOF 1
