REMARK  15 active torsions:
REMARK  status: ('A' for Active; 'I' for Inactive)
REMARK    1  A    between atoms: N1_1  and  N2_4 
REMARK    2  A    between atoms: N2_4  and  O1_6 
REMARK    3  A    between atoms: O1_6  and  C1_7 
REMARK    4  A    between atoms: C1_7  and  O2_8 
REMARK    5  A    between atoms: C1_7  and  C2_10 
REMARK    6  A    between atoms: C1_7  and  C3_15 
REMARK    7  A    between atoms: C2_10  and  O3_11 
REMARK    8  A    between atoms: C2_10  and  O4_13 
REMARK    9  A    between atoms: C3_15  and  O5_16 
REMARK   10  A    between atoms: C4_18  and  C5_19 
REMARK   11  A    between atoms: C6_23  and  N3_24 
REMARK   12  A    between atoms: C9_29  and  N5_30 
REMARK   13  A    between atoms: C10_35  and  N7_36 
REMARK   14  A    between atoms: C12_42  and  O9_43 
REMARK   15  A    between atoms: C12_42  and  O10_45 
ROOT
HETATM    1  C3  UNL     1      -1.369  -0.051   0.312  1.00  0.00     0.218 C 
HETATM    2  C4  UNL     1      -1.131  -1.541   0.327  1.00  0.00     0.271 C 
HETATM    3  O8  UNL     1       0.210  -1.683  -0.126  1.00  0.00    -0.341 OA
HETATM    4  C6  UNL     1       0.383  -0.770  -1.125  1.00  0.00     0.297 C 
HETATM    5  C12 UNL     1      -0.489   0.424  -0.761  1.00  0.00     0.246 C 
ENDROOT
BRANCH   4   6
HETATM    6  N3  UNL     1       1.772  -0.419  -1.289  1.00  0.00    -0.294 N 
HETATM    7  C7  UNL     1       2.404  -0.127  -2.463  1.00  0.00     0.188 A 
HETATM    8  N4  UNL     1       3.683   0.155  -2.263  1.00  0.00    -0.346 N 
HETATM    9  C8  UNL     1       3.920   0.054  -0.951  1.00  0.00     0.123 A 
ATOM     10  H4  UNL     1       4.364   0.404  -2.980  1.00  0.00     0.167 HD
HETATM   11  C9  UNL     1       5.061   0.239  -0.220  1.00  0.00     0.145 A 
HETATM   12  C11 UNL     1       2.731  -0.302  -0.354  1.00  0.00     0.157 A 
HETATM   13  N6  UNL     1       4.994   0.063   1.106  1.00  0.00    -0.175 N 
HETATM   14  C10 UNL     1       3.839  -0.284   1.694  1.00  0.00     0.679 A 
ATOM     15  H6  UNL     1       5.830   0.194   1.675  1.00  0.00     0.186 HD
HETATM   16  N8  UNL     1       2.722  -0.464   0.979  1.00  0.00    -0.174 N 
ATOM     17  H8  UNL     1       1.857  -0.726   1.451  1.00  0.00     0.186 HD
BRANCH  11  18
HETATM   18  N5  UNL     1       6.153   0.570  -0.809  1.00  0.00    -0.383 N 
ATOM     19  H52 UNL     1       6.204   0.704  -1.819  1.00  0.00     0.157 HD
ATOM     20  H51 UNL     1       7.004   0.708  -0.264  1.00  0.00     0.157 HD
ENDBRANCH  11  18
BRANCH  14  21
HETATM   21  N7  UNL     1       3.827  -0.440   2.973  1.00  0.00    -0.234 N 
ATOM     22  H72 UNL     1       4.678  -0.303   3.518  1.00  0.00     0.174 HD
ATOM     23  H71 UNL     1       2.949  -0.704   3.420  1.00  0.00     0.174 HD
ENDBRANCH  14  21
ENDBRANCH   4   6
BRANCH   5  24
HETATM   24  O9  UNL     1       0.450   1.407  -0.364  1.00  0.00    -0.359 OA
ATOM     25  H9  UNL     1       1.020   1.715  -1.059  1.00  0.00     0.213 HD
ENDBRANCH   5  24
BRANCH   5  26
HETATM   26  O10 UNL     1      -1.108   0.946  -1.893  1.00  0.00    -0.359 OA
ATOM     27  H10 UNL     1      -0.538   1.254  -2.588  1.00  0.00     0.213 HD
ENDBRANCH   5  26
BRANCH   2  28
HETATM   28  C5  UNL     1      -1.926  -2.360  -0.564  1.00  0.00     0.206 C 
HETATM   29  O6  UNL     1      -3.161  -2.510  -0.401  1.00  0.00    -0.646 OA
HETATM   30  O7  UNL     1      -1.419  -3.058  -1.681  1.00  0.00    -0.646 OA
ENDBRANCH   2  28
BRANCH   1  31
HETATM   31  C1  UNL     1      -2.787   0.380   0.337  1.00  0.00     0.279 C 
BRANCH  31  32
HETATM   32  O1  UNL     1      -3.527  -0.281   1.372  1.00  0.00    -0.217 OA
BRANCH  32  33
HETATM   33  N2  UNL     1      -4.790   0.147   1.641  1.00  0.00    -0.210 N 
ATOM     34  H2  UNL     1      -4.914   1.123   1.912  1.00  0.00     0.215 HD
BRANCH  33  35
HETATM   35  N1  UNL     1      -5.824  -0.584   1.578  1.00  0.00    -0.326 N 
ATOM     36  H12 UNL     1      -5.682  -1.557   1.306  1.00  0.00     0.178 HD
ATOM     37  H11 UNL     1      -6.771  -0.263   1.780  1.00  0.00     0.178 HD
ENDBRANCH  33  35
ENDBRANCH  32  33
ENDBRANCH  31  32
BRANCH  31  38
HETATM   38  O2  UNL     1      -3.501   0.250  -0.819  1.00  0.00    -0.357 OA
ATOM     39  H2  UNL     1      -3.011   0.688  -1.505  1.00  0.00     0.213 HD
ENDBRANCH  31  38
BRANCH  31  40
HETATM   40  C2  UNL     1      -2.886   1.849   0.779  1.00  0.00     0.323 C 
BRANCH  40  41
HETATM   41  O3  UNL     1      -4.185   2.303   0.827  1.00  0.00    -0.366 OA
ATOM     42  H3  UNL     1      -4.246   3.211   1.100  1.00  0.00     0.212 HD
ENDBRANCH  40  41
BRANCH  40  43
HETATM   43  O4  UNL     1      -2.028   2.687   0.129  1.00  0.00    -0.366 OA
ATOM     44  H4  UNL     1      -2.089   3.595   0.402  1.00  0.00     0.212 HD
ENDBRANCH  40  43
ENDBRANCH  31  40
ENDBRANCH   1  31
BRANCH   1  45
HETATM   45  O5  UNL     1      -0.821   0.394   1.550  1.00  0.00    -0.376 OA
ATOM     46  H5  UNL     1       0.088   0.118   1.534  1.00  0.00     0.211 HD
ENDBRANCH   1  45
TORSDOF 15
