REMARK  4 active torsions:
REMARK  status: ('A' for Active; 'I' for Inactive)
REMARK       I    between atoms: C1_2  and  N1_3 
REMARK    1  A    between atoms: C1_2  and  C8_16 
REMARK    2  A    between atoms: N1_3  and  N2_5 
REMARK    3  A    between atoms: N2_5  and  C2_7 
REMARK    4  A    between atoms: C6_11  and  N3_12 
ROOT
HETATM    1  N2  UNL     1      -0.244  -0.871  -1.422  1.00  0.00    -0.298 N 
ATOM      2  H2  UNL     1      -0.294  -1.413  -2.284  1.00  0.00     0.187 HD
ENDROOT
BRANCH   1   3
HETATM    3  N1  UNL     1       0.979  -0.449  -0.942  1.00  0.00    -0.264 N 
HETATM    4  C1  UNL     1       1.576  -1.083   0.166  1.00  0.00     0.293 C 
HETATM    5  O1  UNL     1       0.972  -2.042   0.712  1.00  0.00    -0.264 OA
ATOM      6  H1  UNL     1       1.456   0.331  -1.394  1.00  0.00     0.190 HD
BRANCH   4   7
HETATM    7  C8  UNL     1       2.865  -0.638   0.670  1.00  0.00     0.144 A 
HETATM    8  C9  UNL     1       3.576   0.427   0.167  1.00  0.00     0.045 A 
HETATM    9  C10 UNL     1       4.721   0.485   0.935  1.00  0.00     0.027 A 
HETATM   10  C11 UNL     1       4.654  -0.529   1.854  1.00  0.00     0.143 A 
HETATM   11  O4  UNL     1       3.518  -1.168   1.646  1.00  0.00    -0.317 OA
ENDBRANCH   4   7
ENDBRANCH   1   3
BRANCH   1  12
HETATM   12  C2  UNL     1      -1.431  -0.551  -0.717  1.00  0.00     0.050 A 
HETATM   13  C3  UNL     1      -2.138  -1.471   0.009  1.00  0.00     0.031 A 
HETATM   14  C4  UNL     1      -3.282  -1.087   0.676  1.00  0.00     0.005 A 
HETATM   15  C5  UNL     1      -3.736   0.220   0.628  1.00  0.00     0.036 A 
HETATM   16  C6  UNL     1      -3.026   1.143  -0.100  1.00  0.00     0.105 A 
HETATM   17  C7  UNL     1      -1.875   0.749  -0.769  1.00  0.00     0.067 A 
BRANCH  16  18
HETATM   18  N3  UNL     1      -3.437   2.492  -0.178  1.00  0.00    -0.116 N 
HETATM   19  O2  UNL     1      -2.763   3.310  -0.821  1.00  0.00    -0.532 OA
HETATM   20  O3  UNL     1      -4.574   2.903   0.457  1.00  0.00    -0.532 OA
ENDBRANCH  16  18
ENDBRANCH   1  12
TORSDOF 4
