REMARK  1 active torsions:
REMARK  status: ('A' for Active; 'I' for Inactive)
REMARK    1  A    between atoms: C3_3  and  C4_4 
ROOT
HETATM    1  C1  UNL     1      -3.627   0.604  -1.218  1.00  0.00     0.012 C 
HETATM    2  C2  UNL     1      -2.840   0.112  -0.436  1.00  0.00    -0.115 C 
HETATM    3  C3  UNL     1      -1.899  -0.506   0.514  1.00  0.00     0.118 C 
ENDROOT
BRANCH   3   4
HETATM    4  C4  UNL     1      -0.492  -0.439  -0.065  1.00  0.00     0.095 C 
HETATM    5  C5  UNL     1       0.446  -1.076   0.923  1.00  0.00     0.045 C 
HETATM    6  C6  UNL     1       1.852  -0.834   0.433  1.00  0.00     0.122 C 
HETATM    7  N1  UNL     1       2.115   0.547   0.212  1.00  0.00    -0.386 N 
HETATM    8  C7  UNL     1       1.162   1.249  -0.565  1.00  0.00     0.171 C 
ATOM      9  H1  UNL     1       2.943   1.005   0.592  1.00  0.00     0.160 HD
HETATM   10  N2  UNL     1      -0.199   0.922  -0.349  1.00  0.00    -0.381 N 
ATOM     11  H2  UNL     1      -0.933   1.629  -0.395  1.00  0.00     0.160 HD
ENDBRANCH   3   4
TORSDOF 1
