REMARK  19 active torsions:
REMARK  status: ('A' for Active; 'I' for Inactive)
REMARK    1  A    between atoms: C2_7  and  N3_8 
REMARK    2  A    between atoms: N3_8  and  C3_9 
REMARK    3  A    between atoms: N3_8  and  C5_13 
REMARK    4  A    between atoms: C3_9  and  C4_10 
REMARK    5  A    between atoms: C4_10  and  O1_11 
REMARK    6  A    between atoms: C5_13  and  C6_14 
REMARK    7  A    between atoms: C6_14  and  C7_15 
REMARK    8  A    between atoms: C7_15  and  N4_16 
REMARK    9  A    between atoms: N7_27  and  C11_28 
REMARK   10  A    between atoms: C12_30  and  C13_31 
REMARK   11  A    between atoms: C13_31  and  O3_32 
REMARK   12  A    between atoms: C14_34  and  N8_35 
REMARK   13  A    between atoms: C16_42  and  N12_43 
REMARK   14  A    between atoms: C17_46  and  C18_47 
REMARK   15  A    between atoms: C18_47  and  S1_48 
REMARK   16  A    between atoms: S1_48  and  C19_49 
REMARK   17  A    between atoms: C19_49  and  C20_50 
REMARK   18  A    between atoms: C20_50  and  C21_51 
REMARK   19  A    between atoms: C21_51  and  O4_52 
ROOT
HETATM    1  N1  UNL     1      -3.066  -1.136  -4.782  1.00  0.00    -0.383 N 
ATOM      2  H11 UNL     1      -2.352  -1.109  -5.510  1.00  0.00     0.157 HD
ATOM      3  H12 UNL     1      -4.042  -1.252  -5.055  1.00  0.00     0.157 HD
HETATM    4  C1  UNL     1      -2.737  -1.021  -3.520  1.00  0.00     0.145 A 
HETATM    5  N2  UNL     1      -3.681  -1.057  -2.557  1.00  0.00    -0.175 N 
ATOM      6  H2  UNL     1      -4.656  -1.173  -2.832  1.00  0.00     0.186 HD
HETATM    7  C2  UNL     1      -3.389  -0.947  -1.256  1.00  0.00     0.683 A 
HETATM    8  N5  UNL     1      -2.105  -0.794  -0.889  1.00  0.00    -0.173 N 
ATOM      9  H5  UNL     1      -1.871  -0.709   0.100  1.00  0.00     0.186 HD
HETATM   10  C8  UNL     1      -1.126  -0.751  -1.809  1.00  0.00     0.162 A 
HETATM   11  C9  UNL     1      -1.411  -0.863  -3.149  1.00  0.00     0.123 A 
HETATM   12  N6  UNL     1      -0.256  -0.787  -3.806  1.00  0.00    -0.346 N 
ATOM     13  H6  UNL     1      -0.133  -0.836  -4.817  1.00  0.00     0.167 HD
HETATM   14  C10 UNL     1       0.721  -0.633  -2.893  1.00  0.00     0.195 A 
HETATM   15  N7  UNL     1       0.224  -0.606  -1.650  1.00  0.00    -0.250 N 
ENDROOT
BRANCH  15  16
HETATM   16  C11 UNL     1       0.919  -0.466  -0.358  1.00  0.00     0.275 C 
HETATM   17  O2  UNL     1       0.485   0.609   0.325  1.00  0.00    -0.306 OA
HETATM   18  C12 UNL     1       1.355   1.618   0.648  1.00  0.00     0.184 C 
HETATM   19  C14 UNL     1       2.793   1.247   0.563  1.00  0.00     0.188 C 
HETATM   20  C17 UNL     1       3.123   0.273  -0.527  1.00  0.00     0.169 C 
HETATM   21  O5  UNL     1       2.239  -0.761  -0.418  1.00  0.00    -0.307 OA
BRANCH  18  22
HETATM   22  C13 UNL     1       0.953   2.820  -0.182  1.00  0.00     0.199 C 
BRANCH  22  23
HETATM   23  O3  UNL     1      -0.369   3.195   0.073  1.00  0.00    -0.398 OA
ATOM     24  H3  UNL     1      -0.621   3.949  -0.447  1.00  0.00     0.209 HD
ENDBRANCH  22  23
ENDBRANCH  18  22
BRANCH  19  25
HETATM   25  N8  UNL     1       3.617   2.392   0.636  1.00  0.00    -0.112 N 
HETATM   26  N9  UNL     1       3.978   2.932   1.810  1.00  0.00    -0.256 N 
HETATM   27  C15 UNL     1       4.758   3.981   1.601  1.00  0.00     0.222 A 
ATOM     28  H9  UNL     1       3.694   2.586   2.727  1.00  0.00     0.190 HD
HETATM   29  N10 UNL     1       5.358   4.823   2.577  1.00  0.00    -0.061 NA
HETATM   30  N11 UNL     1       4.913   4.137   0.294  1.00  0.00    -0.161 N 
HETATM   31  C16 UNL     1       4.208   3.156  -0.291  1.00  0.00     0.695 A 
ATOM     32  H11 UNL     1       5.460   4.859  -0.175  1.00  0.00     0.187 HD
BRANCH  31  33
HETATM   33  N12 UNL     1       4.121   2.987  -1.539  1.00  0.00    -0.233 N 
ATOM     34 2H12 UNL     1       3.585   2.242  -1.984  1.00  0.00     0.174 HD
ATOM     35 1H12 UNL     1       4.571   3.569  -2.245  1.00  0.00     0.174 HD
ENDBRANCH  31  33
ENDBRANCH  19  25
BRANCH  20  36
HETATM   36  C18 UNL     1       4.501  -0.307  -0.139  1.00  0.00     0.108 C 
BRANCH  36  37
HETATM   37  S1  UNL     1       4.490  -1.143   1.414  1.00  0.00    -0.166 SA
BRANCH  37  38
HETATM   38  C19 UNL     1       3.638  -2.683   1.541  1.00  0.00     0.076 C 
BRANCH  38  39
HETATM   39  C20 UNL     1       4.337  -3.851   0.941  1.00  0.00     0.036 C 
BRANCH  39  40
HETATM   40  C21 UNL     1       4.685  -3.787  -0.498  1.00  0.00     0.165 C 
BRANCH  40  41
HETATM   41  O4  UNL     1       5.284  -5.006  -0.875  1.00  0.00    -0.401 OA
ATOM     42  H4  UNL     1       5.507  -4.965  -1.798  1.00  0.00     0.209 HD
ENDBRANCH  40  41
ENDBRANCH  39  40
ENDBRANCH  38  39
ENDBRANCH  37  38
ENDBRANCH  36  37
ENDBRANCH  20  36
ENDBRANCH  15  16
BRANCH   7  43
HETATM   43  N3  UNL     1      -4.429  -0.999  -0.248  1.00  0.00    -0.215 N 
BRANCH  43  44
HETATM   44  C3  UNL     1      -4.659  -2.226   0.460  1.00  0.00     0.167 C 
BRANCH  44  45
HETATM   45  C4  UNL     1      -4.290  -2.203   1.909  1.00  0.00     0.184 C 
BRANCH  45  46
HETATM   46  O1  UNL     1      -4.976  -1.265   2.669  1.00  0.00    -0.399 OA
ATOM     47  H1  UNL     1      -4.742  -1.250   3.590  1.00  0.00     0.209 HD
ENDBRANCH  45  46
ENDBRANCH  44  45
ENDBRANCH  43  44
BRANCH  43  48
HETATM   48  C5  UNL     1      -5.207   0.180   0.012  1.00  0.00     0.143 C 
BRANCH  48  49
HETATM   49  C6  UNL     1      -6.646   0.016  -0.433  1.00  0.00     0.048 C 
BRANCH  49  50
HETATM   50  C7  UNL     1      -7.402   1.287  -0.137  1.00  0.00     0.231 C 
BRANCH  50  51
HETATM   51  N4  UNL     1      -7.360   1.555   1.280  1.00  0.00    -0.079 N 
ATOM     52  H43 UNL     1      -7.701   0.767   1.831  1.00  0.00     0.274 HD
ATOM     53  H42 UNL     1      -6.405   1.582   1.639  1.00  0.00     0.274 HD
ATOM     54  H41 UNL     1      -7.871   2.415   1.480  1.00  0.00     0.274 HD
ENDBRANCH  50  51
ENDBRANCH  49  50
ENDBRANCH  48  49
ENDBRANCH  43  48
ENDBRANCH   7  43
TORSDOF 19
