REMARK  10 active torsions:
REMARK  status: ('A' for Active; 'I' for Inactive)
REMARK    1  A    between atoms: C1_2  and  C2_4 
REMARK    2  A    between atoms: C2_4  and  N2_5 
REMARK    3  A    between atoms: C2_4  and  C3_9 
REMARK    4  A    between atoms: C3_9  and  C4_10 
REMARK    5  A    between atoms: C4_10  and  N3_11 
REMARK    6  A    between atoms: C4_10  and  C5_15 
REMARK    7  A    between atoms: C5_15  and  C6_16 
REMARK    8  A    between atoms: C5_15  and  N4_19 
REMARK    9  A    between atoms: C6_16  and  O2_17 
REMARK   10  A    between atoms: N4_19  and  C7_21 
ROOT
HETATM    1  C5  UNL     1       0.775  -1.545  -0.441  1.00  0.00     0.137 C 
ENDROOT
BRANCH   1   2
HETATM    2  C4  UNL     1       2.243  -1.311  -0.621  1.00  0.00     0.210 C 
BRANCH   2   3
HETATM    3  C3  UNL     1       2.732   0.070  -0.450  1.00  0.00     0.077 C 
BRANCH   3   4
HETATM    4  C2  UNL     1       2.777   0.632   0.929  1.00  0.00     0.274 C 
BRANCH   4   5
HETATM    5  C1  UNL     1       3.317   2.044   0.907  1.00  0.00     0.261 C 
HETATM    6  N1  UNL     1       4.520   2.328   0.239  1.00  0.00    -0.060 NA
HETATM    7  O1  UNL     1       2.664   2.923   1.494  1.00  0.00    -0.275 OA
ENDBRANCH   4   5
BRANCH   4   8
HETATM    8  N2  UNL     1       1.565   0.629   1.664  1.00  0.00    -0.067 N 
ATOM      9  H23 UNL     1       1.672   1.023   2.599  1.00  0.00     0.275 HD
ATOM     10  H22 UNL     1       0.888   1.303   1.306  1.00  0.00     0.275 HD
ATOM     11  H21 UNL     1       1.201  -0.324   1.679  1.00  0.00     0.275 HD
ENDBRANCH   4   8
ENDBRANCH   3   4
ENDBRANCH   2   3
BRANCH   2  12
HETATM   12  N3  UNL     1       3.081  -2.214   0.145  1.00  0.00    -0.073 N 
ATOM     13  H33 UNL     1       4.068  -2.121  -0.093  1.00  0.00     0.274 HD
ATOM     14  H32 UNL     1       3.143  -1.945   1.127  1.00  0.00     0.274 HD
ATOM     15  H31 UNL     1       2.743  -3.169   0.027  1.00  0.00     0.274 HD
ENDBRANCH   2  12
ENDBRANCH   1   2
BRANCH   1  16
HETATM   16  C6  UNL     1       0.429  -3.017  -0.665  1.00  0.00     0.191 C 
BRANCH  16  17
HETATM   17  O2  UNL     1      -0.917  -3.199  -0.381  1.00  0.00    -0.399 OA
ATOM     18  H2  UNL     1      -1.132  -4.114  -0.520  1.00  0.00     0.209 HD
ENDBRANCH  16  17
ENDBRANCH   1  16
BRANCH   1  19
HETATM   19  N4  UNL     1      -0.042  -0.790  -1.321  1.00  0.00    -0.366 N 
ATOM     20  H4  UNL     1       0.314  -0.728  -2.275  1.00  0.00     0.161 HD
BRANCH  19  21
HETATM   21  C7  UNL     1      -1.123  -0.186  -1.135  1.00  0.00     0.117 A 
HETATM   22  C8  UNL     1      -1.699   0.481  -2.215  1.00  0.00     0.136 A 
HETATM   23  N5  UNL     1      -2.842   1.131  -2.055  1.00  0.00    -0.360 N 
HETATM   24  C9  UNL     1      -3.463   1.162  -0.868  1.00  0.00     0.066 A 
ATOM     25  H5  UNL     1      -3.257   1.617  -2.850  1.00  0.00     0.165 HD
HETATM   26  C10 UNL     1      -4.646   1.854  -0.769  1.00  0.00     0.049 A 
HETATM   27  C13 UNL     1      -2.906   0.509   0.208  1.00  0.00     0.129 A 
HETATM   28  C11 UNL     1      -5.295   1.896   0.442  1.00  0.00     0.093 A 
HETATM   29  N6  UNL     1      -4.755   1.256   1.505  1.00  0.00    -0.332 N 
HETATM   30  C12 UNL     1      -3.585   0.572   1.405  1.00  0.00     0.274 A 
ATOM     31  H6  UNL     1      -5.238   1.288   2.403  1.00  0.00     0.168 HD
HETATM   32  O3  UNL     1      -3.103  -0.014   2.407  1.00  0.00    -0.266 OA
HETATM   33  N7  UNL     1      -1.742  -0.154   0.050  1.00  0.00    -0.335 N 
ATOM     34  H7  UNL     1      -1.328  -0.638   0.846  1.00  0.00     0.168 HD
ENDBRANCH  19  21
ENDBRANCH   1  19
TORSDOF 10
