REMARK  7 active torsions:
REMARK  status: ('A' for Active; 'I' for Inactive)
REMARK       I    between atoms: C2_2  and  N1_4 
REMARK    1  A    between atoms: N1_4  and  C3_6 
REMARK    2  A    between atoms: C3_6  and  C4_7 
REMARK    3  A    between atoms: C3_6  and  C8_29 
REMARK    4  A    between atoms: N4_12  and  C5_13 
REMARK    5  A    between atoms: C10_36  and  C11_37 
REMARK    6  A    between atoms: C11_37  and  O3_38 
REMARK    7  A    between atoms: C11_37  and  O4_40 
ROOT
HETATM    1  C8  UNL     1      -1.258   0.486  -0.261  1.00  0.00     0.131 A 
HETATM    2  N10 UNL     1      -1.605   0.207   0.992  1.00  0.00    -0.329 N 
ATOM      3  H10 UNL     1      -1.165   0.710   1.763  1.00  0.00     0.168 HD
HETATM    4  C9  UNL     1      -2.545  -0.747   1.254  1.00  0.00     0.114 A 
HETATM    5  N11 UNL     1      -2.812  -0.967   2.486  1.00  0.00    -0.385 N 
ATOM      6 1H11 UNL     1      -3.515  -1.680   2.682  1.00  0.00     0.157 HD
ATOM      7 2H11 UNL     1      -2.401  -0.494   3.291  1.00  0.00     0.157 HD
HETATM    8  C10 UNL     1      -3.093  -1.378   0.181  1.00  0.00     0.082 A 
HETATM    9  C12 UNL     1      -2.711  -1.065  -1.105  1.00  0.00     0.148 A 
HETATM   10  N12 UNL     1      -3.285  -1.727  -2.223  1.00  0.00    -0.081 NA
HETATM   11  N13 UNL     1      -1.769  -0.109  -1.353  1.00  0.00    -0.221 N 
HETATM   12  C13 UNL     1      -1.381   0.210  -2.655  1.00  0.00     0.192 C 
HETATM   13  N14 UNL     1      -1.074   0.467  -3.742  1.00  0.00    -0.171 NA
ENDROOT
BRANCH   1  14
HETATM   14  C3  UNL     1      -0.227   1.537  -0.476  1.00  0.00     0.223 C 
BRANCH  14  15
HETATM   15  N1  UNL     1      -0.554   2.665   0.388  1.00  0.00    -0.343 N 
HETATM   16  C2  UNL     1      -0.763   3.961  -0.132  1.00  0.00     0.214 C 
HETATM   17  C1  UNL     1      -1.094   5.071   0.791  1.00  0.00     0.117 C 
HETATM   18  O1  UNL     1      -0.676   4.201  -1.364  1.00  0.00    -0.274 OA
ATOM     19  H1  UNL     1      -0.634   2.514   1.394  1.00  0.00     0.163 HD
ENDBRANCH  14  15
BRANCH  14  20
HETATM   20  C4  UNL     1       1.104   0.967  -0.121  1.00  0.00     0.143 A 
HETATM   21  N2  UNL     1       2.107   1.838   0.090  1.00  0.00    -0.271 N 
HETATM   22  N3  UNL     1       3.284   1.364   0.403  1.00  0.00    -0.218 N 
ATOM     23  H2  UNL     1       1.953   2.843   0.008  1.00  0.00     0.190 HD
HETATM   24  N4  UNL     1       3.544   0.067   0.522  1.00  0.00    -0.050 N 
ATOM     25  H3  UNL     1       4.043   2.025   0.565  1.00  0.00     0.209 HD
HETATM   26  C7  UNL     1       2.554  -0.823   0.315  1.00  0.00     0.701 A 
HETATM   27  N8  UNL     1       2.785  -2.102   0.427  1.00  0.00    -0.233 N 
HETATM   28  N9  UNL     1       1.339  -0.346  -0.007  1.00  0.00    -0.175 N 
ATOM     29  H82 UNL     1       3.707  -2.464   0.671  1.00  0.00     0.174 HD
ATOM     30  H81 UNL     1       2.035  -2.776   0.270  1.00  0.00     0.174 HD
ATOM     31  H9  UNL     1       0.575  -1.002  -0.169  1.00  0.00     0.185 HD
BRANCH  24  32
HETATM   32  C5  UNL     1       4.853  -0.371   0.866  1.00  0.00     0.214 A 
HETATM   33  N5  UNL     1       5.523  -0.223   2.024  1.00  0.00    -0.220 N 
HETATM   34  O2  UNL     1       6.706  -0.775   1.923  1.00  0.00    -0.153 OA
ATOM     35  H5  UNL     1       5.164   0.248   2.854  1.00  0.00     0.198 HD
HETATM   36  N6  UNL     1       6.839  -1.288   0.721  1.00  0.00    -0.222 N 
HETATM   37  C6  UNL     1       5.707  -1.059   0.027  1.00  0.00     0.170 A 
ATOM     38  H6  UNL     1       7.662  -1.778   0.371  1.00  0.00     0.198 HD
HETATM   39  N7  UNL     1       5.410  -1.390  -1.186  1.00  0.00    -0.381 N 
ATOM     40  H72 UNL     1       4.553  -1.217  -1.711  1.00  0.00     0.157 HD
ATOM     41  H71 UNL     1       6.041  -1.898  -1.806  1.00  0.00     0.157 HD
ENDBRANCH  24  32
ENDBRANCH  14  20
ENDBRANCH   1  14
BRANCH   8  42
HETATM   42  C11 UNL     1      -4.134  -2.400   0.352  1.00  0.00     0.295 C 
BRANCH  42  43
HETATM   43  O3  UNL     1      -5.130  -2.006   1.220  1.00  0.00    -0.367 OA
ATOM     44  H3  UNL     1      -5.803  -2.667   1.331  1.00  0.00     0.213 HD
ENDBRANCH  42  43
BRANCH  42  45
HETATM   45  O4  UNL     1      -4.632  -2.864  -0.861  1.00  0.00    -0.367 OA
ATOM     46  H4  UNL     1      -5.305  -3.525  -0.750  1.00  0.00     0.213 HD
ENDBRANCH  42  45
ENDBRANCH   8  42
TORSDOF 7
