REMARK  14 active torsions:
REMARK  status: ('A' for Active; 'I' for Inactive)
REMARK       I    between atoms: C2_2  and  N1_4 
REMARK    1  A    between atoms: N1_4  and  N2_6 
REMARK       I    between atoms: N2_6  and  C3_8 
REMARK    2  A    between atoms: C3_8  and  C4_10 
REMARK    3  A    between atoms: N4_17  and  C8_18 
REMARK    4  A    between atoms: C9_21  and  C10_22 
REMARK    5  A    between atoms: C10_22  and  C12_24 
REMARK    6  A    between atoms: C12_24  and  O3_25 
REMARK    7  A    between atoms: O3_25  and  C13_26 
REMARK    8  A    between atoms: C13_26  and  C14_28 
REMARK    9  A    between atoms: C16_33  and  N7_34 
REMARK   10  A    between atoms: N8_37  and  C19_38 
REMARK   11  A    between atoms: C19_38  and  C20_39 
REMARK   12  A    between atoms: C20_39  and  O6_40 
REMARK   13  A    between atoms: C23_47  and  C24_48 
REMARK   14  A    between atoms: C26_53  and  O8_54 
ROOT
HETATM    1  C12 UNL     1      -1.157  -0.441   0.480  1.00  0.00     0.189 C 
ENDROOT
BRANCH   1   2
HETATM    2  C10 UNL     1      -1.780  -1.323  -0.613  1.00  0.00     0.061 C 
HETATM    3  C11 UNL     1      -1.395  -0.648  -1.930  1.00  0.00     0.018 C 
BRANCH   2   4
HETATM    4  C9  UNL     1      -3.249  -1.184  -0.450  1.00  0.00     0.083 A 
HETATM    5  N5  UNL     1      -4.135  -0.402  -1.069  1.00  0.00    -0.191 N 
HETATM    6  C8  UNL     1      -5.336  -0.614  -0.574  1.00  0.00     0.683 A 
ATOM      7  H5  UNL     1      -3.915   0.260  -1.813  1.00  0.00     0.184 HD
HETATM    8  N12 UNL     1      -5.225  -1.550   0.382  1.00  0.00    -0.169 N 
HETATM    9  C26 UNL     1      -3.949  -1.941   0.504  1.00  0.00     0.179 A 
ATOM     10  H12 UNL     1      -6.001  -1.912   0.936  1.00  0.00     0.186 HD
BRANCH   6  11
HETATM   11  N4  UNL     1      -6.542   0.072  -0.984  1.00  0.00    -0.201 N 
HETATM   12  C4  UNL     1      -7.785  -0.375  -0.386  1.00  0.00     0.221 C 
HETATM   13  C5  UNL     1      -8.949  -0.113  -1.282  1.00  0.00     0.267 C 
HETATM   14  N3  UNL     1      -8.842   1.275  -1.746  1.00  0.00    -0.071 N 
HETATM   15  C6  UNL     1      -7.726   1.293  -2.698  1.00  0.00     0.252 C 
ATOM     16  H32 UNL     1      -9.712   1.645  -2.129  1.00  0.00     0.277 HD
ATOM     17  H31 UNL     1      -8.744   1.952  -0.989  1.00  0.00     0.277 HD
HETATM   18  C7  UNL     1      -6.460   1.152  -1.913  1.00  0.00     0.170 C 
BRANCH  12  19
HETATM   19  C3  UNL     1      -7.988   0.316   0.913  1.00  0.00     0.261 C 
HETATM   20  N2  UNL     1      -9.005  -0.204   1.795  1.00  0.00    -0.266 N 
ATOM     21  H2  UNL     1      -9.565  -1.014   1.528  1.00  0.00     0.190 HD
HETATM   22  O2  UNL     1      -7.282   1.300   1.195  1.00  0.00    -0.269 OA
BRANCH  20  23
HETATM   23  N1  UNL     1      -9.207   0.440   3.045  1.00  0.00    -0.268 N 
HETATM   24  C2  UNL     1     -10.454   0.976   3.394  1.00  0.00     0.232 C 
HETATM   25  C1  UNL     1     -10.635   1.663   4.721  1.00  0.00     0.119 C 
HETATM   26  O1  UNL     1     -11.433   0.895   2.613  1.00  0.00    -0.272 OA
ATOM     27  H1  UNL     1      -8.430   0.514   3.701  1.00  0.00     0.190 HD
ENDBRANCH  20  23
ENDBRANCH  12  19
ENDBRANCH   6  11
BRANCH   9  28
HETATM   28  O8  UNL     1      -3.428  -2.884   1.378  1.00  0.00    -0.344 OA
ATOM     29  H8  UNL     1      -3.901  -3.396   2.023  1.00  0.00     0.219 HD
ENDBRANCH   9  28
ENDBRANCH   2   4
ENDBRANCH   1   2
BRANCH   1  30
HETATM   30  O3  UNL     1       0.237  -0.594   0.352  1.00  0.00    -0.317 OA
BRANCH  30  31
HETATM   31  C13 UNL     1       1.171   0.080   1.160  1.00  0.00     0.301 C 
HETATM   32  O4  UNL     1       0.685   0.850   2.014  1.00  0.00    -0.259 OA
BRANCH  31  33
HETATM   33  C14 UNL     1       2.581  -0.154   0.955  1.00  0.00     0.144 A 
HETATM   34  C15 UNL     1       3.270  -1.169   1.616  1.00  0.00     0.279 A 
HETATM   35  O5  UNL     1       2.680  -1.913   2.417  1.00  0.00    -0.266 OA
HETATM   36  N6  UNL     1       4.568  -1.240   1.300  1.00  0.00    -0.153 N 
HETATM   37  C16 UNL     1       5.208  -0.461   0.454  1.00  0.00     0.706 A 
ATOM     38  H6  UNL     1       5.115  -1.968   1.759  1.00  0.00     0.187 HD
HETATM   39  N9  UNL     1       4.561   0.550  -0.216  1.00  0.00    -0.077 N 
HETATM   40  N10 UNL     1       5.090   1.354  -1.051  1.00  0.00    -0.267 N 
HETATM   41  C25 UNL     1       3.259   0.678   0.053  1.00  0.00     0.139 A 
HETATM   42  C23 UNL     1       4.373   2.292  -1.637  1.00  0.00     0.157 A 
ATOM     43  H10 UNL     1       6.083   1.271  -1.269  1.00  0.00     0.189 HD
HETATM   44  S1  UNL     1       2.834   2.007  -0.951  1.00  0.00    -0.044 SA
BRANCH  37  45
HETATM   45  N7  UNL     1       6.612  -0.721   0.245  1.00  0.00    -0.206 N 
HETATM   46  C17 UNL     1       7.056  -1.601  -0.803  1.00  0.00     0.186 C 
HETATM   47  C18 UNL     1       8.517  -1.766  -0.929  1.00  0.00     0.088 C 
HETATM   48  N8  UNL     1       9.317  -0.674  -0.567  1.00  0.00    -0.349 N 
HETATM   49  C21 UNL     1       8.775   0.288   0.301  1.00  0.00     0.088 C 
HETATM   50  C22 UNL     1       7.589  -0.106   1.104  1.00  0.00     0.186 C 
BRANCH  48  51
HETATM   51  C19 UNL     1      10.715  -0.775  -0.707  1.00  0.00     0.094 C 
BRANCH  51  52
HETATM   52  C20 UNL     1      11.399  -1.747   0.227  1.00  0.00     0.209 C 
BRANCH  52  53
HETATM   53  O6  UNL     1      11.160  -1.353   1.535  1.00  0.00    -0.396 OA
ATOM     54  H6  UNL     1      11.590  -1.964   2.122  1.00  0.00     0.209 HD
ENDBRANCH  52  53
ENDBRANCH  51  52
ENDBRANCH  48  51
ENDBRANCH  37  45
BRANCH  42  55
HETATM   55  C24 UNL     1       4.796   3.314  -2.619  1.00  0.00     0.289 C 
HETATM   56  N11 UNL     1       6.135   3.369  -3.073  1.00  0.00    -0.055 NA
HETATM   57  O7  UNL     1       3.892   4.103  -3.003  1.00  0.00    -0.269 OA
ENDBRANCH  42  55
ENDBRANCH  31  33
ENDBRANCH  30  31
ENDBRANCH   1  30
TORSDOF 14
