REMARK  3 active torsions:
REMARK  status: ('A' for Active; 'I' for Inactive)
REMARK    1  A    between atoms: N2_3  and  N3_4 
REMARK    2  A    between atoms: N2_3  and  C2_7 
REMARK    3  A    between atoms: C3_10  and  N5_11 
REMARK       I    between atoms: N5_11  and  C4_13 
ROOT
HETATM    1  N1  UNL     1      -3.303  -0.113  -2.379  1.00  0.00    -0.169 NA
HETATM    2  C1  UNL     1      -2.672  -0.320  -1.425  1.00  0.00     0.220 C 
HETATM    3  N2  UNL     1      -1.921  -0.549  -0.262  1.00  0.00    -0.021 N 
ENDROOT
BRANCH   3   4
HETATM    4  N3  UNL     1      -2.400  -1.440   0.698  1.00  0.00    -0.315 N 
ATOM      5  H32 UNL     1      -3.292  -1.906   0.532  1.00  0.00     0.178 HD
ATOM      6  H31 UNL     1      -1.854  -1.606   1.543  1.00  0.00     0.178 HD
ENDBRANCH   3   4
BRANCH   3   7
HETATM    7  C2  UNL     1      -0.682   0.099  -0.032  1.00  0.00     0.729 A 
HETATM    8  N4  UNL     1       0.520  -0.507  -0.181  1.00  0.00    -0.019 N 
HETATM    9  C3  UNL     1       1.672   0.185   0.049  1.00  0.00     0.704 A 
ATOM     10  H4  UNL     1       0.564  -1.485  -0.466  1.00  0.00     0.203 HD
HETATM   11  N6  UNL     1       1.647   1.492   0.430  1.00  0.00    -0.165 N 
HETATM   12  C5  UNL     1       0.454   2.091   0.578  1.00  0.00     0.205 A 
ATOM     13  H6  UNL     1       2.513   2.004   0.599  1.00  0.00     0.186 HD
HETATM   14  S1  UNL     1       0.401   3.660   1.038  1.00  0.00    -0.040 SA
HETATM   15  N7  UNL     1      -0.678   1.388   0.347  1.00  0.00    -0.163 N 
ATOM     16  H7  UNL     1      -1.574   1.860   0.467  1.00  0.00     0.187 HD
BRANCH   9  17
HETATM   17  N5  UNL     1       2.833  -0.333  -0.064  1.00  0.00    -0.133 N 
HETATM   18  C4  UNL     1       2.964  -1.681  -0.443  1.00  0.00     0.302 C 
HETATM   19  O1  UNL     1       2.643  -2.057  -1.584  1.00  0.00    -0.629 OA
HETATM   20  O2  UNL     1       3.453  -2.599   0.465  1.00  0.00    -0.629 OA
ATOM     21  H5  UNL     1       3.664   0.229   0.120  1.00  0.00     0.190 HD
ENDBRANCH   9  17
ENDBRANCH   3   7
TORSDOF 3
