REMARK  10 active torsions:
REMARK  status: ('A' for Active; 'I' for Inactive)
REMARK    1  A    between atoms: C2_2  and  C5_5 
REMARK    2  A    between atoms: C5_5  and  O2_7 
REMARK    3  A    between atoms: O2_7  and  C6_8 
REMARK    4  A    between atoms: C6_8  and  C7_9 
REMARK    5  A    between atoms: C9_11  and  O3_12 
REMARK    6  A    between atoms: O3_12  and  C10_13 
REMARK    7  A    between atoms: C10_13  and  C11_15 
REMARK    8  A    between atoms: C11_15  and  C12_16 
REMARK    9  A    between atoms: C12_16  and  C13_17 
REMARK   10  A    between atoms: C18_24  and  O7_25 
ROOT
HETATM    1  C7  UNL     1       0.258   0.158   0.644  1.00  0.00     0.010 C 
HETATM    2  C8  UNL     1       0.820  -0.898  -0.290  1.00  0.00     0.020 C 
HETATM    3  C9  UNL     1       1.215   1.313   0.533  1.00  0.00     0.142 C 
HETATM    4  C14 UNL     1       0.541   2.675   0.559  1.00  0.00     0.034 C 
HETATM    5  C15 UNL     1      -0.147   2.625  -0.756  1.00  0.00     0.014 C 
HETATM    6  C16 UNL     1      -1.380   1.784  -0.447  1.00  0.00    -0.013 C 
HETATM    7  C17 UNL     1      -2.270   2.835   0.257  1.00  0.00     0.018 C 
HETATM    8  C18 UNL     1      -1.881   1.587  -1.849  1.00  0.00     0.127 C 
HETATM    9  C19 UNL     1      -2.867   0.559  -2.118  1.00  0.00     0.038 C 
HETATM   10  C20 UNL     1      -2.526  -0.696  -1.345  1.00  0.00     0.004 C 
HETATM   11  C21 UNL     1      -3.552  -1.666  -1.712  1.00  0.00    -0.043 C 
HETATM   12  C22 UNL     1      -4.838  -1.014  -2.268  1.00  0.00     0.015 C 
HETATM   13  C23 UNL     1      -3.071  -2.400  -2.998  1.00  0.00     0.015 C 
HETATM   14  C24 UNL     1      -3.885  -2.767  -0.771  1.00  0.00     0.009 C 
HETATM   15  C25 UNL     1      -3.508  -2.566   0.635  1.00  0.00     0.002 C 
HETATM   16  C26 UNL     1      -2.329  -1.667   0.881  1.00  0.00     0.010 C 
HETATM   17  C27 UNL     1      -2.248  -0.409   0.108  1.00  0.00    -0.034 C 
HETATM   18  C28 UNL     1      -3.579   0.234   0.608  1.00  0.00     0.016 C 
HETATM   19  C29 UNL     1      -1.161   0.553   0.377  1.00  0.00     0.017 C 
ENDROOT
BRANCH   1  20
HETATM   20  C6  UNL     1       0.518  -0.409   2.024  1.00  0.00     0.191 C 
BRANCH  20  21
HETATM   21  O2  UNL     1       1.698  -0.729   2.499  1.00  0.00    -0.320 OA
BRANCH  21  22
HETATM   22  C5  UNL     1       2.887  -0.774   2.953  1.00  0.00     0.266 C 
HETATM   23  O1  UNL     1       3.505   0.301   3.117  1.00  0.00    -0.264 OA
BRANCH  22  24
HETATM   24  C2  UNL     1       3.572  -2.067   3.299  1.00  0.00     0.037 C 
HETATM   25  C1  UNL     1       3.658  -2.957   2.061  1.00  0.00     0.025 C 
HETATM   26  C3  UNL     1       2.773  -2.822   4.332  1.00  0.00     0.025 C 
HETATM   27  C4  UNL     1       4.960  -1.790   3.774  1.00  0.00     0.025 C 
ENDBRANCH  22  24
ENDBRANCH  21  22
ENDBRANCH  20  21
ENDBRANCH   1  20
BRANCH   3  28
HETATM   28  O3  UNL     1       1.909   1.299  -0.713  1.00  0.00    -0.315 OA
BRANCH  28  29
HETATM   29  C10 UNL     1       3.261   1.514  -0.832  1.00  0.00     0.259 C 
HETATM   30  O4  UNL     1       3.949   1.745   0.191  1.00  0.00    -0.265 OA
BRANCH  29  31
HETATM   31  C11 UNL     1       3.935   1.480  -2.155  1.00  0.00     0.121 C 
BRANCH  31  32
HETATM   32  C12 UNL     1       3.837   2.734  -2.940  1.00  0.00     0.123 C 
BRANCH  32  33
HETATM   33  C13 UNL     1       4.419   3.938  -2.342  1.00  0.00     0.172 C 
HETATM   34  O5  UNL     1       4.252   5.024  -2.954  1.00  0.00    -0.648 OA
HETATM   35  O6  UNL     1       5.126   3.925  -1.163  1.00  0.00    -0.648 OA
ENDBRANCH  32  33
ENDBRANCH  31  32
ENDBRANCH  29  31
ENDBRANCH  28  29
ENDBRANCH   3  28
BRANCH   8  36
HETATM   36  O7  UNL     1      -2.430   2.830  -2.241  1.00  0.00    -0.395 OA
ATOM     37  H7  UNL     1      -2.747   2.705  -3.128  1.00  0.00     0.210 HD
ENDBRANCH   8  36
TORSDOF 10
