REMARK  12 active torsions:
REMARK  status: ('A' for Active; 'I' for Inactive)
REMARK       I    between atoms: N1_2  and  C2_4 
REMARK    1  A    between atoms: C2_4  and  C3_6 
REMARK    2  A    between atoms: C3_6  and  C4_7 
REMARK    3  A    between atoms: C4_7  and  C5_8 
REMARK    4  A    between atoms: C5_8  and  N2_9 
REMARK    5  A    between atoms: C5_8  and  C22_41 
REMARK    6  A    between atoms: C8_15  and  C9_16 
REMARK    7  A    between atoms: C9_16  and  C10_17 
REMARK    8  A    between atoms: C10_17  and  C11_18 
REMARK    9  A    between atoms: C11_18  and  C12_19 
REMARK   10  A    between atoms: C12_19  and  C13_20 
REMARK   11  A    between atoms: C14_25  and  N6_26 
REMARK       I    between atoms: N6_26  and  C15_28 
REMARK   12  A    between atoms: C15_28  and  C16_30 
ROOT
HETATM    1  N2  UNL     1      -6.109  -0.299  -0.785  1.00  0.00    -0.369 N 
ATOM      2  H2  UNL     1      -6.418   0.143  -1.651  1.00  0.00     0.161 HD
HETATM    3  C6  UNL     1      -4.898  -0.705  -0.749  1.00  0.00     0.131 A 
HETATM    4  C7  UNL     1      -4.085  -0.520  -1.888  1.00  0.00     0.139 A 
HETATM    5  N3  UNL     1      -2.823  -0.950  -1.816  1.00  0.00    -0.351 N 
ATOM      6  H3  UNL     1      -2.221  -0.825  -2.630  1.00  0.00     0.166 HD
HETATM    7  C8  UNL     1      -2.311  -1.535  -0.731  1.00  0.00     0.095 A 
HETATM    8  N7  UNL     1      -3.105  -1.694   0.326  1.00  0.00    -0.287 N 
ATOM      9  H7  UNL     1      -2.731  -2.139   1.164  1.00  0.00     0.188 HD
HETATM   10  N8  UNL     1      -4.386  -1.285   0.321  1.00  0.00    -0.283 N 
ATOM     11  H8  UNL     1      -4.966  -1.424   1.149  1.00  0.00     0.188 HD
ENDROOT
BRANCH   7  12
HETATM   12  C9  UNL     1      -0.918  -1.992  -0.693  1.00  0.00     0.078 C 
BRANCH  12  13
HETATM   13  C10 UNL     1      -0.075  -0.845  -0.178  1.00  0.00     0.008 C 
BRANCH  13  14
HETATM   14  C11 UNL     1       1.377  -1.178  -0.089  1.00  0.00     0.007 C 
BRANCH  14  15
HETATM   15  C12 UNL     1       1.974  -1.560  -1.427  1.00  0.00     0.066 C 
BRANCH  15  16
HETATM   16  C13 UNL     1       3.432  -1.870  -1.205  1.00  0.00     0.069 A 
HETATM   17  N4  UNL     1       3.966  -3.044  -0.908  1.00  0.00    -0.296 N 
HETATM   18  N5  UNL     1       5.219  -3.161  -0.748  1.00  0.00    -0.279 N 
ATOM     19  H4  UNL     1       3.365  -3.862  -0.807  1.00  0.00     0.187 HD
HETATM   20  C14 UNL     1       5.984  -2.072  -0.888  1.00  0.00     0.167 A 
ATOM     21  H5  UNL     1       5.634  -4.064  -0.518  1.00  0.00     0.189 HD
HETATM   22  S1  UNL     1       4.821  -0.878  -1.258  1.00  0.00    -0.038 SA
BRANCH  20  23
HETATM   23  N6  UNL     1       7.291  -1.990  -0.763  1.00  0.00    -0.306 N 
HETATM   24  C15 UNL     1       7.945  -0.742  -0.947  1.00  0.00     0.227 C 
HETATM   25  O2  UNL     1       7.927  -0.259  -2.106  1.00  0.00    -0.273 OA
ATOM     26  H6  UNL     1       7.835  -2.822  -0.534  1.00  0.00     0.171 HD
BRANCH  24  27
HETATM   27  C16 UNL     1       8.631  -0.002   0.136  1.00  0.00     0.078 C 
HETATM   28  C17 UNL     1       7.611   0.311   1.203  1.00  0.00     0.014 C 
HETATM   29  C18 UNL     1       8.121   1.325   2.208  1.00  0.00     0.001 C 
HETATM   30  C19 UNL     1       8.483   2.569   1.415  1.00  0.00     0.000 C 
HETATM   31  C20 UNL     1       9.729   2.202   0.611  1.00  0.00     0.001 C 
HETATM   32  C21 UNL     1       9.289   1.204  -0.431  1.00  0.00     0.014 C 
ENDBRANCH  24  27
ENDBRANCH  20  23
ENDBRANCH  15  16
ENDBRANCH  14  15
ENDBRANCH  13  14
ENDBRANCH  12  13
ENDBRANCH   7  12
BRANCH   1  33
HETATM   33  C5  UNL     1      -7.049  -0.398   0.235  1.00  0.00     0.087 C 
BRANCH  33  34
HETATM   34  C4  UNL     1      -7.995   0.769   0.324  1.00  0.00     0.034 C 
BRANCH  34  35
HETATM   35  C3  UNL     1      -7.332   2.061   0.566  1.00  0.00     0.105 C 
BRANCH  35  36
HETATM   36  C2  UNL     1      -6.488   2.654  -0.446  1.00  0.00     0.217 C 
HETATM   37  N1  UNL     1      -5.572   3.684  -0.049  1.00  0.00    -0.365 N 
HETATM   38  C1  UNL     1      -4.682   4.344  -0.978  1.00  0.00     0.149 C 
ATOM     39  H1  UNL     1      -5.547   3.963   0.932  1.00  0.00     0.161 HD
HETATM   40  O1  UNL     1      -6.471   2.359  -1.658  1.00  0.00    -0.274 OA
ENDBRANCH  35  36
ENDBRANCH  34  35
ENDBRANCH  33  34
BRANCH  33  41
HETATM   41  C22 UNL     1      -7.891  -1.683  -0.000  1.00  0.00     0.008 A 
HETATM   42  C23 UNL     1      -8.900  -1.997   1.087  1.00  0.00     0.007 A 
HETATM   43  C24 UNL     1      -7.658  -2.818   0.929  1.00  0.00     0.007 A 
ENDBRANCH  33  41
ENDBRANCH   1  33
TORSDOF 12
