REMARK  12 active torsions:
REMARK  status: ('A' for Active; 'I' for Inactive)
REMARK    1  A    between atoms: O1_2  and  C2_3 
REMARK    2  A    between atoms: C4_5  and  C5_6 
REMARK    3  A    between atoms: C5_6  and  N1_7 
REMARK    4  A    between atoms: C11_13  and  N2_14 
REMARK    5  A    between atoms: N2_14  and  C12_15 
REMARK    6  A    between atoms: C16_25  and  N6_26 
REMARK    7  A    between atoms: C17_28  and  C18_29 
REMARK    8  A    between atoms: C18_29  and  N7_30 
REMARK    9  A    between atoms: N7_30  and  C19_33 
REMARK   10  A    between atoms: C19_33  and  C20_34 
REMARK   11  A    between atoms: C20_34  and  C21_35 
REMARK   12  A    between atoms: C21_35  and  N8_36 
ROOT
HETATM    1  C12 UNL     1      -2.060   2.708  -0.674  1.00  0.00     0.193 A 
HETATM    2  N3  UNL     1      -2.260   3.985  -1.193  1.00  0.00    -0.327 N 
ATOM      3  H3  UNL     1      -3.213   4.313  -1.347  1.00  0.00     0.169 HD
HETATM    4  C13 UNL     1      -1.247   4.787  -1.493  1.00  0.00     0.183 A 
HETATM    5  N4  UNL     1       0.043   4.420  -1.319  1.00  0.00    -0.350 N 
ATOM      6  H4  UNL     1       0.801   5.060  -1.558  1.00  0.00     0.166 HD
HETATM    7  C14 UNL     1       0.312   3.191  -0.823  1.00  0.00     0.064 A 
HETATM    8  C15 UNL     1       1.601   2.762  -0.688  1.00  0.00     0.120 A 
HETATM    9  N5  UNL     1       1.921   1.516  -0.250  1.00  0.00    -0.350 N 
ATOM     10  H5  UNL     1       2.900   1.243  -0.168  1.00  0.00     0.166 HD
HETATM   11  C16 UNL     1       0.943   0.633   0.079  1.00  0.00     0.105 A 
HETATM   12  C26 UNL     1      -0.379   1.087  -0.058  1.00  0.00     0.067 A 
HETATM   13  C27 UNL     1      -0.724   2.343  -0.503  1.00  0.00     0.054 A 
ENDROOT
BRANCH  11  14
HETATM   14  N6  UNL     1       1.206  -0.563   0.329  1.00  0.00    -0.354 N 
HETATM   15  C17 UNL     1       2.210  -1.473   0.414  1.00  0.00     0.089 C 
ATOM     16  H6  UNL     1       0.332  -1.037   0.556  1.00  0.00     0.166 HD
BRANCH  15  17
HETATM   17  C18 UNL     1       3.464  -1.291   1.189  1.00  0.00     0.276 C 
BRANCH  17  18
HETATM   18  N7  UNL     1       4.316  -2.497   0.954  1.00  0.00    -0.071 N 
ATOM     19  H72 UNL     1       5.018  -2.588   1.688  1.00  0.00     0.277 HD
ATOM     20  H71 UNL     1       3.782  -3.350   1.119  1.00  0.00     0.277 HD
BRANCH  18  21
HETATM   21  C19 UNL     1       4.925  -2.531  -0.322  1.00  0.00     0.234 C 
BRANCH  21  22
HETATM   22  C20 UNL     1       6.078  -1.530  -0.460  1.00  0.00     0.047 C 
BRANCH  22  23
HETATM   23  C21 UNL     1       7.197  -1.908   0.477  1.00  0.00     0.127 C 
BRANCH  23  24
HETATM   24  N8  UNL     1       8.276  -0.960   0.389  1.00  0.00    -0.352 N 
HETATM   25  C22 UNL     1       9.419  -0.929  -0.499  1.00  0.00     0.126 C 
HETATM   26  C23 UNL     1      10.117   0.401  -0.322  1.00  0.00     0.029 C 
HETATM   27  C24 UNL     1       9.763   0.749   1.134  1.00  0.00     0.104 C 
HETATM   28  C25 UNL     1       8.389   0.204   1.238  1.00  0.00     0.219 C 
HETATM   29  O2  UNL     1       7.506   0.714   1.967  1.00  0.00    -0.273 OA
ENDBRANCH  23  24
ENDBRANCH  22  23
ENDBRANCH  21  22
ENDBRANCH  18  21
ENDBRANCH  17  18
ENDBRANCH  15  17
ENDBRANCH  11  14
BRANCH   1  30
HETATM   30  N2  UNL     1      -3.011   2.061  -0.416  1.00  0.00    -0.384 NA
BRANCH  30  31
HETATM   31  C11 UNL     1      -4.072   1.323  -0.122  1.00  0.00     0.143 A 
HETATM   32  C2  UNL     1      -4.700   0.446  -1.018  1.00  0.00     0.109 A 
HETATM   33  C3  UNL     1      -5.831  -0.197  -0.625  1.00  0.00     0.053 A 
HETATM   34  C4  UNL     1      -6.383  -0.012   0.627  1.00  0.00    -0.012 A 
HETATM   35  C8  UNL     1      -5.782   0.851   1.547  1.00  0.00    -0.047 A 
HETATM   36  C9  UNL     1      -6.362   1.022   2.889  1.00  0.00     0.049 C 
HETATM   37  C10 UNL     1      -4.660   1.485   1.158  1.00  0.00     0.055 A 
BRANCH  32  38
HETATM   38  O1  UNL     1      -4.091   0.296  -2.277  1.00  0.00    -0.352 OA
HETATM   39  C1  UNL     1      -4.642  -0.562  -3.228  1.00  0.00     0.210 C 
ENDBRANCH  32  38
BRANCH  34  40
HETATM   40  C5  UNL     1      -7.655  -0.657   1.007  1.00  0.00     0.096 C 
BRANCH  40  41
HETATM   41  N1  UNL     1      -8.285  -1.525   0.124  1.00  0.00    -0.398 N 
HETATM   42  C6  UNL     1      -7.699  -2.779  -0.195  1.00  0.00     0.148 C 
HETATM   43  C7  UNL     1      -9.187  -0.963  -0.829  1.00  0.00     0.148 C 
ENDBRANCH  40  41
ENDBRANCH  34  40
ENDBRANCH  30  31
ENDBRANCH   1  30
TORSDOF 12
