REMARK  13 active torsions:
REMARK  status: ('A' for Active; 'I' for Inactive)
REMARK    1  A    between atoms: C3_3  and  C4_4 
REMARK    2  A    between atoms: C5_5  and  C6_6 
REMARK    3  A    between atoms: C6_6  and  C7_7 
REMARK    4  A    between atoms: C8_11  and  C9_12 
REMARK    5  A    between atoms: C9_12  and  C10_13 
REMARK    6  A    between atoms: C10_13  and  C11_14 
REMARK    7  A    between atoms: C10_13  and  N2_16 
REMARK       I    between atoms: N2_16  and  C13_18 
REMARK    8  A    between atoms: C13_18  and  C14_20 
REMARK       I    between atoms: C14_20  and  N3_22 
REMARK    9  A    between atoms: N3_22  and  C15_24 
REMARK   10  A    between atoms: C15_24  and  C16_25 
REMARK       I    between atoms: C16_25  and  N4_27 
REMARK   11  A    between atoms: N4_27  and  C17_29 
REMARK   12  A    between atoms: C27_42  and  C28_43 
REMARK   13  A    between atoms: C28_43  and  C29_44 
ROOT
HETATM    1  C1  UNL     1       7.824   5.542   0.812  1.00  0.00     0.113 C 
HETATM    2  C2  UNL     1       7.476   4.122   1.017  1.00  0.00    -0.097 C 
HETATM    3  C3  UNL     1       7.174   2.964   1.170  1.00  0.00    -0.015 C 
ENDROOT
BRANCH   3   4
HETATM    4  C4  UNL     1       6.798   1.600   1.328  1.00  0.00    -0.015 C 
HETATM    5  C5  UNL     1       6.457   0.436   1.449  1.00  0.00    -0.090 C 
BRANCH   5   6
HETATM    6  C6  UNL     1       6.017  -0.963   1.606  1.00  0.00     0.138 C 
BRANCH   6   7
HETATM    7  C7  UNL     1       4.903  -1.171   0.606  1.00  0.00     0.290 C 
HETATM    8  N1  UNL     1       3.798  -0.259   0.839  1.00  0.00    -0.037 N 
HETATM    9  C8  UNL     1       2.962  -0.041  -0.327  1.00  0.00     0.313 C 
ATOM     10  H12 UNL     1       3.236  -0.571   1.631  1.00  0.00     0.281 HD
ATOM     11  H11 UNL     1       4.137   0.629   1.209  1.00  0.00     0.281 HD
HETATM   12  N5  UNL     1       2.377  -1.198  -0.899  1.00  0.00    -0.328 N 
HETATM   13  C26 UNL     1       2.766  -2.251  -1.769  1.00  0.00     0.242 C 
ATOM     14  H5  UNL     1       1.406  -1.304  -0.604  1.00  0.00     0.164 HD
HETATM   15  O4  UNL     1       1.782  -2.828  -2.315  1.00  0.00    -0.271 OA
HETATM   16  C27 UNL     1       4.044  -2.865  -2.214  1.00  0.00     0.177 C 
HETATM   17  N6  UNL     1       5.118  -1.937  -1.947  1.00  0.00    -0.346 N 
HETATM   18  C32 UNL     1       5.424  -1.159  -0.764  1.00  0.00     0.250 C 
ATOM     19  H6  UNL     1       5.770  -1.808  -2.721  1.00  0.00     0.163 HD
HETATM   20  O5  UNL     1       6.322  -0.318  -1.016  1.00  0.00    -0.271 OA
BRANCH   9  21
HETATM   21  C9  UNL     1       2.106   1.136  -0.106  1.00  0.00     0.052 C 
BRANCH  21  22
HETATM   22  C10 UNL     1       1.130   1.242   0.967  1.00  0.00     0.012 C 
BRANCH  22  23
HETATM   23  C11 UNL     1       1.512   1.146   2.390  1.00  0.00     0.052 C 
HETATM   24  C12 UNL     1       2.473   2.205   2.882  1.00  0.00     0.011 C 
ENDBRANCH  22  23
BRANCH  22  25
HETATM   25  N2  UNL     1      -0.163   0.648   0.683  1.00  0.00    -0.323 N 
HETATM   26  C13 UNL     1      -1.346   1.408   0.532  1.00  0.00     0.313 C 
HETATM   27  O1  UNL     1      -1.229   2.661   0.670  1.00  0.00    -0.262 OA
ATOM     28  H2  UNL     1      -0.221  -0.366   0.588  1.00  0.00     0.169 HD
BRANCH  26  29
HETATM   29  C14 UNL     1      -2.667   0.882   0.237  1.00  0.00     0.310 C 
HETATM   30  O2  UNL     1      -2.808  -0.359   0.020  1.00  0.00    -0.262 OA
HETATM   31  N3  UNL     1      -3.765   1.741   0.196  1.00  0.00    -0.335 N 
ATOM     32  H3  UNL     1      -3.553   2.717   0.402  1.00  0.00     0.164 HD
BRANCH  31  33
HETATM   33  C15 UNL     1      -5.136   1.472  -0.088  1.00  0.00     0.114 C 
HETATM   34  C21 UNL     1      -5.921   2.770   0.080  1.00  0.00     0.041 C 
HETATM   35  C22 UNL     1      -6.492   3.247  -1.213  1.00  0.00     0.003 C 
HETATM   36  C23 UNL     1      -5.542   3.297  -2.359  1.00  0.00     0.000 C 
HETATM   37  C24 UNL     1      -4.691   2.078  -2.464  1.00  0.00     0.003 C 
HETATM   38  C25 UNL     1      -5.269   1.008  -1.546  1.00  0.00     0.041 C 
BRANCH  33  39
HETATM   39  C16 UNL     1      -5.715   0.487   0.828  1.00  0.00     0.246 C 
HETATM   40  O3  UNL     1      -5.059  -0.080   1.699  1.00  0.00    -0.271 OA
HETATM   41  N4  UNL     1      -7.117   0.189   0.679  1.00  0.00    -0.351 N 
ATOM     42  H4  UNL     1      -7.656   0.668  -0.042  1.00  0.00     0.163 HD
BRANCH  41  43
HETATM   43  C17 UNL     1      -7.772  -0.773   1.530  1.00  0.00     0.022 C 
HETATM   44  C18 UNL     1      -7.619  -0.387   3.004  1.00  0.00     0.037 C 
HETATM   45  C19 UNL     1      -7.314  -2.185   1.300  1.00  0.00     0.037 C 
HETATM   46  C20 UNL     1      -9.269  -0.733   1.199  1.00  0.00     0.037 C 
ENDBRANCH  41  43
ENDBRANCH  33  39
ENDBRANCH  31  33
ENDBRANCH  26  29
ENDBRANCH  22  25
ENDBRANCH  21  22
ENDBRANCH   9  21
BRANCH  16  47
HETATM   47  C28 UNL     1       4.165  -4.180  -1.508  1.00  0.00     0.038 C 
BRANCH  47  48
HETATM   48  C29 UNL     1       5.392  -4.968  -1.807  1.00  0.00    -0.020 C 
HETATM   49  C30 UNL     1       5.552  -5.333  -3.262  1.00  0.00     0.009 C 
HETATM   50  C31 UNL     1       6.657  -4.398  -1.209  1.00  0.00     0.009 C 
ENDBRANCH  47  48
ENDBRANCH  16  47
ENDBRANCH   6   7
ENDBRANCH   5   6
ENDBRANCH   3   4
TORSDOF 13
