REMARK  11 active torsions:
REMARK  status: ('A' for Active; 'I' for Inactive)
REMARK    1  A    between atoms: C2_2  and  N1_3 
REMARK    2  A    between atoms: C2_2  and  C18_26 
REMARK       I    between atoms: N1_3  and  C3_5 
REMARK       I    between atoms: C3_5  and  N2_7 
REMARK    3  A    between atoms: C9_13  and  C10_14 
REMARK       I    between atoms: C10_14  and  N3_16 
REMARK    4  A    between atoms: N3_16  and  C11_17 
REMARK    5  A    between atoms: C11_17  and  C12_18 
REMARK    6  A    between atoms: C11_17  and  C15_23 
REMARK    7  A    between atoms: C12_18  and  C13_19 
REMARK    8  A    between atoms: C13_19  and  C14_20 
REMARK       I    between atoms: C18_26  and  N5_28 
REMARK    9  A    between atoms: N5_28  and  C19_30 
REMARK       I    between atoms: N6_34  and  C23_35 
REMARK       I    between atoms: C23_35  and  N7_37 
REMARK   10  A    between atoms: N7_37  and  C24_39 
REMARK   11  A    between atoms: C24_39  and  C26_41 
ROOT
HETATM    1  N1  UNL     1      -1.148  -1.052   0.193  1.00  0.00    -0.330 N 
ATOM      2  H1  UNL     1      -0.725  -1.444  -0.648  1.00  0.00     0.165 HD
HETATM    3  C3  UNL     1      -2.534  -1.163   0.366  1.00  0.00     0.319 C 
HETATM    4  O1  UNL     1      -3.004  -0.680   1.461  1.00  0.00    -0.247 OA
HETATM    5  N2  UNL     1      -3.379  -1.746  -0.601  1.00  0.00    -0.319 N 
HETATM    6  C4  UNL     1      -2.877  -2.409  -1.753  1.00  0.00     0.133 C 
HETATM    7  C5  UNL     1      -3.702  -3.598  -2.182  1.00  0.00     0.008 A 
HETATM    8  C6  UNL     1      -4.574  -4.213  -1.133  1.00  0.00     0.011 A 
HETATM    9  C7  UNL     1      -5.174  -3.310  -2.151  1.00  0.00    -0.006 A 
HETATM   10  C8  UNL     1      -5.412  -1.861  -1.820  1.00  0.00     0.041 C 
HETATM   11  C9  UNL     1      -4.848  -1.560  -0.456  1.00  0.00     0.196 C 
ENDROOT
BRANCH   1  12
HETATM   12  C2  UNL     1      -0.300  -0.405   1.160  1.00  0.00     0.174 C 
HETATM   13  C1  UNL     1      -0.359   1.106   0.797  1.00  0.00     0.042 C 
BRANCH  12  14
HETATM   14  C18 UNL     1       1.097  -0.834   1.234  1.00  0.00     0.240 C 
HETATM   15  O4  UNL     1       1.456  -1.971   0.848  1.00  0.00    -0.271 OA
HETATM   16  N5  UNL     1       2.091   0.070   1.754  1.00  0.00    -0.353 N 
ATOM     17  H5  UNL     1       1.771   0.989   2.060  1.00  0.00     0.163 HD
BRANCH  16  18
HETATM   18  C19 UNL     1       3.477  -0.208   1.877  1.00  0.00     0.102 C 
HETATM   19  C20 UNL     1       4.011   0.370   3.170  1.00  0.00     0.028 C 
HETATM   20  C21 UNL     1       5.480   0.235   3.318  1.00  0.00     0.022 C 
HETATM   21  C22 UNL     1       6.196  -0.327   2.148  1.00  0.00     0.127 C 
HETATM   22  N6  UNL     1       5.625   0.083   0.874  1.00  0.00    -0.332 N 
HETATM   23  C23 UNL     1       6.478   0.063  -0.251  1.00  0.00     0.318 C 
HETATM   24  C30 UNL     1       4.259   0.511   0.751  1.00  0.00     0.152 C 
HETATM   25  O5  UNL     1       5.972   0.398  -1.378  1.00  0.00    -0.247 OA
HETATM   26  N7  UNL     1       7.847  -0.291  -0.251  1.00  0.00    -0.338 N 
ATOM     27  H7  UNL     1       8.302  -0.568   0.619  1.00  0.00     0.164 HD
BRANCH  26  28
HETATM   28  C24 UNL     1       8.599  -0.261  -1.476  1.00  0.00     0.089 C 
HETATM   29  C25 UNL     1       9.315  -1.563  -1.743  1.00  0.00     0.033 C 
BRANCH  28  30
HETATM   30  C26 UNL     1       9.566   0.901  -1.418  1.00  0.00    -0.031 C 
HETATM   31  C27 UNL     1       8.739   2.174  -1.247  1.00  0.00     0.016 C 
HETATM   32  C28 UNL     1      10.527   0.822  -0.275  1.00  0.00     0.016 C 
HETATM   33  C29 UNL     1      10.269   1.001  -2.755  1.00  0.00     0.016 C 
ENDBRANCH  28  30
ENDBRANCH  26  28
ENDBRANCH  16  18
ENDBRANCH  12  14
ENDBRANCH   1  12
BRANCH  11  34
HETATM   34  C10 UNL     1      -5.015  -0.077  -0.180  1.00  0.00     0.310 C 
HETATM   35  O2  UNL     1      -4.063   0.626  -0.687  1.00  0.00    -0.255 OA
HETATM   36  N3  UNL     1      -6.066   0.487   0.547  1.00  0.00    -0.407 NA
BRANCH  36  37
HETATM   37  C11 UNL     1      -7.065   1.030   1.240  1.00  0.00     0.170 C 
BRANCH  37  38
HETATM   38  C12 UNL     1      -8.218   1.535   0.287  1.00  0.00     0.048 C 
BRANCH  38  39
HETATM   39  C13 UNL     1      -7.620   2.564  -0.647  1.00  0.00     0.102 C 
BRANCH  39  40
HETATM   40  C14 UNL     1      -8.678   3.052  -1.549  1.00  0.00     0.231 C 
HETATM   41  N4  UNL     1      -8.373   4.062  -2.501  1.00  0.00    -0.062 NA
HETATM   42  O3  UNL     1      -9.826   2.597  -1.491  1.00  0.00    -0.277 OA
ENDBRANCH  39  40
ENDBRANCH  38  39
ENDBRANCH  37  38
BRANCH  37  43
HETATM   43  C15 UNL     1      -7.828   0.049   2.153  1.00  0.00     0.013 C 
HETATM   44  C16 UNL     1      -8.458  -1.060   1.340  1.00  0.00     0.012 C 
HETATM   45  C17 UNL     1      -8.937   0.819   2.829  1.00  0.00     0.012 C 
ENDBRANCH  37  43
ENDBRANCH  36  37
ENDBRANCH  11  34
TORSDOF 11
