REMARK  8 active torsions:
REMARK  status: ('A' for Active; 'I' for Inactive)
REMARK    1  A    between atoms: C2_2  and  C3_3 
REMARK    2  A    between atoms: C6_6  and  N1_7 
REMARK       I    between atoms: N1_7  and  C7_9 
REMARK    3  A    between atoms: C7_9  and  C8_11 
REMARK    4  A    between atoms: C8_11  and  C9_12 
REMARK    5  A    between atoms: C8_11  and  C17_24 
REMARK    6  A    between atoms: C9_12  and  C10_13 
REMARK       I    between atoms: C10_13  and  N2_15 
REMARK    7  A    between atoms: C13_18  and  C14_19 
REMARK    8  A    between atoms: C17_24  and  C18_25 
ROOT
HETATM    1  C8  UNL     1      -0.284  -1.374  -0.034  1.00  0.00     0.087 C 
ENDROOT
BRANCH   1   2
HETATM    2  C7  UNL     1      -1.005  -0.450   0.828  1.00  0.00     0.222 C 
HETATM    3  N1  UNL     1      -1.221   0.924   0.534  1.00  0.00    -0.356 N 
ATOM      4  H1  UNL     1      -0.849   1.294  -0.341  1.00  0.00     0.162 HD
HETATM    5  O1  UNL     1      -1.488  -0.871   1.933  1.00  0.00    -0.273 OA
BRANCH   3   6
HETATM    6  C6  UNL     1      -1.934   1.818   1.401  1.00  0.00     0.088 A 
HETATM    7  C3  UNL     1      -3.078   2.571   0.812  1.00  0.00     0.008 A 
HETATM    8  C4  UNL     1      -2.441   3.866   1.259  1.00  0.00     0.009 A 
HETATM    9  C5  UNL     1      -1.256   3.099   1.746  1.00  0.00     0.026 A 
BRANCH   7  10
HETATM   10  C2  UNL     1      -3.184   2.532  -0.698  1.00  0.00     0.002 C 
HETATM   11  C1  UNL     1      -4.035   3.693  -1.152  1.00  0.00     0.005 C 
ENDBRANCH   7  10
ENDBRANCH   3   6
ENDBRANCH   1   2
BRANCH   1  12
HETATM   12  C9  UNL     1       1.202  -0.971  -0.165  1.00  0.00     0.117 C 
BRANCH  12  13
HETATM   13  C10 UNL     1       1.871  -0.987   1.160  1.00  0.00     0.220 C 
HETATM   14  O2  UNL     1       1.264  -1.333   2.206  1.00  0.00    -0.273 OA
HETATM   15  N2  UNL     1       3.238  -0.607   1.294  1.00  0.00    -0.352 N 
HETATM   16  C11 UNL     1       3.845  -0.637   2.599  1.00  0.00     0.126 C 
HETATM   17  C16 UNL     1       4.032  -0.191   0.143  1.00  0.00     0.126 C 
HETATM   18  C12 UNL     1       5.334  -0.594   2.439  1.00  0.00     0.033 C 
HETATM   19  C13 UNL     1       5.709   0.703   1.761  1.00  0.00     0.078 C 
HETATM   20  C15 UNL     1       4.879   0.977   0.532  1.00  0.00     0.033 C 
BRANCH  19  21
HETATM   21  C14 UNL     1       7.129   0.668   1.368  1.00  0.00     0.235 C 
HETATM   22  N3  UNL     1       7.704   1.777   0.713  1.00  0.00    -0.062 NA
HETATM   23  O3  UNL     1       7.827  -0.335   1.612  1.00  0.00    -0.277 OA
ENDBRANCH  19  21
ENDBRANCH  12  13
ENDBRANCH   1  12
BRANCH   1  24
HETATM   24  C17 UNL     1      -0.836  -1.652  -1.390  1.00  0.00     0.019 C 
BRANCH  24  25
HETATM   25  C18 UNL     1      -2.155  -2.250  -1.551  1.00  0.00    -0.014 C 
HETATM   26  C19 UNL     1      -3.383  -1.581  -1.078  1.00  0.00     0.005 C 
HETATM   27  C20 UNL     1      -4.452  -2.687  -0.950  1.00  0.00     0.000 C 
HETATM   28  C21 UNL     1      -4.481  -3.627  -2.083  1.00  0.00     0.000 C 
HETATM   29  C22 UNL     1      -3.667  -3.286  -3.269  1.00  0.00     0.000 C 
HETATM   30  C23 UNL     1      -2.402  -2.572  -3.032  1.00  0.00     0.005 C 
ENDBRANCH  24  25
ENDBRANCH   1  24
TORSDOF 8
