REMARK  2 active torsions:
REMARK  status: ('A' for Active; 'I' for Inactive)
REMARK    1  A    between atoms: C8_10  and  N2_11 
REMARK    2  A    between atoms: N2_11  and  C9_13 
ROOT
HETATM    1  C1  UNL     1       4.945  -1.577  -1.668  1.00  0.00     0.048 C 
HETATM    2  C2  UNL     1       3.852  -0.896  -0.909  1.00  0.00    -0.060 A 
HETATM    3  C3  UNL     1       4.189   0.283  -0.278  1.00  0.00     0.007 A 
HETATM    4  C4  UNL     1       3.233   0.969   0.443  1.00  0.00     0.015 A 
HETATM    5  C5  UNL     1       1.954   0.461   0.518  1.00  0.00     0.002 A 
HETATM    6  C6  UNL     1       1.595  -0.718  -0.106  1.00  0.00     0.045 A 
HETATM    7  C7  UNL     1       2.575  -1.397  -0.830  1.00  0.00     0.037 A 
HETATM    8  N1  UNL     1       0.338  -1.226  -0.038  1.00  0.00    -0.341 N 
ATOM      9  H1  UNL     1       0.136  -2.101  -0.522  1.00  0.00     0.167 HD
HETATM   10  C8  UNL     1      -0.644  -0.624   0.638  1.00  0.00     0.118 A 
HETATM   11  C14 UNL     1      -0.335   0.564   1.284  1.00  0.00     0.019 A 
HETATM   12  C15 UNL     1      -1.354   1.190   1.986  1.00  0.00     0.016 A 
HETATM   13  C16 UNL     1      -1.043   2.368   2.625  1.00  0.00     0.001 A 
HETATM   14  C17 UNL     1       0.216   2.919   2.583  1.00  0.00     0.001 A 
HETATM   15  C18 UNL     1       1.251   2.286   1.871  1.00  0.00     0.013 A 
HETATM   16  C19 UNL     1       0.945   1.111   1.232  1.00  0.00    -0.010 A 
ENDROOT
BRANCH  10  17
HETATM   17  N2  UNL     1      -1.947  -1.141   0.715  1.00  0.00    -0.328 N 
ATOM     18  H2  UNL     1      -2.188  -1.677   1.549  1.00  0.00     0.169 HD
BRANCH  17  19
HETATM   19  C9  UNL     1      -2.861  -0.997  -0.174  1.00  0.00     0.106 A 
HETATM   20  C10 UNL     1      -2.716  -0.318  -1.341  1.00  0.00     0.048 A 
HETATM   21  C11 UNL     1      -3.784  -0.228  -2.235  1.00  0.00     0.005 A 
HETATM   22  C12 UNL     1      -4.995  -0.824  -1.948  1.00  0.00     0.017 A 
HETATM   23  C13 UNL     1      -5.102  -1.504  -0.754  1.00  0.00     0.089 A 
HETATM   24  N3  UNL     1      -4.057  -1.575   0.088  1.00  0.00    -0.352 N 
ATOM     25  H3  UNL     1      -4.170  -2.087   0.963  1.00  0.00     0.166 HD
ENDBRANCH  17  19
ENDBRANCH  10  17
TORSDOF 2
