REMARK  8 active torsions:
REMARK  status: ('A' for Active; 'I' for Inactive)
REMARK    1  A    between atoms: C3_7  and  N3_8 
REMARK    2  A    between atoms: C5_16  and  N7_17 
REMARK    3  A    between atoms: N7_17  and  C6_19 
REMARK    4  A    between atoms: C6_19  and  C7_20 
REMARK    5  A    between atoms: C9_22  and  N8_23 
REMARK       I    between atoms: N8_23  and  C10_25 
REMARK    6  A    between atoms: C10_25  and  C11_27 
REMARK    7  A    between atoms: C14_32  and  N10_33 
REMARK    8  A    between atoms: C16_41  and  N13_42 
ROOT
HETATM    1  C7  UNL     1      -0.288   0.246   0.654  1.00  0.00     0.005 A 
HETATM    2  C8  UNL     1       0.905  -0.243   0.103  1.00  0.00     0.043 A 
HETATM    3  C9  UNL     1       2.122  -0.038   0.695  1.00  0.00     0.051 A 
HETATM    4  C15 UNL     1       2.170   0.680   1.897  1.00  0.00     0.119 A 
HETATM    5  N12 UNL     1       1.044   1.131   2.425  1.00  0.00    -0.350 N 
ATOM      6  H12 UNL     1       1.083   1.644   3.306  1.00  0.00     0.166 HD
HETATM    7  C16 UNL     1      -0.149   0.936   1.840  1.00  0.00     0.106 A 
ENDROOT
BRANCH   1   8
HETATM    8  C6  UNL     1      -1.555   0.254  -0.051  1.00  0.00     0.162 C 
BRANCH   8   9
HETATM    9  N7  UNL     1      -2.704  -0.344   0.626  1.00  0.00    -0.378 N 
ATOM     10  H7  UNL     1      -2.593  -0.857   1.501  1.00  0.00     0.160 HD
BRANCH   9  11
HETATM   11  C5  UNL     1      -3.972  -0.187   0.027  1.00  0.00     0.144 A 
HETATM   12  C3  UNL     1      -4.647  -1.217  -0.529  1.00  0.00     0.166 A 
HETATM   13  N2  UNL     1      -5.864  -0.878  -1.084  1.00  0.00    -0.291 N 
HETATM   14  C2  UNL     1      -6.343   0.370  -1.076  1.00  0.00     0.330 A 
ATOM     15  H2  UNL     1      -6.423  -1.612  -1.519  1.00  0.00     0.172 HD
HETATM   16  N1  UNL     1      -5.679   1.390  -0.530  1.00  0.00    -0.269 N 
HETATM   17  O1  UNL     1      -7.487   0.631  -1.603  1.00  0.00    -0.246 OA
HETATM   18  C1  UNL     1      -6.108   2.757  -0.511  1.00  0.00     0.164 C 
HETATM   19  C17 UNL     1      -4.466   1.110   0.037  1.00  0.00     0.281 A 
HETATM   20  O3  UNL     1      -3.844   2.029   0.541  1.00  0.00    -0.265 OA
BRANCH  12  21
HETATM   21  N3  UNL     1      -4.222  -2.537  -0.590  1.00  0.00    -0.216 N 
HETATM   22  C4  UNL     1      -3.204  -3.201  -0.106  1.00  0.00     0.228 A 
HETATM   23  N4  UNL     1      -3.235  -4.528  -0.461  1.00  0.00    -0.279 N 
HETATM   24  N5  UNL     1      -4.333  -4.654  -1.201  1.00  0.00    -0.227 N 
ATOM     25  H4  UNL     1      -2.565  -5.255  -0.212  1.00  0.00     0.189 HD
HETATM   26  N6  UNL     1      -4.926  -3.488  -1.283  1.00  0.00    -0.219 N 
ATOM     27  H5  UNL     1      -4.660  -5.518  -1.634  1.00  0.00     0.210 HD
ATOM     28  H6  UNL     1      -5.792  -3.312  -1.792  1.00  0.00     0.210 HD
ENDBRANCH  12  21
ENDBRANCH   9  11
ENDBRANCH   8   9
ENDBRANCH   1   8
BRANCH   7  29
HETATM   29  N13 UNL     1      -1.178   1.391   2.482  1.00  0.00    -0.385 N 
ATOM     30 2H13 UNL     1      -2.084   1.243   2.038  1.00  0.00     0.157 HD
ATOM     31 1H13 UNL     1      -1.075   1.901   3.359  1.00  0.00     0.157 HD
ENDBRANCH   7  29
BRANCH   3  32
HETATM   32  N8  UNL     1       3.398  -0.478   0.162  1.00  0.00    -0.319 N 
HETATM   33  C10 UNL     1       4.434   0.474   0.102  1.00  0.00     0.290 C 
HETATM   34  O2  UNL     1       4.306   1.704   0.442  1.00  0.00    -0.264 OA
ATOM     35  H8  UNL     1       3.539  -1.437  -0.156  1.00  0.00     0.169 HD
BRANCH  33  36
HETATM   36  C11 UNL     1       5.766   0.114  -0.357  1.00  0.00     0.176 A 
HETATM   37  N9  UNL     1       6.313  -1.042   0.055  1.00  0.00    -0.348 N 
HETATM   38  C12 UNL     1       7.514  -1.482  -0.313  1.00  0.00     0.093 A 
ATOM     39  H9  UNL     1       5.770  -1.623   0.694  1.00  0.00     0.167 HD
HETATM   40  C13 UNL     1       8.262  -0.704  -1.176  1.00  0.00     0.065 A 
HETATM   41  C14 UNL     1       7.696   0.495  -1.603  1.00  0.00     0.101 A 
HETATM   42  N11 UNL     1       6.458   0.875  -1.186  1.00  0.00    -0.324 N 
ATOM     43  H11 UNL     1       6.061   1.755  -1.516  1.00  0.00     0.169 HD
BRANCH  41  44
HETATM   44  N10 UNL     1       8.379   1.209  -2.411  1.00  0.00    -0.385 N 
ATOM     45 2H10 UNL     1       9.307   0.924  -2.724  1.00  0.00     0.157 HD
ATOM     46 1H10 UNL     1       7.965   2.087  -2.724  1.00  0.00     0.157 HD
ENDBRANCH  41  44
ENDBRANCH  33  36
ENDBRANCH   3  32
TORSDOF 8
