REMARK  6 active torsions:
REMARK  status: ('A' for Active; 'I' for Inactive)
REMARK       I    between atoms: C1_2  and  N1_3 
REMARK    1  A    between atoms: C1_2  and  C15_20 
REMARK    2  A    between atoms: N1_3  and  C2_5 
REMARK    3  A    between atoms: C5_8  and  N2_9 
REMARK    4  A    between atoms: N2_9  and  C6_11 
REMARK    5  A    between atoms: C6_11  and  C7_12 
REMARK    6  A    between atoms: C19_26  and  C20_27 
ROOT
HETATM    1  O1  UNL     1       0.464   1.271  -0.718  1.00  0.00    -0.266 OA
HETATM    2  C1  UNL     1       0.750   0.243  -0.081  1.00  0.00     0.272 C 
HETATM    3  N1  UNL     1      -0.205  -0.636   0.406  1.00  0.00    -0.322 N 
ATOM      4  H1  UNL     1       0.133  -1.455   0.911  1.00  0.00     0.169 HD
ENDROOT
BRANCH   2   5
HETATM    5  C15 UNL     1       2.187  -0.043   0.161  1.00  0.00     0.103 A 
HETATM    6  C16 UNL     1       2.699  -1.119   0.853  1.00  0.00     0.067 A 
HETATM    7  C17 UNL     1       4.066  -1.014   0.848  1.00  0.00     0.061 A 
HETATM    8  N3  UNL     1       5.048  -1.784   1.370  1.00  0.00    -0.363 N 
HETATM    9  C27 UNL     1       4.387   0.128   0.152  1.00  0.00     0.060 A 
HETATM   10  C18 UNL     1       6.352  -1.482   1.239  1.00  0.00     0.100 A 
ATOM     11  H3  UNL     1       4.789  -2.627   1.883  1.00  0.00     0.165 HD
HETATM   12  C19 UNL     1       6.728  -0.348   0.551  1.00  0.00    -0.008 A 
HETATM   13  C26 UNL     1       5.728   0.440   0.017  1.00  0.00     0.045 A 
HETATM   14  N4  UNL     1       3.232   0.683  -0.244  1.00  0.00    -0.350 N 
ATOM     15  H4  UNL     1       3.161   1.546  -0.783  1.00  0.00     0.166 HD
BRANCH  12  16
HETATM   16  C20 UNL     1       8.143  -0.019   0.408  1.00  0.00    -0.025 A 
HETATM   17  C21 UNL     1       9.089  -0.332   1.370  1.00  0.00     0.012 A 
HETATM   18  C22 UNL     1      10.412  -0.007   1.201  1.00  0.00     0.001 A 
HETATM   19  C23 UNL     1      10.826   0.640   0.066  1.00  0.00     0.000 A 
HETATM   20  C24 UNL     1       9.918   0.965  -0.904  1.00  0.00     0.001 A 
HETATM   21  C25 UNL     1       8.598   0.637  -0.728  1.00  0.00     0.012 A 
ENDBRANCH  12  16
ENDBRANCH   2   5
BRANCH   3  22
HETATM   22  C2  UNL     1      -1.608  -0.499   0.265  1.00  0.00     0.035 A 
HETATM   23  C3  UNL     1      -2.417  -1.629   0.511  1.00  0.00     0.032 A 
HETATM   24  C4  UNL     1      -3.783  -1.572   0.414  1.00  0.00     0.031 A 
HETATM   25  C5  UNL     1      -4.448  -0.417   0.072  1.00  0.00     0.028 A 
HETATM   26  C13 UNL     1      -3.668   0.687  -0.168  1.00  0.00     0.031 A 
HETATM   27  C14 UNL     1      -2.272   0.648  -0.073  1.00  0.00     0.032 A 
BRANCH  25  28
HETATM   28  N2  UNL     1      -5.865  -0.352  -0.031  1.00  0.00    -0.386 N 
ATOM     29  H2  UNL     1      -6.413  -1.195   0.141  1.00  0.00     0.160 HD
BRANCH  28  30
HETATM   30  C6  UNL     1      -6.551   0.875  -0.372  1.00  0.00     0.158 C 
BRANCH  30  31
HETATM   31  C7  UNL     1      -8.014   0.648  -0.410  1.00  0.00    -0.041 A 
HETATM   32  C8  UNL     1      -8.722   0.834   0.743  1.00  0.00     0.009 A 
HETATM   33  C9  UNL     1     -10.077   0.629   0.729  1.00  0.00     0.001 A 
HETATM   34  C10 UNL     1     -10.698   0.241  -0.441  1.00  0.00     0.000 A 
HETATM   35  C11 UNL     1      -9.961   0.058  -1.599  1.00  0.00     0.001 A 
HETATM   36  C12 UNL     1      -8.582   0.262  -1.605  1.00  0.00     0.009 A 
ENDBRANCH  30  31
ENDBRANCH  28  30
ENDBRANCH  25  28
ENDBRANCH   3  22
TORSDOF 6
