REMARK  2 active torsions:
REMARK  status: ('A' for Active; 'I' for Inactive)
REMARK    1  A    between atoms: C3_6  and  N2_7 
REMARK    2  A    between atoms: N2_7  and  C4_9 
ROOT
HETATM    1  N1  UNL     1      -3.969  -1.392  -0.259  1.00  0.00    -0.385 N 
ATOM      2  H11 UNL     1      -4.932  -1.073  -0.152  1.00  0.00     0.157 HD
ATOM      3  H12 UNL     1      -3.842  -2.395  -0.396  1.00  0.00     0.157 HD
HETATM    4  C1  UNL     1      -2.950  -0.592  -0.227  1.00  0.00     0.103 A 
HETATM    5  C2  UNL     1      -1.648  -1.023  -0.372  1.00  0.00     0.096 A 
HETATM    6  C3  UNL     1      -0.569  -0.161  -0.336  1.00  0.00     0.108 A 
HETATM    7  N5  UNL     1      -0.821   1.158  -0.149  1.00  0.00    -0.339 N 
ATOM      8  H5  UNL     1      -0.048   1.823  -0.117  1.00  0.00     0.168 HD
HETATM    9  C6  UNL     1      -2.082   1.593  -0.006  1.00  0.00     0.183 A 
HETATM   10  N6  UNL     1      -3.117   0.731  -0.046  1.00  0.00    -0.339 N 
ATOM     11  H6  UNL     1      -4.063   1.095   0.065  1.00  0.00     0.168 HD
ENDROOT
BRANCH   6  12
HETATM   12  N2  UNL     1       0.739  -0.646  -0.488  1.00  0.00    -0.327 N 
ATOM     13  H2  UNL     1       0.870  -1.648  -0.625  1.00  0.00     0.164 HD
BRANCH  12  14
HETATM   14  C4  UNL     1       1.913   0.202  -0.460  1.00  0.00     0.490 A 
HETATM   15  N3  UNL     1       2.055   0.916   0.793  1.00  0.00    -0.005 N 
HETATM   16  C5  UNL     1       3.339   0.274   0.994  1.00  0.00     0.472 A 
ATOM     17  H32 UNL     1       1.979   1.933   0.817  1.00  0.00     0.283 HD
ATOM     18  H31 UNL     1       1.330   0.851   1.507  1.00  0.00     0.283 HD
HETATM   19  N4  UNL     1       3.133  -0.510  -0.196  1.00  0.00    -0.005 N 
ATOM     20  H42 UNL     1       3.126  -1.528  -0.139  1.00  0.00     0.283 HD
ATOM     21  H41 UNL     1       3.861  -0.553  -0.909  1.00  0.00     0.283 HD
ENDBRANCH  12  14
ENDBRANCH   6  12
TORSDOF 2
