REMARK  12 active torsions:
REMARK  status: ('A' for Active; 'I' for Inactive)
REMARK    1  A    between atoms: N1_2  and  C2_3 
REMARK    2  A    between atoms: N1_2  and  C3_5 
REMARK    3  A    between atoms: C3_5  and  C4_6 
REMARK    4  A    between atoms: C4_6  and  C5_7 
REMARK    5  A    between atoms: C5_7  and  C6_8 
REMARK    6  A    between atoms: C6_8  and  C7_9 
REMARK    7  A    between atoms: C7_9  and  C8_10 
REMARK    8  A    between atoms: C8_10  and  C9_11 
REMARK    9  A    between atoms: C9_11  and  C10_12 
REMARK   10  A    between atoms: C10_12  and  C11_13 
REMARK   11  A    between atoms: C11_13  and  C12_14 
REMARK   12  A    between atoms: C12_14  and  C13_15 
ROOT
HETATM    1  C11 UNL     1      -0.423  -1.876   1.242  1.00  0.00     0.002 C 
ENDROOT
BRANCH   1   2
HETATM    2  C10 UNL     1      -0.144  -0.466   1.632  1.00  0.00     0.000 C 
BRANCH   2   3
HETATM    3  C9  UNL     1       0.889  -0.454   2.711  1.00  0.00     0.000 C 
BRANCH   3   4
HETATM    4  C8  UNL     1       2.205  -1.034   2.477  1.00  0.00     0.000 C 
BRANCH   4   5
HETATM    5  C7  UNL     1       3.143  -0.469   1.482  1.00  0.00     0.000 C 
BRANCH   5   6
HETATM    6  C6  UNL     1       2.759  -0.413   0.062  1.00  0.00     0.000 C 
BRANCH   6   7
HETATM    7  C5  UNL     1       3.892   0.104  -0.855  1.00  0.00     0.002 C 
BRANCH   7   8
HETATM    8  C4  UNL     1       4.268   1.485  -0.442  1.00  0.00     0.020 C 
BRANCH   8   9
HETATM    9  C3  UNL     1       5.342   2.081  -1.330  1.00  0.00     0.124 C 
BRANCH   9  10
HETATM   10  N1  UNL     1       6.516   1.263  -1.263  1.00  0.00    -0.364 N 
HETATM   11  C1  UNL     1       6.704   0.204  -2.224  1.00  0.00     0.152 C 
BRANCH  10  12
HETATM   12  C2  UNL     1       7.489   1.500  -0.281  1.00  0.00     0.350 C 
HETATM   13  O1  UNL     1       7.339   2.413   0.557  1.00  0.00    -0.284 OA
ENDBRANCH  10  12
ENDBRANCH   9  10
ENDBRANCH   8   9
ENDBRANCH   7   8
ENDBRANCH   6   7
ENDBRANCH   5   6
ENDBRANCH   4   5
ENDBRANCH   3   4
ENDBRANCH   2   3
ENDBRANCH   1   2
BRANCH   1  14
HETATM   14  C12 UNL     1      -1.399  -2.132   0.155  1.00  0.00     0.032 C 
BRANCH  14  15
HETATM   15  C13 UNL     1      -2.804  -1.707   0.314  1.00  0.00     0.133 C 
HETATM   16  C14 UNL     1      -3.060  -0.244   0.485  1.00  0.00     0.052 C 
HETATM   17  C15 UNL     1      -4.267  -0.015  -0.417  1.00  0.00     0.050 C 
HETATM   18  C16 UNL     1      -4.356   1.422  -0.845  1.00  0.00     0.020 C 
HETATM   19  C20 UNL     1      -5.498  -0.404   0.336  1.00  0.00     0.020 C 
HETATM   20  C21 UNL     1      -4.010  -0.952  -1.511  1.00  0.00     0.268 C 
HETATM   21  C17 UNL     1      -5.570   1.633  -1.685  1.00  0.00     0.001 C 
HETATM   22  C18 UNL     1      -6.833   1.087  -1.097  1.00  0.00     0.000 C 
HETATM   23  C19 UNL     1      -6.680  -0.328  -0.591  1.00  0.00     0.001 C 
HETATM   24  O2  UNL     1      -4.201  -0.838  -2.763  1.00  0.00    -0.264 OA
HETATM   25  O3  UNL     1      -3.479  -2.083  -0.905  1.00  0.00    -0.315 OA
ENDBRANCH  14  15
ENDBRANCH   1  14
TORSDOF 12
