REMARK  13 active torsions:
REMARK  status: ('A' for Active; 'I' for Inactive)
REMARK    1  A    between atoms: C2_2  and  C3_3 
REMARK    2  A    between atoms: C3_3  and  C4_4 
REMARK    3  A    between atoms: C4_4  and  C5_5 
REMARK    4  A    between atoms: C5_5  and  C6_6 
REMARK    5  A    between atoms: C6_6  and  C7_7 
REMARK    6  A    between atoms: C7_7  and  C8_8 
REMARK    7  A    between atoms: C8_8  and  C9_9 
REMARK    8  A    between atoms: C9_9  and  C10_10 
REMARK    9  A    between atoms: C10_10  and  C11_11 
REMARK   10  A    between atoms: C11_11  and  C12_12 
REMARK       I    between atoms: C12_12  and  N1_14 
REMARK   11  A    between atoms: C15_17  and  O2_18 
REMARK   12  A    between atoms: O2_18  and  C16_19 
REMARK   13  A    between atoms: C16_19  and  C17_21 
ROOT
HETATM    1  C17 UNL     1       9.285   1.729  -0.782  1.00  0.00     0.234 C 
HETATM    2  C18 UNL     1       9.264   2.660   0.345  1.00  0.00     0.069 C 
HETATM    3  N2  UNL     1       9.252   3.418   1.231  1.00  0.00    -0.197 NA
ENDROOT
BRANCH   1   4
HETATM    4  C16 UNL     1       8.036   0.928  -0.777  1.00  0.00     0.272 C 
HETATM    5  O3  UNL     1       7.836   0.052  -1.664  1.00  0.00    -0.264 OA
BRANCH   4   6
HETATM    6  O2  UNL     1       7.092   1.132   0.191  1.00  0.00    -0.315 OA
BRANCH   6   7
HETATM    7  C15 UNL     1       5.907   0.361   0.184  1.00  0.00     0.135 C 
HETATM    8  C14 UNL     1       5.771  -0.502   1.424  1.00  0.00     0.052 C 
HETATM    9  C13 UNL     1       4.728  -1.557   1.093  1.00  0.00     0.128 C 
HETATM   10  N1  UNL     1       3.499  -0.841   0.781  1.00  0.00    -0.352 N 
HETATM   11  C12 UNL     1       2.319  -1.594   0.592  1.00  0.00     0.219 C 
HETATM   12  C20 UNL     1       3.445   0.591   0.661  1.00  0.00     0.128 C 
HETATM   13  O1  UNL     1       2.373  -2.843   0.699  1.00  0.00    -0.273 OA
HETATM   14  C19 UNL     1       4.676   1.192   0.024  1.00  0.00     0.052 C 
BRANCH  11  15
HETATM   15  C11 UNL     1       1.037  -0.905   0.271  1.00  0.00     0.103 C 
BRANCH  15  16
HETATM   16  C10 UNL     1      -0.040  -1.953   0.119  1.00  0.00     0.009 C 
BRANCH  16  17
HETATM   17  C9  UNL     1      -1.387  -1.354  -0.211  1.00  0.00     0.000 C 
BRANCH  17  18
HETATM   18  C8  UNL     1      -1.843  -0.408   0.871  1.00  0.00     0.000 C 
BRANCH  18  19
HETATM   19  C7  UNL     1      -3.179   0.207   0.579  1.00  0.00     0.000 C 
BRANCH  19  20
HETATM   20  C6  UNL     1      -4.278  -0.820   0.434  1.00  0.00     0.000 C 
BRANCH  20  21
HETATM   21  C5  UNL     1      -5.561   0.021   0.138  1.00  0.00     0.000 C 
BRANCH  21  22
HETATM   22  C4  UNL     1      -6.725  -0.874  -0.029  1.00  0.00     0.000 C 
BRANCH  22  23
HETATM   23  C3  UNL     1      -8.009  -0.183  -0.237  1.00  0.00    -0.000 C 
BRANCH  23  24
HETATM   24  C2  UNL     1      -8.218   0.712  -1.392  1.00  0.00    -0.005 C 
HETATM   25  C1  UNL     1      -7.389   1.956  -1.479  1.00  0.00     0.005 C 
ENDBRANCH  23  24
ENDBRANCH  22  23
ENDBRANCH  21  22
ENDBRANCH  20  21
ENDBRANCH  19  20
ENDBRANCH  18  19
ENDBRANCH  17  18
ENDBRANCH  16  17
ENDBRANCH  15  16
ENDBRANCH  11  15
ENDBRANCH   6   7
ENDBRANCH   4   6
ENDBRANCH   1   4
TORSDOF 13
