REMARK  0 active torsions:
REMARK  status: ('A' for Active; 'I' for Inactive)
ROOT
HETATM    1  C1  UNL     1       1.656  -0.776   0.191  1.00  0.00     0.173 A 
HETATM    2  N1  UNL     1       0.730  -1.369  -0.497  1.00  0.00    -0.376 N 
ATOM      3  H1  UNL     1       0.735  -2.358  -0.745  1.00  0.00     0.160 HD
HETATM    4  C2  UNL     1      -0.314  -0.432  -0.866  1.00  0.00     0.158 A 
HETATM    5  C3  UNL     1      -1.491  -0.445   0.090  1.00  0.00     0.263 A 
HETATM    6  N2  UNL     1      -1.096   0.879   0.513  1.00  0.00    -0.050 N 
ATOM      7  H21 UNL     1      -1.010   1.055   1.514  1.00  0.00     0.279 HD
ATOM      8  H22 UNL     1      -1.766   1.639   0.395  1.00  0.00     0.279 HD
HETATM    9  C4  UNL     1       0.093   0.907  -0.277  1.00  0.00     0.309 A 
HETATM   10  N3  UNL     1       1.330   0.596   0.349  1.00  0.00    -0.357 N 
ATOM     11  H3  UNL     1       1.909   1.272   0.848  1.00  0.00     0.162 HD
ENDROOT
TORSDOF 0
