REMARK  13 active torsions:
REMARK  status: ('A' for Active; 'I' for Inactive)
REMARK    1  A    between atoms: C2_2  and  C3_3 
REMARK    2  A    between atoms: C3_3  and  C4_4 
REMARK    3  A    between atoms: C4_4  and  C5_5 
REMARK    4  A    between atoms: C5_5  and  C6_6 
REMARK    5  A    between atoms: C6_6  and  C7_7 
REMARK    6  A    between atoms: C7_7  and  C8_8 
REMARK    7  A    between atoms: C8_8  and  C9_9 
REMARK    8  A    between atoms: C9_9  and  C10_10 
REMARK    9  A    between atoms: C10_10  and  C11_11 
REMARK   10  A    between atoms: C12_14  and  O1_15 
REMARK   11  A    between atoms: N2_18  and  N3_20 
REMARK   12  A    between atoms: C16_23  and  C17_24 
REMARK   13  A    between atoms: C17_24  and  N4_25 
ROOT
HETATM    1  C11 UNL     1      -0.566  -0.288  -2.552  1.00  0.00     0.171 C 
HETATM    2  N1  UNL     1      -1.611   0.566  -3.132  1.00  0.00    -0.379 N 
ATOM      3  H1  UNL     1      -1.785   0.610  -4.136  1.00  0.00     0.157 HD
HETATM    4  C12 UNL     1      -2.360   1.325  -2.199  1.00  0.00     0.264 C 
HETATM    5  C13 UNL     1      -3.384   0.410  -1.599  1.00  0.00     0.070 C 
HETATM    6  N2  UNL     1      -4.474   0.354  -2.218  1.00  0.00    -0.322 N 
ATOM      7  H2  UNL     1      -4.521   0.940  -3.051  1.00  0.00     0.180 HD
HETATM    8  C16 UNL     1      -3.111  -0.365  -0.351  1.00  0.00     0.162 C 
HETATM    9  N5  UNL     1      -1.892  -1.135  -0.469  1.00  0.00    -0.348 N 
ATOM     10  H5  UNL     1      -1.591  -1.651   0.358  1.00  0.00     0.163 HD
HETATM   11  C21 UNL     1      -1.069  -1.242  -1.631  1.00  0.00     0.240 C 
HETATM   12  O2  UNL     1      -0.734  -2.468  -1.871  1.00  0.00    -0.271 OA
ENDROOT
BRANCH   1  13
HETATM   13  C10 UNL     1       0.546   0.598  -2.192  1.00  0.00     0.034 C 
BRANCH  13  14
HETATM   14  C9  UNL     1       1.795   0.090  -1.599  1.00  0.00     0.002 C 
BRANCH  14  15
HETATM   15  C8  UNL     1       1.702  -0.502  -0.260  1.00  0.00     0.000 C 
BRANCH  15  16
HETATM   16  C7  UNL     1       3.118  -0.931   0.178  1.00  0.00     0.000 C 
BRANCH  16  17
HETATM   17  C6  UNL     1       4.081   0.199   0.249  1.00  0.00     0.000 C 
BRANCH  17  18
HETATM   18  C5  UNL     1       5.420  -0.396   0.719  1.00  0.00     0.000 C 
BRANCH  18  19
HETATM   19  C4  UNL     1       6.447   0.695   0.812  1.00  0.00     0.000 C 
BRANCH  19  20
HETATM   20  C3  UNL     1       7.759   0.111   1.267  1.00  0.00    -0.000 C 
BRANCH  20  21
HETATM   21  C2  UNL     1       7.591  -0.521   2.624  1.00  0.00    -0.005 C 
HETATM   22  C1  UNL     1       7.128   0.499   3.654  1.00  0.00     0.005 C 
ENDBRANCH  20  21
ENDBRANCH  19  20
ENDBRANCH  18  19
ENDBRANCH  17  18
ENDBRANCH  16  17
ENDBRANCH  15  16
ENDBRANCH  14  15
ENDBRANCH  13  14
ENDBRANCH   1  13
BRANCH   4  23
HETATM   23  O1  UNL     1      -3.050   2.343  -2.910  1.00  0.00    -0.372 OA
ATOM     24  H1  UNL     1      -3.552   2.852  -2.284  1.00  0.00     0.212 HD
ENDBRANCH   4  23
BRANCH   8  25
HETATM   25  C17 UNL     1      -3.007   0.559   0.821  1.00  0.00     0.267 C 
BRANCH  25  26
HETATM   26  N4  UNL     1      -2.763   0.016   2.108  1.00  0.00    -0.076 N 
HETATM   27  C18 UNL     1      -3.204  -1.322   2.354  1.00  0.00     0.271 C 
HETATM   28  C19 UNL     1      -3.346   0.923   3.146  1.00  0.00     0.271 C 
HETATM   29  C20 UNL     1      -1.327   0.052   2.342  1.00  0.00     0.271 C 
ENDBRANCH  25  26
ENDBRANCH   8  25
BRANCH   6  30
HETATM   30  N3  UNL     1      -5.602  -0.359  -1.961  1.00  0.00    -0.240 NA
HETATM   31  C14 UNL     1      -5.824  -1.287  -3.086  1.00  0.00     0.135 C 
HETATM   32  C15 UNL     1      -6.802   0.496  -1.969  1.00  0.00     0.135 C 
ENDBRANCH   6  30
TORSDOF 13
