REMARK  12 active torsions:
REMARK  status: ('A' for Active; 'I' for Inactive)
REMARK    1  A    between atoms: C2_2  and  N1_3 
REMARK    2  A    between atoms: C5_10  and  C6_11 
REMARK    3  A    between atoms: C5_10  and  C18_30 
REMARK    4  A    between atoms: C6_11  and  C7_12 
REMARK    5  A    between atoms: C7_12  and  C8_13 
REMARK    6  A    between atoms: C8_13  and  N4_17 
REMARK    7  A    between atoms: N4_17  and  C9_19 
REMARK    8  A    between atoms: C9_19  and  C10_20 
REMARK    9  A    between atoms: C10_20  and  N5_21 
REMARK   10  A    between atoms: N5_21  and  C13_24 
REMARK   11  A    between atoms: C13_24  and  C14_25 
REMARK   12  A    between atoms: C14_25  and  N6_26 
ROOT
HETATM    1  C8  UNL     1      -0.932  -0.531   0.902  1.00  0.00     0.070 C 
HETATM    2  N3  UNL     1      -0.884   0.254   1.889  1.00  0.00    -0.389 N 
ATOM      3  H31 UNL     1      -0.063   0.330   2.490  1.00  0.00     0.157 HD
ATOM      4  H32 UNL     1      -1.658   0.865   2.150  1.00  0.00     0.157 HD
ENDROOT
BRANCH   1   5
HETATM    5  C7  UNL     1      -2.146  -0.643   0.014  1.00  0.00     0.080 C 
BRANCH   5   6
HETATM    6  C6  UNL     1      -3.198   0.293   0.566  1.00  0.00     0.062 C 
BRANCH   6   7
HETATM    7  C5  UNL     1      -4.459   0.232  -0.282  1.00  0.00     0.115 C 
HETATM    8  N1  UNL     1      -5.029  -1.069  -0.324  1.00  0.00    -0.317 N 
HETATM    9  C3  UNL     1      -4.748  -1.693  -1.606  1.00  0.00     0.313 C 
HETATM   10  O1  UNL     1      -5.005  -2.867  -1.987  1.00  0.00    -0.262 OA
HETATM   11  C4  UNL     1      -4.097  -0.722  -2.430  1.00  0.00     0.311 C 
HETATM   12  O2  UNL     1      -3.696  -0.900  -3.628  1.00  0.00    -0.262 OA
HETATM   13  N2  UNL     1      -3.992   0.454  -1.659  1.00  0.00    -0.326 N 
ATOM     14  H2  UNL     1      -3.638   1.344  -2.011  1.00  0.00     0.165 HD
BRANCH   8  15
HETATM   15  C2  UNL     1      -5.786  -1.857   0.640  1.00  0.00     0.124 C 
HETATM   16  C1  UNL     1      -7.244  -1.618   0.412  1.00  0.00     0.026 C 
ENDBRANCH   8  15
BRANCH   7  17
HETATM   17  C18 UNL     1      -5.332   1.377   0.048  1.00  0.00     0.027 C 
HETATM   18  C19 UNL     1      -4.528   2.660   0.030  1.00  0.00     0.014 C 
HETATM   19  C20 UNL     1      -6.019   1.349   1.381  1.00  0.00     0.014 C 
ENDBRANCH   7  17
ENDBRANCH   6   7
ENDBRANCH   5   6
ENDBRANCH   1   5
BRANCH   1  20
HETATM   20  N4  UNL     1       0.144  -1.381   0.539  1.00  0.00    -0.379 N 
ATOM     21  H4  UNL     1       0.378  -2.153   1.163  1.00  0.00     0.160 HD
BRANCH  20  22
HETATM   22  C9  UNL     1       0.927  -1.216  -0.662  1.00  0.00     0.149 C 
BRANCH  22  23
HETATM   23  C10 UNL     1       1.822  -0.037  -0.700  1.00  0.00     0.256 C 
BRANCH  23  24
HETATM   24  N5  UNL     1       2.859   0.026   0.282  1.00  0.00    -0.072 N 
HETATM   25  C11 UNL     1       2.833   1.337   0.899  1.00  0.00     0.272 C 
HETATM   26  C12 UNL     1       2.784  -0.958   1.330  1.00  0.00     0.272 C 
BRANCH  24  27
HETATM   27  C13 UNL     1       4.152  -0.223  -0.383  1.00  0.00     0.264 C 
BRANCH  27  28
HETATM   28  C14 UNL     1       5.223   0.597   0.260  1.00  0.00     0.264 C 
BRANCH  28  29
HETATM   29  N6  UNL     1       6.497   0.344  -0.385  1.00  0.00    -0.077 N 
HETATM   30  C15 UNL     1       6.763   1.207  -1.494  1.00  0.00     0.271 C 
HETATM   31  C16 UNL     1       7.531   0.522   0.613  1.00  0.00     0.271 C 
HETATM   32  C17 UNL     1       6.589  -1.034  -0.845  1.00  0.00     0.271 C 
ENDBRANCH  28  29
ENDBRANCH  27  28
ENDBRANCH  24  27
ENDBRANCH  23  24
ENDBRANCH  22  23
ENDBRANCH  20  22
ENDBRANCH   1  20
TORSDOF 12
