REMARK  17 active torsions:
REMARK  status: ('A' for Active; 'I' for Inactive)
REMARK    1  A    between atoms: C2_2  and  C3_3 
REMARK    2  A    between atoms: C3_3  and  C4_4 
REMARK    3  A    between atoms: C3_3  and  C6_11 
REMARK    4  A    between atoms: C3_3  and  N4_32 
REMARK    5  A    between atoms: N1_5  and  C5_7 
REMARK    6  A    between atoms: C6_11  and  S1_12 
REMARK    7  A    between atoms: S1_12  and  C7_13 
REMARK    8  A    between atoms: S1_12  and  C18_27 
REMARK    9  A    between atoms: C8_14  and  C9_15 
REMARK   10  A    between atoms: C9_15  and  C10_16 
REMARK   11  A    between atoms: C10_16  and  C11_17 
REMARK   12  A    between atoms: C11_17  and  C12_18 
REMARK       I    between atoms: C12_18  and  N3_20 
REMARK   13  A    between atoms: N3_20  and  C13_22 
REMARK   14  A    between atoms: C13_22  and  C14_23 
REMARK   15  A    between atoms: C15_24  and  C16_25 
REMARK   16  A    between atoms: C18_27  and  C19_28 
REMARK   17  A    between atoms: C20_29  and  O2_30 
ROOT
HETATM    1  S1  UNL     1      -2.338  -0.504  -1.612  1.00  0.00    -0.136 SA
ENDROOT
BRANCH   1   2
HETATM    2  C6  UNL     1      -3.878  -0.080  -0.928  1.00  0.00     0.119 C 
BRANCH   2   3
HETATM    3  C3  UNL     1      -4.018   1.341  -0.514  1.00  0.00     0.102 C 
BRANCH   3   4
HETATM    4  C2  UNL     1      -3.820   2.285  -1.670  1.00  0.00     0.001 C 
HETATM    5  C1  UNL     1      -3.880   1.929  -2.928  1.00  0.00     0.010 C 
ENDBRANCH   3   4
BRANCH   3   6
HETATM    6  C4  UNL     1      -5.442   1.545  -0.099  1.00  0.00     0.099 C 
HETATM    7  N1  UNL     1      -6.112   0.527   0.298  1.00  0.00    -0.363 N 
ATOM      8  H1  UNL     1      -5.685  -0.399   0.330  1.00  0.00     0.165 HD
BRANCH   7   9
HETATM    9  C5  UNL     1      -7.459   0.719   0.691  1.00  0.00     0.172 C 
HETATM   10  N2  UNL     1      -7.738   0.728   1.949  1.00  0.00    -0.395 N 
ATOM     11  H22 UNL     1      -6.993   0.598   2.634  1.00  0.00     0.156 HD
ATOM     12  H21 UNL     1      -8.708   0.866   2.232  1.00  0.00     0.156 HD
ENDBRANCH   7   9
ENDBRANCH   3   6
BRANCH   3  13
HETATM   13  N4  UNL     1      -3.123   1.735   0.531  1.00  0.00    -0.323 N 
HETATM   14  N5  UNL     1      -3.386   1.406   1.700  1.00  0.00    -0.348 N 
ATOM     15  H52 UNL     1      -4.229   0.865   1.894  1.00  0.00     0.176 HD
ATOM     16  H51 UNL     1      -2.748   1.687   2.445  1.00  0.00     0.176 HD
ATOM     17  H4  UNL     1      -2.284   2.276   0.320  1.00  0.00     0.181 HD
ENDBRANCH   3  13
ENDBRANCH   2   3
ENDBRANCH   1   2
BRANCH   1  18
HETATM   18  C7  UNL     1      -1.086  -0.222  -0.470  1.00  0.00    -0.044 C 
HETATM   19  C8  UNL     1      -0.182  -0.041   0.327  1.00  0.00    -0.095 C 
BRANCH  19  20
HETATM   20  C9  UNL     1       0.921   0.154   1.308  1.00  0.00     0.095 C 
BRANCH  20  21
HETATM   21  C10 UNL     1       1.687  -1.130   1.467  1.00  0.00     0.021 C 
BRANCH  21  22
HETATM   22  C11 UNL     1       2.802  -1.022   2.432  1.00  0.00     0.103 C 
BRANCH  22  23
HETATM   23  C12 UNL     1       3.809  -0.046   1.991  1.00  0.00     0.218 C 
HETATM   24  O1  UNL     1       3.777   0.534   0.884  1.00  0.00    -0.274 OA
HETATM   25  N3  UNL     1       4.906   0.295   2.837  1.00  0.00    -0.351 N 
ATOM     26  H3  UNL     1       4.971  -0.155   3.750  1.00  0.00     0.163 HD
BRANCH  25  27
HETATM   27  C13 UNL     1       5.930   1.246   2.465  1.00  0.00     0.217 C 
BRANCH  27  28
HETATM   28  C14 UNL     1       6.646   0.831   1.247  1.00  0.00    -0.087 C 
HETATM   29  C15 UNL     1       7.247   0.487   0.255  1.00  0.00    -0.105 C 
BRANCH  29  30
HETATM   30  C16 UNL     1       7.967   0.092  -0.958  1.00  0.00     0.089 C 
HETATM   31  C17 UNL     1       7.254   0.603  -2.187  1.00  0.00     0.018 C 
ENDBRANCH  29  30
ENDBRANCH  27  28
ENDBRANCH  25  27
ENDBRANCH  22  23
ENDBRANCH  21  22
ENDBRANCH  20  21
ENDBRANCH  19  20
ENDBRANCH   1  18
BRANCH   1  32
HETATM   32  C18 UNL     1      -2.291  -2.145  -2.271  1.00  0.00     0.105 C 
BRANCH  32  33
HETATM   33  C19 UNL     1      -2.574  -3.177  -1.250  1.00  0.00     0.007 C 
HETATM   34  C20 UNL     1      -3.597  -3.975  -1.409  1.00  0.00     0.128 C 
BRANCH  34  35
HETATM   35  O2  UNL     1      -4.425  -3.881  -2.511  1.00  0.00    -0.373 OA
ATOM     36  H2  UNL     1      -5.168  -4.461  -2.627  1.00  0.00     0.216 HD
ENDBRANCH  34  35
ENDBRANCH  32  33
ENDBRANCH   1  32
TORSDOF 17
