REMARK  17 active torsions:
REMARK  status: ('A' for Active; 'I' for Inactive)
REMARK    1  A    between atoms: O1_2  and  C2_3 
REMARK    2  A    between atoms: C2_3  and  C3_5 
REMARK    3  A    between atoms: C3_5  and  C5_7 
REMARK    4  A    between atoms: C5_7  and  C6_8 
REMARK    5  A    between atoms: C6_8  and  C7_9 
REMARK    6  A    between atoms: C7_9  and  C8_10 
REMARK    7  A    between atoms: C8_10  and  O7_35 
REMARK    8  A    between atoms: C9_11  and  C10_12 
REMARK    9  A    between atoms: C10_12  and  C11_13 
REMARK   10  A    between atoms: C11_13  and  C12_14 
REMARK   11  A    between atoms: C12_14  and  C13_16 
REMARK   12  A    between atoms: C13_16  and  C14_17 
REMARK   13  A    between atoms: C14_17  and  C16_19 
REMARK   14  A    between atoms: C17_20  and  C18_21 
REMARK   15  A    between atoms: C18_21  and  C19_22 
REMARK   16  A    between atoms: C19_22  and  C20_23 
REMARK   17  A    between atoms: C25_32  and  O6_33 
ROOT
HETATM    1  C13 UNL     1      -1.630  -0.296   0.858  1.00  0.00     0.086 C 
ENDROOT
BRANCH   1   2
HETATM    2  C12 UNL     1      -0.190  -0.457   1.131  1.00  0.00     0.127 C 
HETATM    3  O3  UNL     1       0.555  -0.346   0.144  1.00  0.00    -0.298 OA
BRANCH   2   4
HETATM    4  C11 UNL     1       0.411  -0.729   2.427  1.00  0.00     0.082 C 
BRANCH   4   5
HETATM    5  C10 UNL     1       1.916  -0.793   2.471  1.00  0.00     0.037 C 
BRANCH   5   6
HETATM    6  C9  UNL     1       2.533   0.467   2.060  1.00  0.00     0.006 C 
HETATM    7  C8  UNL     1       3.459   0.657   1.163  1.00  0.00     0.042 C 
BRANCH   7   8
HETATM    8  C7  UNL     1       4.091  -0.395   0.360  1.00  0.00     0.064 C 
BRANCH   8   9
HETATM    9  C6  UNL     1       5.577  -0.362   0.675  1.00  0.00     0.007 C 
BRANCH   9  10
HETATM   10  C5  UNL     1       6.328  -1.393  -0.084  1.00  0.00     0.014 C 
BRANCH  10  11
HETATM   11  C3  UNL     1       6.227  -1.229  -1.552  1.00  0.00     0.081 C 
HETATM   12  C4  UNL     1       6.877  -2.388  -2.305  1.00  0.00     0.020 C 
BRANCH  11  13
HETATM   13  C2  UNL     1       6.781   0.062  -1.986  1.00  0.00     0.262 C 
HETATM   14  O2  UNL     1       7.491   0.811  -1.273  1.00  0.00    -0.265 OA
BRANCH  13  15
HETATM   15  O1  UNL     1       6.540   0.559  -3.288  1.00  0.00    -0.326 OA
HETATM   16  C1  UNL     1       7.082   1.809  -3.701  1.00  0.00     0.213 C 
ENDBRANCH  13  15
ENDBRANCH  11  13
ENDBRANCH  10  11
ENDBRANCH   9  10
ENDBRANCH   8   9
ENDBRANCH   7   8
BRANCH   7  17
HETATM   17  O7  UNL     1       3.920   1.966   0.913  1.00  0.00    -0.361 OA
HETATM   18  C26 UNL     1       4.278   2.840   1.966  1.00  0.00     0.209 C 
ENDBRANCH   7  17
ENDBRANCH   5   6
ENDBRANCH   4   5
ENDBRANCH   2   4
ENDBRANCH   1   2
BRANCH   1  19
HETATM   19  C14 UNL     1      -2.480   0.029   2.033  1.00  0.00     0.011 C 
HETATM   20  C15 UNL     1      -2.020   1.346   2.637  1.00  0.00     0.014 C 
BRANCH  19  21
HETATM   21  C16 UNL     1      -3.929   0.116   1.691  1.00  0.00    -0.021 C 
HETATM   22  C17 UNL     1      -4.393  -0.044   0.471  1.00  0.00     0.006 C 
BRANCH  22  23
HETATM   23  C18 UNL     1      -5.839   0.053   0.197  1.00  0.00    -0.020 C 
HETATM   24  C21 UNL     1      -6.344  -0.083  -1.017  1.00  0.00     0.118 A 
HETATM   25  O4  UNL     1      -7.716   0.024  -1.231  1.00  0.00    -0.275 OA
HETATM   26  C25 UNL     1      -5.568  -0.346  -2.215  1.00  0.00     0.096 A 
HETATM   27  C22 UNL     1      -8.324  -0.099  -2.454  1.00  0.00     0.267 A 
HETATM   28  O5  UNL     1      -9.596   0.014  -2.586  1.00  0.00    -0.265 OA
HETATM   29  C23 UNL     1      -7.560  -0.362  -3.668  1.00  0.00     0.141 A 
HETATM   30  C24 UNL     1      -6.134  -0.472  -3.421  1.00  0.00     0.022 A 
BRANCH  23  31
HETATM   31  C19 UNL     1      -6.657   0.255   1.399  1.00  0.00     0.068 C 
BRANCH  31  32
HETATM   32  C20 UNL     1      -8.108   0.023   1.390  1.00  0.00     0.134 C 
HETATM   33 BR1  UNL     1      -8.551  -1.837   1.044  1.00  0.00    -0.079 Br
HETATM   34 BR2  UNL     1      -8.693   0.346   3.248  1.00  0.00    -0.079 Br
ENDBRANCH  31  32
ENDBRANCH  23  31
BRANCH  26  35
HETATM   35  O6  UNL     1      -4.190  -0.490  -2.226  1.00  0.00    -0.358 OA
ATOM     36  H6  UNL     1      -3.682  -0.662  -3.010  1.00  0.00     0.217 HD
ENDBRANCH  26  35
ENDBRANCH  22  23
ENDBRANCH  19  21
ENDBRANCH   1  19
TORSDOF 17
