REMARK  18 active torsions:
REMARK  status: ('A' for Active; 'I' for Inactive)
REMARK       I    between atoms: C1_4  and  N3_6 
REMARK    1  A    between atoms: N3_6  and  C2_8 
REMARK    2  A    between atoms: C2_8  and  C3_9 
REMARK    3  A    between atoms: C3_9  and  C4_10 
REMARK    4  A    between atoms: C4_10  and  C5_11 
REMARK    5  A    between atoms: C5_11  and  O1_12 
REMARK    6  A    between atoms: O1_12  and  C6_13 
REMARK    7  A    between atoms: C6_13  and  C7_14 
REMARK    8  A    between atoms: C7_14  and  C8_15 
REMARK    9  A    between atoms: C8_15  and  N4_16 
REMARK   10  A    between atoms: N4_16  and  C9_18 
REMARK   11  A    between atoms: C10_19  and  O2_20 
REMARK   12  A    between atoms: C11_22  and  O3_23 
REMARK   13  A    between atoms: C12_25  and  O4_26 
REMARK   14  A    between atoms: C13_28  and  N5_29 
REMARK   15  A    between atoms: C13_28  and  O5_34 
REMARK   16  A    between atoms: O5_34  and  N8_35 
REMARK   17  A    between atoms: N8_35  and  O6_36 
REMARK   18  A    between atoms: N9_38  and  N10_39 
ROOT
HETATM    1  C9  UNL     1      -1.799  -0.103  -0.388  1.00  0.00     0.113 C 
HETATM    2  C10 UNL     1      -1.841  -0.090   1.109  1.00  0.00     0.213 C 
HETATM    3  C11 UNL     1      -3.069   0.672   1.587  1.00  0.00     0.189 C 
HETATM    4  C12 UNL     1      -4.309   0.372   0.809  1.00  0.00     0.225 C 
HETATM    5  C13 UNL     1      -4.067   0.431  -0.686  1.00  0.00     0.271 C 
HETATM    6  N9  UNL     1      -3.047  -0.574  -0.998  1.00  0.00    -0.130 NA
ENDROOT
BRANCH   1   7
HETATM    7  N4  UNL     1      -0.662  -0.610  -1.028  1.00  0.00    -0.360 N 
ATOM      8  H4  UNL     1      -0.113   0.057  -1.571  1.00  0.00     0.165 HD
BRANCH   7   9
HETATM    9  C8  UNL     1      -0.204  -1.899  -1.007  1.00  0.00     0.064 C 
BRANCH   9  10
HETATM   10  C7  UNL     1       0.417  -2.509   0.211  1.00  0.00     0.071 C 
BRANCH  10  11
HETATM   11  C6  UNL     1       1.693  -1.824   0.666  1.00  0.00     0.172 C 
BRANCH  11  12
HETATM   12  O1  UNL     1       2.655  -1.867  -0.299  1.00  0.00    -0.391 OA
BRANCH  12  13
HETATM   13  C5  UNL     1       3.830  -1.273   0.101  1.00  0.00     0.167 C 
BRANCH  13  14
HETATM   14  C4  UNL     1       3.719   0.195   0.403  1.00  0.00     0.028 C 
BRANCH  14  15
HETATM   15  C3  UNL     1       5.035   0.785   0.835  1.00  0.00     0.022 C 
BRANCH  15  16
HETATM   16  C2  UNL     1       6.118   0.656  -0.207  1.00  0.00     0.122 C 
BRANCH  16  17
HETATM   17  N3  UNL     1       7.324   1.254   0.306  1.00  0.00    -0.365 N 
HETATM   18  C1  UNL     1       8.510   1.266  -0.450  1.00  0.00     0.181 C 
HETATM   19  N1  UNL     1       8.606   1.995  -1.492  1.00  0.00    -0.374 N 
HETATM   20  N2  UNL     1       9.616   0.480  -0.054  1.00  0.00    -0.064 NA
ATOM     21  H12 UNL     1       9.466   2.004  -2.040  1.00  0.00     0.158 HD
ATOM     22  H11 UNL     1       7.808   2.562  -1.778  1.00  0.00     0.158 HD
ATOM     23  H3  UNL     1       7.318   1.676   1.234  1.00  0.00     0.162 HD
ENDBRANCH  16  17
ENDBRANCH  15  16
ENDBRANCH  14  15
ENDBRANCH  13  14
ENDBRANCH  12  13
ENDBRANCH  11  12
ENDBRANCH  10  11
ENDBRANCH   9  10
ENDBRANCH   7   9
ENDBRANCH   1   7
BRANCH   2  24
HETATM   24  O2  UNL     1      -0.744   0.733   1.503  1.00  0.00    -0.386 OA
ATOM     25  H2  UNL     1      -0.771   0.741   2.453  1.00  0.00     0.210 HD
ENDBRANCH   2  24
BRANCH   6  26
HETATM   26  N10 UNL     1      -3.488  -1.762  -0.468  1.00  0.00    -0.354 NA
ATOM     27 2H10 UNL     1      -2.778  -2.461  -0.685  1.00  0.00     0.171 HD
ATOM     28 1H10 UNL     1      -4.356  -2.090  -0.892  1.00  0.00     0.171 HD
ENDBRANCH   6  26
BRANCH   3  29
HETATM   29  O3  UNL     1      -2.819   2.027   1.761  1.00  0.00    -0.390 OA
ATOM     30  H3  UNL     1      -3.585   2.503   2.059  1.00  0.00     0.210 HD
ENDBRANCH   3  29
BRANCH   5  31
HETATM   31  N5  UNL     1      -5.268   0.282  -1.370  1.00  0.00    -0.317 N 
HETATM   32  C14 UNL     1      -6.298  -0.370  -1.389  1.00  0.00     0.200 C 
HETATM   33  N6  UNL     1      -7.293  -0.087  -2.396  1.00  0.00    -0.067 NA
HETATM   34  N7  UNL     1      -6.596  -1.403  -0.480  1.00  0.00    -0.067 NA
ATOM     35  H5  UNL     1      -5.298   0.963  -2.129  1.00  0.00     0.166 HD
ENDBRANCH   5  31
BRANCH   5  36
HETATM   36  O5  UNL     1      -3.571   1.717  -1.003  1.00  0.00    -0.207 OA
BRANCH  36  37
HETATM   37  N8  UNL     1      -4.456   2.648  -0.676  1.00  0.00     0.068 NA
BRANCH  37  38
HETATM   38  O6  UNL     1      -4.047   3.870  -1.047  1.00  0.00    -0.271 OA
ATOM     39  H6  UNL     1      -4.681   4.537  -0.813  1.00  0.00     0.241 HD
ENDBRANCH  37  38
ENDBRANCH  36  37
ENDBRANCH   5  36
BRANCH   4  40
HETATM   40  O4  UNL     1      -5.293   1.284   1.137  1.00  0.00    -0.386 OA
ATOM     41  H4  UNL     1      -6.081   1.093   0.642  1.00  0.00     0.210 HD
ENDBRANCH   4  40
TORSDOF 18
