REMARK  20 active torsions:
REMARK  status: ('A' for Active; 'I' for Inactive)
REMARK    1  A    between atoms: C2_2  and  O2_4 
REMARK    2  A    between atoms: O2_4  and  C3_5 
REMARK    3  A    between atoms: C3_5  and  C4_6 
REMARK    4  A    between atoms: C5_8  and  O4_9 
REMARK    5  A    between atoms: O4_9  and  C6_10 
REMARK    6  A    between atoms: C6_10  and  C7_12 
REMARK    7  A    between atoms: C8_13  and  O6_14 
REMARK    8  A    between atoms: C9_16  and  N1_17 
REMARK    9  A    between atoms: C10_18  and  O7_19 
REMARK   10  A    between atoms: C11_21  and  O8_22 
REMARK   11  A    between atoms: N2_24  and  O9_25 
REMARK   12  A    between atoms: C13_29  and  O11_30 
REMARK   13  A    between atoms: C14_32  and  O12_33 
REMARK   14  A    between atoms: C15_35  and  N3_36 
REMARK   15  A    between atoms: N3_36  and  N4_38 
REMARK   16  A    between atoms: C17_43  and  O13_44 
REMARK   17  A    between atoms: C18_46  and  O14_47 
REMARK   18  A    between atoms: O14_47  and  C19_48 
REMARK   19  A    between atoms: C21_51  and  O16_52 
REMARK   20  A    between atoms: O16_52  and  C22_53 
ROOT
HETATM    1  C7  UNL     1       2.699   0.898  -0.473  1.00  0.00     0.106 A 
HETATM    2  C8  UNL     1       3.355  -0.256  -0.089  1.00  0.00     0.114 A 
HETATM    3  C9  UNL     1       4.762  -0.297  -0.103  1.00  0.00     0.116 A 
HETATM    4  C13 UNL     1       5.433   0.826  -0.503  1.00  0.00     0.132 A 
HETATM    5  C14 UNL     1       4.794   1.972  -0.885  1.00  0.00     0.131 A 
HETATM    6  C15 UNL     1       3.406   2.015  -0.872  1.00  0.00     0.106 A 
ENDROOT
BRANCH   1   7
HETATM    7  C6  UNL     1       1.250   0.927  -0.459  1.00  0.00     0.301 C 
HETATM    8  O5  UNL     1       0.658   2.002  -0.818  1.00  0.00    -0.259 OA
BRANCH   7   9
HETATM    9  O4  UNL     1       0.413  -0.108  -0.090  1.00  0.00    -0.283 OA
BRANCH   9  10
HETATM   10  C5  UNL     1      -0.966   0.070  -0.128  1.00  0.00     0.301 C 
HETATM   11  O3  UNL     1      -1.584  -0.121   1.104  1.00  0.00    -0.348 OA
HETATM   12  C4  UNL     1      -2.837   0.503   1.018  1.00  0.00     0.181 C 
HETATM   13  C21 UNL     1      -3.755  -0.247   0.088  1.00  0.00     0.195 C 
HETATM   14  C18 UNL     1      -3.079  -0.343  -1.263  1.00  0.00     0.197 C 
HETATM   15  C17 UNL     1      -1.659  -0.881  -1.105  1.00  0.00     0.206 C 
BRANCH  12  16
HETATM   16  C3  UNL     1      -3.399   0.684   2.393  1.00  0.00     0.213 C 
BRANCH  16  17
HETATM   17  O2  UNL     1      -4.657   1.308   2.345  1.00  0.00    -0.319 OA
BRANCH  17  18
HETATM   18  C2  UNL     1      -5.319   1.552   3.522  1.00  0.00     0.254 C 
HETATM   19  C1  UNL     1      -6.643   2.206   3.515  1.00  0.00     0.126 C 
HETATM   20  O1  UNL     1      -4.800   1.219   4.606  1.00  0.00    -0.266 OA
ENDBRANCH  17  18
ENDBRANCH  16  17
ENDBRANCH  12  16
BRANCH  13  21
HETATM   21  O16 UNL     1      -4.121  -1.517   0.582  1.00  0.00    -0.311 OA
BRANCH  21  22
HETATM   22  C22 UNL     1      -5.445  -1.855   0.815  1.00  0.00     0.255 C 
HETATM   23  C23 UNL     1      -5.775  -3.203   1.334  1.00  0.00     0.126 C 
HETATM   24  O17 UNL     1      -6.376  -1.048   0.598  1.00  0.00    -0.266 OA
ENDBRANCH  21  22
ENDBRANCH  13  21
BRANCH  14  25
HETATM   25  O14 UNL     1      -3.841  -1.176  -2.120  1.00  0.00    -0.311 OA
BRANCH  25  26
HETATM   26  C19 UNL     1      -4.370  -0.688  -3.291  1.00  0.00     0.255 C 
HETATM   27  C20 UNL     1      -5.183  -1.541  -4.225  1.00  0.00     0.126 C 
HETATM   28  O15 UNL     1      -4.153   0.519  -3.571  1.00  0.00    -0.266 OA
ENDBRANCH  25  26
ENDBRANCH  14  25
BRANCH  15  29
HETATM   29  O13 UNL     1      -1.045  -0.824  -2.362  1.00  0.00    -0.388 OA
ATOM     30  H13 UNL     1      -1.475  -1.415  -2.969  1.00  0.00     0.210 HD
ENDBRANCH  15  29
ENDBRANCH   9  10
ENDBRANCH   7   9
ENDBRANCH   1   7
BRANCH   2  31
HETATM   31  O6  UNL     1       2.756  -1.397   0.317  1.00  0.00    -0.357 OA
ATOM     32  H6  UNL     1       3.207  -2.190   0.581  1.00  0.00     0.217 HD
ENDBRANCH   2  31
BRANCH   6  33
HETATM   33  N3  UNL     1       2.811   3.238  -1.274  1.00  0.00    -0.279 N 
HETATM   34  C16 UNL     1       2.510   4.329  -0.356  1.00  0.00     0.179 C 
BRANCH  33  35
HETATM   35  N4  UNL     1       2.510   3.426  -2.622  1.00  0.00    -0.247 N 
HETATM   36  N5  UNL     1       2.340   4.578  -3.105  1.00  0.00    -0.331 N 
ATOM     37  H52 UNL     1       2.428   5.380  -2.481  1.00  0.00     0.178 HD
ATOM     38  H51 UNL     1       2.120   4.716  -4.091  1.00  0.00     0.178 HD
ATOM     39  H4  UNL     1       2.425   2.613  -3.232  1.00  0.00     0.208 HD
ENDBRANCH  33  35
ENDBRANCH   6  33
BRANCH   3  40
HETATM   40  N1  UNL     1       5.395  -1.497   0.298  1.00  0.00    -0.233 N 
HETATM   41  C10 UNL     1       6.183  -1.668   1.380  1.00  0.00     0.206 A 
HETATM   42  C11 UNL     1       6.592  -2.992   1.398  1.00  0.00     0.224 A 
HETATM   43  N2  UNL     1       6.054  -3.612   0.337  1.00  0.00    -0.144 N 
HETATM   44  C12 UNL     1       5.337  -2.699  -0.314  1.00  0.00     0.362 A 
HETATM   45  O10 UNL     1       4.687  -2.917  -1.363  1.00  0.00    -0.243 OA
BRANCH  41  46
HETATM   46  O7  UNL     1       6.540  -0.722   2.320  1.00  0.00    -0.342 OA
ATOM     47  H7  UNL     1       7.095  -0.842   3.082  1.00  0.00     0.219 HD
ENDBRANCH  41  46
BRANCH  42  48
HETATM   48  O8  UNL     1       7.421  -3.568   2.361  1.00  0.00    -0.341 OA
ATOM     49  H8  UNL     1       7.701  -4.476   2.373  1.00  0.00     0.219 HD
ENDBRANCH  42  48
BRANCH  43  50
HETATM   50  O9  UNL     1       6.237  -4.931   0.025  1.00  0.00    -0.277 OA
ATOM     51  H9  UNL     1       5.856  -5.370  -0.726  1.00  0.00     0.245 HD
ENDBRANCH  43  50
ENDBRANCH   3  40
BRANCH   5  52
HETATM   52  O12 UNL     1       5.466   3.096  -1.286  1.00  0.00    -0.356 OA
ATOM     53  H12 UNL     1       5.022   3.893  -1.552  1.00  0.00     0.218 HD
ENDBRANCH   5  52
BRANCH   4  54
HETATM   54  O11 UNL     1       6.826   0.728  -0.497  1.00  0.00    -0.356 OA
ATOM     55  H11 UNL     1       7.292   1.508  -0.775  1.00  0.00     0.218 HD
ENDBRANCH   4  54
TORSDOF 20
