REMARK  10 active torsions:
REMARK  status: ('A' for Active; 'I' for Inactive)
REMARK    1  A    between atoms: N1_2  and  C2_4 
REMARK    2  A    between atoms: C4_6  and  C5_7 
REMARK    3  A    between atoms: C5_7  and  O1_8 
REMARK    4  A    between atoms: C5_7  and  C6_10 
REMARK    5  A    between atoms: C6_10  and  N2_11 
REMARK    6  A    between atoms: C6_10  and  C7_15 
REMARK    7  A    between atoms: C7_15  and  N3_16 
REMARK    8  A    between atoms: C7_15  and  C8_20 
REMARK       I    between atoms: C8_20  and  N4_22 
REMARK    9  A    between atoms: N4_22  and  C9_24 
REMARK   10  A    between atoms: C11_31  and  N8_32 
ROOT
HETATM    1  C7  UNL     1      -0.113  -0.857  -0.553  1.00  0.00     0.308 C 
ENDROOT
BRANCH   1   2
HETATM    2  C6  UNL     1       0.354   0.497  -0.079  1.00  0.00     0.256 C 
BRANCH   2   3
HETATM    3  C5  UNL     1       1.402   1.070  -0.982  1.00  0.00     0.184 C 
BRANCH   3   4
HETATM    4  C4  UNL     1       2.655   0.275  -0.986  1.00  0.00    -0.023 A 
HETATM    5  C3  UNL     1       3.578   0.276   0.037  1.00  0.00     0.058 A 
HETATM    6  C2  UNL     1       4.731  -0.486  -0.018  1.00  0.00     0.100 A 
HETATM    7  N10 UNL     1       4.987  -1.260  -1.088  1.00  0.00    -0.353 N 
HETATM    8  C13 UNL     1       4.098  -1.280  -2.105  1.00  0.00     0.090 A 
ATOM      9  H10 UNL     1       5.837  -1.822  -1.131  1.00  0.00     0.166 HD
HETATM   10  C12 UNL     1       2.941  -0.527  -2.070  1.00  0.00     0.027 A 
BRANCH   6  11
HETATM   11  N1  UNL     1       5.588  -0.482   0.938  1.00  0.00    -0.381 N 
HETATM   12  C1  UNL     1       5.314   0.352   2.089  1.00  0.00     0.147 C 
ATOM     13  H1  UNL     1       6.435  -1.048   0.888  1.00  0.00     0.160 HD
ENDBRANCH   6  11
ENDBRANCH   3   4
BRANCH   3  14
HETATM   14  O1  UNL     1       1.683   2.380  -0.538  1.00  0.00    -0.389 OA
ATOM     15  H1  UNL     1       0.881   2.889  -0.535  1.00  0.00     0.210 HD
ENDBRANCH   3  14
ENDBRANCH   2   3
BRANCH   2  16
HETATM   16  N2  UNL     1       0.850   0.475   1.268  1.00  0.00    -0.070 N 
ATOM     17  H23 UNL     1       1.739  -0.019   1.345  1.00  0.00     0.274 HD
ATOM     18  H22 UNL     1       1.168   1.393   1.578  1.00  0.00     0.274 HD
ATOM     19  H21 UNL     1       0.136   0.085   1.883  1.00  0.00     0.274 HD
ENDBRANCH   2  16
ENDBRANCH   1   2
BRANCH   1  20
HETATM   20  N3  UNL     1      -0.669  -0.713  -1.882  1.00  0.00    -0.064 N 
ATOM     21  H33 UNL     1      -1.405  -0.008  -1.924  1.00  0.00     0.275 HD
ATOM     22  H32 UNL     1      -0.018  -0.274  -2.533  1.00  0.00     0.275 HD
ATOM     23  H31 UNL     1      -0.985  -1.628  -2.202  1.00  0.00     0.275 HD
ENDBRANCH   1  20
BRANCH   1  24
HETATM   24  C8  UNL     1      -1.145  -1.438   0.322  1.00  0.00     0.268 C 
HETATM   25  O2  UNL     1      -0.842  -1.637   1.527  1.00  0.00    -0.270 OA
HETATM   26  N4  UNL     1      -2.448  -1.788  -0.091  1.00  0.00    -0.157 N 
ATOM     27  H4  UNL     1      -2.599  -2.712  -0.495  1.00  0.00     0.187 HD
BRANCH  26  28
HETATM   28  C9  UNL     1      -3.461  -0.990   0.019  1.00  0.00     0.702 A 
HETATM   29  N5  UNL     1      -3.354   0.243   0.539  1.00  0.00    -0.162 N 
HETATM   30  C10 UNL     1      -4.410   1.062   0.649  1.00  0.00     0.221 A 
ATOM     31  H5  UNL     1      -2.442   0.567   0.860  1.00  0.00     0.187 HD
HETATM   32  N6  UNL     1      -4.302   2.371   1.200  1.00  0.00    -0.062 NA
HETATM   33  N7  UNL     1      -5.624   0.613   0.215  1.00  0.00    -0.163 N 
HETATM   34  C11 UNL     1      -5.753  -0.622  -0.311  1.00  0.00     0.692 A 
ATOM     35  H7  UNL     1      -6.442   1.218   0.289  1.00  0.00     0.187 HD
HETATM   36  N9  UNL     1      -4.667  -1.407  -0.401  1.00  0.00    -0.022 N 
ATOM     37  H9  UNL     1      -4.760  -2.342  -0.798  1.00  0.00     0.203 HD
BRANCH  34  38
HETATM   38  N8  UNL     1      -6.916  -1.018  -0.713  1.00  0.00    -0.234 N 
ATOM     39  H82 UNL     1      -7.741  -0.422  -0.645  1.00  0.00     0.174 HD
ATOM     40  H81 UNL     1      -7.014  -1.952  -1.111  1.00  0.00     0.174 HD
ENDBRANCH  34  38
ENDBRANCH  26  28
ENDBRANCH   1  24
TORSDOF 10
