REMARK  6 active torsions:
REMARK  status: ('A' for Active; 'I' for Inactive)
REMARK       I    between atoms: N1_2  and  C2_4 
REMARK    1  A    between atoms: C2_4  and  C3_6 
REMARK    2  A    between atoms: C3_6  and  O2_7 
REMARK    3  A    between atoms: C4_9  and  N2_10 
REMARK    4  A    between atoms: N2_10  and  S1_12 
REMARK    5  A    between atoms: N5_18  and  N6_19 
REMARK    6  A    between atoms: N7_21  and  C5_23 
ROOT
HETATM    1  C3  UNL     1      -0.396  -0.512  -0.046  1.00  0.00     0.286 C 
HETATM    2  C4  UNL     1      -1.416  -1.551  -0.507  1.00  0.00     0.275 C 
HETATM    3  N3  UNL     1      -1.115  -1.622  -1.920  1.00  0.00    -0.093 NA
HETATM    4  N4  UNL     1       0.254  -1.425  -2.064  1.00  0.00    -0.006 NA
HETATM    5  N5  UNL     1       0.703  -0.783  -0.916  1.00  0.00    -0.156 N 
ENDROOT
BRANCH   5   6
HETATM    6  N6  UNL     1       2.031  -0.457  -0.666  1.00  0.00    -0.223 N 
HETATM    7  N7  UNL     1       2.411   0.678  -0.259  1.00  0.00    -0.268 N 
ATOM      8  H7  UNL     1       1.741   1.428  -0.091  1.00  0.00     0.190 HD
ATOM      9  H6  UNL     1       2.739  -1.175  -0.820  1.00  0.00     0.210 HD
BRANCH   7  10
HETATM   10  C5  UNL     1       3.803   0.876  -0.042  1.00  0.00     0.151 A 
HETATM   11  C6  UNL     1       4.646   1.600  -0.852  1.00  0.00     0.155 A 
HETATM   12  N8  UNL     1       5.879   1.544  -0.299  1.00  0.00    -0.292 N 
HETATM   13  N9  UNL     1       5.822   0.819   0.812  1.00  0.00    -0.021 NA
ATOM     14  H8  UNL     1       6.717   1.987  -0.675  1.00  0.00     0.183 HD
HETATM   15  N10 UNL     1       4.568   0.414   0.969  1.00  0.00    -0.267 N 
ATOM     16  H10 UNL     1       4.232  -0.162   1.741  1.00  0.00     0.186 HD
ENDBRANCH   7  10
ENDBRANCH   5   6
BRANCH   1  17
HETATM   17  C2  UNL     1      -0.933   0.862  -0.198  1.00  0.00     0.280 C 
HETATM   18  N1  UNL     1      -1.106   1.703   0.929  1.00  0.00    -0.361 N 
HETATM   19  C1  UNL     1      -1.621   3.027   0.795  1.00  0.00     0.149 C 
ATOM     20  H1  UNL     1      -0.857   1.355   1.855  1.00  0.00     0.162 HD
HETATM   21  O1  UNL     1      -1.246   1.311  -1.328  1.00  0.00    -0.268 OA
ENDBRANCH   1  17
BRANCH   1  22
HETATM   22  O2  UNL     1      -0.136  -0.752   1.285  1.00  0.00    -0.358 OA
ATOM     23  H2  UNL     1       0.208  -1.632   1.382  1.00  0.00     0.213 HD
ENDBRANCH   1  22
BRANCH   2  24
HETATM   24  N2  UNL     1      -2.752  -1.140  -0.217  1.00  0.00    -0.275 N 
ATOM     25  H2  UNL     1      -3.209  -0.301  -0.573  1.00  0.00     0.176 HD
BRANCH  24  26
HETATM   26  S1  UNL     1      -3.467  -2.317   0.848  1.00  0.00     0.206 S 
HETATM   27  O3  UNL     1      -4.548  -1.680   1.681  1.00  0.00    -0.578 OA
HETATM   28  O4  UNL     1      -2.410  -2.960   1.698  1.00  0.00    -0.578 OA
HETATM   29  O5  UNL     1      -4.203  -3.482  -0.132  1.00  0.00    -0.578 OA
ENDBRANCH  24  26
ENDBRANCH   2  24
TORSDOF 6
