REMARK  1 active torsions:
REMARK  status: ('A' for Active; 'I' for Inactive)
REMARK    1  A    between atoms: N1_7  and  O2_8 
ROOT
HETATM    1  O1  UNL     1       0.261   2.253  -0.671  1.00  0.00    -0.271 OA
HETATM    2  C1  UNL     1       0.107   1.102  -0.194  1.00  0.00     0.244 C 
HETATM    3  C2  UNL     1      -1.229   0.678   0.242  1.00  0.00     0.115 C 
HETATM    4  C3  UNL     1      -1.684  -0.630  -0.352  1.00  0.00     0.085 C 
HETATM    5  S1  UNL     1      -0.347  -1.777  -0.687  1.00  0.00    -0.146 SA
HETATM    6  C4  UNL     1       1.155  -1.173   0.083  1.00  0.00     0.232 C 
HETATM    7  N1  UNL     1       1.234   0.262  -0.099  1.00  0.00    -0.219 N 
ENDROOT
BRANCH   7   8
HETATM    8  O2  UNL     1       2.485   0.788  -0.177  1.00  0.00    -0.284 OA
ATOM      9  H2  UNL     1       3.245   0.222  -0.113  1.00  0.00     0.245 HD
ENDBRANCH   7   8
TORSDOF 1
