REMARK  12 active torsions:
REMARK  status: ('A' for Active; 'I' for Inactive)
REMARK    1  A    between atoms: C2_2  and  C4_4 
REMARK    2  A    between atoms: C4_4  and  C5_5 
REMARK    3  A    between atoms: C7_10  and  C8_11 
REMARK    4  A    between atoms: C15_19  and  C16_20 
REMARK    5  A    between atoms: C16_20  and  C17_21 
REMARK    6  A    between atoms: C17_21  and  C18_22 
REMARK    7  A    between atoms: C18_22  and  C19_23 
REMARK    8  A    between atoms: C19_23  and  N3_24 
REMARK       I    between atoms: C20_26  and  N5_28 
REMARK    9  A    between atoms: C24_35  and  C25_36 
REMARK   10  A    between atoms: C25_36  and  C26_37 
REMARK   11  A    between atoms: C26_37  and  C27_38 
REMARK   12  A    between atoms: C27_38  and  N7_39 
ROOT
HETATM    1  C5  UNL     1      -3.145  -0.473   0.221  1.00  0.00     0.179 C 
HETATM    2  C6  UNL     1      -1.844  -0.652   0.877  1.00  0.00     0.242 C 
HETATM    3  O1  UNL     1      -1.691  -0.162   2.066  1.00  0.00    -0.271 OA
HETATM    4  N1  UNL     1      -0.699  -1.291   0.400  1.00  0.00    -0.338 N 
ATOM      5  H1  UNL     1      -0.117  -1.714   1.123  1.00  0.00     0.164 HD
HETATM    6  C7  UNL     1      -0.208  -1.452  -0.924  1.00  0.00     0.186 C 
HETATM    7  N2  UNL     1       0.715  -0.495  -1.417  1.00  0.00    -0.383 N 
HETATM    8  C14 UNL     1       1.073  -0.598  -2.768  1.00  0.00     0.146 C 
HETATM    9  C15 UNL     1       1.053   0.603  -0.637  1.00  0.00     0.173 C 
HETATM   10  C23 UNL     1       0.594   1.932  -1.105  1.00  0.00     0.241 C 
HETATM   11  O2  UNL     1       1.238   2.414  -2.108  1.00  0.00    -0.271 OA
HETATM   12  N6  UNL     1      -0.432   2.735  -0.612  1.00  0.00    -0.346 N 
ATOM     13  H6  UNL     1      -0.154   3.684  -0.364  1.00  0.00     0.163 HD
HETATM   14  C24 UNL     1      -1.834   2.431  -0.397  1.00  0.00     0.176 C 
HETATM   15  C29 UNL     1      -2.358   1.399  -1.302  1.00  0.00     0.243 C 
HETATM   16  O3  UNL     1      -2.071   1.637  -2.534  1.00  0.00    -0.271 OA
HETATM   17  N10 UNL     1      -3.084   0.254  -1.047  1.00  0.00    -0.341 N 
HETATM   18  C30 UNL     1      -3.898  -0.311  -2.137  1.00  0.00     0.153 C 
ENDROOT
BRANCH   9  19
HETATM   19  C16 UNL     1       2.522   0.676  -0.182  1.00  0.00     0.035 C 
BRANCH  19  20
HETATM   20  C17 UNL     1       3.524   0.723  -1.248  1.00  0.00     0.007 C 
BRANCH  20  21
HETATM   21  C18 UNL     1       4.929   0.776  -0.619  1.00  0.00     0.044 C 
BRANCH  21  22
HETATM   22  C19 UNL     1       5.135   1.970   0.251  1.00  0.00     0.063 C 
BRANCH  22  23
HETATM   23  N3  UNL     1       6.403   2.089   0.816  1.00  0.00    -0.344 N 
HETATM   24  C20 UNL     1       7.342   1.397   1.202  1.00  0.00     0.189 C 
HETATM   25  N4  UNL     1       8.506   2.104   1.746  1.00  0.00    -0.063 NA
HETATM   26  N5  UNL     1       7.464  -0.028   1.197  1.00  0.00    -0.364 N 
HETATM   27  C21 UNL     1       6.978  -0.843   2.289  1.00  0.00     0.151 C 
HETATM   28  C22 UNL     1       8.120  -0.644   0.047  1.00  0.00     0.151 C 
ATOM     29  H3  UNL     1       6.625   3.075   0.955  1.00  0.00     0.167 HD
ENDBRANCH  22  23
ENDBRANCH  21  22
ENDBRANCH  20  21
ENDBRANCH  19  20
ENDBRANCH   9  19
BRANCH   6  30
HETATM   30  C8  UNL     1       0.382  -2.835  -1.115  1.00  0.00     0.028 C 
HETATM   31  C9  UNL     1       1.521  -3.173  -0.224  1.00  0.00     0.008 C 
HETATM   32  C10 UNL     1       2.164  -4.453  -0.779  1.00  0.00     0.001 C 
HETATM   33  C11 UNL     1       1.166  -5.564  -0.678  1.00  0.00     0.000 C 
HETATM   34  C12 UNL     1      -0.118  -5.197  -1.383  1.00  0.00     0.001 C 
HETATM   35  C13 UNL     1      -0.694  -3.908  -0.833  1.00  0.00     0.008 C 
ENDBRANCH   6  30
BRANCH  14  36
HETATM   36  C25 UNL     1      -2.652   3.698  -0.761  1.00  0.00     0.036 C 
BRANCH  36  37
HETATM   37  C26 UNL     1      -4.094   3.390  -0.529  1.00  0.00     0.022 C 
BRANCH  37  38
HETATM   38  C27 UNL     1      -4.894   4.638  -0.884  1.00  0.00     0.122 C 
BRANCH  38  39
HETATM   39  N7  UNL     1      -4.443   5.702  -0.019  1.00  0.00    -0.367 N 
HETATM   40  C28 UNL     1      -5.191   6.155   0.906  1.00  0.00     0.196 C 
HETATM   41  N8  UNL     1      -6.484   5.607   1.091  1.00  0.00    -0.067 NA
HETATM   42  N9  UNL     1      -4.740   7.197   1.745  1.00  0.00    -0.067 NA
ATOM     43  H7  UNL     1      -3.512   6.096  -0.151  1.00  0.00     0.161 HD
ENDBRANCH  38  39
ENDBRANCH  37  38
ENDBRANCH  36  37
ENDBRANCH  14  36
BRANCH   1  44
HETATM   44  C4  UNL     1      -4.039  -1.641   0.163  1.00  0.00     0.039 C 
BRANCH  44  45
HETATM   45  C2  UNL     1      -4.532  -2.261   1.411  1.00  0.00    -0.020 C 
HETATM   46  C1  UNL     1      -5.465  -3.433   1.057  1.00  0.00     0.009 C 
HETATM   47  C3  UNL     1      -3.518  -2.833   2.351  1.00  0.00     0.009 C 
ENDBRANCH  44  45
ENDBRANCH   1  44
TORSDOF 12
