REMARK  11 active torsions:
REMARK  status: ('A' for Active; 'I' for Inactive)
REMARK    1  A    between atoms: C3_3  and  C4_4 
REMARK    2  A    between atoms: C4_4  and  N1_5 
REMARK    3  A    between atoms: N1_5  and  N2_7 
REMARK    4  A    between atoms: C5_9  and  C6_10 
REMARK    5  A    between atoms: C5_9  and  N6_25 
REMARK    6  A    between atoms: C6_10  and  C7_11 
REMARK    7  A    between atoms: C7_11  and  C8_12 
REMARK    8  A    between atoms: C8_12  and  N3_13 
REMARK    9  A    between atoms: N6_25  and  S1_27 
REMARK   10  A    between atoms: S1_27  and  C15_30 
REMARK   11  A    between atoms: N7_33  and  C18_34 
ROOT
HETATM    1  C1  UNL     1      -2.844  -6.100  -0.829  1.00  0.00     0.097 C 
HETATM    2  C2  UNL     1      -1.651  -6.284  -0.608  1.00  0.00    -0.186 C 
HETATM    3  C3  UNL     1      -0.242  -6.489  -0.318  1.00  0.00     0.100 C 
ENDROOT
BRANCH   3   4
HETATM    4  C4  UNL     1       0.262  -5.268   0.450  1.00  0.00     0.150 C 
BRANCH   4   5
HETATM    5  N1  UNL     1       0.054  -4.112  -0.423  1.00  0.00    -0.334 N 
ATOM      6  H1  UNL     1      -0.361  -4.209  -1.350  1.00  0.00     0.180 HD
BRANCH   5   7
HETATM    7  N2  UNL     1       0.447  -2.883   0.069  1.00  0.00    -0.293 N 
HETATM    8  C5  UNL     1      -0.223  -1.808  -0.033  1.00  0.00     0.105 C 
ATOM      9  H2  UNL     1       1.344  -2.834   0.552  1.00  0.00     0.188 HD
BRANCH   8  10
HETATM   10  C6  UNL     1      -1.561  -1.798  -0.737  1.00  0.00     0.080 C 
BRANCH  10  11
HETATM   11  C7  UNL     1      -2.032  -0.391  -0.740  1.00  0.00     0.028 C 
BRANCH  11  12
HETATM   12  C8  UNL     1      -3.368  -0.149  -1.423  1.00  0.00     0.147 C 
BRANCH  12  13
HETATM   13  N3  UNL     1      -3.657   1.302  -1.329  1.00  0.00    -0.193 N 
HETATM   14  C9  UNL     1      -3.144   2.146  -2.230  1.00  0.00     0.117 A 
HETATM   15  C10 UNL     1      -3.353   3.493  -2.080  1.00  0.00    -0.023 A 
HETATM   16  C11 UNL     1      -2.801   4.451  -3.076  1.00  0.00     0.052 C 
HETATM   17  C12 UNL     1      -4.076   4.005  -1.028  1.00  0.00     0.030 A 
HETATM   18  C13 UNL     1      -4.265   5.474  -0.907  1.00  0.00     0.069 C 
HETATM   19  N4  UNL     1      -4.576   3.137  -0.149  1.00  0.00    -0.196 N 
HETATM   20  C14 UNL     1      -4.379   1.770  -0.282  1.00  0.00     0.678 A 
ATOM     21  H4  UNL     1      -5.117   3.487   0.642  1.00  0.00     0.184 HD
HETATM   22  N5  UNL     1      -4.924   1.022   0.494  1.00  0.00    -0.234 N 
ATOM     23  H52 UNL     1      -4.779   0.017   0.396  1.00  0.00     0.174 HD
ATOM     24  H51 UNL     1      -5.467   1.374   1.282  1.00  0.00     0.174 HD
ENDBRANCH  12  13
ENDBRANCH  11  12
ENDBRANCH  10  11
ENDBRANCH   8  10
BRANCH   8  25
HETATM   25  N6  UNL     1       0.281  -0.572   0.516  1.00  0.00    -0.268 N 
ATOM     26  H6  UNL     1      -0.159  -0.191   1.353  1.00  0.00     0.180 HD
BRANCH  25  27
HETATM   27  S1  UNL     1       1.589   0.277  -0.186  1.00  0.00     0.264 S 
HETATM   28  O1  UNL     1       1.946  -0.454  -1.480  1.00  0.00    -0.200 OA
HETATM   29  O2  UNL     1       1.175   1.701  -0.528  1.00  0.00    -0.200 OA
BRANCH  27  30
HETATM   30  C15 UNL     1       3.004   0.370   0.824  1.00  0.00     0.082 A 
HETATM   31  C16 UNL     1       3.998  -0.574   0.810  1.00  0.00     0.042 A 
HETATM   32  C17 UNL     1       5.136  -0.463   1.619  1.00  0.00     0.092 A 
HETATM   33  N7  UNL     1       5.269   0.584   2.429  1.00  0.00    -0.367 N 
HETATM   34  C20 UNL     1       4.333   1.525   2.481  1.00  0.00     0.092 A 
HETATM   35  C21 UNL     1       3.193   1.452   1.697  1.00  0.00     0.042 A 
BRANCH  33  36
HETATM   36  C18 UNL     1       6.487   0.747   3.255  1.00  0.00     0.123 C 
HETATM   37  C19 UNL     1       7.463   1.577   2.404  1.00  0.00     0.027 C 
ENDBRANCH  33  36
ENDBRANCH  27  30
ENDBRANCH  25  27
ENDBRANCH   8  25
ENDBRANCH   5   7
ENDBRANCH   4   5
ENDBRANCH   3   4
TORSDOF 11
