REMARK  10 active torsions:
REMARK  status: ('A' for Active; 'I' for Inactive)
REMARK    1  A    between atoms: C5_6  and  C6_7 
REMARK    2  A    between atoms: C6_7  and  C7_8 
REMARK       I    between atoms: C7_8  and  N2_10 
REMARK    3  A    between atoms: N2_10  and  S1_12 
REMARK    4  A    between atoms: S1_12  and  C9_14 
REMARK    5  A    between atoms: C9_14  and  C10_15 
REMARK    6  A    between atoms: C10_15  and  C11_16 
REMARK    7  A    between atoms: C11_16  and  C12_17 
REMARK    8  A    between atoms: C12_17  and  C13_18 
REMARK    9  A    between atoms: N3_19  and  C14_21 
REMARK   10  A    between atoms: C16_23  and  N4_24 
REMARK       I    between atoms: N4_24  and  C17_26 
ROOT
HETATM    1  C13 UNL     1      -1.950   0.770  -1.003  1.00  0.00     0.057 C 
HETATM    2  N3  UNL     1      -2.796  -0.021  -0.493  1.00  0.00    -0.382 N 
ATOM      3  H3  UNL     1      -2.664  -1.029  -0.575  1.00  0.00     0.160 HD
ENDROOT
BRANCH   1   4
HETATM    4  C12 UNL     1      -0.731   0.386  -1.742  1.00  0.00     0.044 C 
BRANCH   4   5
HETATM    5  C11 UNL     1       0.490   0.608  -0.901  1.00  0.00     0.006 C 
BRANCH   5   6
HETATM    6  C10 UNL     1       0.380  -0.241   0.321  1.00  0.00     0.011 C 
BRANCH   6   7
HETATM    7  C9  UNL     1       1.561  -0.116   1.265  1.00  0.00     0.084 C 
BRANCH   7   8
HETATM    8  S1  UNL     1       3.066  -0.554   0.486  1.00  0.00    -0.129 SA
HETATM    9  C8  UNL     1       3.079  -2.125  -0.288  1.00  0.00     0.101 C 
BRANCH   8  10
HETATM   10  N2  UNL     1       4.367  -0.407   1.593  1.00  0.00    -0.310 N 
HETATM   11  C7  UNL     1       5.670  -0.148   1.102  1.00  0.00     0.231 C 
HETATM   12  O1  UNL     1       5.847  -0.027  -0.141  1.00  0.00    -0.272 OA
ATOM     13  H2  UNL     1       4.204  -0.505   2.595  1.00  0.00     0.176 HD
BRANCH  11  14
HETATM   14  C6  UNL     1       6.824  -0.016   2.032  1.00  0.00     0.143 C 
BRANCH  14  15
HETATM   15  C5  UNL     1       8.028   0.302   1.225  1.00  0.00    -0.034 A 
HETATM   16  C4  UNL     1       8.324   1.635   1.032  1.00  0.00     0.010 A 
HETATM   17  C3  UNL     1       9.442   1.963   0.286  1.00  0.00     0.018 A 
HETATM   18  C2  UNL     1      10.233   0.981  -0.246  1.00  0.00     0.090 A 
HETATM   19  N1  UNL     1       9.941  -0.308  -0.056  1.00  0.00    -0.370 N 
HETATM   20  C1  UNL     1      10.815  -1.334  -0.649  1.00  0.00     0.154 C 
HETATM   21  C22 UNL     1       8.863  -0.640   0.663  1.00  0.00     0.097 A 
ENDBRANCH  14  15
ENDBRANCH  11  14
ENDBRANCH   8  10
ENDBRANCH   7   8
ENDBRANCH   6   7
ENDBRANCH   5   6
ENDBRANCH   4   5
ENDBRANCH   1   4
BRANCH   2  22
HETATM   22  C14 UNL     1      -3.936   0.495   0.197  1.00  0.00     0.178 C 
HETATM   23  C15 UNL     1      -4.880  -0.593   0.480  1.00  0.00     0.072 C 
HETATM   24  C16 UNL     1      -6.369  -0.226   0.414  1.00  0.00     0.096 C 
HETATM   25  C18 UNL     1      -6.498   0.551  -0.822  1.00  0.00     0.057 C 
HETATM   26  C19 UNL     1      -7.815   1.137  -1.207  1.00  0.00     0.176 C 
HETATM   27  C21 UNL     1      -5.779   1.888  -0.544  1.00  0.00     0.110 C 
HETATM   28  O2  UNL     1      -7.456   2.113  -2.174  1.00  0.00    -0.389 OA
HETATM   29  C20 UNL     1      -6.259   2.650  -1.751  1.00  0.00     0.193 C 
HETATM   30  N7  UNL     1      -4.400   1.613  -0.533  1.00  0.00    -0.395 N 
ATOM     31  H7  UNL     1      -3.747   2.209  -1.042  1.00  0.00     0.155 HD
BRANCH  24  32
HETATM   32  N4  UNL     1      -7.124  -1.435   0.491  1.00  0.00    -0.360 N 
HETATM   33  C17 UNL     1      -8.505  -1.599   0.659  1.00  0.00     0.182 C 
HETATM   34  N5  UNL     1      -9.259  -0.648   1.060  1.00  0.00    -0.374 N 
HETATM   35  N6  UNL     1      -9.159  -2.866   0.404  1.00  0.00    -0.064 NA
ATOM     36  H52 UNL     1      -8.798   0.244   1.240  1.00  0.00     0.158 HD
ATOM     37  H51 UNL     1     -10.265  -0.767   1.182  1.00  0.00     0.158 HD
ATOM     38  H4  UNL     1      -6.584  -2.297   0.413  1.00  0.00     0.162 HD
ENDBRANCH  24  32
ENDBRANCH   2  22
TORSDOF 10
