REMARK  8 active torsions:
REMARK  status: ('A' for Active; 'I' for Inactive)
REMARK       I    between atoms: C2_4  and  N2_5 
REMARK       I    between atoms: C2_4  and  N6_21 
REMARK    1  A    between atoms: N2_5  and  C3_7 
REMARK    2  A    between atoms: C3_7  and  O1_8 
REMARK    3  A    between atoms: C3_7  and  C4_10 
REMARK    4  A    between atoms: C4_10  and  N3_12 
REMARK    5  A    between atoms: N3_12  and  C6_14 
REMARK    6  A    between atoms: C6_14  and  N4_16 
REMARK    7  A    between atoms: N4_16  and  N5_18 
REMARK    8  A    between atoms: N6_21  and  N7_23 
ROOT
HETATM    1  C3  UNL     1       0.287  -0.709  -0.049  1.00  0.00     0.153 C 
ENDROOT
BRANCH   1   2
HETATM    2  N2  UNL     1       1.387  -0.036   0.407  1.00  0.00    -0.171 N 
HETATM    3  C2  UNL     1       2.532   0.140  -0.473  1.00  0.00     0.698 C 
HETATM    4  N1  UNL     1       3.480   0.904  -0.006  1.00  0.00    -0.229 N 
HETATM    5  N6  UNL     1       2.629  -0.436  -1.720  1.00  0.00    -0.072 N 
HETATM    6  C1  UNL     1       3.476   1.550   1.268  1.00  0.00     0.165 C 
ATOM      7  H1  UNL     1       4.294   1.053  -0.602  1.00  0.00     0.177 HD
ATOM      8  H6  UNL     1       2.154  -0.045  -2.533  1.00  0.00     0.212 HD
ATOM      9  H2  UNL     1       1.404   0.339   1.355  1.00  0.00     0.186 HD
BRANCH   5  10
HETATM   10  N7  UNL     1       3.438  -1.620  -1.809  1.00  0.00    -0.024 N 
HETATM   11  O2  UNL     1       3.644  -2.304  -0.776  1.00  0.00    -0.516 OA
HETATM   12  O3  UNL     1       3.972  -1.958  -3.012  1.00  0.00    -0.516 OA
ENDBRANCH   5  10
ENDBRANCH   1   2
BRANCH   1  13
HETATM   13  O1  UNL     1       0.342  -1.056  -1.310  1.00  0.00    -0.347 OA
ATOM     14  H1  UNL     1      -0.422  -1.523  -1.627  1.00  0.00     0.219 HD
ENDBRANCH   1  13
BRANCH   1  15
HETATM   15  C4  UNL     1      -0.894  -1.061   0.709  1.00  0.00     0.155 C 
HETATM   16  C5  UNL     1      -1.829  -1.785  -0.432  1.00  0.00     0.041 C 
BRANCH  15  17
HETATM   17  N3  UNL     1      -1.797  -0.125   1.238  1.00  0.00    -0.354 N 
ATOM     18  H3  UNL     1      -1.639  -0.061   2.244  1.00  0.00     0.162 HD
BRANCH  17  19
HETATM   19  C6  UNL     1      -2.823   0.745   0.903  1.00  0.00     0.186 C 
HETATM   20  S1  UNL     1      -3.479   1.635   2.204  1.00  0.00    -0.040 SA
BRANCH  19  21
HETATM   21  N4  UNL     1      -3.415   1.041  -0.320  1.00  0.00    -0.283 N 
ATOM     22  H4  UNL     1      -3.047   0.590  -1.158  1.00  0.00     0.188 HD
BRANCH  21  23
HETATM   23  N5  UNL     1      -4.519   1.950  -0.462  1.00  0.00    -0.343 N 
ATOM     24  H52 UNL     1      -4.874   2.391   0.386  1.00  0.00     0.176 HD
ATOM     25  H51 UNL     1      -4.953   2.167  -1.359  1.00  0.00     0.176 HD
ENDBRANCH  21  23
ENDBRANCH  19  21
ENDBRANCH  17  19
ENDBRANCH  15  17
ENDBRANCH   1  15
TORSDOF 8
