REMARK  7 active torsions:
REMARK  status: ('A' for Active; 'I' for Inactive)
REMARK    1  A    between atoms: C2_2  and  C3_3 
REMARK    2  A    between atoms: C2_2  and  N1_12 
REMARK    3  A    between atoms: N1_12  and  N2_13 
REMARK    4  A    between atoms: N2_13  and  C10_15 
REMARK    5  A    between atoms: C10_15  and  C12_17 
REMARK    6  A    between atoms: C12_17  and  O3_18 
REMARK    7  A    between atoms: N3_20  and  O4_22 
ROOT
HETATM    1  N1  UNL     1       1.459  -0.561  -0.700  1.00  0.00    -0.335 NA
ENDROOT
BRANCH   1   2
HETATM    2  C2  UNL     1       0.552  -0.655   0.097  1.00  0.00     0.105 C 
HETATM    3  C1  UNL     1       0.896  -0.950   1.530  1.00  0.00     0.087 C 
BRANCH   2   4
HETATM    4  C3  UNL     1      -0.820  -0.452  -0.368  1.00  0.00     0.055 C 
HETATM    5  C4  UNL     1      -1.942  -0.509   0.235  1.00  0.00     0.023 C 
HETATM    6  C5  UNL     1      -3.281  -0.245  -0.481  1.00  0.00     0.083 C 
HETATM    7  C9  UNL     1      -2.426  -0.807   1.571  1.00  0.00     0.290 C 
HETATM    8  C6  UNL     1      -3.954   0.570   0.569  1.00  0.00     0.068 C 
HETATM    9  C7  UNL     1      -3.554   2.018   0.356  1.00  0.00     0.046 C 
HETATM   10  C8  UNL     1      -5.460   0.415   0.560  1.00  0.00     0.046 C 
HETATM   11  O1  UNL     1      -3.504   0.075   1.802  1.00  0.00    -0.307 OA
HETATM   12  O2  UNL     1      -1.972  -1.674   2.343  1.00  0.00    -0.260 OA
ENDBRANCH   2   4
ENDBRANCH   1   2
BRANCH   1  13
HETATM   13  N2  UNL     1       2.444  -0.470  -1.508  1.00  0.00    -0.260 N 
ATOM     14  H2  UNL     1       2.231  -0.352  -2.498  1.00  0.00     0.196 HD
BRANCH  13  15
HETATM   15  C10 UNL     1       3.856  -0.522  -1.123  1.00  0.00     0.184 C 
HETATM   16  C11 UNL     1       4.183  -1.823  -0.428  1.00  0.00     0.043 C 
BRANCH  15  17
HETATM   17  C12 UNL     1       4.153   0.675  -0.318  1.00  0.00     0.160 C 
HETATM   18  N3  UNL     1       3.226   1.538  -0.114  1.00  0.00    -0.249 N 
ATOM     19  H3  UNL     1       2.309   1.359  -0.523  1.00  0.00     0.196 HD
BRANCH  17  20
HETATM   20  O3  UNL     1       5.443   0.805   0.185  1.00  0.00    -0.346 OA
ATOM     21  H3  UNL     1       5.635   1.577   0.704  1.00  0.00     0.219 HD
ENDBRANCH  17  20
BRANCH  18  22
HETATM   22  O4  UNL     1       3.388   2.681   0.616  1.00  0.00    -0.288 OA
ATOM     23  H4  UNL     1       2.702   3.320   0.767  1.00  0.00     0.244 HD
ENDBRANCH  18  22
ENDBRANCH  15  17
ENDBRANCH  13  15
ENDBRANCH   1  13
TORSDOF 7
