REMARK  9 active torsions:
REMARK  status: ('A' for Active; 'I' for Inactive)
REMARK    1  A    between atoms: C3_3  and  C4_4 
REMARK    2  A    between atoms: C4_4  and  O1_7 
REMARK    3  A    between atoms: O1_7  and  C7_8 
REMARK    4  A    between atoms: C7_8  and  C10_11 
REMARK    5  A    between atoms: C10_11  and  C11_12 
REMARK       I    between atoms: C11_12  and  N1_14 
REMARK    6  A    between atoms: N1_14  and  O3_16 
REMARK    7  A    between atoms: O3_16  and  C12_17 
REMARK    8  A    between atoms: C12_17  and  O4_18 
REMARK    9  A    between atoms: N2_20  and  O5_22 
ROOT
HETATM    1  C1  UNL     1      -2.371   3.546  -0.483  1.00  0.00     0.112 C 
HETATM    2  C2  UNL     1      -2.418   2.132  -0.063  1.00  0.00    -0.108 C 
HETATM    3  C3  UNL     1      -2.481   0.965   0.274  1.00  0.00    -0.069 C 
ENDROOT
BRANCH   3   4
HETATM    4  C4  UNL     1      -2.608  -0.459   0.678  1.00  0.00     0.117 C 
HETATM    5  C5  UNL     1      -4.076  -0.822   0.335  1.00  0.00     0.060 C 
HETATM    6  C6  UNL     1      -2.618  -0.423   2.187  1.00  0.00     0.060 C 
BRANCH   4   7
HETATM    7  O1  UNL     1      -1.841  -1.233   0.029  1.00  0.00    -0.358 OA
BRANCH   7   8
HETATM    8  C7  UNL     1      -0.539  -1.456  -0.086  1.00  0.00     0.064 C 
HETATM    9  C8  UNL     1      -0.381  -2.513  -1.160  1.00  0.00     0.046 C 
HETATM   10  C9  UNL     1       0.011  -2.137   1.187  1.00  0.00     0.046 C 
BRANCH   8  11
HETATM   11  C10 UNL     1       0.277  -0.292  -0.492  1.00  0.00     0.142 C 
BRANCH  11  12
HETATM   12  C11 UNL     1       1.716  -0.500  -0.696  1.00  0.00     0.244 C 
HETATM   13  O2  UNL     1       2.134  -1.681  -0.745  1.00  0.00    -0.271 OA
HETATM   14  N1  UNL     1       2.680   0.523  -0.841  1.00  0.00    -0.225 N 
ATOM     15  H1  UNL     1       2.397   1.503  -0.810  1.00  0.00     0.198 HD
BRANCH  14  16
HETATM   16  O3  UNL     1       3.988   0.193  -1.022  1.00  0.00    -0.190 OA
BRANCH  16  17
HETATM   17  C12 UNL     1       5.080   0.974  -0.753  1.00  0.00     0.305 C 
HETATM   18  N2  UNL     1       4.872   2.237  -0.564  1.00  0.00    -0.225 N 
ATOM     19  H2  UNL     1       3.940   2.649  -0.609  1.00  0.00     0.198 HD
BRANCH  17  20
HETATM   20  O4  UNL     1       6.331   0.373  -0.700  1.00  0.00    -0.324 OA
ATOM     21  H4  UNL     1       7.089   0.915  -0.513  1.00  0.00     0.221 HD
ENDBRANCH  17  20
BRANCH  18  22
HETATM   22  O5  UNL     1       6.005   2.993  -0.295  1.00  0.00    -0.286 OA
ATOM     23  H5  UNL     1       5.852   3.920  -0.156  1.00  0.00     0.244 HD
ENDBRANCH  18  22
ENDBRANCH  16  17
ENDBRANCH  14  16
ENDBRANCH  11  12
ENDBRANCH   8  11
ENDBRANCH   7   8
ENDBRANCH   4   7
ENDBRANCH   3   4
TORSDOF 9
