REMARK  12 active torsions:
REMARK  status: ('A' for Active; 'I' for Inactive)
REMARK    1  A    between atoms: C3_3  and  N1_4 
REMARK    2  A    between atoms: C6_10  and  C7_11 
REMARK    3  A    between atoms: C7_11  and  C8_12 
REMARK    4  A    between atoms: C12_19  and  C13_20 
REMARK    5  A    between atoms: C13_20  and  C14_21 
REMARK    6  A    between atoms: C18_28  and  C19_29 
REMARK    7  A    between atoms: C19_29  and  C20_30 
REMARK    8  A    between atoms: C23_33  and  O4_34 
REMARK    9  A    between atoms: C24_38  and  C25_39 
REMARK   10  A    between atoms: C25_39  and  C26_40 
REMARK   11  A    between atoms: C30_47  and  C31_48 
REMARK   12  A    between atoms: C31_48  and  C32_49 
ROOT
HETATM    1  C1  UNL     1      -1.140  -7.309   0.528  1.00  0.00     0.014 C 
HETATM    2  C2  UNL     1      -1.183  -6.402  -0.265  1.00  0.00    -0.098 C 
HETATM    3  C3  UNL     1      -1.204  -5.297  -1.218  1.00  0.00     0.219 C 
ENDROOT
BRANCH   3   4
HETATM    4  N1  UNL     1      -1.217  -3.981  -0.557  1.00  0.00    -0.331 N 
HETATM    5  C4  UNL     1       0.108  -3.448  -0.288  1.00  0.00     0.229 C 
HETATM    6  C5  UNL     1       0.720  -2.871  -1.513  1.00  0.00     0.236 C 
HETATM    7  O1  UNL     1       0.159  -3.200  -2.626  1.00  0.00    -0.272 OA
HETATM    8  N2  UNL     1       1.830  -2.016  -1.582  1.00  0.00    -0.346 N 
HETATM    9  C6  UNL     1       2.287  -1.057  -0.594  1.00  0.00     0.177 C 
ATOM     10  H2  UNL     1       2.386  -2.076  -2.435  1.00  0.00     0.163 HD
HETATM   11  C11 UNL     1       2.366   0.278  -1.239  1.00  0.00     0.241 C 
HETATM   12  O2  UNL     1       2.662   0.231  -2.481  1.00  0.00    -0.271 OA
HETATM   13  N3  UNL     1       2.161   1.541  -0.660  1.00  0.00    -0.346 N 
HETATM   14  C12 UNL     1       2.735   2.090   0.537  1.00  0.00     0.177 C 
ATOM     15  H3  UNL     1       1.515   2.153  -1.158  1.00  0.00     0.163 HD
HETATM   16  C17 UNL     1       1.986   1.854   1.782  1.00  0.00     0.241 C 
HETATM   17  O3  UNL     1       2.615   1.186   2.694  1.00  0.00    -0.271 OA
HETATM   18  N4  UNL     1       0.692   2.241   2.143  1.00  0.00    -0.347 N 
HETATM   19  C18 UNL     1      -0.507   2.198   1.320  1.00  0.00     0.159 C 
ATOM     20  H4  UNL     1       0.575   2.594   3.093  1.00  0.00     0.163 HD
HETATM   21  C23 UNL     1      -0.935   0.786   1.123  1.00  0.00     0.135 C 
HETATM   22  N5  UNL     1      -1.534   0.173   0.029  1.00  0.00    -0.359 N 
HETATM   23  C24 UNL     1      -2.869   0.309  -0.507  1.00  0.00     0.175 C 
ATOM     24  H5  UNL     1      -0.934  -0.478  -0.478  1.00  0.00     0.162 HD
HETATM   25  C29 UNL     1      -3.822  -0.628   0.103  1.00  0.00     0.241 C 
HETATM   26  O5  UNL     1      -5.034  -0.518  -0.321  1.00  0.00    -0.271 OA
HETATM   27  N6  UNL     1      -3.617  -1.617   1.075  1.00  0.00    -0.346 N 
HETATM   28  C30 UNL     1      -2.914  -2.870   1.071  1.00  0.00     0.185 C 
ATOM     29  H6  UNL     1      -4.058  -1.403   1.970  1.00  0.00     0.163 HD
HETATM   30  C33 UNL     1      -2.443  -3.346  -0.242  1.00  0.00     0.244 C 
HETATM   31  O7  UNL     1      -3.217  -3.185  -1.261  1.00  0.00    -0.271 OA
BRANCH   9  32
HETATM   32  C7  UNL     1       3.500  -1.473   0.146  1.00  0.00     0.038 C 
BRANCH  32  33
HETATM   33  C8  UNL     1       4.752  -1.747  -0.575  1.00  0.00    -0.020 C 
HETATM   34  C9  UNL     1       4.728  -2.857  -1.584  1.00  0.00     0.009 C 
HETATM   35  C10 UNL     1       5.783  -2.144   0.500  1.00  0.00     0.009 C 
ENDBRANCH  32  33
ENDBRANCH   9  32
BRANCH  14  36
HETATM   36  C13 UNL     1       2.993   3.593   0.375  1.00  0.00     0.038 C 
BRANCH  36  37
HETATM   37  C14 UNL     1       3.921   3.962  -0.715  1.00  0.00    -0.020 C 
HETATM   38  C15 UNL     1       5.309   3.364  -0.606  1.00  0.00     0.009 C 
HETATM   39  C16 UNL     1       3.405   3.878  -2.108  1.00  0.00     0.009 C 
ENDBRANCH  36  37
ENDBRANCH  14  36
BRANCH  19  40
HETATM   40  C19 UNL     1      -1.598   3.085   1.852  1.00  0.00     0.037 C 
BRANCH  40  41
HETATM   41  C20 UNL     1      -1.325   4.532   1.917  1.00  0.00    -0.020 C 
HETATM   42  C21 UNL     1      -2.588   5.205   2.461  1.00  0.00     0.009 C 
HETATM   43  C22 UNL     1      -0.149   5.023   2.669  1.00  0.00     0.009 C 
ENDBRANCH  40  41
ENDBRANCH  19  40
BRANCH  21  44
HETATM   44  O4  UNL     1      -0.677   0.052   2.181  1.00  0.00    -0.348 OA
ATOM     45  H4  UNL     1      -0.950  -0.849   2.055  1.00  0.00     0.219 HD
ENDBRANCH  21  44
BRANCH  23  46
HETATM   46  C25 UNL     1      -2.766   0.355  -1.981  1.00  0.00     0.038 C 
BRANCH  46  47
HETATM   47  C26 UNL     1      -4.009   0.492  -2.772  1.00  0.00    -0.020 C 
HETATM   48  C27 UNL     1      -3.614   0.538  -4.261  1.00  0.00     0.009 C 
HETATM   49  C28 UNL     1      -4.858   1.677  -2.501  1.00  0.00     0.009 C 
ENDBRANCH  46  47
ENDBRANCH  23  46
BRANCH  28  50
HETATM   50  C31 UNL     1      -3.722  -3.990   1.714  1.00  0.00     0.134 C 
BRANCH  50  51
HETATM   51  C32 UNL     1      -4.096  -3.829   3.100  1.00  0.00     0.233 C 
HETATM   52  N7  UNL     1      -3.456  -4.659   4.087  1.00  0.00    -0.062 NA
HETATM   53  O6  UNL     1      -4.940  -3.023   3.523  1.00  0.00    -0.277 OA
ENDBRANCH  50  51
ENDBRANCH  28  50
ENDBRANCH   3   4
TORSDOF 12
