REMARK  14 active torsions:
REMARK  status: ('A' for Active; 'I' for Inactive)
REMARK    1  A    between atoms: C2_2  and  C3_3 
REMARK       I    between atoms: C3_3  and  N1_5 
REMARK    2  A    between atoms: C4_6  and  O2_7 
REMARK    3  A    between atoms: C5_11  and  C6_12 
REMARK    4  A    between atoms: C6_12  and  C7_13 
REMARK    5  A    between atoms: C10_16  and  O3_17 
REMARK    6  A    between atoms: C11_21  and  C12_22 
REMARK    7  A    between atoms: C12_22  and  C13_23 
REMARK    8  A    between atoms: C16_26  and  O4_27 
REMARK    9  A    between atoms: C18_32  and  C19_33 
REMARK   10  A    between atoms: C22_36  and  O5_37 
REMARK   11  A    between atoms: C27_46  and  O6_47 
REMARK   12  A    between atoms: C28_49  and  C29_50 
REMARK   13  A    between atoms: C30_51  and  C31_52 
REMARK   14  A    between atoms: C31_52  and  N7_53 
ROOT
HETATM    1  C3  UNL     1       3.383   0.375   1.987  1.00  0.00     0.254 C 
HETATM    2  O1  UNL     1       3.724   1.353   2.765  1.00  0.00    -0.268 OA
HETATM    3  N1  UNL     1       2.811   0.689   0.751  1.00  0.00    -0.240 N 
HETATM    4  C4  UNL     1       2.701   2.130   0.490  1.00  0.00     0.227 C 
HETATM    5  N2  UNL     1       1.698   2.850  -0.130  1.00  0.00    -0.344 N 
ATOM      6  H2  UNL     1       1.986   3.344  -0.975  1.00  0.00     0.164 HD
HETATM    7  C5  UNL     1       0.299   3.017   0.227  1.00  0.00     0.160 C 
HETATM    8  C10 UNL     1      -0.055   2.313   1.466  1.00  0.00     0.135 C 
HETATM    9  N3  UNL     1      -1.014   1.321   1.621  1.00  0.00    -0.361 N 
ATOM     10  H3  UNL     1      -0.618   0.413   1.865  1.00  0.00     0.162 HD
HETATM   11  C11 UNL     1      -2.444   1.302   1.511  1.00  0.00     0.158 C 
HETATM   12  C16 UNL     1      -3.045   0.188   2.317  1.00  0.00     0.139 C 
HETATM   13  N4  UNL     1      -2.760  -1.132   2.505  1.00  0.00    -0.336 N 
ATOM     14  H4  UNL     1      -2.209  -1.266   3.353  1.00  0.00     0.168 HD
HETATM   15  C17 UNL     1      -3.017  -2.426   1.838  1.00  0.00     0.081 C 
HETATM   16  C18 UNL     1      -3.922  -2.375   0.713  1.00  0.00     0.011 C 
HETATM   17  C22 UNL     1      -1.753  -3.201   1.831  1.00  0.00     0.167 C 
HETATM   18  N5  UNL     1      -0.740  -3.591   1.003  1.00  0.00    -0.338 N 
HETATM   19  C23 UNL     1      -0.262  -5.005   1.220  1.00  0.00     0.154 C 
HETATM   20  C24 UNL     1       0.059  -2.973  -0.043  1.00  0.00     0.101 C 
HETATM   21  C25 UNL     1       0.274  -4.020  -1.180  1.00  0.00     0.063 C 
HETATM   22  C26 UNL     1      -0.588  -1.841  -0.762  1.00  0.00     0.063 C 
HETATM   23  N6  UNL     1       1.357  -2.535   0.437  1.00  0.00    -0.343 N 
ATOM     24  H6  UNL     1       1.635  -2.961   1.321  1.00  0.00     0.164 HD
HETATM   25  C27 UNL     1       2.299  -1.640  -0.082  1.00  0.00     0.166 C 
HETATM   26  C28 UNL     1       2.341  -0.216  -0.298  1.00  0.00     0.096 C 
ENDROOT
BRANCH  26  27
HETATM   27  C29 UNL     1       2.653   0.251  -1.676  1.00  0.00     0.032 C 
HETATM   28  C30 UNL     1       3.950   0.544  -2.207  1.00  0.00    -0.005 C 
BRANCH  28  29
HETATM   29  C31 UNL     1       5.067  -0.405  -2.285  1.00  0.00     0.149 C 
BRANCH  29  30
HETATM   30  N7  UNL     1       6.223   0.236  -2.950  1.00  0.00    -0.363 N 
HETATM   31  C32 UNL     1       7.404   0.239  -2.534  1.00  0.00     0.197 C 
HETATM   32  N8  UNL     1       8.408   0.901  -3.285  1.00  0.00    -0.067 NA
HETATM   33  N9  UNL     1       7.766  -0.401  -1.331  1.00  0.00    -0.067 NA
ATOM     34  H7  UNL     1       6.041   0.720  -3.829  1.00  0.00     0.162 HD
ENDBRANCH  29  30
ENDBRANCH  28  29
ENDBRANCH  26  27
BRANCH  25  35
HETATM   35  O6  UNL     1       3.405  -2.225  -0.465  1.00  0.00    -0.345 OA
ATOM     36  H6  UNL     1       4.045  -1.617  -0.817  1.00  0.00     0.219 HD
ENDBRANCH  25  35
BRANCH   1  37
HETATM   37  C2  UNL     1       3.702  -0.863   2.637  1.00  0.00     0.065 C 
HETATM   38  C1  UNL     1       4.250  -0.875   3.854  1.00  0.00     0.017 C 
ENDBRANCH   1  37
BRANCH   4  39
HETATM   39  O2  UNL     1       3.725   2.816   0.921  1.00  0.00    -0.332 OA
ATOM     40  H2  UNL     1       3.654   3.748   0.752  1.00  0.00     0.221 HD
ENDBRANCH   4  39
BRANCH   7  41
HETATM   41  C6  UNL     1      -0.061   4.479   0.414  1.00  0.00     0.037 C 
BRANCH  41  42
HETATM   42  C7  UNL     1       0.154   5.302  -0.817  1.00  0.00    -0.020 C 
HETATM   43  C8  UNL     1      -0.243   6.740  -0.475  1.00  0.00     0.009 C 
HETATM   44  C9  UNL     1      -0.754   4.878  -1.950  1.00  0.00     0.009 C 
ENDBRANCH  41  42
ENDBRANCH   7  41
BRANCH   8  45
HETATM   45  O3  UNL     1       0.648   2.706   2.508  1.00  0.00    -0.348 OA
ATOM     46  H3  UNL     1       0.419   2.251   3.310  1.00  0.00     0.219 HD
ENDBRANCH   8  45
BRANCH  17  47
HETATM   47  O5  UNL     1      -1.552  -3.669   3.078  1.00  0.00    -0.344 OA
ATOM     48  H5  UNL     1      -0.742  -4.166   3.074  1.00  0.00     0.219 HD
ENDBRANCH  17  47
BRANCH  11  49
HETATM   49  C12 UNL     1      -2.876   1.371   0.096  1.00  0.00     0.037 C 
BRANCH  49  50
HETATM   50  C13 UNL     1      -4.394   1.382   0.021  1.00  0.00    -0.020 C 
HETATM   51  C14 UNL     1      -4.805   1.427  -1.456  1.00  0.00     0.009 C 
HETATM   52  C15 UNL     1      -4.840   2.740   0.581  1.00  0.00     0.009 C 
ENDBRANCH  49  50
ENDBRANCH  11  49
BRANCH  16  53
HETATM   53  C19 UNL     1      -4.440  -3.545  -0.000  1.00  0.00     0.002 C 
HETATM   54  C20 UNL     1      -3.571  -4.522  -0.678  1.00  0.00     0.013 C 
HETATM   55  C21 UNL     1      -5.498  -4.311   0.819  1.00  0.00     0.013 C 
ENDBRANCH  16  53
BRANCH  12  56
HETATM   56  O4  UNL     1      -4.085   0.630   2.992  1.00  0.00    -0.348 OA
ATOM     57  H4  UNL     1      -4.465  -0.075   3.502  1.00  0.00     0.219 HD
ENDBRANCH  12  56
TORSDOF 14
