REMARK  4 active torsions:
REMARK  status: ('A' for Active; 'I' for Inactive)
REMARK    1  A    between atoms: C2_5  and  N3_6 
REMARK    2  A    between atoms: N3_6  and  C3_8 
REMARK    3  A    between atoms: C3_8  and  C4_9 
REMARK    4  A    between atoms: C4_9  and  N4_10 
ROOT
HETATM    1  C1  UNL     1      -3.758   0.840  -0.643  1.00  0.00     0.198 C 
HETATM    2  N1  UNL     1      -2.408   0.347  -0.411  1.00  0.00    -0.114 N 
HETATM    3  N2  UNL     1      -1.259   0.999  -0.480  1.00  0.00    -0.116 N 
ATOM      4  H2  UNL     1      -1.164   1.986  -0.718  1.00  0.00     0.206 HD
HETATM    5  C2  UNL     1      -0.227   0.173  -0.191  1.00  0.00     0.707 A 
HETATM    6  N5  UNL     1      -0.777  -1.037   0.066  1.00  0.00    -0.020 N 
ATOM      7  H5  UNL     1      -0.270  -1.885   0.319  1.00  0.00     0.203 HD
HETATM    8  C5  UNL     1      -2.118  -0.922  -0.072  1.00  0.00     0.707 A 
HETATM    9  N6  UNL     1      -2.983  -1.893   0.099  1.00  0.00    -0.233 N 
ATOM     10  H61 UNL     1      -2.763  -2.855   0.356  1.00  0.00     0.174 HD
ATOM     11  H62 UNL     1      -3.994  -1.806  -0.005  1.00  0.00     0.174 HD
ENDROOT
BRANCH   5  12
HETATM   12  N3  UNL     1       1.029   0.507  -0.172  1.00  0.00    -0.223 N 
ATOM     13  H3  UNL     1       1.322   1.461  -0.385  1.00  0.00     0.177 HD
BRANCH  12  14
HETATM   14  C3  UNL     1       1.996  -0.509   0.159  1.00  0.00     0.165 C 
BRANCH  14  15
HETATM   15  C4  UNL     1       3.401  -0.092  -0.204  1.00  0.00     0.249 C 
BRANCH  15  16
HETATM   16  N4  UNL     1       3.811   1.108   0.483  1.00  0.00    -0.078 N 
ATOM     17  H43 UNL     1       3.149   1.868   0.324  1.00  0.00     0.274 HD
ATOM     18  H42 UNL     1       3.706   1.008   1.493  1.00  0.00     0.274 HD
ATOM     19  H41 UNL     1       4.760   1.390   0.238  1.00  0.00     0.274 HD
ENDBRANCH  15  16
ENDBRANCH  14  15
ENDBRANCH  12  14
ENDBRANCH   5  12
TORSDOF 4
