REMARK  11 active torsions:
REMARK  status: ('A' for Active; 'I' for Inactive)
REMARK    1  A    between atoms: N1_1  and  C1_5 
REMARK    2  A    between atoms: C1_5  and  C2_6 
REMARK    3  A    between atoms: C1_5  and  C12_22 
REMARK    4  A    between atoms: C2_6  and  N2_7 
REMARK    5  A    between atoms: N2_7  and  C3_9 
REMARK    6  A    between atoms: C3_9  and  C4_10 
REMARK    7  A    between atoms: C4_10  and  C5_11 
REMARK    8  A    between atoms: C5_11  and  O1_12 
REMARK    9  A    between atoms: C5_11  and  C6_14 
REMARK       I    between atoms: C6_14  and  N3_16 
REMARK   10  A    between atoms: C12_22  and  O3_23 
REMARK   11  A    between atoms: O3_23  and  C13_24 
ROOT
HETATM    1  C2  UNL     1      -1.025   2.182  -0.873  1.00  0.00     0.094 C 
ENDROOT
BRANCH   1   2
HETATM    2  C1  UNL     1      -2.307   1.382  -0.881  1.00  0.00     0.245 C 
BRANCH   2   3
HETATM    3  N1  UNL     1      -2.064   0.044  -0.506  1.00  0.00    -0.069 N 
ATOM      4  H13 UNL     1      -1.346  -0.387  -1.089  1.00  0.00     0.275 HD
ATOM      5  H12 UNL     1      -1.587  -0.015   0.394  1.00  0.00     0.275 HD
ATOM      6  H11 UNL     1      -2.929  -0.496  -0.511  1.00  0.00     0.275 HD
ENDBRANCH   2   3
BRANCH   2   7
HETATM    7  C12 UNL     1      -3.315   2.129  -0.037  1.00  0.00     0.208 C 
BRANCH   7   8
HETATM    8  O3  UNL     1      -4.573   1.688  -0.007  1.00  0.00    -0.357 OA
BRANCH   8   9
HETATM    9  C13 UNL     1      -4.941   0.480   0.450  1.00  0.00     0.320 C 
HETATM   10  C14 UNL     1      -5.674  -0.229  -0.694  1.00  0.00     0.061 C 
HETATM   11  C15 UNL     1      -6.456  -1.421  -0.247  1.00  0.00     0.006 C 
HETATM   12  C16 UNL     1      -7.398  -1.003   0.864  1.00  0.00     0.028 C 
HETATM   13  C17 UNL     1      -6.498  -0.516   1.994  1.00  0.00     0.235 C 
HETATM   14  N4  UNL     1      -5.866   0.694   1.572  1.00  0.00    -0.049 N 
ATOM     15  H42 UNL     1      -5.398   1.156   2.352  1.00  0.00     0.280 HD
ATOM     16  H41 UNL     1      -6.556   1.411   1.348  1.00  0.00     0.280 HD
ENDBRANCH   8   9
ENDBRANCH   7   8
ENDBRANCH   2   7
ENDBRANCH   1   2
BRANCH   1  17
HETATM   17  N2  UNL     1       0.005   1.780  -1.709  1.00  0.00    -0.380 N 
ATOM     18  H2  UNL     1       0.215   2.355  -2.525  1.00  0.00     0.164 HD
BRANCH  17  19
HETATM   19  C3  UNL     1       0.772   0.632  -1.496  1.00  0.00     0.063 C 
BRANCH  19  20
HETATM   20  C4  UNL     1       1.699   0.709  -0.299  1.00  0.00     0.086 C 
BRANCH  20  21
HETATM   21  C5  UNL     1       2.465  -0.631  -0.257  1.00  0.00     0.214 C 
BRANCH  21  22
HETATM   22  O1  UNL     1       3.171  -0.779  -1.465  1.00  0.00    -0.386 OA
ATOM     23  H1  UNL     1       3.642  -1.603  -1.439  1.00  0.00     0.210 HD
ENDBRANCH  21  22
BRANCH  21  24
HETATM   24  C6  UNL     1       3.434  -0.621   0.853  1.00  0.00     0.248 C 
HETATM   25  O2  UNL     1       2.949  -0.643   2.039  1.00  0.00    -0.270 OA
HETATM   26  N3  UNL     1       4.847  -0.589   0.719  1.00  0.00    -0.350 N 
HETATM   27  C7  UNL     1       5.694  -0.626   1.921  1.00  0.00     0.126 C 
HETATM   28  C11 UNL     1       5.548  -0.500  -0.531  1.00  0.00     0.126 C 
HETATM   29  C8  UNL     1       6.780  -1.654   1.705  1.00  0.00     0.020 C 
HETATM   30  C9  UNL     1       7.675  -1.262   0.543  1.00  0.00     0.003 C 
HETATM   31  C10 UNL     1       7.019  -0.180  -0.248  1.00  0.00     0.020 C 
ENDBRANCH  21  24
ENDBRANCH  20  21
ENDBRANCH  19  20
ENDBRANCH  17  19
ENDBRANCH   1  17
TORSDOF 11
