REMARK  11 active torsions:
REMARK  status: ('A' for Active; 'I' for Inactive)
REMARK       I    between atoms: C1_2  and  N3_4 
REMARK    1  A    between atoms: N3_4  and  N4_6 
REMARK    2  A    between atoms: N4_6  and  C2_8 
REMARK    3  A    between atoms: C2_8  and  C3_9 
REMARK    4  A    between atoms: C2_8  and  C10_22 
REMARK    5  A    between atoms: C3_9  and  N5_10 
REMARK    6  A    between atoms: C10_22  and  C11_25 
REMARK    7  A    between atoms: C11_25  and  C12_28 
REMARK    8  A    between atoms: C12_28  and  O2_29 
REMARK    9  A    between atoms: C12_28  and  C13_31 
REMARK   10  A    between atoms: C13_31  and  O3_32 
REMARK   11  A    between atoms: C13_31  and  C14_34 
ROOT
HETATM    1  C11 UNL     1       0.069   0.690   0.192  1.00  0.00     0.341 C 
HETATM    2  F3  UNL     1       0.562  -0.627   0.093  1.00  0.00    -0.196 F 
HETATM    3  F4  UNL     1      -0.004   1.251  -1.034  1.00  0.00    -0.196 F 
ENDROOT
BRANCH   1   4
HETATM    4  C10 UNL     1      -1.242   0.537   0.923  1.00  0.00     0.355 C 
HETATM    5  F1  UNL     1      -0.926  -0.076   2.130  1.00  0.00    -0.192 F 
HETATM    6  F2  UNL     1      -1.855   1.756   1.145  1.00  0.00    -0.192 F 
BRANCH   4   7
HETATM    7  C2  UNL     1      -2.164  -0.329   0.176  1.00  0.00     0.119 C 
BRANCH   7   8
HETATM    8  N4  UNL     1      -2.360  -1.502   0.675  1.00  0.00    -0.295 N 
ATOM      9  H4  UNL     1      -1.877  -1.685   1.554  1.00  0.00     0.187 HD
BRANCH   8  10
HETATM   10  N3  UNL     1      -3.116  -2.535   0.204  1.00  0.00    -0.276 N 
HETATM   11  C1  UNL     1      -3.863  -3.293   0.923  1.00  0.00     0.215 C 
HETATM   12  N1  UNL     1      -4.599  -4.329   0.323  1.00  0.00    -0.065 NA
HETATM   13  N2  UNL     1      -3.948  -3.082   2.314  1.00  0.00    -0.065 NA
ATOM     14  H3  UNL     1      -3.086  -2.720  -0.799  1.00  0.00     0.189 HD
ENDBRANCH   8  10
ENDBRANCH   7   8
BRANCH   7  15
HETATM   15  C3  UNL     1      -2.816   0.015  -1.071  1.00  0.00     0.132 C 
BRANCH  15  16
HETATM   16  N5  UNL     1      -3.714   1.121  -1.089  1.00  0.00    -0.300 N 
HETATM   17  C4  UNL     1      -3.404   2.385  -1.412  1.00  0.00     0.190 A 
HETATM   18  N6  UNL     1      -4.517   3.118  -1.337  1.00  0.00    -0.349 N 
HETATM   19  C5  UNL     1      -5.553   2.347  -0.967  1.00  0.00     0.078 A 
ATOM     20  H6  UNL     1      -4.573   4.118  -1.532  1.00  0.00     0.167 HD
HETATM   21  C6  UNL     1      -6.893   2.561  -0.737  1.00  0.00     0.039 A 
HETATM   22  C9  UNL     1      -5.037   1.057  -0.807  1.00  0.00     0.142 A 
HETATM   23  C7  UNL     1      -7.754   1.559  -0.355  1.00  0.00     0.077 A 
HETATM   24  C8  UNL     1      -7.217   0.305  -0.207  1.00  0.00     0.246 A 
HETATM   25  O1  UNL     1      -7.964  -0.631   0.137  1.00  0.00    -0.268 OA
HETATM   26  N7  UNL     1      -5.899   0.084  -0.431  1.00  0.00    -0.307 N 
ATOM     27  H7  UNL     1      -5.539  -0.863  -0.310  1.00  0.00     0.170 HD
ENDBRANCH  15  16
ENDBRANCH   7  15
ENDBRANCH   4   7
ENDBRANCH   1   4
BRANCH   1  28
HETATM   28  C12 UNL     1       1.068   1.455   1.040  1.00  0.00     0.230 C 
BRANCH  28  29
HETATM   29  O2  UNL     1       0.504   2.739   1.342  1.00  0.00    -0.387 OA
ATOM     30  H2  UNL     1       1.129   3.218   1.873  1.00  0.00     0.210 HD
ENDBRANCH  28  29
BRANCH  28  31
HETATM   31  C13 UNL     1       2.353   1.777   0.358  1.00  0.00     0.202 C 
BRANCH  31  32
HETATM   32  O3  UNL     1       3.099   2.543   1.275  1.00  0.00    -0.388 OA
ATOM     33  H3  UNL     1       3.918   2.748   0.840  1.00  0.00     0.210 HD
ENDBRANCH  31  32
BRANCH  31  34
HETATM   34  C14 UNL     1       3.166   0.579  -0.093  1.00  0.00     0.262 C 
HETATM   35  N8  UNL     1       4.340   1.090  -0.688  1.00  0.00    -0.368 N 
HETATM   36  C15 UNL     1       5.270   0.226  -1.285  1.00  0.00     0.116 C 
ATOM     37  H8  UNL     1       4.513   2.095  -0.684  1.00  0.00     0.161 HD
HETATM   38  C16 UNL     1       6.163  -0.483  -0.344  1.00  0.00     0.073 A 
HETATM   39  N9  UNL     1       7.420  -0.699  -0.789  1.00  0.00    -0.306 N 
HETATM   40  C19 UNL     1       5.784  -0.909   0.912  1.00  0.00     0.135 A 
HETATM   41  C17 UNL     1       8.278  -1.338   0.027  1.00  0.00     0.327 A 
ATOM     42  H9  UNL     1       7.710  -0.387  -1.716  1.00  0.00     0.171 HD
HETATM   43  O4  UNL     1       9.476  -1.555  -0.373  1.00  0.00    -0.247 OA
HETATM   44  N10 UNL     1       7.918  -1.758   1.252  1.00  0.00    -0.275 N 
HETATM   45  C18 UNL     1       6.673  -1.569   1.751  1.00  0.00     0.268 A 
ATOM     46  H10 UNL     1       8.609  -2.238   1.828  1.00  0.00     0.173 HD
HETATM   47  O5  UNL     1       6.313  -1.944   2.875  1.00  0.00    -0.267 OA
HETATM   48  C20 UNL     1       4.476  -0.764   1.554  1.00  0.00     0.303 C 
HETATM   49  O6  UNL     1       4.420  -0.994   2.791  1.00  0.00    -0.259 OA
HETATM   50  O7  UNL     1       3.316  -0.394   0.886  1.00  0.00    -0.288 OA
ENDBRANCH  31  34
ENDBRANCH  28  31
ENDBRANCH   1  28
TORSDOF 11
