REMARK  8 active torsions:
REMARK  status: ('A' for Active; 'I' for Inactive)
REMARK    1  A    between atoms: N1_2  and  N3_5 
REMARK       I    between atoms: N3_5  and  C3_7 
REMARK    2  A    between atoms: C3_7  and  C4_9 
REMARK    3  A    between atoms: C4_9  and  O2_10 
REMARK    4  A    between atoms: C4_9  and  C5_12 
REMARK    5  A    between atoms: C6_14  and  N4_15 
REMARK    6  A    between atoms: N4_15  and  N5_17 
REMARK    7  A    between atoms: C7_19  and  C8_20 
REMARK    8  A    between atoms: C9_31  and  O4_32 
ROOT
HETATM    1  C1  UNL     1      -5.241  -1.138  -0.512  1.00  0.00     0.191 C 
HETATM    2  N1  UNL     1      -4.883   0.246  -0.350  1.00  0.00    -0.230 N 
HETATM    3  C2  UNL     1      -5.794   1.148   0.162  1.00  0.00     0.200 C 
HETATM    4  N2  UNL     1      -6.569   1.897   0.611  1.00  0.00    -0.170 NA
ENDROOT
BRANCH   2   5
HETATM    5  N3  UNL     1      -3.615   0.662  -0.721  1.00  0.00    -0.257 N 
HETATM    6  C3  UNL     1      -2.572   0.926   0.216  1.00  0.00     0.272 C 
HETATM    7  O1  UNL     1      -2.828   0.773   1.417  1.00  0.00    -0.268 OA
ATOM      8  H3  UNL     1      -3.417   0.786  -1.714  1.00  0.00     0.191 HD
BRANCH   6   9
HETATM    9  C4  UNL     1      -1.248   1.359  -0.246  1.00  0.00     0.273 C 
BRANCH   9  10
HETATM   10  O2  UNL     1      -1.297   1.597  -1.646  1.00  0.00    -0.379 OA
ATOM     11  H2  UNL     1      -0.440   1.877  -1.945  1.00  0.00     0.211 HD
ENDBRANCH   9  10
BRANCH   9  12
HETATM   12  C5  UNL     1      -0.148   0.433   0.032  1.00  0.00     0.145 A 
HETATM   13  O3  UNL     1       0.739   0.068  -0.899  1.00  0.00    -0.275 OA
HETATM   14  C6  UNL     1       1.588  -0.756  -0.376  1.00  0.00     0.245 A 
HETATM   15  N10 UNL     1       1.314  -0.981   0.920  1.00  0.00    -0.299 N 
HETATM   16  C9  UNL     1       0.219  -0.227   1.168  1.00  0.00     0.177 A 
ATOM     17  H10 UNL     1       1.818  -1.584   1.570  1.00  0.00     0.171 HD
BRANCH  14  18
HETATM   18  N4  UNL     1       2.570  -1.286  -1.038  1.00  0.00    -0.265 N 
ATOM     19  H4  UNL     1       2.686  -1.044  -2.022  1.00  0.00     0.190 HD
BRANCH  18  20
HETATM   20  N5  UNL     1       3.464  -2.165  -0.460  1.00  0.00    -0.305 N 
HETATM   21  C7  UNL     1       4.598  -1.789  -0.019  1.00  0.00     0.158 C 
ATOM     22  H5  UNL     1       3.207  -3.149  -0.384  1.00  0.00     0.186 HD
BRANCH  21  23
HETATM   23  C8  UNL     1       5.074  -0.434  -0.072  1.00  0.00     0.154 A 
HETATM   24  N6  UNL     1       4.476   0.653  -0.548  1.00  0.00    -0.268 N 
HETATM   25  N7  UNL     1       5.290   1.680  -0.386  1.00  0.00    -0.227 N 
ATOM     26  H6  UNL     1       3.547   0.688  -0.967  1.00  0.00     0.190 HD
HETATM   27  N8  UNL     1       6.409   1.281   0.187  1.00  0.00    -0.227 N 
ATOM     28  H7  UNL     1       5.084   2.640  -0.663  1.00  0.00     0.210 HD
HETATM   29  N9  UNL     1       6.280  -0.015   0.381  1.00  0.00    -0.268 N 
ATOM     30  H8  UNL     1       7.213   1.860   0.431  1.00  0.00     0.210 HD
ATOM     31  H9  UNL     1       6.985  -0.615   0.809  1.00  0.00     0.190 HD
ENDBRANCH  21  23
ENDBRANCH  18  20
ENDBRANCH  14  18
BRANCH  16  32
HETATM   32  O4  UNL     1      -0.406  -0.158   2.396  1.00  0.00    -0.344 OA
ATOM     33  H4  UNL     1      -0.150  -0.618   3.187  1.00  0.00     0.219 HD
ENDBRANCH  16  32
ENDBRANCH   9  12
ENDBRANCH   6   9
ENDBRANCH   2   5
TORSDOF 8
