REMARK  11 active torsions:
REMARK  status: ('A' for Active; 'I' for Inactive)
REMARK    1  A    between atoms: N1_1  and  N2_4 
REMARK    2  A    between atoms: N2_4  and  C1_5 
REMARK    3  A    between atoms: C2_7  and  C3_8 
REMARK    4  A    between atoms: C3_8  and  N3_9 
REMARK    5  A    between atoms: C5_11  and  C6_12 
REMARK    6  A    between atoms: C6_12  and  N4_13 
REMARK    7  A    between atoms: C6_12  and  N5_17 
REMARK    8  A    between atoms: C8_24  and  N7_25 
REMARK    9  A    between atoms: N7_25  and  C9_27 
REMARK   10  A    between atoms: C9_27  and  C10_28 
REMARK   11  A    between atoms: C10_28  and  O2_29 
ROOT
HETATM    1  N3  UNL     1       1.783  -0.155   0.991  1.00  0.00    -0.301 N 
HETATM    2  C4  UNL     1       2.744  -0.576   0.155  1.00  0.00     0.122 A 
HETATM    3  C5  UNL     1       3.889   0.146   0.443  1.00  0.00     0.033 A 
HETATM    4  C7  UNL     1       3.584   1.002   1.467  1.00  0.00     0.119 A 
HETATM    5  N6  UNL     1       2.290   0.785   1.771  1.00  0.00    -0.309 N 
ATOM      6  H6  UNL     1       1.774   1.277   2.500  1.00  0.00     0.186 HD
ENDROOT
BRANCH   1   7
HETATM    7  C3  UNL     1       0.439  -0.652   1.036  1.00  0.00     0.182 C 
BRANCH   7   8
HETATM    8  C2  UNL     1      -0.533   0.038   0.155  1.00  0.00     0.170 C 
HETATM    9  O1  UNL     1      -0.767   1.374   0.306  1.00  0.00    -0.357 OA
HETATM   10  C1  UNL     1      -2.121   1.072  -0.046  1.00  0.00     0.259 C 
HETATM   11  C8  UNL     1      -1.958  -0.146   0.770  1.00  0.00     0.158 C 
BRANCH  10  12
HETATM   12  N2  UNL     1      -2.939   2.151   0.498  1.00  0.00    -0.114 NA
BRANCH  12  13
HETATM   13  N1  UNL     1      -2.421   3.306  -0.142  1.00  0.00    -0.346 N 
ATOM     14  H12 UNL     1      -1.659   3.355  -0.818  1.00  0.00     0.172 HD
ATOM     15  H11 UNL     1      -2.993   4.060   0.238  1.00  0.00     0.172 HD
ENDBRANCH  12  13
ENDBRANCH  10  12
BRANCH  11  16
HETATM   16  N7  UNL     1      -2.441  -1.402   0.444  1.00  0.00    -0.389 N 
ATOM     17  H7  UNL     1      -1.761  -2.147   0.292  1.00  0.00     0.159 HD
BRANCH  16  18
HETATM   18  C9  UNL     1      -3.789  -1.719   0.309  1.00  0.00     0.082 C 
BRANCH  18  19
HETATM   19  C10 UNL     1      -4.402  -1.119  -0.923  1.00  0.00     0.208 C 
BRANCH  19  20
HETATM   20  O2  UNL     1      -5.776  -1.482  -1.017  1.00  0.00    -0.396 OA
ATOM     21  H2  UNL     1      -6.164  -1.102  -1.797  1.00  0.00     0.209 HD
ENDBRANCH  19  20
ENDBRANCH  18  19
ENDBRANCH  16  18
ENDBRANCH  11  16
ENDBRANCH   7   8
ENDBRANCH   1   7
BRANCH   3  22
HETATM   22  C6  UNL     1       5.191  -0.004  -0.252  1.00  0.00     0.414 C 
BRANCH  22  23
HETATM   23  N4  UNL     1       5.464  -1.433  -0.424  1.00  0.00    -0.046 N 
ATOM     24  H43 UNL     1       5.429  -1.947   0.456  1.00  0.00     0.277 HD
ATOM     25  H42 UNL     1       4.707  -1.922  -0.902  1.00  0.00     0.277 HD
ATOM     26  H41 UNL     1       6.359  -1.536  -0.902  1.00  0.00     0.277 HD
ENDBRANCH  22  23
BRANCH  22  27
HETATM   27  N5  UNL     1       5.122   0.644  -1.537  1.00  0.00    -0.046 N 
ATOM     28  H53 UNL     1       4.342   0.305  -2.100  1.00  0.00     0.277 HD
ATOM     29  H52 UNL     1       4.833   1.619  -1.463  1.00  0.00     0.277 HD
ATOM     30  H51 UNL     1       6.017   0.541  -2.015  1.00  0.00     0.277 HD
ENDBRANCH  22  27
ENDBRANCH   3  22
TORSDOF 11
