REMARK  3 active torsions:
REMARK  status: ('A' for Active; 'I' for Inactive)
REMARK    1  A    between atoms: C3_4  and  N2_5 
REMARK    2  A    between atoms: C7_9  and  N3_10 
REMARK    3  A    between atoms: N3_10  and  C8_12 
ROOT
HETATM    1  N1  UNL     1       0.033  -3.004   1.226  1.00  0.00    -0.191 NA
HETATM    2  C1  UNL     1      -0.179  -1.901   0.872  1.00  0.00     0.105 C 
HETATM    3  C2  UNL     1      -0.421  -0.531   0.451  1.00  0.00     0.114 A 
HETATM    4  C3  UNL     1       0.628   0.252  -0.011  1.00  0.00     0.160 A 
HETATM    5  N5  UNL     1       0.307   1.494  -0.370  1.00  0.00    -0.174 N 
ATOM      6  H5  UNL     1       1.052   2.099  -0.715  1.00  0.00     0.186 HD
HETATM    7  C9  UNL     1      -0.972   2.016  -0.305  1.00  0.00     0.680 A 
HETATM    8  N6  UNL     1      -1.143   3.209  -0.682  1.00  0.00    -0.234 N 
ATOM      9  H61 UNL     1      -2.086   3.594  -0.634  1.00  0.00     0.174 HD
ATOM     10  H62 UNL     1      -0.371   3.783  -1.021  1.00  0.00     0.174 HD
HETATM   11  N7  UNL     1      -1.982   1.265   0.139  1.00  0.00    -0.186 N 
HETATM   12  C10 UNL     1      -1.686  -0.014   0.514  1.00  0.00     0.053 A 
HETATM   13  C11 UNL     1      -2.704  -0.992   1.027  1.00  0.00     0.059 C 
HETATM   14  C12 UNL     1      -3.670  -1.292  -0.128  1.00  0.00     0.006 C 
HETATM   15  C13 UNL     1      -4.670  -0.192  -0.252  1.00  0.00     0.002 C 
HETATM   16  C14 UNL     1      -4.121   1.084  -0.854  1.00  0.00     0.021 C 
HETATM   17  C15 UNL     1      -3.289   1.846   0.194  1.00  0.00     0.147 C 
ENDROOT
BRANCH   4  18
HETATM   18  N2  UNL     1       1.952  -0.264  -0.091  1.00  0.00    -0.277 N 
HETATM   19  C4  UNL     1       2.350  -1.381  -0.926  1.00  0.00     0.150 C 
HETATM   20  C5  UNL     1       3.456  -2.096  -0.134  1.00  0.00     0.026 C 
HETATM   21  C6  UNL     1       4.678  -1.207  -0.230  1.00  0.00     0.050 C 
HETATM   22  C7  UNL     1       4.260   0.184   0.200  1.00  0.00     0.197 C 
HETATM   23  N4  UNL     1       2.938   0.299   0.648  1.00  0.00    -0.309 N 
ATOM     24  H4  UNL     1       2.722   0.796   1.512  1.00  0.00     0.182 HD
BRANCH  22  25
HETATM   25  N3  UNL     1       5.158   0.702   1.229  1.00  0.00    -0.368 N 
ATOM     26  H3  UNL     1       5.648   0.079   1.871  1.00  0.00     0.161 HD
BRANCH  25  27
HETATM   27  C8  UNL     1       5.302   1.962   1.289  1.00  0.00     0.167 C 
HETATM   28  S1  UNL     1       5.766   3.485   1.196  1.00  0.00    -0.075 SA
ENDBRANCH  25  27
ENDBRANCH  22  25
ENDBRANCH   4  18
TORSDOF 3
