REMARK  9 active torsions:
REMARK  status: ('A' for Active; 'I' for Inactive)
REMARK    1  A    between atoms: N3_15  and  C11_16 
REMARK    2  A    between atoms: C11_16  and  C12_17 
REMARK    3  A    between atoms: C12_17  and  C13_18 
REMARK    4  A    between atoms: C19_28  and  C20_29 
REMARK    5  A    between atoms: C20_29  and  C21_30 
REMARK    6  A    between atoms: C21_30  and  C22_31 
REMARK    7  A    between atoms: C22_31  and  C23_32 
REMARK    8  A    between atoms: C23_32  and  C24_33 
REMARK    9  A    between atoms: C24_33  and  N5_34 
ROOT
HETATM    1  C1  UNL     1       2.763  -0.441   2.638  1.00  0.00     0.153 C 
HETATM    2  N1  UNL     1       2.059  -0.500   1.372  1.00  0.00    -0.341 N 
HETATM    3  C2  UNL     1       1.749   0.811   0.852  1.00  0.00     0.245 C 
HETATM    4  O1  UNL     1       2.481   1.698   1.304  1.00  0.00    -0.271 OA
HETATM    5  C3  UNL     1       0.724   1.159  -0.092  1.00  0.00     0.201 C 
HETATM    6  C4  UNL     1      -0.600   0.440  -0.022  1.00  0.00     0.119 C 
HETATM    7  C5  UNL     1      -0.962   0.160  -1.463  1.00  0.00     0.028 C 
HETATM    8  C6  UNL     1      -1.674   1.364  -2.053  1.00  0.00     0.002 C 
HETATM    9  C7  UNL     1      -0.888   2.131  -3.047  1.00  0.00     0.009 C 
HETATM   10  C8  UNL     1      -0.228   3.381  -2.585  1.00  0.00     0.103 C 
HETATM   11  C9  UNL     1      -0.015   3.473  -1.119  1.00  0.00     0.220 C 
HETATM   12  O2  UNL     1      -0.258   4.615  -0.658  1.00  0.00    -0.273 OA
HETATM   13  N2  UNL     1       0.408   2.558  -0.078  1.00  0.00    -0.341 N 
HETATM   14  C10 UNL     1       0.483   3.233   1.184  1.00  0.00     0.153 C 
HETATM   15  N3  UNL     1      -0.717  -0.676   0.811  1.00  0.00    -0.343 N 
HETATM   16  C18 UNL     1       0.173  -1.814   0.952  1.00  0.00     0.243 C 
HETATM   17  O3  UNL     1      -0.328  -2.923   1.227  1.00  0.00    -0.271 OA
HETATM   18  C19 UNL     1       1.673  -1.729   0.784  1.00  0.00     0.179 C 
ENDROOT
BRANCH  15  19
HETATM   19  C11 UNL     1      -1.803  -0.715   1.748  1.00  0.00     0.127 C 
BRANCH  19  20
HETATM   20  C12 UNL     1      -3.015  -1.456   1.435  1.00  0.00     0.024 C 
BRANCH  20  21
HETATM   21  C13 UNL     1      -3.920  -1.109   0.335  1.00  0.00    -0.010 C 
HETATM   22  C14 UNL     1      -5.082  -2.150   0.398  1.00  0.00     0.032 C 
HETATM   23  C15 UNL     1      -6.106  -1.570   1.337  1.00  0.00     0.232 C 
HETATM   24  N4  UNL     1      -6.872  -0.579   0.604  1.00  0.00    -0.075 N 
HETATM   25  C16 UNL     1      -5.942   0.176  -0.210  1.00  0.00     0.232 C 
ATOM     26  H42 UNL     1      -7.634  -0.987   0.062  1.00  0.00     0.277 HD
ATOM     27  H41 UNL     1      -7.440   0.012   1.210  1.00  0.00     0.277 HD
HETATM   28  C17 UNL     1      -4.582   0.241   0.478  1.00  0.00     0.032 C 
ENDBRANCH  20  21
ENDBRANCH  19  20
ENDBRANCH  15  19
BRANCH  18  29
HETATM   29  C20 UNL     1       2.101  -2.122  -0.552  1.00  0.00     0.035 C 
BRANCH  29  30
HETATM   30  C21 UNL     1       3.537  -2.289  -0.893  1.00  0.00     0.002 C 
BRANCH  30  31
HETATM   31  C22 UNL     1       4.336  -1.050  -0.794  1.00  0.00     0.002 C 
BRANCH  31  32
HETATM   32  C23 UNL     1       5.797  -1.279  -1.203  1.00  0.00     0.027 C 
BRANCH  32  33
HETATM   33  C24 UNL     1       6.466   0.076  -1.038  1.00  0.00     0.229 C 
BRANCH  33  34
HETATM   34  N5  UNL     1       7.866   0.044  -1.383  1.00  0.00    -0.079 N 
ATOM     35  H53 UNL     1       8.359  -0.676  -0.854  1.00  0.00     0.274 HD
ATOM     36  H52 UNL     1       8.004  -0.322  -2.325  1.00  0.00     0.274 HD
ATOM     37  H51 UNL     1       8.315   0.953  -1.272  1.00  0.00     0.274 HD
ENDBRANCH  33  34
ENDBRANCH  32  33
ENDBRANCH  31  32
ENDBRANCH  30  31
ENDBRANCH  29  30
ENDBRANCH  18  29
TORSDOF 9
