REMARK  7 active torsions:
REMARK  status: ('A' for Active; 'I' for Inactive)
REMARK    1  A    between atoms: C2_2  and  N1_4 
REMARK    2  A    between atoms: N1_4  and  C5_6 
REMARK    3  A    between atoms: C5_6  and  C6_7 
REMARK    4  A    between atoms: C8_10  and  C9_11 
REMARK       I    between atoms: C9_11  and  N2_13 
REMARK    5  A    between atoms: N3_16  and  C12_17 
REMARK    6  A    between atoms: C12_17  and  C13_18 
REMARK    7  A    between atoms: C13_18  and  N4_19 
ROOT
HETATM    1  C9  UNL     1       1.272   1.257   0.328  1.00  0.00     0.249 C 
HETATM    2  O2  UNL     1       1.149   1.684   1.525  1.00  0.00    -0.272 OA
HETATM    3  N2  UNL     1       0.166   0.670  -0.303  1.00  0.00    -0.149 N 
HETATM    4  C10 UNL     1       0.144   0.174  -1.685  1.00  0.00     0.171 C 
HETATM    5  C11 UNL     1      -1.286   0.504  -2.106  1.00  0.00     0.162 C 
HETATM    6  N3  UNL     1      -2.086   0.336  -0.873  1.00  0.00    -0.215 N 
HETATM    7  C21 UNL     1      -1.151   0.405   0.190  1.00  0.00     0.678 C 
HETATM    8  N5  UNL     1      -1.417   0.247   1.435  1.00  0.00    -0.234 N 
ATOM      9  H51 UNL     1      -2.356   0.058   1.786  1.00  0.00     0.174 HD
ATOM     10  H52 UNL     1      -0.744   0.297   2.200  1.00  0.00     0.174 HD
ENDROOT
BRANCH   1  11
HETATM   11  C8  UNL     1       2.607   1.431  -0.279  1.00  0.00     0.150 C 
HETATM   12  C7  UNL     1       3.357   0.114  -0.354  1.00  0.00     0.150 C 
HETATM   13  C6  UNL     1       4.290   0.161   0.763  1.00  0.00     0.109 C 
HETATM   14  O1  UNL     1       3.097  -0.679  -1.224  1.00  0.00    -0.296 OA
HETATM   15  C23 UNL     1       4.771   1.605   0.738  1.00  0.00     0.076 C 
HETATM   16  C22 UNL     1       3.472   2.352   0.552  1.00  0.00     0.039 C 
HETATM   17  S1  UNL     1       5.500   2.086   2.307  1.00  0.00    -0.091 SA
BRANCH  13  18
HETATM   18  C5  UNL     1       5.399  -0.807   0.820  1.00  0.00     0.077 C 
BRANCH  18  19
HETATM   19  N1  UNL     1       6.368  -0.825  -0.203  1.00  0.00    -0.368 N 
HETATM   20  C4  UNL     1       6.086  -1.266  -1.538  1.00  0.00     0.155 C 
BRANCH  19  21
HETATM   21  C2  UNL     1       7.686  -0.386   0.085  1.00  0.00    -0.003 C 
HETATM   22  C1  UNL     1       8.311  -0.883   1.119  1.00  0.00     0.037 C 
HETATM   23  C3  UNL     1       8.325   0.616  -0.781  1.00  0.00     0.067 C 
ENDBRANCH  19  21
ENDBRANCH  18  19
ENDBRANCH  13  18
ENDBRANCH   1  11
BRANCH   6  24
HETATM   24  C12 UNL     1      -3.526   0.144  -0.871  1.00  0.00     0.169 C 
BRANCH  24  25
HETATM   25  C13 UNL     1      -4.049   0.014   0.503  1.00  0.00     0.258 C 
BRANCH  25  26
HETATM   26  N4  UNL     1      -5.467  -0.178   0.501  1.00  0.00    -0.061 N 
HETATM   27  C14 UNL     1      -6.005  -0.453   1.820  1.00  0.00     0.238 C 
HETATM   28  C15 UNL     1      -7.328  -1.181   1.605  1.00  0.00     0.034 C 
HETATM   29  C16 UNL     1      -7.407  -1.198   0.094  1.00  0.00     0.019 C 
HETATM   30  C17 UNL     1      -7.623   0.212  -0.353  1.00  0.00     0.034 C 
HETATM   31  C19 UNL     1      -5.908  -1.360  -0.227  1.00  0.00     0.190 C 
HETATM   32  C18 UNL     1      -6.251   0.848  -0.095  1.00  0.00     0.238 C 
HETATM   33  C20 UNL     1      -5.398  -2.638   0.348  1.00  0.00     0.041 C 
ENDBRANCH  25  26
ENDBRANCH  24  25
ENDBRANCH   6  24
TORSDOF 7
