REMARK  3 active torsions:
REMARK  status: ('A' for Active; 'I' for Inactive)
REMARK    1  A    between atoms: N2_4  and  N3_6 
REMARK    2  A    between atoms: C3_8  and  N4_9 
REMARK    3  A    between atoms: N4_9  and  C4_11 
ROOT
HETATM    1  N3  UNL     1       0.504  -0.022   0.158  1.00  0.00    -0.282 N 
ATOM      2  H3  UNL     1       0.525  -0.620   0.984  1.00  0.00     0.189 HD
HETATM    3  C3  UNL     1       1.559   0.017  -0.575  1.00  0.00     0.199 C 
ENDROOT
BRANCH   1   4
HETATM    4  N2  UNL     1      -0.651   0.682  -0.087  1.00  0.00    -0.245 N 
HETATM    5  N1  UNL     1      -1.818   0.286   0.143  1.00  0.00    -0.322 N 
HETATM    6  C1  UNL     1      -2.164  -0.999   0.715  1.00  0.00     0.172 C 
HETATM    7  C2  UNL     1      -2.911   1.182  -0.188  1.00  0.00     0.172 C 
ATOM      8  H2  UNL     1      -0.549   1.612  -0.493  1.00  0.00     0.208 HD
ENDBRANCH   1   4
BRANCH   3   9
HETATM    9  N4  UNL     1       2.694  -0.750  -0.230  1.00  0.00    -0.348 N 
ATOM     10  H4  UNL     1       2.937  -1.543  -0.825  1.00  0.00     0.167 HD
BRANCH   9  11
HETATM   11  C4  UNL     1       3.513  -0.484   0.890  1.00  0.00     0.174 C 
HETATM   12  N5  UNL     1       3.849   0.705   1.221  1.00  0.00    -0.395 N 
ATOM     13  H52 UNL     1       3.506   1.475   0.647  1.00  0.00     0.156 HD
ATOM     14  H51 UNL     1       4.440   0.897   2.030  1.00  0.00     0.156 HD
ENDBRANCH   9  11
ENDBRANCH   3   9
TORSDOF 3
