REMARK  12 active torsions:
REMARK  status: ('A' for Active; 'I' for Inactive)
REMARK    1  A    between atoms: C2_2  and  N1_3 
REMARK    2  A    between atoms: N1_3  and  C3_6 
REMARK    3  A    between atoms: C3_6  and  C4_7 
REMARK    4  A    between atoms: C4_7  and  C5_8 
REMARK    5  A    between atoms: C5_8  and  C6_9 
REMARK    6  A    between atoms: C6_9  and  N2_10 
REMARK    7  A    between atoms: N2_10  and  C7_13 
REMARK    8  A    between atoms: C7_13  and  C8_14 
REMARK    9  A    between atoms: C9_16  and  N3_17 
REMARK   10  A    between atoms: C12_23  and  N6_24 
REMARK   11  A    between atoms: C13_29  and  N8_30 
REMARK   12  A    between atoms: C15_36  and  O2_37 
ROOT
HETATM    1  C8  UNL     1       1.139  -1.663   0.758  1.00  0.00     0.182 C 
HETATM    2  O1  UNL     1       1.727  -0.687   1.505  1.00  0.00    -0.354 OA
HETATM    3  C9  UNL     1       2.949  -0.970   1.008  1.00  0.00     0.264 C 
HETATM    4  C15 UNL     1       2.404  -1.922   0.021  1.00  0.00     0.198 C 
ENDROOT
BRANCH   3   5
HETATM    5  N3  UNL     1       3.704   0.146   0.473  1.00  0.00    -0.274 N 
HETATM    6  C10 UNL     1       3.254   1.405   0.390  1.00  0.00     0.199 A 
HETATM    7  N4  UNL     1       2.003   1.945   0.778  1.00  0.00    -0.063 NA
HETATM    8  N5  UNL     1       4.276   2.113  -0.168  1.00  0.00    -0.324 N 
HETATM    9  C11 UNL     1       5.331   1.334  -0.429  1.00  0.00     0.124 A 
ATOM     10  H5  UNL     1       4.241   3.114  -0.363  1.00  0.00     0.169 HD
HETATM   11  C12 UNL     1       6.587   1.513  -0.970  1.00  0.00     0.145 A 
HETATM   12  C14 UNL     1       4.950   0.051  -0.008  1.00  0.00     0.158 A 
HETATM   13  N7  UNL     1       7.452   0.498  -1.104  1.00  0.00    -0.175 N 
HETATM   14  C13 UNL     1       7.074  -0.738  -0.694  1.00  0.00     0.679 A 
ATOM     15  H7  UNL     1       8.376   0.652  -1.506  1.00  0.00     0.186 HD
HETATM   16  N9  UNL     1       5.854  -0.929  -0.164  1.00  0.00    -0.174 N 
ATOM     17  H9  UNL     1       5.601  -1.870   0.136  1.00  0.00     0.186 HD
BRANCH  11  18
HETATM   18  N6  UNL     1       6.953   2.680  -1.361  1.00  0.00    -0.383 N 
ATOM     19  H62 UNL     1       6.295   3.452  -1.259  1.00  0.00     0.157 HD
ATOM     20  H61 UNL     1       7.882   2.812  -1.761  1.00  0.00     0.157 HD
ENDBRANCH  11  18
BRANCH  14  21
HETATM   21  N8  UNL     1       7.885  -1.736  -0.807  1.00  0.00    -0.234 N 
ATOM     22  H82 UNL     1       8.811  -1.591  -1.209  1.00  0.00     0.174 HD
ATOM     23  H81 UNL     1       7.601  -2.666  -0.499  1.00  0.00     0.174 HD
ENDBRANCH  14  21
ENDBRANCH   3   5
BRANCH   4  24
HETATM   24  O2  UNL     1       2.306  -1.460  -1.295  1.00  0.00    -0.389 OA
ATOM     25  H2  UNL     1       3.114  -1.625  -1.766  1.00  0.00     0.210 HD
ENDBRANCH   4  24
BRANCH   1  26
HETATM   26  C7  UNL     1      -0.018  -1.206  -0.117  1.00  0.00     0.266 C 
BRANCH  26  27
HETATM   27  N2  UNL     1      -1.023  -0.659   0.747  1.00  0.00    -0.073 N 
ATOM     28  H22 UNL     1      -0.637   0.080   1.335  1.00  0.00     0.277 HD
ATOM     29  H21 UNL     1      -1.285  -1.327   1.472  1.00  0.00     0.277 HD
BRANCH  27  30
HETATM   30  C6  UNL     1      -2.202  -0.187   0.017  1.00  0.00     0.232 C 
BRANCH  30  31
HETATM   31  C5  UNL     1      -3.163   0.343   1.038  1.00  0.00     0.029 C 
BRANCH  31  32
HETATM   32  C4  UNL     1      -4.447   0.883   0.462  1.00  0.00     0.029 C 
BRANCH  32  33
HETATM   33  C3  UNL     1      -5.168  -0.214  -0.283  1.00  0.00     0.232 C 
BRANCH  33  34
HETATM   34  N1  UNL     1      -6.414   0.225  -0.861  1.00  0.00    -0.075 N 
ATOM     35  H12 UNL     1      -6.777  -0.441  -1.543  1.00  0.00     0.277 HD
ATOM     36  H11 UNL     1      -6.289   1.021  -1.486  1.00  0.00     0.277 HD
BRANCH  34  37
HETATM   37  C2  UNL     1      -7.355   0.499   0.179  1.00  0.00     0.228 C 
HETATM   38  C1  UNL     1      -8.706   0.921  -0.387  1.00  0.00     0.034 C 
ENDBRANCH  34  37
ENDBRANCH  33  34
ENDBRANCH  32  33
ENDBRANCH  31  32
ENDBRANCH  30  31
ENDBRANCH  27  30
ENDBRANCH  26  27
ENDBRANCH   1  26
TORSDOF 12
