REMARK  13 active torsions:
REMARK  status: ('A' for Active; 'I' for Inactive)
REMARK    1  A    between atoms: N1_1  and  C1_5 
REMARK    2  A    between atoms: C1_5  and  C2_6 
REMARK    3  A    between atoms: C2_6  and  C3_7 
REMARK    4  A    between atoms: C3_7  and  C4_8 
REMARK    5  A    between atoms: C4_8  and  N2_9 
REMARK    6  A    between atoms: N2_9  and  C5_11 
REMARK    7  A    between atoms: C6_14  and  N4_15 
REMARK    8  A    between atoms: N4_15  and  C7_17 
REMARK    9  A    between atoms: C7_17  and  C8_18 
REMARK   10  A    between atoms: C8_18  and  N5_19 
REMARK   11  A    between atoms: C9_25  and  N7_26 
REMARK   12  A    between atoms: N7_26  and  C10_28 
REMARK   13  A    between atoms: C10_28  and  C11_29 
ROOT
HETATM    1  C5  UNL     1       0.653  -0.192  -0.254  1.00  0.00     0.707 A 
HETATM    2  N3  UNL     1       0.124   0.943   0.229  1.00  0.00    -0.022 N 
ATOM      3  H3  UNL     1       0.737   1.658   0.620  1.00  0.00     0.203 HD
HETATM    4  C6  UNL     1      -1.200   1.148   0.204  1.00  0.00     0.707 A 
HETATM    5  N6  UNL     1      -1.982   0.189  -0.317  1.00  0.00    -0.022 N 
ATOM      6  H6  UNL     1      -2.990   0.342  -0.338  1.00  0.00     0.203 HD
HETATM    7  C9  UNL     1      -1.501  -0.958  -0.810  1.00  0.00     0.707 A 
HETATM    8  N8  UNL     1      -0.172  -1.141  -0.773  1.00  0.00    -0.022 N 
ATOM      9  H8  UNL     1       0.226  -2.006  -1.140  1.00  0.00     0.203 HD
ENDROOT
BRANCH   1  10
HETATM   10  N2  UNL     1       1.924  -0.416  -0.242  1.00  0.00    -0.225 N 
ATOM     11  H2  UNL     1       2.305  -1.286  -0.614  1.00  0.00     0.177 HD
BRANCH  10  12
HETATM   12  C4  UNL     1       2.798   0.600   0.314  1.00  0.00     0.138 C 
BRANCH  12  13
HETATM   13  C3  UNL     1       4.242   0.144   0.100  1.00  0.00     0.022 C 
BRANCH  13  14
HETATM   14  C2  UNL     1       4.396  -1.175   0.821  1.00  0.00     0.029 C 
BRANCH  14  15
HETATM   15  C1  UNL     1       5.803  -1.716   0.669  1.00  0.00     0.229 C 
BRANCH  15  16
HETATM   16  N1  UNL     1       6.746  -0.757   1.232  1.00  0.00    -0.079 N 
ATOM     17  H13 UNL     1       6.642   0.173   0.826  1.00  0.00     0.274 HD
ATOM     18  H12 UNL     1       6.525  -0.517   2.198  1.00  0.00     0.274 HD
ATOM     19  H11 UNL     1       7.693  -1.121   1.130  1.00  0.00     0.274 HD
ENDBRANCH  15  16
ENDBRANCH  14  15
ENDBRANCH  13  14
ENDBRANCH  12  13
ENDBRANCH  10  12
ENDBRANCH   1  10
BRANCH   4  20
HETATM   20  N4  UNL     1      -1.769   2.203   0.646  1.00  0.00    -0.223 N 
ATOM     21  H4  UNL     1      -2.786   2.243   0.572  1.00  0.00     0.177 HD
BRANCH  20  22
HETATM   22  C7  UNL     1      -1.120   3.331   1.233  1.00  0.00     0.165 C 
BRANCH  22  23
HETATM   23  C8  UNL     1      -2.046   4.529   1.072  1.00  0.00     0.249 C 
BRANCH  23  24
HETATM   24  N5  UNL     1      -1.504   5.731   1.625  1.00  0.00    -0.078 N 
ATOM     25  H53 UNL     1      -1.246   5.598   2.603  1.00  0.00     0.274 HD
ATOM     26  H52 UNL     1      -0.582   5.928   1.235  1.00  0.00     0.274 HD
ATOM     27  H51 UNL     1      -2.124   6.533   1.517  1.00  0.00     0.274 HD
ENDBRANCH  23  24
ENDBRANCH  22  23
ENDBRANCH  20  22
ENDBRANCH   4  20
BRANCH   7  28
HETATM   28  N7  UNL     1      -2.322  -1.820  -1.289  1.00  0.00    -0.225 N 
ATOM     29  H7  UNL     1      -1.962  -2.696  -1.667  1.00  0.00     0.177 HD
BRANCH  28  30
HETATM   30  C10 UNL     1      -3.749  -1.574  -1.304  1.00  0.00     0.142 C 
BRANCH  30  31
HETATM   31  C11 UNL     1      -4.411  -2.830  -1.877  1.00  0.00     0.004 A 
HETATM   32  C12 UNL     1      -4.191  -4.107  -1.132  1.00  0.00     0.007 A 
HETATM   33  C13 UNL     1      -5.530  -3.457  -1.126  1.00  0.00     0.007 A 
ENDBRANCH  30  31
ENDBRANCH  28  30
ENDBRANCH   7  28
TORSDOF 13
