REMARK  4 active torsions:
REMARK  status: ('A' for Active; 'I' for Inactive)
REMARK    1  A    between atoms: C1_2  and  C2_4 
REMARK    2  A    between atoms: C5_7  and  N2_8 
REMARK    3  A    between atoms: N2_8  and  N3_10 
REMARK    4  A    between atoms: N3_10  and  C6_12 
ROOT
HETATM    1  C2  UNL     1       1.745   0.011  -0.282  1.00  0.00     0.029 A 
HETATM    2  C3  UNL     1       1.309  -0.931   0.644  1.00  0.00     0.019 A 
HETATM    3  C4  UNL     1      -0.032  -1.145   0.873  1.00  0.00     0.032 A 
HETATM    4  C5  UNL     1      -0.986  -0.417   0.176  1.00  0.00     0.048 A 
HETATM    5  C7  UNL     1      -0.519   0.506  -0.732  1.00  0.00     0.032 A 
HETATM    6  C8  UNL     1       0.812   0.748  -0.987  1.00  0.00     0.019 A 
ENDROOT
BRANCH   4   7
HETATM    7  N2  UNL     1      -2.374  -0.617   0.390  1.00  0.00    -0.299 N 
ATOM      8  H2  UNL     1      -2.679  -1.313   1.070  1.00  0.00     0.187 HD
BRANCH   7   9
HETATM    9  N3  UNL     1      -3.326   0.116  -0.308  1.00  0.00    -0.277 N 
ATOM     10  H3  UNL     1      -3.722  -0.245  -1.176  1.00  0.00     0.189 HD
BRANCH   9  11
HETATM   11  C6  UNL     1      -3.737   1.362   0.197  1.00  0.00     0.368 C 
HETATM   12  O2  UNL     1      -3.266   1.822   1.258  1.00  0.00    -0.282 OA
ENDBRANCH   9  11
ENDBRANCH   7   9
ENDBRANCH   4   7
BRANCH   1  13
HETATM   13  C1  UNL     1       3.161   0.201  -0.487  1.00  0.00     0.264 C 
HETATM   14  N1  UNL     1       4.100  -0.550   0.237  1.00  0.00    -0.057 NA
HETATM   15  O1  UNL     1       3.560   1.038  -1.314  1.00  0.00    -0.271 OA
ENDBRANCH   1  13
TORSDOF 4
