REMARK  3 active torsions:
REMARK  status: ('A' for Active; 'I' for Inactive)
REMARK    1  A    between atoms: N1_1  and  N2_4 
REMARK       I    between atoms: N2_4  and  C1_6 
REMARK    2  A    between atoms: C1_6  and  C2_8 
REMARK    3  A    between atoms: C2_8  and  N3_9 
REMARK       I    between atoms: N3_9  and  C3_11 
ROOT
HETATM    1  C2  UNL     1       0.052   0.058  -0.054  1.00  0.00     0.116 C 
HETATM    2  C4  UNL     1      -0.423  -0.522   1.234  1.00  0.00     0.041 C 
HETATM    3  C5  UNL     1      -0.308  -1.884   0.640  1.00  0.00     0.006 C 
HETATM    4  C6  UNL     1       0.350  -1.294  -0.559  1.00  0.00     0.041 C 
ENDROOT
BRANCH   1   5
HETATM    5  C1  UNL     1      -1.055   0.783  -0.754  1.00  0.00     0.264 C 
HETATM    6  N2  UNL     1      -2.252   0.102  -1.039  1.00  0.00    -0.275 N 
ATOM      7  H2  UNL     1      -2.368  -0.876  -0.774  1.00  0.00     0.189 HD
HETATM    8  O1  UNL     1      -0.909   1.967  -1.075  1.00  0.00    -0.269 OA
BRANCH   6   9
HETATM    9  N1  UNL     1      -3.262   0.777  -1.681  1.00  0.00    -0.343 N 
ATOM     10  H12 UNL     1      -3.130   1.755  -1.940  1.00  0.00     0.176 HD
ATOM     11  H11 UNL     1      -4.130   0.283  -1.888  1.00  0.00     0.176 HD
ENDBRANCH   6   9
ENDBRANCH   1   5
BRANCH   1  12
HETATM   12  N3  UNL     1       1.209   0.922   0.135  1.00  0.00    -0.327 N 
HETATM   13  C3  UNL     1       2.366   0.468   0.778  1.00  0.00     0.329 C 
HETATM   14  N4  UNL     1       3.461   1.391   0.920  1.00  0.00    -0.040 NA
HETATM   15  O2  UNL     1       2.538  -0.663   1.239  1.00  0.00    -0.251 OA
ATOM     16  H3  UNL     1       1.175   1.881  -0.210  1.00  0.00     0.165 HD
ENDBRANCH   1  12
TORSDOF 3
