REMARK  1 active torsions:
REMARK  status: ('A' for Active; 'I' for Inactive)
REMARK    1  A    between atoms: C3_6  and  C4_7 
ROOT
HETATM    1  N1  UNL     1       5.384   0.487   0.100  1.00  0.00    -0.378 N 
ATOM      2  H11 UNL     1       6.249   0.066  -0.238  1.00  0.00     0.158 HD
ATOM      3  H12 UNL     1       5.666   1.340   0.583  1.00  0.00     0.158 HD
HETATM    4  C1  UNL     1       4.229  -0.010  -0.083  1.00  0.00     0.165 A 
HETATM    5  C2  UNL     1       3.047   0.565   0.379  1.00  0.00     0.085 A 
HETATM    6  C3  UNL     1       1.991  -0.253  -0.005  1.00  0.00     0.043 A 
HETATM    7  N2  UNL     1       2.578  -1.264  -0.669  1.00  0.00    -0.263 N 
ATOM      8  H2  UNL     1       2.085  -2.051  -1.091  1.00  0.00     0.194 HD
HETATM    9  O1  UNL     1       3.872  -1.090  -0.694  1.00  0.00    -0.220 OA
ENDROOT
BRANCH   6  10
HETATM   10  C4  UNL     1       0.537  -0.086   0.239  1.00  0.00     0.071 C 
HETATM   11  C5  UNL     1      -0.241   0.136  -1.037  1.00  0.00     0.013 C 
HETATM   12  C6  UNL     1      -1.039   1.400  -1.027  1.00  0.00     0.001 C 
HETATM   13  C7  UNL     1      -2.514   1.198  -1.065  1.00  0.00     0.000 C 
HETATM   14  C8  UNL     1      -3.052   0.172  -0.152  1.00  0.00     0.000 C 
HETATM   15  C9  UNL     1      -2.215  -0.126   1.049  1.00  0.00     0.003 C 
HETATM   16  C10 UNL     1      -1.468  -1.425   0.947  1.00  0.00     0.038 C 
HETATM   17  C11 UNL     1       0.001  -1.179   1.090  1.00  0.00     0.180 C 
HETATM   18  F1  UNL     1       0.224  -0.840   2.432  1.00  0.00    -0.249 F 
ENDBRANCH   6  10
TORSDOF 1
