REMARK  7 active torsions:
REMARK  status: ('A' for Active; 'I' for Inactive)
REMARK    1  A    between atoms: O1_2  and  N1_3 
REMARK       I    between atoms: N1_3  and  C2_5 
REMARK       I    between atoms: C2_5  and  N4_10 
REMARK    2  A    between atoms: N4_10  and  C4_12 
REMARK    3  A    between atoms: C5_13  and  N5_14 
REMARK    4  A    between atoms: C9_22  and  N6_23 
REMARK    5  A    between atoms: C10_27  and  O3_28 
REMARK    6  A    between atoms: O3_28  and  C11_29 
REMARK    7  A    between atoms: C11_29  and  C13_31 
ROOT
HETATM    1  N1  UNL     1       3.473   0.122  -0.140  1.00  0.00    -0.096 N 
ATOM      2  H1  UNL     1       3.360   0.087   0.873  1.00  0.00     0.213 HD
HETATM    3  C2  UNL     1       2.353   0.518  -0.923  1.00  0.00     0.707 C 
HETATM    4  N2  UNL     1       2.480   0.920  -2.157  1.00  0.00    -0.124 N 
ATOM      5  H2  UNL     1       1.638   1.192  -2.665  1.00  0.00     0.197 HD
HETATM    6  C3  UNL     1       3.697   0.998  -2.816  1.00  0.00     0.196 C 
HETATM    7  N3  UNL     1       4.708   1.071  -3.384  1.00  0.00    -0.171 NA
HETATM    8  N4  UNL     1       1.045   0.496  -0.381  1.00  0.00    -0.212 N 
ATOM      9  H4  UNL     1       0.873   1.054   0.455  1.00  0.00     0.178 HD
ENDROOT
BRANCH   1  10
HETATM   10  O1  UNL     1       4.670  -0.209  -0.652  1.00  0.00    -0.272 OA
HETATM   11  C1  UNL     1       5.723   0.189   0.169  1.00  0.00     0.238 C 
ENDBRANCH   1  10
BRANCH   8  12
HETATM   12  C4  UNL     1      -0.067  -0.258  -0.922  1.00  0.00     0.186 C 
HETATM   13  C5  UNL     1       0.284  -1.714  -0.858  1.00  0.00     0.345 C 
HETATM   14  O2  UNL     1       0.326  -2.101   0.458  1.00  0.00    -0.345 OA
HETATM   15  C6  UNL     1      -0.981  -2.153   0.926  1.00  0.00     0.087 C 
HETATM   16  C7  UNL     1      -1.890  -2.992   0.052  1.00  0.00     0.048 C 
HETATM   17  C8  UNL     1      -0.925  -2.851   2.276  1.00  0.00     0.048 C 
HETATM   18  C9  UNL     1      -1.538  -0.753   1.060  1.00  0.00     0.248 C 
HETATM   19  C10 UNL     1      -1.343   0.074  -0.174  1.00  0.00     0.183 C 
BRANCH  13  20
HETATM   20  N5  UNL     1       1.573  -1.985  -1.451  1.00  0.00    -0.051 N 
ATOM     21  H53 UNL     1       1.622  -1.634  -2.407  1.00  0.00     0.277 HD
ATOM     22  H52 UNL     1       2.303  -1.409  -1.031  1.00  0.00     0.277 HD
ATOM     23  H51 UNL     1       1.812  -2.976  -1.407  1.00  0.00     0.277 HD
ENDBRANCH  13  20
BRANCH  18  24
HETATM   24  N6  UNL     1      -0.930  -0.046   2.176  1.00  0.00    -0.070 N 
ATOM     25  H63 UNL     1      -1.022  -0.570   3.046  1.00  0.00     0.275 HD
ATOM     26  H62 UNL     1       0.087  -0.039   2.104  1.00  0.00     0.275 HD
ATOM     27  H61 UNL     1      -1.306   0.898   2.266  1.00  0.00     0.275 HD
ENDBRANCH  18  24
BRANCH  19  28
HETATM   28  O3  UNL     1      -1.337   1.414   0.071  1.00  0.00    -0.368 OA
BRANCH  28  29
HETATM   29  C11 UNL     1      -2.240   2.189  -0.543  1.00  0.00     0.207 C 
HETATM   30  C12 UNL     1      -1.717   3.269  -1.437  1.00  0.00     0.049 C 
BRANCH  29  31
HETATM   31  C13 UNL     1      -3.143   2.823   0.446  1.00  0.00     0.259 C 
HETATM   32  N7  UNL     1      -4.168   3.686  -0.087  1.00  0.00    -0.060 NA
HETATM   33  O4  UNL     1      -3.107   2.690   1.674  1.00  0.00    -0.274 OA
ENDBRANCH  29  31
ENDBRANCH  28  29
ENDBRANCH  19  28
ENDBRANCH   8  12
TORSDOF 7
