REMARK  4 active torsions:
REMARK  status: ('A' for Active; 'I' for Inactive)
REMARK       I    between atoms: N2_3  and  C2_4 
REMARK       I    between atoms: C2_4  and  N3_6 
REMARK    1  A    between atoms: N3_6  and  N4_8 
REMARK    2  A    between atoms: C3_10  and  C4_11 
REMARK    3  A    between atoms: C5_12  and  N5_13 
REMARK    4  A    between atoms: C8_24  and  S1_25 
ROOT
HETATM    1  N1  UNL     1       5.812   0.609   4.846  1.00  0.00    -0.156 NA
HETATM    2  C1  UNL     1       4.774   0.481   4.346  1.00  0.00     0.273 C 
HETATM    3  N2  UNL     1       3.592   0.362   3.726  1.00  0.00    -0.271 NA
HETATM    4  C2  UNL     1       2.420   0.244   3.112  1.00  0.00     0.422 C 
HETATM    5  O1  UNL     1       1.315  -0.211   3.567  1.00  0.00    -0.228 OA
HETATM    6  N3  UNL     1       2.318   0.676   1.727  1.00  0.00    -0.239 N 
ATOM      7  H3  UNL     1       3.157   1.060   1.292  1.00  0.00     0.193 HD
ENDROOT
BRANCH   6   8
HETATM    8  N4  UNL     1       1.214   0.609   0.981  1.00  0.00    -0.306 N 
HETATM    9  C3  UNL     1       0.842  -0.242   0.104  1.00  0.00     0.123 C 
ATOM     10  H4  UNL     1       0.552   1.369   1.138  1.00  0.00     0.186 HD
BRANCH   9  11
HETATM   11  C4  UNL     1      -0.422  -0.117  -0.608  1.00  0.00     0.045 A 
HETATM   12  C5  UNL     1      -1.285   0.951  -0.325  1.00  0.00     0.157 A 
HETATM   13  C6  UNL     1      -2.457   1.118  -1.049  1.00  0.00     0.152 A 
HETATM   14  N6  UNL     1      -3.316   2.199  -0.744  1.00  0.00    -0.080 NA
HETATM   15  N7  UNL     1      -2.781   0.267  -2.023  1.00  0.00    -0.328 N 
HETATM   16  C7  UNL     1      -1.969  -0.761  -2.305  1.00  0.00     0.125 A 
ATOM     17  H7  UNL     1      -3.644   0.398  -2.551  1.00  0.00     0.168 HD
HETATM   18  N8  UNL     1      -2.273  -1.594  -3.263  1.00  0.00    -0.384 N 
HETATM   19  C8  UNL     1      -0.772  -0.988  -1.616  1.00  0.00     0.138 A 
ATOM     20  H82 UNL     1      -3.145  -1.429  -3.765  1.00  0.00     0.157 HD
ATOM     21  H81 UNL     1      -1.655  -2.376  -3.478  1.00  0.00     0.157 HD
BRANCH  12  22
HETATM   22  N5  UNL     1      -0.951   1.867   0.704  1.00  0.00    -0.111 N 
HETATM   23  O2  UNL     1      -1.254   1.574   1.905  1.00  0.00    -0.532 OA
HETATM   24  O3  UNL     1      -0.371   3.058   0.432  1.00  0.00    -0.532 OA
ENDBRANCH  12  22
BRANCH  19  25
HETATM   25  S1  UNL     1       0.236  -2.324  -2.075  1.00  0.00     0.142 S 
HETATM   26  O4  UNL     1      -0.096  -2.756  -3.509  1.00  0.00    -0.591 OA
HETATM   27  O5  UNL     1       1.668  -1.938  -2.109  1.00  0.00    -0.591 OA
HETATM   28  O6  UNL     1      -0.009  -3.686  -1.100  1.00  0.00    -0.591 OA
ENDBRANCH  19  25
ENDBRANCH   9  11
ENDBRANCH   6   8
TORSDOF 4
