REMARK  6 active torsions:
REMARK  status: ('A' for Active; 'I' for Inactive)
REMARK    1  A    between atoms: C2_2  and  O1_3 
REMARK    2  A    between atoms: C2_2  and  C3_5 
REMARK    3  A    between atoms: C4_6  and  C5_7 
REMARK    4  A    between atoms: C5_7  and  C6_8 
REMARK    5  A    between atoms: C6_8  and  C7_9 
REMARK    6  A    between atoms: C7_9  and  C8_10 
ROOT
HETATM    1  C5  UNL     1       0.742  -0.028   0.354  1.00  0.00    -0.019 C 
HETATM    2  C12 UNL     1       0.697  -1.176   1.389  1.00  0.00     0.044 C 
HETATM    3  C13 UNL     1       1.299  -2.440   0.883  1.00  0.00     0.273 C 
HETATM    4  N1  UNL     1       2.651  -2.330   0.411  1.00  0.00     0.084 N 
HETATM    5  C14 UNL     1       2.956  -3.441  -0.472  1.00  0.00     0.309 C 
HETATM    6  C15 UNL     1       2.837  -1.107  -0.347  1.00  0.00     0.273 C 
HETATM    7  C16 UNL     1       1.503  -0.628  -0.811  1.00  0.00     0.044 C 
ENDROOT
BRANCH   1   8
HETATM    8  C4  UNL     1       1.381   1.098   1.000  1.00  0.00    -0.015 C 
HETATM    9  C3  UNL     1       1.654   2.430   0.522  1.00  0.00     0.028 C 
BRANCH   9  10
HETATM   10  C2  UNL     1       0.616   3.391   0.077  1.00  0.00     0.039 C 
HETATM   11  C1  UNL     1      -0.443   3.727   1.085  1.00  0.00     0.076 C 
BRANCH  10  12
HETATM   12  O1  UNL     1       0.224   3.335  -1.230  1.00  0.00    -0.365 OA
ATOM     13  H1  UNL     1       0.895   3.122  -1.868  1.00  0.00     0.217 HD
ENDBRANCH  10  12
ENDBRANCH   9  10
ENDBRANCH   1   8
BRANCH   1  14
HETATM   14  C6  UNL     1      -0.694   0.207   0.001  1.00  0.00     0.014 C 
BRANCH  14  15
HETATM   15  C7  UNL     1      -1.365  -0.975  -0.650  1.00  0.00     0.010 C 
BRANCH  15  16
HETATM   16  C8  UNL     1      -2.809  -0.579  -0.929  1.00  0.00    -0.044 A 
HETATM   17  C9  UNL     1      -3.575  -1.735  -1.600  1.00  0.00     0.015 C 
HETATM   18  C10 UNL     1      -3.193   0.748  -1.401  1.00  0.00     0.010 A 
HETATM   19  C11 UNL     1      -3.607   0.236  -0.024  1.00  0.00     0.010 A 
ENDBRANCH  15  16
ENDBRANCH  14  15
ENDBRANCH   1  14
TORSDOF 6
