REMARK  11 active torsions:
REMARK  status: ('A' for Active; 'I' for Inactive)
REMARK    1  A    between atoms: C2_2  and  C3_3 
REMARK    2  A    between atoms: C3_3  and  C4_4 
REMARK    3  A    between atoms: N2_9  and  C6_10 
REMARK    4  A    between atoms: C6_10  and  C7_11 
REMARK    5  A    between atoms: C7_11  and  O2_12 
REMARK    6  A    between atoms: C9_15  and  C10_16 
REMARK    7  A    between atoms: C10_16  and  N3_17 
REMARK    8  A    between atoms: C15_24  and  O3_25 
REMARK    9  A    between atoms: C16_27  and  C17_28 
REMARK   10  A    between atoms: C17_28  and  C18_29 
REMARK   11  A    between atoms: C21_34  and  O4_35 
ROOT
HETATM    1  C4  UNL     1      -2.282  -0.725  -0.614  1.00  0.00     0.161 C 
HETATM    2  N1  UNL     1      -1.061  -1.244  -1.126  1.00  0.00    -0.331 N 
ATOM      3  H1  UNL     1      -0.874  -1.012  -2.102  1.00  0.00     0.165 HD
HETATM    4  C5  UNL     1      -0.081  -2.015  -0.514  1.00  0.00     0.319 C 
HETATM    5  O1  UNL     1       0.333  -3.047  -1.155  1.00  0.00    -0.247 OA
HETATM    6  N2  UNL     1       0.525  -1.798   0.749  1.00  0.00    -0.327 N 
HETATM    7  C8  UNL     1       0.700  -0.475   1.323  1.00  0.00     0.186 C 
HETATM    8  C9  UNL     1       1.778   0.368   0.712  1.00  0.00     0.052 C 
HETATM    9  N4  UNL     1       1.380   1.403  -0.198  1.00  0.00    -0.336 N 
ATOM     10  H4  UNL     1       2.152   2.057  -0.328  1.00  0.00     0.168 HD
HETATM   11  C15 UNL     1       0.317   1.802  -0.945  1.00  0.00     0.163 C 
HETATM   12  C16 UNL     1      -1.012   2.447  -0.653  1.00  0.00     0.062 C 
HETATM   13  N5  UNL     1      -2.116   1.798  -1.289  1.00  0.00    -0.339 N 
ATOM     14  H5  UNL     1      -2.543   2.365  -2.021  1.00  0.00     0.167 HD
HETATM   15  C21 UNL     1      -2.733   0.570  -1.130  1.00  0.00     0.139 C 
ENDROOT
BRANCH   8  16
HETATM   16  C10 UNL     1       2.917  -0.483   0.294  1.00  0.00     0.228 C 
BRANCH  16  17
HETATM   17  N3  UNL     1       4.076  -0.014  -0.294  1.00  0.00    -0.049 N 
HETATM   18  C11 UNL     1       5.055  -1.155  -0.282  1.00  0.00     0.278 C 
HETATM   19  C12 UNL     1       4.785   1.135   0.133  1.00  0.00     0.244 C 
HETATM   20  C13 UNL     1       5.142   1.520  -1.286  1.00  0.00     0.057 C 
HETATM   21  C14 UNL     1       4.096   0.484  -1.643  1.00  0.00     0.244 C 
ENDBRANCH  16  17
ENDBRANCH   8  16
BRANCH   6  22
HETATM   22  C6  UNL     1       0.965  -3.021   1.451  1.00  0.00     0.153 C 
BRANCH  22  23
HETATM   23  C7  UNL     1      -0.133  -3.570   2.327  1.00  0.00     0.184 C 
BRANCH  23  24
HETATM   24  O2  UNL     1       0.338  -4.699   2.947  1.00  0.00    -0.399 OA
ATOM     25  H2  UNL     1      -0.354  -5.045   3.499  1.00  0.00     0.209 HD
ENDBRANCH  23  24
ENDBRANCH  22  23
ENDBRANCH   6  22
BRANCH  11  26
HETATM   26  O3  UNL     1       0.393   1.623  -2.237  1.00  0.00    -0.345 OA
ATOM     27  H3  UNL     1      -0.350   1.902  -2.759  1.00  0.00     0.219 HD
ENDBRANCH  11  26
BRANCH  12  28
HETATM   28  C17 UNL     1      -1.148   2.981   0.707  1.00  0.00     0.065 C 
BRANCH  28  29
HETATM   29  C18 UNL     1      -2.380   3.680   1.114  1.00  0.00    -0.017 C 
HETATM   30  C19 UNL     1      -3.666   2.954   1.088  1.00  0.00     0.010 C 
HETATM   31  C20 UNL     1      -2.216   4.286   2.523  1.00  0.00     0.010 C 
ENDBRANCH  28  29
ENDBRANCH  12  28
BRANCH   1  32
HETATM   32  C3  UNL     1      -3.309  -1.857  -0.868  1.00  0.00     0.033 C 
BRANCH  32  33
HETATM   33  C2  UNL     1      -3.431  -2.214  -2.306  1.00  0.00    -0.002 C 
HETATM   34  C1  UNL     1      -4.474  -3.340  -2.380  1.00  0.00     0.005 C 
ENDBRANCH  32  33
ENDBRANCH   1  32
BRANCH  15  35
HETATM   35  O4  UNL     1      -3.984   0.534  -1.515  1.00  0.00    -0.348 OA
ATOM     36  H4  UNL     1      -4.276   1.374  -1.850  1.00  0.00     0.219 HD
ENDBRANCH  15  35
TORSDOF 11
