REMARK  12 active torsions:
REMARK  status: ('A' for Active; 'I' for Inactive)
REMARK    1  A    between atoms: C9_9  and  C10_11 
REMARK    2  A    between atoms: C10_11  and  N1_12 
REMARK    3  A    between atoms: N1_12  and  C11_14 
REMARK    4  A    between atoms: C11_14  and  O1_15 
REMARK    5  A    between atoms: C11_14  and  N2_17 
REMARK    6  A    between atoms: N2_17  and  C12_19 
REMARK    7  A    between atoms: C12_19  and  O2_20 
REMARK    8  A    between atoms: C12_19  and  N3_22 
REMARK    9  A    between atoms: N3_22  and  C13_24 
REMARK   10  A    between atoms: C13_24  and  C14_25 
REMARK   11  A    between atoms: C14_25  and  C15_26 
REMARK   12  A    between atoms: C15_26  and  C16_27 
ROOT
HETATM    1  C11 UNL     1       1.144   2.412  -0.658  1.00  0.00     0.220 C 
ENDROOT
BRANCH   1   2
HETATM    2  N1  UNL     1       0.651   1.197  -1.074  1.00  0.00    -0.355 N 
ATOM      3  H1  UNL     1       1.231   0.406  -0.793  1.00  0.00     0.163 HD
BRANCH   2   4
HETATM    4  C10 UNL     1      -0.505   0.816  -1.818  1.00  0.00     0.144 C 
BRANCH   4   5
HETATM    5  C9  UNL     1      -1.861   1.047  -1.242  1.00  0.00     0.039 C 
HETATM    6  C8  UNL     1      -2.055   0.384   0.088  1.00  0.00     0.014 C 
HETATM    7  C2  UNL     1      -2.728  -0.916  -0.151  1.00  0.00    -0.039 C 
HETATM    8  C7  UNL     1      -2.936   1.265   0.928  1.00  0.00     0.007 C 
HETATM    9  C1  UNL     1      -3.370  -1.522   1.063  1.00  0.00     0.015 C 
HETATM   10  C3  UNL     1      -1.872  -1.967  -0.792  1.00  0.00     0.015 C 
HETATM   11  C4  UNL     1      -3.764  -0.466  -1.172  1.00  0.00    -0.005 C 
HETATM   12  C5  UNL     1      -4.782   0.461  -0.596  1.00  0.00     0.005 C 
HETATM   13  C17 UNL     1      -2.903   0.311  -2.132  1.00  0.00     0.028 C 
HETATM   14  C6  UNL     1      -4.344   1.351   0.492  1.00  0.00     0.001 C 
HETATM   15 BR1  UNL     1      -2.355   2.889  -1.319  1.00  0.00    -0.083 Br
ENDBRANCH   4   5
ENDBRANCH   2   4
ENDBRANCH   1   2
BRANCH   1  16
HETATM   16  O1  UNL     1       0.479   3.500  -1.019  1.00  0.00    -0.332 OA
ATOM     17  H1  UNL     1       0.819   4.339  -0.732  1.00  0.00     0.220 HD
ENDBRANCH   1  16
BRANCH   1  18
HETATM   18  N2  UNL     1       2.284   2.645   0.115  1.00  0.00    -0.288 N 
ATOM     19  H2  UNL     1       2.434   3.640   0.282  1.00  0.00     0.173 HD
BRANCH  18  20
HETATM   20  C12 UNL     1       3.251   1.875   0.705  1.00  0.00     0.220 C 
BRANCH  20  21
HETATM   21  O2  UNL     1       4.198   2.512   1.377  1.00  0.00    -0.332 OA
ATOM     22  H2  UNL     1       4.869   1.978   1.786  1.00  0.00     0.220 HD
ENDBRANCH  20  21
BRANCH  20  23
HETATM   23  N3  UNL     1       3.438   0.498   0.737  1.00  0.00    -0.356 N 
ATOM     24  H3  UNL     1       2.777  -0.116   0.261  1.00  0.00     0.163 HD
BRANCH  23  25
HETATM   25  C13 UNL     1       4.603  -0.084   1.466  1.00  0.00     0.123 C 
BRANCH  25  26
HETATM   26  C14 UNL     1       4.551  -1.557   1.340  1.00  0.00     0.020 C 
BRANCH  26  27
HETATM   27  C15 UNL     1       4.585  -2.114  -0.005  1.00  0.00     0.012 C 
BRANCH  27  28
HETATM   28  C16 UNL     1       5.779  -1.862  -0.827  1.00  0.00     0.085 C 
HETATM   29 BR2  UNL     1       6.132  -0.060  -1.299  1.00  0.00    -0.097 Br
ENDBRANCH  27  28
ENDBRANCH  26  27
ENDBRANCH  25  26
ENDBRANCH  23  25
ENDBRANCH  20  23
ENDBRANCH  18  20
ENDBRANCH   1  18
TORSDOF 12
