REMARK  9 active torsions:
REMARK  status: ('A' for Active; 'I' for Inactive)
REMARK    1  A    between atoms: C2_2  and  C4_4 
REMARK    2  A    between atoms: C4_4  and  N1_5 
REMARK    3  A    between atoms: C4_4  and  N3_13 
REMARK    4  A    between atoms: C5_7  and  O1_8 
REMARK    5  A    between atoms: C5_7  and  N2_10 
REMARK       I    between atoms: N3_13  and  C8_15 
REMARK    6  A    between atoms: C8_15  and  C9_17 
REMARK    7  A    between atoms: C9_17  and  N4_18 
REMARK    8  A    between atoms: C9_17  and  C21_34 
REMARK       I    between atoms: N4_18  and  C10_20 
REMARK       I    between atoms: C10_20  and  N5_22 
REMARK    9  A    between atoms: N5_22  and  C11_24 
ROOT
HETATM    1  C9  UNL     1      -0.494  -2.050  -0.001  1.00  0.00     0.085 C 
ENDROOT
BRANCH   1   2
HETATM    2  C8  UNL     1      -1.807  -1.456  -0.403  1.00  0.00     0.269 C 
HETATM    3  N3  UNL     1      -2.572  -0.662   0.441  1.00  0.00    -0.311 N 
ATOM      4  H3  UNL     1      -2.137  -0.462   1.342  1.00  0.00     0.170 HD
HETATM    5  O2  UNL     1      -2.164  -1.740  -1.592  1.00  0.00    -0.266 OA
BRANCH   3   6
HETATM    6  C4  UNL     1      -3.867  -0.075   0.265  1.00  0.00     0.090 C 
BRANCH   6   7
HETATM    7  C2  UNL     1      -4.803  -0.414  -0.845  1.00  0.00     0.045 C 
HETATM    8  C1  UNL     1      -5.122  -1.915  -0.829  1.00  0.00     0.017 C 
HETATM    9  C3  UNL     1      -4.487   0.081  -2.201  1.00  0.00     0.017 C 
ENDBRANCH   6   7
BRANCH   6  10
HETATM   10  N1  UNL     1      -4.265   0.687   1.144  1.00  0.00    -0.311 N 
HETATM   11  C5  UNL     1      -5.274   1.420   1.586  1.00  0.00     0.219 C 
ATOM     12  H1  UNL     1      -3.500   0.802   1.808  1.00  0.00     0.170 HD
BRANCH  11  13
HETATM   13  O1  UNL     1      -5.733   1.111   2.787  1.00  0.00    -0.332 OA
ATOM     14  H1  UNL     1      -6.457   1.637   3.104  1.00  0.00     0.220 HD
ENDBRANCH  11  13
BRANCH  11  15
HETATM   15  N2  UNL     1      -5.990   2.507   1.021  1.00  0.00    -0.356 N 
HETATM   16  C6  UNL     1      -5.769   3.076  -0.288  1.00  0.00     0.152 C 
HETATM   17  C7  UNL     1      -7.044   3.135   1.834  1.00  0.00     0.152 C 
ENDBRANCH  11  15
ENDBRANCH   6  10
ENDBRANCH   3   6
ENDBRANCH   1   2
BRANCH   1  18
HETATM   18  N4  UNL     1       0.562  -1.189   0.267  1.00  0.00    -0.307 N 
HETATM   19  C10 UNL     1       1.587  -0.659  -0.536  1.00  0.00     0.321 C 
HETATM   20  O3  UNL     1       1.734  -0.807  -1.767  1.00  0.00    -0.247 OA
HETATM   21  N5  UNL     1       2.610   0.143   0.085  1.00  0.00    -0.338 N 
ATOM     22  H5  UNL     1       2.576   0.252   1.099  1.00  0.00     0.164 HD
ATOM     23  H4  UNL     1       0.602  -0.880   1.238  1.00  0.00     0.170 HD
BRANCH  21  24
HETATM   24  C11 UNL     1       3.646   0.782  -0.603  1.00  0.00     0.094 C 
HETATM   25  C12 UNL     1       4.735  -0.124  -1.162  1.00  0.00     0.009 C 
HETATM   26  C13 UNL     1       5.611   0.764  -2.053  1.00  0.00     0.011 C 
HETATM   27  C17 UNL     1       5.638  -0.711  -0.143  1.00  0.00     0.011 C 
HETATM   28  C14 UNL     1       6.268   1.846  -1.252  1.00  0.00    -0.013 C 
HETATM   29  C15 UNL     1       7.138   1.284  -0.129  1.00  0.00     0.009 C 
HETATM   30  C20 UNL     1       5.185   2.690  -0.598  1.00  0.00     0.011 C 
HETATM   31  C16 UNL     1       6.267   0.382   0.706  1.00  0.00    -0.013 C 
HETATM   32  C18 UNL     1       5.162   1.187   1.330  1.00  0.00     0.011 C 
HETATM   33  C19 UNL     1       4.308   1.838   0.257  1.00  0.00     0.009 C 
ENDBRANCH  21  24
ENDBRANCH   1  18
BRANCH   1  34
HETATM   34  C21 UNL     1      -0.617  -3.246   0.903  1.00  0.00     0.033 C 
HETATM   35  C22 UNL     1      -1.382  -4.368   0.212  1.00  0.00     0.016 C 
HETATM   36  C23 UNL     1      -1.245  -3.008   2.223  1.00  0.00     0.016 C 
ENDBRANCH   1  34
TORSDOF 9
