REMARK  2 active torsions:
REMARK  status: ('A' for Active; 'I' for Inactive)
REMARK    1  A    between atoms: N1_2  and  C2_5 
REMARK    2  A    between atoms: C2_5  and  C3_6 
ROOT
HETATM    1  C3  UNL     1       1.365  -0.242   0.319  1.00  0.00    -0.012 A 
HETATM    2  C4  UNL     1       0.979  -1.212  -0.733  1.00  0.00     0.012 C 
HETATM    3  C5  UNL     1      -0.387  -1.775  -0.627  1.00  0.00     0.006 C 
HETATM    4  C6  UNL     1      -1.421  -0.858  -0.080  1.00  0.00    -0.010 C 
HETATM    5  C7  UNL     1      -2.705  -0.857  -0.921  1.00  0.00     0.005 C 
HETATM    6  C8  UNL     1      -3.755  -0.186  -0.091  1.00  0.00     0.000 C 
HETATM    7  C9  UNL     1      -3.398   1.154   0.414  1.00  0.00     0.000 C 
HETATM    8  C10 UNL     1      -1.982   1.391   0.745  1.00  0.00     0.005 C 
HETATM    9  C11 UNL     1      -0.986   0.581  -0.009  1.00  0.00    -0.006 C 
HETATM   10  C12 UNL     1       0.356   0.751   0.665  1.00  0.00     0.001 A 
HETATM   11  C13 UNL     1       0.685  -0.286   1.678  1.00  0.00     0.017 A 
ENDROOT
BRANCH   1  12
HETATM   12  C2  UNL     1       2.827   0.111   0.400  1.00  0.00     0.241 C 
BRANCH  12  13
HETATM   13  N1  UNL     1       3.336   0.699  -0.804  1.00  0.00    -0.078 N 
HETATM   14  C1  UNL     1       4.747   0.987  -0.586  1.00  0.00     0.267 C 
ATOM     15  H12 UNL     1       2.804   1.516  -1.103  1.00  0.00     0.276 HD
ATOM     16  H11 UNL     1       3.170   0.123  -1.629  1.00  0.00     0.276 HD
ENDBRANCH  12  13
ENDBRANCH   1  12
TORSDOF 2
