REMARK  7 active torsions:
REMARK  status: ('A' for Active; 'I' for Inactive)
REMARK    1  A    between atoms: N1_1  and  C1_4 
REMARK    2  A    between atoms: C2_9  and  C3_10 
REMARK       I    between atoms: C3_10  and  N4_12 
REMARK    3  A    between atoms: N4_12  and  N5_14 
REMARK    4  A    between atoms: N5_14  and  C4_16 
REMARK    5  A    between atoms: C7_19  and  N6_20 
REMARK    6  A    between atoms: C9_24  and  N7_25 
REMARK    7  A    between atoms: N7_25  and  O4_29 
ROOT
HETATM    1  N5  UNL     1      -0.110  -1.466   1.018  1.00  0.00    -0.295 N 
ATOM      2  H5  UNL     1      -0.114  -2.184   1.742  1.00  0.00     0.187 HD
ENDROOT
BRANCH   1   3
HETATM    3  N4  UNL     1       1.123  -1.199   0.503  1.00  0.00    -0.262 N 
HETATM    4  C3  UNL     1       1.840   0.006   0.775  1.00  0.00     0.312 C 
HETATM    5  O1  UNL     1       1.269   0.839   1.520  1.00  0.00    -0.262 OA
ATOM      6  H4  UNL     1       1.555  -1.894  -0.106  1.00  0.00     0.190 HD
BRANCH   4   7
HETATM    7  C2  UNL     1       3.162   0.262   0.220  1.00  0.00     0.236 A 
HETATM    8  N3  UNL     1       3.953  -0.543  -0.489  1.00  0.00    -0.272 N 
HETATM    9  N2  UNL     1       5.033   0.141  -0.760  1.00  0.00    -0.263 N 
ATOM     10  H3  UNL     1       3.754  -1.504  -0.766  1.00  0.00     0.189 HD
HETATM   11  C1  UNL     1       4.963   1.374  -0.246  1.00  0.00     0.238 A 
ATOM     12  H2  UNL     1       5.825  -0.218  -1.293  1.00  0.00     0.190 HD
HETATM   13  O5  UNL     1       3.787   1.408   0.354  1.00  0.00    -0.254 OA
BRANCH  11  14
HETATM   14  N1  UNL     1       5.812   2.329  -0.296  1.00  0.00    -0.364 N 
ATOM     15  H12 UNL     1       6.720   2.303  -0.759  1.00  0.00     0.159 HD
ATOM     16  H11 UNL     1       5.759   3.269   0.096  1.00  0.00     0.159 HD
ENDBRANCH  11  14
ENDBRANCH   4   7
ENDBRANCH   1   3
BRANCH   1  17
HETATM   17  C4  UNL     1      -1.378  -0.929   0.730  1.00  0.00     0.079 A 
HETATM   18  C5  UNL     1      -2.415  -1.092   1.662  1.00  0.00     0.036 A 
HETATM   19  C6  UNL     1      -3.688  -0.637   1.455  1.00  0.00     0.038 A 
HETATM   20  C7  UNL     1      -4.026   0.020   0.293  1.00  0.00     0.105 A 
HETATM   21  C8  UNL     1      -3.028   0.187  -0.626  1.00  0.00     0.072 A 
HETATM   22  C9  UNL     1      -1.722  -0.277  -0.421  1.00  0.00     0.111 A 
BRANCH  20  23
HETATM   23  N6  UNL     1      -5.359   0.492   0.094  1.00  0.00    -0.116 N 
HETATM   24  O2  UNL     1      -6.266   0.317   0.929  1.00  0.00    -0.532 OA
HETATM   25  O3  UNL     1      -5.665   1.160  -1.062  1.00  0.00    -0.532 OA
ENDBRANCH  20  23
BRANCH  22  26
HETATM   26  N7  UNL     1      -0.802  -0.051  -1.479  1.00  0.00    -0.168 N 
HETATM   27  N8  UNL     1      -0.532   1.130  -1.812  1.00  0.00    -0.319 N 
ATOM     28  H82 UNL     1      -0.932   1.933  -1.326  1.00  0.00     0.179 HD
ATOM     29  H81 UNL     1       0.129   1.292  -2.572  1.00  0.00     0.179 HD
BRANCH  26  30
HETATM   30  O4  UNL     1      -0.269  -1.121  -2.127  1.00  0.00    -0.268 OA
ATOM     31  H4  UNL     1       0.346  -0.970  -2.835  1.00  0.00     0.247 HD
ENDBRANCH  26  30
ENDBRANCH  22  26
ENDBRANCH   1  17
TORSDOF 7
