REMARK  10 active torsions:
REMARK  status: ('A' for Active; 'I' for Inactive)
REMARK    1  A    between atoms: O1_2  and  N1_3 
REMARK    2  A    between atoms: C2_5  and  O2_6 
REMARK    3  A    between atoms: C2_5  and  C3_8 
REMARK    4  A    between atoms: C3_8  and  N2_9 
REMARK    5  A    between atoms: N2_9  and  C4_11 
REMARK    6  A    between atoms: C4_11  and  O3_15 
REMARK    7  A    between atoms: O3_15  and  C5_16 
REMARK    8  A    between atoms: C6_18  and  S1_19 
REMARK    9  A    between atoms: C7_22  and  C8_23 
REMARK   10  A    between atoms: C8_23  and  O6_24 
ROOT
HETATM    1  C4  UNL     1       0.529   0.006  -1.802  1.00  0.00     0.215 C 
HETATM    2  N3  UNL     1      -0.138  -1.098  -1.985  1.00  0.00    -0.365 N 
ATOM      3  H31 UNL     1      -1.070  -1.186  -1.580  1.00  0.00     0.159 HD
ATOM      4  H32 UNL     1       0.328  -1.820  -2.535  1.00  0.00     0.159 HD
ENDROOT
BRANCH   1   5
HETATM    5  N2  UNL     1       1.826   0.129  -2.365  1.00  0.00    -0.349 N 
ATOM      6  H2  UNL     1       2.000  -0.327  -3.261  1.00  0.00     0.163 HD
BRANCH   5   7
HETATM    7  C3  UNL     1       2.905   0.848  -1.762  1.00  0.00     0.209 C 
BRANCH   7   8
HETATM    8  C2  UNL     1       3.355   0.154  -0.535  1.00  0.00     0.153 C 
HETATM    9  N1  UNL     1       2.790  -0.930  -0.139  1.00  0.00    -0.248 N 
ATOM     10  H1  UNL     1       2.020  -1.295  -0.700  1.00  0.00     0.196 HD
BRANCH   9  11
HETATM   11  O1  UNL     1       3.146  -1.627   0.978  1.00  0.00    -0.283 OA
HETATM   12  C1  UNL     1       2.967  -1.055   2.241  1.00  0.00     0.237 C 
ENDBRANCH   9  11
BRANCH   8  13
HETATM   13  O2  UNL     1       4.413   0.646   0.246  1.00  0.00    -0.347 OA
ATOM     14  H2  UNL     1       4.831   1.447  -0.047  1.00  0.00     0.219 HD
ENDBRANCH   8  13
ENDBRANCH   7   8
ENDBRANCH   5   7
ENDBRANCH   1   5
BRANCH   1  15
HETATM   15  O3  UNL     1      -0.094   0.972  -1.066  1.00  0.00    -0.288 OA
BRANCH  15  16
HETATM   16  C5  UNL     1      -1.364   0.883  -0.518  1.00  0.00     0.304 C 
HETATM   17  O4  UNL     1      -2.375   0.682  -1.472  1.00  0.00    -0.318 OA
HETATM   18  C6  UNL     1      -3.411   0.243  -0.642  1.00  0.00     0.340 C 
HETATM   19  O5  UNL     1      -2.834  -0.695   0.151  1.00  0.00    -0.339 OA
HETATM   20  C7  UNL     1      -1.599  -0.176   0.497  1.00  0.00     0.204 C 
BRANCH  18  21
HETATM   21  S1  UNL     1      -4.817  -0.362  -1.599  1.00  0.00    -0.025 SA
HETATM   22  S2  UNL     1      -6.332  -1.000  -0.249  1.00  0.00    -0.008 SA
ENDBRANCH  18  21
BRANCH  20  23
HETATM   23  C8  UNL     1      -1.693   0.351   1.926  1.00  0.00     0.201 C 
BRANCH  23  24
HETATM   24  O6  UNL     1      -2.645   1.349   2.078  1.00  0.00    -0.398 OA
ATOM     25  H6  UNL     1      -2.704   1.677   2.968  1.00  0.00     0.209 HD
ENDBRANCH  23  24
ENDBRANCH  20  23
ENDBRANCH  15  16
ENDBRANCH   1  15
TORSDOF 10
