REMARK  8 active torsions:
REMARK  status: ('A' for Active; 'I' for Inactive)
REMARK    1  A    between atoms: N2_3  and  N3_5 
REMARK    2  A    between atoms: N3_5  and  C2_7 
REMARK    3  A    between atoms: C3_8  and  C4_9 
REMARK    4  A    between atoms: C4_9  and  S1_10 
REMARK    5  A    between atoms: S1_10  and  C5_11 
REMARK    6  A    between atoms: N7_21  and  C7_22 
REMARK    7  A    between atoms: C7_22  and  C8_23 
REMARK    8  A    between atoms: C10_29  and  N9_30 
ROOT
HETATM    1  N1  UNL     1      -1.345   5.977   1.781  1.00  0.00    -0.170 NA
HETATM    2  C1  UNL     1      -1.332   4.881   1.474  1.00  0.00     0.197 C 
HETATM    3  N2  UNL     1      -1.359   3.583   1.138  1.00  0.00    -0.236 N 
ATOM      4  H2  UNL     1      -1.468   3.433   0.135  1.00  0.00     0.199 HD
ENDROOT
BRANCH   3   5
HETATM    5  N3  UNL     1      -1.280   2.523   1.781  1.00  0.00    -0.289 N 
ATOM      6  H3  UNL     1      -1.163   2.508   2.794  1.00  0.00     0.188 HD
BRANCH   5   7
HETATM    7  C2  UNL     1      -1.365   1.309   0.995  1.00  0.00     0.091 A 
HETATM    8  C3  UNL     1      -0.257   0.581   0.554  1.00  0.00     0.052 A 
HETATM    9  N7  UNL     1      -0.663  -0.452  -0.142  1.00  0.00    -0.322 N 
HETATM   10  C9  UNL     1      -2.035  -0.404  -0.175  1.00  0.00     0.142 A 
HETATM   11  N8  UNL     1      -2.971  -1.159  -0.741  1.00  0.00    -0.175 N 
HETATM   12  C12 UNL     1      -2.467   0.699   0.534  1.00  0.00     0.107 A 
HETATM   13  C10 UNL     1      -4.249  -0.841  -0.631  1.00  0.00     0.680 A 
ATOM     14  H8  UNL     1      -2.701  -1.991  -1.265  1.00  0.00     0.186 HD
HETATM   15  N10 UNL     1      -4.705   0.227   0.041  1.00  0.00    -0.155 N 
HETATM   16  C11 UNL     1      -3.798   1.028   0.647  1.00  0.00     0.276 A 
ATOM     17  H10 UNL     1      -5.703   0.429   0.093  1.00  0.00     0.187 HD
HETATM   18  O3  UNL     1      -4.141   2.067   1.314  1.00  0.00    -0.267 OA
BRANCH   8  19
HETATM   19  C4  UNL     1       1.133   1.015   0.905  1.00  0.00     0.141 C 
BRANCH  19  20
HETATM   20  S1  UNL     1       2.068   1.351  -0.552  1.00  0.00    -0.097 SA
BRANCH  20  21
HETATM   21  C5  UNL     1       3.668   0.667  -0.665  1.00  0.00     0.130 A 
HETATM   22  N4  UNL     1       4.124  -0.423  -1.231  1.00  0.00    -0.286 N 
HETATM   23  N5  UNL     1       5.360  -0.705  -1.264  1.00  0.00    -0.279 N 
ATOM     24  H4  UNL     1       3.461  -1.068  -1.661  1.00  0.00     0.188 HD
HETATM   25  C6  UNL     1       6.220   0.131  -0.702  1.00  0.00     0.159 A 
ATOM     26  H5  UNL     1       5.686  -1.560  -1.715  1.00  0.00     0.189 HD
HETATM   27  N6  UNL     1       7.531   0.069  -0.582  1.00  0.00    -0.379 N 
HETATM   28  S2  UNL     1       5.182   1.376  -0.103  1.00  0.00    -0.027 SA
ATOM     29  H62 UNL     1       8.144  -0.666  -0.936  1.00  0.00     0.158 HD
ATOM     30  H61 UNL     1       8.193   0.713  -0.149  1.00  0.00     0.158 HD
ENDBRANCH  20  21
ENDBRANCH  19  20
ENDBRANCH   8  19
BRANCH   9  31
HETATM   31  C7  UNL     1       0.022  -1.645  -0.609  1.00  0.00     0.243 C 
BRANCH  31  32
HETATM   32  C8  UNL     1      -0.366  -2.789   0.324  1.00  0.00     0.191 C 
HETATM   33  O1  UNL     1      -0.806  -2.507   1.453  1.00  0.00    -0.647 OA
HETATM   34  O2  UNL     1      -0.241  -4.120  -0.067  1.00  0.00    -0.647 OA
ENDBRANCH  31  32
ENDBRANCH   9  31
BRANCH  13  35
HETATM   35  N9  UNL     1      -5.118  -1.612  -1.210  1.00  0.00    -0.234 N 
ATOM     36  H92 UNL     1      -4.771  -2.424  -1.721  1.00  0.00     0.174 HD
ATOM     37  H91 UNL     1      -6.104  -1.367  -1.125  1.00  0.00     0.174 HD
ENDBRANCH  13  35
ENDBRANCH   5   7
ENDBRANCH   3   5
TORSDOF 8
