REMARK  8 active torsions:
REMARK  status: ('A' for Active; 'I' for Inactive)
REMARK    1  A    between atoms: C2_7  and  O1_8 
REMARK    2  A    between atoms: O1_8  and  C3_9 
REMARK    3  A    between atoms: C3_9  and  C4_10 
REMARK    4  A    between atoms: C4_10  and  C5_11 
REMARK    5  A    between atoms: C5_11  and  S1_12 
REMARK    6  A    between atoms: S1_12  and  C6_13 
REMARK    7  A    between atoms: C6_13  and  C7_14 
REMARK    8  A    between atoms: C10_21  and  N6_22 
ROOT
HETATM    1  S1  UNL     1      -0.670   1.618  -0.314  1.00  0.00    -0.164 SA
ENDROOT
BRANCH   1   2
HETATM    2  C5  UNL     1       1.040   2.071  -0.458  1.00  0.00     0.076 C 
BRANCH   2   3
HETATM    3  C4  UNL     1       1.816   2.123   0.794  1.00  0.00     0.037 C 
BRANCH   3   4
HETATM    4  C3  UNL     1       1.960   0.909   1.621  1.00  0.00     0.179 C 
BRANCH   4   5
HETATM    5  O1  UNL     1       2.524  -0.213   1.013  1.00  0.00    -0.322 OA
BRANCH   5   6
HETATM    6  C2  UNL     1       3.815  -0.198   0.523  1.00  0.00     0.226 A 
HETATM    7  N2  UNL     1       4.647   0.853   0.576  1.00  0.00    -0.307 N 
HETATM    8  C1  UNL     1       5.897   0.844   0.092  1.00  0.00     0.130 A 
ATOM      9  H2  UNL     1       4.308   1.711   1.011  1.00  0.00     0.171 HD
HETATM   10  N1  UNL     1       6.632   1.919   0.191  1.00  0.00    -0.384 N 
HETATM   11  C15 UNL     1       6.410  -0.294  -0.508  1.00  0.00     0.131 A 
ATOM     12  H12 UNL     1       6.254   2.757   0.633  1.00  0.00     0.157 HD
ATOM     13  H11 UNL     1       7.583   1.912  -0.177  1.00  0.00     0.157 HD
HETATM   14  C14 UNL     1       5.571  -1.388  -0.573  1.00  0.00     0.147 A 
HETATM   15  N10 UNL     1       7.736  -0.304  -1.021  1.00  0.00    -0.095 NA
HETATM   16  N8  UNL     1       4.330  -1.322  -0.074  1.00  0.00    -0.309 N 
HETATM   17  N9  UNL     1       6.095  -2.548  -1.186  1.00  0.00    -0.080 NA
ATOM     18  H8  UNL     1       3.737  -2.149  -0.141  1.00  0.00     0.170 HD
ENDBRANCH   5   6
ENDBRANCH   4   5
ENDBRANCH   3   4
ENDBRANCH   2   3
ENDBRANCH   1   2
BRANCH   1  19
HETATM   19  C6  UNL     1      -0.907  -0.130   0.017  1.00  0.00     0.119 C 
BRANCH  19  20
HETATM   20  C7  UNL     1      -2.335  -0.480   0.135  1.00  0.00     0.037 A 
HETATM   21  C8  UNL     1      -2.721  -1.770   0.386  1.00  0.00     0.142 A 
HETATM   22  N3  UNL     1      -1.761  -2.793   0.525  1.00  0.00    -0.081 NA
HETATM   23  N4  UNL     1      -4.045  -2.076   0.502  1.00  0.00    -0.178 N 
HETATM   24  C9  UNL     1      -4.961  -1.101   0.368  1.00  0.00     0.683 A 
ATOM     25  H4  UNL     1      -4.337  -3.035   0.689  1.00  0.00     0.185 HD
HETATM   26  N5  UNL     1      -4.609   0.182   0.120  1.00  0.00    -0.168 N 
HETATM   27  N7  UNL     1      -6.346  -1.417   0.495  1.00  0.00    -0.226 N 
HETATM   28  C10 UNL     1      -3.292   0.494   0.003  1.00  0.00     0.127 A 
HETATM   29  C11 UNL     1      -5.665   1.132  -0.006  1.00  0.00     0.151 C 
HETATM   30  C12 UNL     1      -6.748   0.517  -0.899  1.00  0.00     0.041 C 
HETATM   31  C13 UNL     1      -7.375  -0.678  -0.211  1.00  0.00     0.139 C 
ATOM     32  H7  UNL     1      -6.622  -2.188   1.103  1.00  0.00     0.177 HD
BRANCH  28  33
HETATM   33  N6  UNL     1      -2.911   1.675  -0.228  1.00  0.00    -0.384 N 
ATOM     34  H62 UNL     1      -1.922   1.909  -0.316  1.00  0.00     0.157 HD
ATOM     35  H61 UNL     1      -3.623   2.399  -0.326  1.00  0.00     0.157 HD
ENDBRANCH  28  33
ENDBRANCH  19  20
ENDBRANCH   1  19
TORSDOF 8
