REMARK  8 active torsions:
REMARK  status: ('A' for Active; 'I' for Inactive)
REMARK    1  A    between atoms: N2_3  and  N3_5 
REMARK    2  A    between atoms: N3_5  and  C2_7 
REMARK    3  A    between atoms: C3_10  and  N5_11 
REMARK    4  A    between atoms: C4_15  and  S2_16 
REMARK    5  A    between atoms: S2_16  and  C5_17 
REMARK    6  A    between atoms: C5_17  and  C6_18 
REMARK       I    between atoms: C6_18  and  N6_20 
REMARK       I    between atoms: N6_20  and  C7_22 
REMARK       I    between atoms: C7_22  and  N8_26 
REMARK    7  A    between atoms: N8_26  and  C8_28 
REMARK    8  A    between atoms: C8_28  and  C9_29 
ROOT
HETATM    1  N1  UNL     1      -7.706   1.286   2.733  1.00  0.00    -0.170 NA
HETATM    2  C1  UNL     1      -6.654   0.852   2.584  1.00  0.00     0.197 C 
HETATM    3  N2  UNL     1      -5.354   0.319   2.422  1.00  0.00    -0.235 N 
ATOM      4  H2  UNL     1      -5.135  -0.599   2.809  1.00  0.00     0.199 HD
ENDROOT
BRANCH   3   5
HETATM    5  N3  UNL     1      -4.372   1.027   1.745  1.00  0.00    -0.275 N 
ATOM      6  H3  UNL     1      -3.951   1.866   2.144  1.00  0.00     0.189 HD
BRANCH   5   7
HETATM    7  C2  UNL     1      -3.970   0.523   0.447  1.00  0.00     0.146 A 
HETATM    8  N4  UNL     1      -4.541   0.891  -0.663  1.00  0.00    -0.320 N 
HETATM    9  C3  UNL     1      -4.108   0.376  -1.814  1.00  0.00     0.145 A 
ATOM     10  H4  UNL     1      -5.308   1.563  -0.653  1.00  0.00     0.169 HD
HETATM   11  S1  UNL     1      -2.852  -0.664  -1.316  1.00  0.00    -0.043 SA
HETATM   12  C4  UNL     1      -2.946  -0.383   0.364  1.00  0.00     0.090 A 
BRANCH   9  13
HETATM   13  N5  UNL     1      -4.559   0.626  -3.024  1.00  0.00    -0.380 N 
ATOM     14  H52 UNL     1      -5.310   1.248  -3.322  1.00  0.00     0.158 HD
ATOM     15  H51 UNL     1      -4.228   0.232  -3.905  1.00  0.00     0.158 HD
ENDBRANCH   9  13
BRANCH  12  16
HETATM   16  S2  UNL     1      -1.982  -1.076   1.700  1.00  0.00    -0.109 SA
BRANCH  16  17
HETATM   17  C5  UNL     1      -0.737  -2.229   1.091  1.00  0.00     0.183 C 
BRANCH  17  18
HETATM   18  C6  UNL     1       0.332  -1.628   0.305  1.00  0.00     0.245 C 
HETATM   19  O1  UNL     1       1.205  -0.946   0.944  1.00  0.00    -0.272 OA
HETATM   20  N6  UNL     1       0.516  -1.716  -1.097  1.00  0.00    -0.160 N 
HETATM   21  C7  UNL     1       1.582  -1.100  -1.784  1.00  0.00     0.674 C 
ATOM     22  H6  UNL     1      -0.160  -2.254  -1.639  1.00  0.00     0.187 HD
HETATM   23  N7  UNL     1       1.709  -1.207  -3.055  1.00  0.00    -0.235 N 
HETATM   24  N8  UNL     1       2.582  -0.320  -1.095  1.00  0.00    -0.222 N 
ATOM     25  H72 UNL     1       1.002  -1.758  -3.542  1.00  0.00     0.174 HD
ATOM     26  H71 UNL     1       2.480  -0.761  -3.552  1.00  0.00     0.174 HD
ATOM     27  H8  UNL     1       2.405   0.638  -0.792  1.00  0.00     0.178 HD
BRANCH  24  28
HETATM   28  C8  UNL     1       3.829  -0.963  -0.862  1.00  0.00     0.184 C 
BRANCH  28  29
HETATM   29  C9  UNL     1       4.776  -0.065  -0.140  1.00  0.00     0.001 A 
HETATM   30  C10 UNL     1       4.666   1.233   0.269  1.00  0.00     0.017 A 
HETATM   31  C11 UNL     1       5.708   1.775   0.908  1.00  0.00     0.008 A 
HETATM   32  C12 UNL     1       6.811   0.986   1.104  1.00  0.00     0.050 A 
HETATM   33  S3  UNL     1       6.348  -0.492   0.385  1.00  0.00    -0.105 SA
ENDBRANCH  28  29
ENDBRANCH  24  28
ENDBRANCH  17  18
ENDBRANCH  16  17
ENDBRANCH  12  16
ENDBRANCH   5   7
ENDBRANCH   3   5
TORSDOF 8
