REMARK  4 active torsions:
REMARK  status: ('A' for Active; 'I' for Inactive)
REMARK    1  A    between atoms: C2_5  and  N3_6 
REMARK    2  A    between atoms: N3_6  and  N4_8 
REMARK    3  A    between atoms: N5_10  and  C3_12 
REMARK    4  A    between atoms: C5_14  and  N6_15 
ROOT
HETATM    1  N1  UNL     1       4.924   0.088  -1.373  1.00  0.00    -0.172 NA
HETATM    2  C1  UNL     1       4.574   0.006  -0.272  1.00  0.00     0.182 C 
HETATM    3  N2  UNL     1       4.163  -0.081   1.058  1.00  0.00    -0.288 N 
ATOM      4  H2  UNL     1       4.731   0.343   1.791  1.00  0.00     0.178 HD
HETATM    5  C2  UNL     1       3.074  -0.691   1.368  1.00  0.00     0.208 C 
ENDROOT
BRANCH   5   6
HETATM    6  N3  UNL     1       2.301  -1.272   0.339  1.00  0.00    -0.281 N 
ATOM      7  H3  UNL     1       2.736  -1.870  -0.364  1.00  0.00     0.189 HD
BRANCH   6   8
HETATM    8  N4  UNL     1       0.934  -1.012   0.303  1.00  0.00    -0.240 N 
HETATM    9  N5  UNL     1       0.498   0.162   0.091  1.00  0.00    -0.270 N 
ATOM     10  H5  UNL     1       1.126   0.951  -0.060  1.00  0.00     0.190 HD
ATOM     11  H4  UNL     1       0.273  -1.775   0.449  1.00  0.00     0.208 HD
BRANCH   9  12
HETATM   12  C3  UNL     1      -0.933   0.315   0.076  1.00  0.00     0.139 A 
HETATM   13  C4  UNL     1      -1.657   1.178  -0.709  1.00  0.00     0.100 A 
HETATM   14  C5  UNL     1      -2.979   0.980  -0.388  1.00  0.00     0.117 A 
HETATM   15  N7  UNL     1      -3.009   0.011   0.574  1.00  0.00    -0.284 N 
HETATM   16  N8  UNL     1      -1.789  -0.382   0.847  1.00  0.00    -0.283 N 
ATOM     17  H7  UNL     1      -3.854  -0.352   1.014  1.00  0.00     0.188 HD
ATOM     18  H8  UNL     1      -1.531  -1.096   1.529  1.00  0.00     0.188 HD
BRANCH  14  19
HETATM   19  N6  UNL     1      -3.998   1.579  -0.884  1.00  0.00    -0.384 N 
ATOM     20  H62 UNL     1      -3.976   2.303  -1.602  1.00  0.00     0.157 HD
ATOM     21  H61 UNL     1      -4.979   1.432  -0.646  1.00  0.00     0.157 HD
ENDBRANCH  14  19
ENDBRANCH   9  12
ENDBRANCH   6   8
ENDBRANCH   5   6
TORSDOF 4
