REMARK  3 active torsions:
REMARK  status: ('A' for Active; 'I' for Inactive)
REMARK    1  A    between atoms: N1_5  and  O1_7 
REMARK    2  A    between atoms: C5_9  and  N2_10 
REMARK    3  A    between atoms: C13_24  and  O3_25 
ROOT
HETATM    1  C1  UNL     1       1.642   2.813   0.776  1.00  0.00     0.036 C 
HETATM    2  C2  UNL     1       1.578   1.871  -0.333  1.00  0.00    -0.019 C 
HETATM    3  C3  UNL     1       1.115   0.640  -0.303  1.00  0.00     0.003 C 
HETATM    4  C4  UNL     1       1.173  -0.093  -1.591  1.00  0.00     0.090 C 
HETATM    5  N1  UNL     1       2.045   0.429  -2.395  1.00  0.00    -0.269 N 
ATOM      6  H1  UNL     1       2.585   1.243  -2.103  1.00  0.00     0.194 HD
HETATM    7  C5  UNL     1       0.483  -1.243  -2.144  1.00  0.00     0.331 C 
HETATM    8  N3  UNL     1      -0.452  -1.949  -1.425  1.00  0.00    -0.384 N 
ATOM      9  H3  UNL     1      -0.897  -2.759  -1.858  1.00  0.00     0.156 HD
HETATM   10  C6  UNL     1      -0.816  -1.595  -0.117  1.00  0.00     0.113 C 
HETATM   11  C7  UNL     1      -1.770  -0.422  -0.169  1.00  0.00     0.064 C 
HETATM   12  C8  UNL     1      -1.718   0.361   1.096  1.00  0.00     0.057 C 
HETATM   13  C9  UNL     1      -2.586   1.610   0.888  1.00  0.00     0.045 C 
HETATM   14  C10 UNL     1      -2.411  -0.425   2.210  1.00  0.00     0.045 C 
HETATM   15  O2  UNL     1      -0.481   0.781   1.467  1.00  0.00    -0.363 OA
HETATM   16  C11 UNL     1       0.588   0.079   0.959  1.00  0.00     0.115 C 
HETATM   17  C12 UNL     1       1.714   0.191   2.000  1.00  0.00     0.054 C 
HETATM   18  C13 UNL     1       0.312  -1.407   0.848  1.00  0.00     0.179 C 
ENDROOT
BRANCH   5  19
HETATM   19  O1  UNL     1       2.240  -0.113  -3.635  1.00  0.00    -0.290 OA
ATOM     20  H1  UNL     1       2.879   0.270  -4.224  1.00  0.00     0.244 HD
ENDBRANCH   5  19
BRANCH   7  21
HETATM   21  N2  UNL     1      -0.137  -0.793  -3.405  1.00  0.00    -0.053 N 
ATOM     22  H23 UNL     1      -0.739   0.023  -3.291  1.00  0.00     0.277 HD
ATOM     23  H22 UNL     1       0.527  -0.370  -4.053  1.00  0.00     0.277 HD
ATOM     24  H21 UNL     1      -0.622  -1.602  -3.794  1.00  0.00     0.277 HD
ENDBRANCH   7  21
BRANCH  18  25
HETATM   25  O3  UNL     1       1.479  -1.970   0.280  1.00  0.00    -0.390 OA
ATOM     26  H3  UNL     1       2.195  -1.851   0.893  1.00  0.00     0.210 HD
ENDBRANCH  18  25
TORSDOF 3
