REMARK  9 active torsions:
REMARK  status: ('A' for Active; 'I' for Inactive)
REMARK    1  A    between atoms: C4_4  and  C5_5 
REMARK    2  A    between atoms: C5_5  and  C6_6 
REMARK    3  A    between atoms: C15_17  and  C16_18 
REMARK    4  A    between atoms: C16_18  and  C17_19 
REMARK    5  A    between atoms: C18_20  and  C19_21 
REMARK    6  A    between atoms: C19_21  and  C20_22 
REMARK    7  A    between atoms: C20_22  and  C21_23 
REMARK    8  A    between atoms: C21_23  and  C22_25 
REMARK    9  A    between atoms: C22_25  and  C23_26 
ROOT
HETATM    1  C17 UNL     1       1.571  -0.796   0.877  1.00  0.00     0.047 A 
HETATM    2  C18 UNL     1       1.899   0.437   1.355  1.00  0.00     0.027 A 
HETATM    3  C26 UNL     1       2.254   0.546   2.706  1.00  0.00     0.267 A 
HETATM    4  O2  UNL     1       2.560   1.678   3.176  1.00  0.00    -0.266 OA
HETATM    5  N2  UNL     1       2.256  -0.553   3.443  1.00  0.00    -0.263 N 
ATOM      6  H2  UNL     1       2.516  -0.474   4.426  1.00  0.00     0.190 HD
HETATM    7  N3  UNL     1       1.938  -1.755   2.972  1.00  0.00    -0.263 N 
ATOM      8  H3  UNL     1       1.958  -2.566   3.591  1.00  0.00     0.190 HD
HETATM    9  C27 UNL     1       1.592  -1.903   1.689  1.00  0.00     0.270 A 
HETATM   10  O3  UNL     1       1.281  -3.060   1.218  1.00  0.00    -0.266 OA
ENDROOT
BRANCH   1  11
HETATM   11  C16 UNL     1       1.095  -0.948  -0.514  1.00  0.00     0.048 C 
BRANCH  11  12
HETATM   12  C15 UNL     1      -0.207  -1.188  -0.732  1.00  0.00     0.043 A 
HETATM   13  C2  UNL     1      -0.768  -1.346  -1.968  1.00  0.00    -0.017 A 
HETATM   14  C1  UNL     1      -0.144  -1.270  -3.121  1.00  0.00     0.026 C 
HETATM   15  C3  UNL     1      -2.103  -1.592  -1.766  1.00  0.00     0.042 A 
HETATM   16  C4  UNL     1      -2.362  -1.586  -0.388  1.00  0.00     0.034 A 
HETATM   17  N1  UNL     1      -1.183  -1.336   0.189  1.00  0.00    -0.356 N 
ATOM     18  H1  UNL     1      -1.039  -1.266   1.196  1.00  0.00     0.166 HD
BRANCH  16  19
HETATM   19  C5  UNL     1      -3.696  -1.825   0.148  1.00  0.00     0.041 C 
BRANCH  19  20
HETATM   20  C6  UNL     1      -4.605  -0.867   0.184  1.00  0.00    -0.024 A 
HETATM   21  C7  UNL     1      -4.280   0.396  -0.303  1.00  0.00     0.019 A 
HETATM   22  C8  UNL     1      -5.205   1.411  -0.314  1.00  0.00    -0.061 A 
HETATM   23  C9  UNL     1      -4.909   2.775  -0.814  1.00  0.00     0.048 C 
HETATM   24  C10 UNL     1      -6.482   1.186   0.161  1.00  0.00     0.014 A 
HETATM   25  C11 UNL     1      -6.847  -0.051   0.651  1.00  0.00    -0.051 A 
HETATM   26  C12 UNL     1      -8.244  -0.288   1.149  1.00  0.00     0.049 C 
HETATM   27  C13 UNL     1      -5.879  -1.057   0.649  1.00  0.00    -0.029 A 
HETATM   28  C14 UNL     1      -6.260  -2.215   1.141  1.00  0.00     0.025 C 
ENDBRANCH  19  20
ENDBRANCH  16  19
ENDBRANCH  11  12
ENDBRANCH   1  11
BRANCH   2  29
HETATM   29  C19 UNL     1       2.002   1.687   0.552  1.00  0.00     0.053 C 
BRANCH  29  30
HETATM   30  C20 UNL     1       3.340   2.041   0.043  1.00  0.00     0.083 C 
BRANCH  30  31
HETATM   31  C21 UNL     1       4.078   1.128  -0.818  1.00  0.00     0.127 C 
HETATM   32  O1  UNL     1       3.767   0.988  -1.983  1.00  0.00    -0.298 OA
BRANCH  31  33
HETATM   33  C22 UNL     1       5.240   0.359  -0.255  1.00  0.00     0.082 C 
BRANCH  33  34
HETATM   34  C23 UNL     1       6.569   0.972  -0.611  1.00  0.00    -0.016 C 
HETATM   35  C24 UNL     1       7.688   0.134   0.038  1.00  0.00     0.010 C 
HETATM   36  C25 UNL     1       6.874   0.923  -2.095  1.00  0.00     0.010 C 
ENDBRANCH  33  34
ENDBRANCH  31  33
ENDBRANCH  30  31
ENDBRANCH  29  30
ENDBRANCH   2  29
TORSDOF 9
