REMARK  6 active torsions:
REMARK  status: ('A' for Active; 'I' for Inactive)
REMARK    1  A    between atoms: N1_1  and  C1_4 
REMARK    2  A    between atoms: N4_13  and  C5_14 
REMARK    3  A    between atoms: C5_14  and  C6_15 
REMARK    4  A    between atoms: C6_15  and  N5_16 
REMARK    5  A    between atoms: C6_15  and  C7_20 
REMARK    6  A    between atoms: C9_26  and  N8_27 
ROOT
HETATM    1  C1  UNL     1       3.491   0.654   0.573  1.00  0.00     0.146 C 
HETATM    2  N2  UNL     1       3.802  -0.643   0.484  1.00  0.00    -0.305 N 
ATOM      3  H2  UNL     1       4.763  -0.877   0.733  1.00  0.00     0.171 HD
HETATM    4  C2  UNL     1       3.030  -1.696   0.112  1.00  0.00     0.277 C 
HETATM    5  O1  UNL     1       3.534  -2.837   0.145  1.00  0.00    -0.265 OA
HETATM    6  C3  UNL     1       1.709  -1.681  -0.315  1.00  0.00     0.146 A 
HETATM    7  N3  UNL     1       1.041  -2.665  -0.900  1.00  0.00    -0.345 N 
ATOM      8  H3  UNL     1       1.410  -3.589  -1.123  1.00  0.00     0.167 HD
HETATM    9  C4  UNL     1      -0.217  -2.230  -1.151  1.00  0.00     0.185 A 
HETATM   10  N4  UNL     1      -0.355  -0.972  -0.729  1.00  0.00    -0.325 N 
HETATM   11  C8  UNL     1       0.834  -0.600  -0.200  1.00  0.00     0.143 A 
HETATM   12  N7  UNL     1       1.090   0.612   0.334  1.00  0.00    -0.324 N 
ATOM     13  H7  UNL     1       0.255   1.164   0.533  1.00  0.00     0.169 HD
HETATM   14  C9  UNL     1       2.232   1.222   0.650  1.00  0.00     0.145 C 
ENDROOT
BRANCH  10  15
HETATM   15  C5  UNL     1      -1.493  -0.114  -0.783  1.00  0.00     0.173 C 
BRANCH  15  16
HETATM   16  C6  UNL     1      -2.387  -0.204   0.425  1.00  0.00     0.290 C 
BRANCH  16  17
HETATM   17  N5  UNL     1      -2.923  -1.525   0.637  1.00  0.00    -0.065 N 
ATOM     18  H53 UNL     1      -3.405  -1.859  -0.197  1.00  0.00     0.275 HD
ATOM     19  H52 UNL     1      -2.175  -2.217   0.687  1.00  0.00     0.275 HD
ATOM     20  H51 UNL     1      -3.529  -1.586   1.455  1.00  0.00     0.275 HD
ENDBRANCH  16  17
BRANCH  16  21
HETATM   21  C7  UNL     1      -3.483   0.762   0.230  1.00  0.00     0.263 C 
HETATM   22  N6  UNL     1      -3.180   2.119   0.006  1.00  0.00    -0.060 NA
HETATM   23  O2  UNL     1      -4.669   0.390   0.261  1.00  0.00    -0.275 OA
ENDBRANCH  16  21
ENDBRANCH  15  16
ENDBRANCH  10  15
BRANCH  14  24
HETATM   24  N8  UNL     1       2.144   2.441   1.059  1.00  0.00    -0.382 N 
ATOM     25  H82 UNL     1       3.018   2.908   1.301  1.00  0.00     0.157 HD
ATOM     26  H81 UNL     1       1.216   2.860   1.116  1.00  0.00     0.157 HD
ENDBRANCH  14  24
BRANCH   1  27
HETATM   27  N1  UNL     1       4.457   1.492   0.589  1.00  0.00    -0.382 N 
ATOM     28  H12 UNL     1       5.385   1.073   0.532  1.00  0.00     0.157 HD
ATOM     29  H11 UNL     1       4.220   2.482   0.657  1.00  0.00     0.157 HD
ENDBRANCH   1  27
TORSDOF 6
