REMARK  5 active torsions:
REMARK  status: ('A' for Active; 'I' for Inactive)
REMARK       I    between atoms: N1_1  and  C1_4 
REMARK       I    between atoms: C1_4  and  N3_6 
REMARK    1  A    between atoms: N3_6  and  N4_8 
REMARK    2  A    between atoms: N4_8  and  C2_10 
REMARK    3  A    between atoms: C2_10  and  C3_11 
REMARK    4  A    between atoms: C4_14  and  C5_15 
REMARK       I    between atoms: C5_15  and  N6_17 
REMARK    5  A    between atoms: N6_17  and  N7_19 
REMARK       I    between atoms: N7_19  and  C6_21 
ROOT
HETATM    1  C3  UNL     1      -1.588   0.120   0.195  1.00  0.00     0.189 A 
HETATM    2  N5  UNL     1      -0.249   0.219   0.465  1.00  0.00    -0.314 N 
ATOM      3  H5  UNL     1       0.228  -0.220   1.253  1.00  0.00     0.170 HD
HETATM    4  C4  UNL     1       0.337   0.984  -0.470  1.00  0.00     0.198 A 
HETATM    5  N9  UNL     1      -0.675   1.346  -1.309  1.00  0.00    -0.238 N 
ATOM      6  H9  UNL     1      -0.578   1.935  -2.136  1.00  0.00     0.197 HD
HETATM    7  O3  UNL     1      -1.793   0.814  -0.880  1.00  0.00    -0.216 OA
ENDROOT
BRANCH   1   8
HETATM    8  C2  UNL     1      -2.550  -0.646   1.015  1.00  0.00     0.165 C 
BRANCH   8   9
HETATM    9  N4  UNL     1      -2.198  -1.294   2.061  1.00  0.00    -0.305 N 
ATOM     10  H4  UNL     1      -1.224  -1.301   2.365  1.00  0.00     0.186 HD
BRANCH   9  11
HETATM   11  N3  UNL     1      -3.170  -1.991   2.778  1.00  0.00    -0.274 N 
HETATM   12  C1  UNL     1      -3.040  -3.338   3.149  1.00  0.00     0.200 C 
HETATM   13  N1  UNL     1      -2.075  -3.698   3.903  1.00  0.00    -0.372 N 
HETATM   14  N2  UNL     1      -3.972  -4.294   2.691  1.00  0.00    -0.062 NA
ATOM     15  H12 UNL     1      -1.981  -4.677   4.173  1.00  0.00     0.158 HD
ATOM     16  H11 UNL     1      -1.402  -3.007   4.234  1.00  0.00     0.158 HD
ATOM     17  H3  UNL     1      -4.020  -1.496   3.047  1.00  0.00     0.189 HD
ENDBRANCH   9  11
ENDBRANCH   8   9
ENDBRANCH   1   8
BRANCH   4  18
HETATM   18  C5  UNL     1       1.742   1.389  -0.624  1.00  0.00     0.305 C 
HETATM   19  O1  UNL     1       2.575   1.019   0.229  1.00  0.00    -0.263 OA
HETATM   20  N6  UNL     1       2.140   2.176  -1.711  1.00  0.00    -0.260 N 
ATOM     21  H6  UNL     1       1.453   2.474  -2.403  1.00  0.00     0.190 HD
BRANCH  20  22
HETATM   22  N7  UNL     1       3.490   2.557  -1.850  1.00  0.00    -0.251 N 
HETATM   23  C6  UNL     1       3.942   2.861  -3.168  1.00  0.00     0.347 C 
HETATM   24  N8  UNL     1       5.238   3.250  -3.441  1.00  0.00    -0.038 NA
HETATM   25  O2  UNL     1       3.068   2.753  -4.098  1.00  0.00    -0.249 OA
ATOM     26  H7  UNL     1       4.114   2.613  -1.045  1.00  0.00     0.191 HD
ENDBRANCH  20  22
ENDBRANCH   4  18
TORSDOF 5
