REMARK  11 active torsions:
REMARK  status: ('A' for Active; 'I' for Inactive)
REMARK    1  A    between atoms: N2_5  and  C3_6 
REMARK    2  A    between atoms: C4_7  and  O1_8 
REMARK    3  A    between atoms: C6_11  and  S1_12 
REMARK    4  A    between atoms: S1_12  and  N3_13 
REMARK    5  A    between atoms: S1_12  and  N4_17 
REMARK    6  A    between atoms: N4_17  and  C7_19 
REMARK    7  A    between atoms: C7_19  and  C8_20 
REMARK    8  A    between atoms: C10_22  and  O3_23 
REMARK    9  A    between atoms: C10_22  and  C11_25 
REMARK   10  A    between atoms: C16_34  and  N7_35 
REMARK   11  A    between atoms: C18_42  and  N9_43 
ROOT
HETATM    1  C3  UNL     1       3.891   0.043   0.272  1.00  0.00     0.127 A 
HETATM    2  C4  UNL     1       3.711  -1.273   0.643  1.00  0.00     0.098 A 
HETATM    3  C5  UNL     1       2.438  -1.865   0.655  1.00  0.00     0.062 A 
HETATM    4  C6  UNL     1       1.403  -1.087   0.288  1.00  0.00     0.063 A 
HETATM    5  C15 UNL     1       1.506   0.198  -0.084  1.00  0.00     0.062 A 
HETATM    6  C16 UNL     1       2.784   0.777  -0.091  1.00  0.00     0.136 A 
ENDROOT
BRANCH   4   7
HETATM    7  S1  UNL     1      -0.404  -1.879   0.250  1.00  0.00     0.133 S 
HETATM    8  O2  UNL     1      -0.692  -3.507   0.763  1.00  0.00    -0.224 OA
BRANCH   7   9
HETATM    9  N3  UNL     1      -0.130  -2.395  -1.423  1.00  0.00    -0.341 N 
ATOM     10  H32 UNL     1       0.645  -2.311  -2.081  1.00  0.00     0.167 HD
ATOM     11  H31 UNL     1      -1.064  -2.804  -1.443  1.00  0.00     0.167 HD
ENDBRANCH   7   9
BRANCH   7  12
HETATM   12  N4  UNL     1      -1.778  -0.714  -0.239  1.00  0.00    -0.330 N 
ATOM     13  H4  UNL     1      -1.651   0.260  -0.513  1.00  0.00     0.170 HD
BRANCH  12  14
HETATM   14  C7  UNL     1      -3.020  -1.385  -0.173  1.00  0.00     0.166 C 
BRANCH  14  15
HETATM   15  C8  UNL     1      -4.161  -0.446  -0.570  1.00  0.00     0.245 C 
HETATM   16  C9  UNL     1      -4.240   0.736   0.326  1.00  0.00     0.093 C 
HETATM   17  C10 UNL     1      -5.610   1.099   0.799  1.00  0.00     0.200 C 
HETATM   18  C12 UNL     1      -6.502  -0.071   0.981  1.00  0.00     0.198 C 
HETATM   19  O5  UNL     1      -7.615  -0.020   1.462  1.00  0.00    -0.292 OA
HETATM   20  C13 UNL     1      -5.999  -1.401   0.542  1.00  0.00     0.354 C 
HETATM   21  N6  UNL     1      -5.374  -1.170  -0.744  1.00  0.00     0.097 N 
HETATM   22  C14 UNL     1      -5.161  -2.367  -1.490  1.00  0.00     0.310 C 
BRANCH  17  23
HETATM   23  O3  UNL     1      -5.562   1.765   2.023  1.00  0.00    -0.373 OA
ATOM     24  H3  UNL     1      -6.433   1.996   2.324  1.00  0.00     0.211 HD
ENDBRANCH  17  23
BRANCH  17  25
HETATM   25  C11 UNL     1      -6.277   2.007  -0.167  1.00  0.00     0.273 C 
HETATM   26  N5  UNL     1      -6.734   3.292   0.223  1.00  0.00    -0.059 NA
HETATM   27  O4  UNL     1      -6.447   1.644  -1.360  1.00  0.00    -0.273 OA
ENDBRANCH  17  25
ENDBRANCH  14  15
ENDBRANCH  12  14
ENDBRANCH   7  12
ENDBRANCH   4   7
BRANCH   2  28
HETATM   28  O1  UNL     1       4.812  -2.022   1.010  1.00  0.00    -0.358 OA
ATOM     29  H1  UNL     1       4.688  -2.929   1.266  1.00  0.00     0.217 HD
ENDBRANCH   2  28
BRANCH   6  30
HETATM   30  N7  UNL     1       2.959   2.126  -0.470  1.00  0.00    -0.113 N 
HETATM   31  O6  UNL     1       2.042   2.952  -0.309  1.00  0.00    -0.532 OA
HETATM   32  O7  UNL     1       4.131   2.561  -1.019  1.00  0.00    -0.532 OA
ENDBRANCH   6  30
BRANCH   1  33
HETATM   33  N2  UNL     1       5.220   0.547   0.294  1.00  0.00    -0.200 N 
HETATM   34  N1  UNL     1       6.073   0.305  -0.694  1.00  0.00    -0.290 N 
HETATM   35  C2  UNL     1       7.319   0.766  -0.679  1.00  0.00     0.066 A 
ATOM     36  H1  UNL     1       5.762  -0.252  -1.490  1.00  0.00     0.187 HD
HETATM   37  C1  UNL     1       8.296   0.501  -1.790  1.00  0.00     0.074 C 
HETATM   38  C18 UNL     1       7.717   1.518   0.407  1.00  0.00     0.127 A 
HETATM   39  N8  UNL     1       6.860   1.764   1.404  1.00  0.00    -0.292 N 
HETATM   40  C17 UNL     1       5.626   1.287   1.354  1.00  0.00     0.347 A 
ATOM     41  H8  UNL     1       7.158   2.321   2.205  1.00  0.00     0.172 HD
HETATM   42  O8  UNL     1       4.769   1.492   2.278  1.00  0.00    -0.245 OA
BRANCH  38  43
HETATM   43  N9  UNL     1       8.924   2.014   0.506  1.00  0.00    -0.384 N 
ATOM     44  H92 UNL     1       9.578   1.826  -0.254  1.00  0.00     0.157 HD
ATOM     45  H91 UNL     1       9.218   2.570   1.309  1.00  0.00     0.157 HD
ENDBRANCH  38  43
ENDBRANCH   1  33
TORSDOF 11
