REMARK  11 active torsions:
REMARK  status: ('A' for Active; 'I' for Inactive)
REMARK    1  A    between atoms: S1_2  and  C2_3 
REMARK    2  A    between atoms: C3_6  and  C4_7 
REMARK    3  A    between atoms: N3_10  and  C5_11 
REMARK    4  A    between atoms: C8_14  and  S2_15 
REMARK    5  A    between atoms: S2_15  and  N4_16 
REMARK    6  A    between atoms: C11_25  and  C12_26 
REMARK    7  A    between atoms: N8_32  and  C14_34 
REMARK    8  A    between atoms: C14_34  and  C15_35 
REMARK    9  A    between atoms: C16_38  and  C17_39 
REMARK   10  A    between atoms: C17_39  and  N11_43 
REMARK   11  A    between atoms: N11_43  and  N12_45 
ROOT
HETATM    1  C2  UNL     1      -3.053  -0.114   2.301  1.00  0.00     0.088 A 
HETATM    2  N1  UNL     1      -1.748  -0.386   2.258  1.00  0.00    -0.334 N 
ATOM      3  H1  UNL     1      -1.344  -0.867   3.062  1.00  0.00     0.168 HD
HETATM    4  C3  UNL     1      -0.934  -0.084   1.261  1.00  0.00     0.139 A 
HETATM    5  N7  UNL     1      -1.471   0.565   0.173  1.00  0.00    -0.326 N 
ATOM      6  H7  UNL     1      -0.879   0.817  -0.618  1.00  0.00     0.169 HD
HETATM    7  C13 UNL     1      -2.785   0.866   0.160  1.00  0.00     0.120 A 
HETATM    8  N8  UNL     1      -3.329   1.468  -0.829  1.00  0.00    -0.367 N 
ATOM      9  H8  UNL     1      -4.329   1.658  -0.763  1.00  0.00     0.161 HD
HETATM   10  C16 UNL     1      -3.616   0.535   1.225  1.00  0.00     0.086 A 
ENDROOT
BRANCH   4  11
HETATM   11  C4  UNL     1       0.488  -0.368   1.189  1.00  0.00     0.127 A 
HETATM   12  N2  UNL     1       1.291  -0.025   0.116  1.00  0.00    -0.273 N 
HETATM   13  N3  UNL     1       2.526  -0.405   0.328  1.00  0.00    -0.196 N 
ATOM     14  H2  UNL     1       0.967   0.456  -0.723  1.00  0.00     0.189 HD
HETATM   15  N5  UNL     1       2.569  -0.984   1.499  1.00  0.00    -0.272 N 
HETATM   16  C11 UNL     1       1.306  -0.983   2.078  1.00  0.00     0.147 A 
ATOM     17  H5  UNL     1       3.407  -1.379   1.925  1.00  0.00     0.189 HD
BRANCH  13  18
HETATM   18  C5  UNL     1       3.664  -0.238  -0.540  1.00  0.00     0.075 A 
HETATM   19  C6  UNL     1       3.962   0.982  -1.077  1.00  0.00     0.035 A 
HETATM   20  C7  UNL     1       5.066   1.116  -1.911  1.00  0.00     0.027 A 
HETATM   21  C8  UNL     1       5.846   0.018  -2.188  1.00  0.00     0.079 A 
HETATM   22  C9  UNL     1       5.574  -1.234  -1.662  1.00  0.00     0.027 A 
HETATM   23  C10 UNL     1       4.469  -1.321  -0.838  1.00  0.00     0.035 A 
BRANCH  21  24
HETATM   24  S2  UNL     1       7.258   0.148  -3.243  1.00  0.00     0.256 S 
HETATM   25  O1  UNL     1       7.012   1.243  -4.245  1.00  0.00    -0.201 OA
HETATM   26  O2  UNL     1       7.492  -1.163  -3.927  1.00  0.00    -0.201 OA
BRANCH  24  27
HETATM   27  N4  UNL     1       8.598   0.529  -2.215  1.00  0.00    -0.324 N 
ATOM     28  H42 UNL     1       8.564   0.651  -1.203  1.00  0.00     0.169 HD
ATOM     29  H41 UNL     1       9.413   0.604  -2.824  1.00  0.00     0.169 HD
ENDBRANCH  24  27
ENDBRANCH  21  24
ENDBRANCH  13  18
BRANCH  16  30
HETATM   30  C12 UNL     1       1.015  -1.546   3.370  1.00  0.00     0.285 C 
HETATM   31  N6  UNL     1       2.121  -2.147   4.096  1.00  0.00    -0.056 NA
HETATM   32  O3  UNL     1      -0.058  -1.591   3.957  1.00  0.00    -0.269 OA
ENDBRANCH  16  30
ENDBRANCH   4  11
BRANCH   1  33
HETATM   33  S1  UNL     1      -4.028  -0.577   3.701  1.00  0.00    -0.116 SA
HETATM   34  C1  UNL     1      -4.677  -2.248   3.432  1.00  0.00     0.097 C 
ENDBRANCH   1  33
BRANCH  10  35
HETATM   35  C17 UNL     1      -5.033   0.877   1.175  1.00  0.00     0.130 C 
HETATM   36  N10 UNL     1      -5.751   0.538   2.206  1.00  0.00    -0.384 N 
ATOM     37 2H10 UNL     1      -5.313   0.058   2.992  1.00  0.00     0.157 HD
ATOM     38 1H10 UNL     1      -6.742   0.777   2.171  1.00  0.00     0.157 HD
BRANCH  35  39
HETATM   39  N11 UNL     1      -5.639   1.542   0.087  1.00  0.00    -0.292 N 
ATOM     40  H11 UNL     1      -5.523   2.549  -0.030  1.00  0.00     0.188 HD
BRANCH  39  41
HETATM   41  N12 UNL     1      -6.396   0.811  -0.825  1.00  0.00    -0.344 N 
ATOM     42 2H12 UNL     1      -6.502  -0.195  -0.694  1.00  0.00     0.176 HD
ATOM     43 1H12 UNL     1      -6.834   1.291  -1.611  1.00  0.00     0.176 HD
ENDBRANCH  39  41
ENDBRANCH  35  39
ENDBRANCH  10  35
BRANCH   8  44
HETATM   44  C14 UNL     1      -2.662   1.899  -2.021  1.00  0.00     0.220 C 
BRANCH  44  45
HETATM   45  C15 UNL     1      -2.509   0.756  -2.973  1.00  0.00     0.248 C 
HETATM   46  N9  UNL     1      -3.008  -0.519  -2.604  1.00  0.00    -0.061 NA
HETATM   47  O4  UNL     1      -1.955   0.895  -4.083  1.00  0.00    -0.275 OA
ENDBRANCH  44  45
ENDBRANCH   8  44
TORSDOF 11
