REMARK  9 active torsions:
REMARK  status: ('A' for Active; 'I' for Inactive)
REMARK    1  A    between atoms: N1_2  and  C2_4 
REMARK    2  A    between atoms: C3_7  and  N3_8 
REMARK    3  A    between atoms: N3_8  and  C5_10 
REMARK    4  A    between atoms: C5_10  and  C6_11 
REMARK    5  A    between atoms: C6_11  and  O1_12 
REMARK    6  A    between atoms: C6_11  and  C7_14 
REMARK    7  A    between atoms: C7_14  and  O2_15 
REMARK    8  A    between atoms: C8_17  and  C9_18 
REMARK    9  A    between atoms: C10_27  and  N8_28 
ROOT
HETATM    1  C2  UNL     1      -2.522   1.529   0.286  1.00  0.00     0.680 A 
HETATM    2  N2  UNL     1      -1.205   1.567   0.216  1.00  0.00    -0.176 N 
ATOM      3  H2  UNL     1      -0.752   2.470   0.355  1.00  0.00     0.186 HD
HETATM    4  C3  UNL     1      -0.396   0.484  -0.030  1.00  0.00     0.136 A 
HETATM    5  C8  UNL     1      -1.008  -0.716  -0.214  1.00  0.00     0.099 A 
HETATM    6  C10 UNL     1      -2.419  -0.734  -0.135  1.00  0.00     0.134 A 
HETATM    7  N9  UNL     1      -3.153   0.346   0.106  1.00  0.00    -0.176 N 
ATOM      8  H9  UNL     1      -4.170   0.285   0.154  1.00  0.00     0.186 HD
ENDROOT
BRANCH   4   9
HETATM    9  N3  UNL     1       1.029   0.713  -0.081  1.00  0.00    -0.368 N 
HETATM   10  C4  UNL     1       1.442   1.553  -1.200  1.00  0.00     0.151 C 
BRANCH   9  11
HETATM   11  C5  UNL     1       1.978   0.254   0.872  1.00  0.00     0.157 C 
BRANCH  11  12
HETATM   12  C6  UNL     1       3.038  -0.696   0.434  1.00  0.00     0.159 C 
BRANCH  12  13
HETATM   13  O1  UNL     1       3.842  -1.075   1.564  1.00  0.00    -0.392 OA
ATOM     14  H1  UNL     1       4.518  -1.681   1.285  1.00  0.00     0.210 HD
ENDBRANCH  12  13
BRANCH  12  15
HETATM   15  C7  UNL     1       4.079  -0.114  -0.518  1.00  0.00     0.197 C 
BRANCH  15  16
HETATM   16  O2  UNL     1       4.790   0.932   0.006  1.00  0.00    -0.398 OA
ATOM     17  H2  UNL     1       5.438   1.294  -0.587  1.00  0.00     0.209 HD
ENDBRANCH  15  16
ENDBRANCH  12  15
ENDBRANCH  11  12
ENDBRANCH   9  11
ENDBRANCH   4   9
BRANCH   5  18
HETATM   18  C9  UNL     1      -0.312  -1.963  -0.456  1.00  0.00     0.155 A 
HETATM   19  N4  UNL     1      -0.007  -2.875   0.471  1.00  0.00    -0.268 N 
HETATM   20  N5  UNL     1       0.614  -3.862  -0.101  1.00  0.00    -0.227 N 
ATOM     21  H4  UNL     1      -0.226  -2.807   1.465  1.00  0.00     0.190 HD
HETATM   22  N6  UNL     1       0.715  -3.598  -1.388  1.00  0.00    -0.227 N 
ATOM     23  H5  UNL     1       0.964  -4.699   0.366  1.00  0.00     0.210 HD
HETATM   24  N7  UNL     1       0.136  -2.406  -1.624  1.00  0.00    -0.268 N 
ATOM     25  H6  UNL     1       1.157  -4.195  -2.087  1.00  0.00     0.210 HD
ATOM     26  H7  UNL     1       0.057  -1.935  -2.525  1.00  0.00     0.190 HD
ENDBRANCH   5  18
BRANCH   1  27
HETATM   27  N1  UNL     1      -3.224   2.571   0.512  1.00  0.00    -0.230 N 
HETATM   28  C1  UNL     1      -2.730   3.898   0.719  1.00  0.00     0.165 C 
ATOM     29  H1  UNL     1      -4.236   2.445   0.549  1.00  0.00     0.177 HD
ENDBRANCH   1  27
BRANCH   6  30
HETATM   30  N8  UNL     1      -2.973  -1.876  -0.310  1.00  0.00    -0.379 N 
HETATM   31  C11 UNL     1      -4.371  -2.150  -0.278  1.00  0.00     0.147 C 
ATOM     32  H8  UNL     1      -2.353  -2.666  -0.490  1.00  0.00     0.160 HD
ENDBRANCH   6  30
TORSDOF 9
