REMARK  11 active torsions:
REMARK  status: ('A' for Active; 'I' for Inactive)
REMARK    1  A    between atoms: C2_2  and  C4_4 
REMARK    2  A    between atoms: C4_4  and  C5_5 
REMARK    3  A    between atoms: C5_5  and  C6_6 
REMARK    4  A    between atoms: C5_5  and  C13_20 
REMARK       I    between atoms: C6_6  and  N1_8 
REMARK    5  A    between atoms: N1_8  and  C7_10 
REMARK    6  A    between atoms: C12_15  and  N2_16 
REMARK    7  A    between atoms: C13_20  and  N3_21 
REMARK    8  A    between atoms: C13_20  and  C16_27 
REMARK       I    between atoms: N3_21  and  C14_22 
REMARK    9  A    between atoms: C14_22  and  C15_24 
REMARK   10  A    between atoms: C15_24  and  O3_25 
REMARK   11  A    between atoms: C16_27  and  C17_29 
ROOT
HETATM    1  C13 UNL     1      -0.737  -1.459   0.801  1.00  0.00     0.172 C 
ENDROOT
BRANCH   1   2
HETATM    2  C5  UNL     1      -2.200  -1.197   0.321  1.00  0.00     0.073 C 
BRANCH   2   3
HETATM    3  C4  UNL     1      -2.604  -1.844  -0.951  1.00  0.00    -0.002 C 
BRANCH   3   4
HETATM    4  C2  UNL     1      -3.780  -2.675  -1.163  1.00  0.00     0.001 C 
HETATM    5  C1  UNL     1      -5.121  -1.928  -1.345  1.00  0.00     0.013 C 
HETATM    6  C3  UNL     1      -4.145  -3.596   0.028  1.00  0.00     0.013 C 
ENDBRANCH   3   4
ENDBRANCH   2   3
BRANCH   2   7
HETATM    7  C6  UNL     1      -3.117  -0.157   0.833  1.00  0.00     0.255 C 
HETATM    8  O1  UNL     1      -3.661   0.037   1.750  1.00  0.00    -0.268 OA
HETATM    9  N1  UNL     1      -3.353   0.929  -0.276  1.00  0.00    -0.350 N 
ATOM     10  H1  UNL     1      -2.797   1.072  -1.119  1.00  0.00     0.163 HD
BRANCH   9  11
HETATM   11  C7  UNL     1      -4.500   1.677   0.129  1.00  0.00     0.115 C 
HETATM   12  C8  UNL     1      -4.555   2.580   1.251  1.00  0.00     0.027 C 
HETATM   13  C9  UNL     1      -5.576   3.715   1.073  1.00  0.00     0.002 C 
HETATM   14  C10 UNL     1      -6.921   3.226   0.587  1.00  0.00     0.002 C 
HETATM   15  C11 UNL     1      -6.881   2.075  -0.359  1.00  0.00     0.035 C 
HETATM   16  C12 UNL     1      -5.512   1.933  -1.001  1.00  0.00     0.206 C 
BRANCH  16  17
HETATM   17  N2  UNL     1      -5.138   3.048  -1.831  1.00  0.00    -0.073 N 
ATOM     18  H23 UNL     1      -4.990   3.889  -1.273  1.00  0.00     0.274 HD
ATOM     19  H22 UNL     1      -4.195   2.930  -2.202  1.00  0.00     0.274 HD
ATOM     20  H21 UNL     1      -5.809   3.218  -2.580  1.00  0.00     0.274 HD
ENDBRANCH  16  17
ENDBRANCH   9  11
ENDBRANCH   2   7
ENDBRANCH   1   2
BRANCH   1  21
HETATM   21  N3  UNL     1      -0.731  -2.721   1.191  1.00  0.00    -0.361 NA
HETATM   22  C14 UNL     1      -0.732  -4.060   1.717  1.00  0.00     0.338 C 
HETATM   23  O2  UNL     1      -0.820  -4.057   2.953  1.00  0.00    -0.250 OA
BRANCH  22  24
HETATM   24  C15 UNL     1      -0.542  -5.163   0.813  1.00  0.00     0.221 C 
BRANCH  24  25
HETATM   25  O3  UNL     1      -1.243  -5.416  -0.314  1.00  0.00    -0.366 OA
ATOM     26  H3  UNL     1      -1.118  -6.144  -0.911  1.00  0.00     0.216 HD
ENDBRANCH  24  25
ENDBRANCH  22  24
ENDBRANCH   1  21
BRANCH   1  27
HETATM   27  C16 UNL     1       0.008  -0.387   0.158  1.00  0.00     0.195 C 
HETATM   28  O4  UNL     1       0.031  -0.211  -0.952  1.00  0.00    -0.289 OA
BRANCH  27  29
HETATM   29  C17 UNL     1       0.784   0.570   1.045  1.00  0.00     0.068 C 
HETATM   30  C18 UNL     1       1.205   0.086   2.390  1.00  0.00     0.013 C 
HETATM   31  C19 UNL     1       2.317  -0.967   2.238  1.00  0.00     0.006 C 
HETATM   32  C20 UNL     1       2.568  -0.918   0.808  1.00  0.00    -0.005 C 
HETATM   33  C21 UNL     1       2.218   0.561   0.489  1.00  0.00     0.002 C 
HETATM   34  C24 UNL     1       3.981  -0.934   0.305  1.00  0.00    -0.005 C 
HETATM   35  C22 UNL     1       2.462   0.525  -0.929  1.00  0.00     0.011 C 
HETATM   36  C23 UNL     1       3.910  -0.015  -0.879  1.00  0.00    -0.001 C 
HETATM   37  C32 UNL     1       4.933   0.989  -1.045  1.00  0.00    -0.033 C 
HETATM   38  C27 UNL     1       6.300   0.438  -0.672  1.00  0.00     0.020 C 
HETATM   39  C31 UNL     1       4.810   2.260  -0.268  1.00  0.00     0.018 C 
HETATM   40  C33 UNL     1       4.986   1.360  -2.526  1.00  0.00     0.016 C 
HETATM   41  C26 UNL     1       6.314  -0.112   0.733  1.00  0.00     0.010 C 
HETATM   42  C28 UNL     1       7.365   1.409  -0.853  1.00  0.00     0.029 C 
HETATM   43  C25 UNL     1       4.991  -0.521   1.305  1.00  0.00     0.006 C 
HETATM   44  C29 UNL     1       7.146   2.867  -0.979  1.00  0.00     0.146 C 
HETATM   45  O5  UNL     1       7.982   3.630  -1.157  1.00  0.00    -0.294 OA
HETATM   46  C30 UNL     1       5.710   3.294  -0.815  1.00  0.00     0.083 C 
ENDBRANCH  27  29
ENDBRANCH   1  27
TORSDOF 11
