REMARK  11 active torsions:
REMARK  status: ('A' for Active; 'I' for Inactive)
REMARK    1  A    between atoms: C2_2  and  C4_4 
REMARK    2  A    between atoms: C4_4  and  C5_5 
REMARK    3  A    between atoms: C5_5  and  N1_6 
REMARK    4  A    between atoms: C5_5  and  C27_31 
REMARK       I    between atoms: N1_6  and  C6_8 
REMARK    5  A    between atoms: C6_8  and  C7_10 
REMARK       I    between atoms: C27_31  and  N2_33 
REMARK    6  A    between atoms: N2_33  and  C28_35 
REMARK    7  A    between atoms: C28_35  and  C30_37 
REMARK    8  A    between atoms: C30_37  and  O4_38 
REMARK    9  A    between atoms: C30_37  and  C31_40 
REMARK   10  A    between atoms: C31_40  and  N3_41 
REMARK   11  A    between atoms: N3_41  and  C32_44 
ROOT
HETATM    1  N1  UNL     1       1.442  -0.284  -1.658  1.00  0.00    -0.347 N 
ATOM      2  H1  UNL     1       1.343   0.390  -2.417  1.00  0.00     0.163 HD
HETATM    3  C6  UNL     1       0.276  -0.685  -0.996  1.00  0.00     0.222 C 
HETATM    4  O1  UNL     1       0.351  -1.530  -0.040  1.00  0.00    -0.273 OA
ENDROOT
BRANCH   1   5
HETATM    5  C5  UNL     1       2.771  -0.749  -1.352  1.00  0.00     0.177 C 
BRANCH   5   6
HETATM    6  C4  UNL     1       3.422  -1.521  -2.432  1.00  0.00     0.038 C 
BRANCH   6   7
HETATM    7  C2  UNL     1       3.625  -0.857  -3.736  1.00  0.00    -0.020 C 
HETATM    8  C1  UNL     1       4.311  -1.886  -4.651  1.00  0.00     0.009 C 
HETATM    9  C3  UNL     1       4.497   0.348  -3.752  1.00  0.00     0.009 C 
ENDBRANCH   6   7
ENDBRANCH   5   6
BRANCH   5  10
HETATM   10  C27 UNL     1       3.572   0.359  -0.783  1.00  0.00     0.240 C 
HETATM   11  O3  UNL     1       3.091   1.516  -0.619  1.00  0.00    -0.271 OA
HETATM   12  N2  UNL     1       4.923   0.179  -0.393  1.00  0.00    -0.353 N 
ATOM     13  H2  UNL     1       5.341  -0.744  -0.514  1.00  0.00     0.163 HD
BRANCH  12  14
HETATM   14  C28 UNL     1       5.739   1.228   0.165  1.00  0.00     0.110 C 
HETATM   15  C29 UNL     1       6.970   1.492  -0.673  1.00  0.00     0.035 C 
BRANCH  14  16
HETATM   16  C30 UNL     1       6.199   0.786   1.535  1.00  0.00     0.166 C 
BRANCH  16  17
HETATM   17  O4  UNL     1       5.105   0.552   2.367  1.00  0.00    -0.392 OA
ATOM     18  H4  UNL     1       5.394   0.274   3.228  1.00  0.00     0.210 HD
ENDBRANCH  16  17
BRANCH  16  19
HETATM   19  C31 UNL     1       7.036  -0.451   1.494  1.00  0.00     0.266 C 
BRANCH  19  20
HETATM   20  N3  UNL     1       7.477  -0.746   2.843  1.00  0.00    -0.068 N 
ATOM     21  H32 UNL     1       6.679  -0.851   3.470  1.00  0.00     0.277 HD
ATOM     22  H31 UNL     1       7.862  -1.689   2.900  1.00  0.00     0.277 HD
BRANCH  20  23
HETATM   23  C32 UNL     1       8.407   0.215   3.361  1.00  0.00     0.186 A 
HETATM   24  C33 UNL     1       9.734   0.381   2.674  1.00  0.00     0.035 A 
HETATM   25  C34 UNL     1       9.699  -0.375   3.951  1.00  0.00     0.035 A 
ENDBRANCH  20  23
ENDBRANCH  19  20
ENDBRANCH  16  19
ENDBRANCH  14  16
ENDBRANCH  12  14
ENDBRANCH   5  10
ENDBRANCH   1   5
BRANCH   3  26
HETATM   26  C7  UNL     1      -1.060  -0.153  -1.378  1.00  0.00     0.078 C 
HETATM   27  C8  UNL     1      -0.987   1.349  -1.202  1.00  0.00     0.015 C 
HETATM   28  C9  UNL     1      -2.198   2.071  -1.680  1.00  0.00     0.010 C 
HETATM   29  C10 UNL     1      -3.457   1.287  -1.301  1.00  0.00    -0.040 C 
HETATM   30  C11 UNL     1      -3.847   0.484  -2.496  1.00  0.00     0.015 C 
HETATM   31  C12 UNL     1      -4.481   2.295  -0.881  1.00  0.00     0.010 C 
HETATM   32  C25 UNL     1      -3.107   0.451  -0.097  1.00  0.00    -0.001 C 
HETATM   33  C13 UNL     1      -5.772   1.665  -0.422  1.00  0.00     0.006 C 
HETATM   34  C14 UNL     1      -5.620   0.270   0.081  1.00  0.00    -0.001 C 
HETATM   35  C15 UNL     1      -4.274  -0.029   0.686  1.00  0.00    -0.005 C 
HETATM   36  C23 UNL     1      -6.676   0.052   1.151  1.00  0.00    -0.025 C 
HETATM   37  C16 UNL     1      -4.254  -1.545   0.925  1.00  0.00     0.006 C 
HETATM   38  C17 UNL     1      -5.220  -1.814   2.031  1.00  0.00     0.018 C 
HETATM   39  C18 UNL     1      -6.589  -1.266   1.832  1.00  0.00     0.024 C 
HETATM   40  C19 UNL     1      -7.523  -2.276   1.195  1.00  0.00     0.024 C 
HETATM   41  C20 UNL     1      -7.181  -0.969   3.188  1.00  0.00     0.136 C 
HETATM   42  O2  UNL     1      -7.788  -1.718   3.915  1.00  0.00    -0.297 OA
HETATM   43  C21 UNL     1      -6.895   0.447   3.518  1.00  0.00     0.080 C 
HETATM   44  C22 UNL     1      -6.673   1.136   2.184  1.00  0.00     0.018 C 
HETATM   45  C24 UNL     1      -8.024   0.140   0.421  1.00  0.00     0.016 C 
HETATM   46  C26 UNL     1      -2.144  -0.667  -0.456  1.00  0.00     0.020 C 
ENDBRANCH   3  26
TORSDOF 11
