REMARK  12 active torsions:
REMARK  status: ('A' for Active; 'I' for Inactive)
REMARK    1  A    between atoms: C2_2  and  N1_3 
REMARK    2  A    between atoms: C2_2  and  C14_34 
REMARK       I    between atoms: N1_3  and  C3_5 
REMARK    3  A    between atoms: C3_5  and  C4_7 
REMARK    4  A    between atoms: C5_8  and  O2_9 
REMARK    5  A    between atoms: C7_12  and  C8_13 
REMARK    6  A    between atoms: C8_13  and  O3_14 
REMARK    7  A    between atoms: C8_13  and  N2_16 
REMARK    8  A    between atoms: N2_16  and  N3_18 
REMARK    9  A    between atoms: N3_18  and  C9_20 
REMARK   10  A    between atoms: C14_34  and  O7_35 
REMARK   11  A    between atoms: C14_34  and  C15_37 
REMARK   12  A    between atoms: C15_37  and  N8_38 
ROOT
HETATM    1  C4  UNL     1      -1.594  -0.474   0.438  1.00  0.00     0.133 A 
HETATM    2  C5  UNL     1      -0.921  -0.867   1.602  1.00  0.00     0.088 A 
HETATM    3  C6  UNL     1       0.493  -0.804   1.575  1.00  0.00     0.067 A 
HETATM    4  C7  UNL     1       1.221  -0.392   0.505  1.00  0.00     0.066 A 
HETATM    5  N7  UNL     1       0.542  -0.025  -0.584  1.00  0.00    -0.317 N 
HETATM    6  C12 UNL     1       1.286   0.423  -1.747  1.00  0.00     0.159 C 
HETATM    7  C13 UNL     1      -0.824  -0.065  -0.617  1.00  0.00     0.266 A 
HETATM    8  O6  UNL     1      -1.312   0.311  -1.711  1.00  0.00    -0.267 OA
ENDROOT
BRANCH   4   9
HETATM    9  C8  UNL     1       2.731  -0.346   0.539  1.00  0.00     0.284 C 
BRANCH   9  10
HETATM   10  O3  UNL     1       3.178   0.847  -0.022  1.00  0.00    -0.370 OA
ATOM     11  H3  UNL     1       4.127   0.876  -0.001  1.00  0.00     0.212 HD
ENDBRANCH   9  10
BRANCH   9  12
HETATM   12  N2  UNL     1       3.299  -1.518  -0.027  1.00  0.00    -0.301 N 
ATOM     13  H2  UNL     1       2.700  -2.247  -0.416  1.00  0.00     0.183 HD
BRANCH  12  14
HETATM   14  N3  UNL     1       4.643  -1.655  -0.044  1.00  0.00    -0.289 N 
ATOM     15  H3  UNL     1       5.009  -2.550  -0.370  1.00  0.00     0.188 HD
BRANCH  14  16
HETATM   16  C9  UNL     1       5.624  -0.652   0.357  1.00  0.00     0.129 C 
HETATM   17  N4  UNL     1       5.600  -0.054   1.485  1.00  0.00    -0.269 N 
HETATM   18  S1  UNL     1       6.917   1.039   1.554  1.00  0.00     0.253 S 
ATOM     19  H4  UNL     1       4.911  -0.203   2.222  1.00  0.00     0.180 HD
HETATM   20  O4  UNL     1       8.042   0.577   2.395  1.00  0.00    -0.204 OA
HETATM   21  O5  UNL     1       6.436   2.411   1.911  1.00  0.00    -0.204 OA
HETATM   22  C10 UNL     1       7.343   0.990  -0.193  1.00  0.00     0.266 C 
HETATM   23  N5  UNL     1       6.455   1.691  -1.059  1.00  0.00    -0.123 NA
HETATM   24  C11 UNL     1       6.706  -0.310  -0.556  1.00  0.00     0.201 C 
HETATM   25  N6  UNL     1       6.255   0.455  -1.731  1.00  0.00    -0.132 NA
ENDBRANCH  14  16
ENDBRANCH  12  14
ENDBRANCH   9  12
ENDBRANCH   4   9
BRANCH   2  26
HETATM   26  O2  UNL     1      -1.510  -1.292   2.721  1.00  0.00    -0.359 OA
ATOM     27  H2  UNL     1      -1.054  -1.559   3.510  1.00  0.00     0.217 HD
ENDBRANCH   2  26
BRANCH   1  28
HETATM   28  C3  UNL     1      -3.061  -0.520   0.421  1.00  0.00     0.260 C 
HETATM   29  N1  UNL     1      -3.870  -0.167  -0.648  1.00  0.00    -0.350 N 
ATOM     30  H1  UNL     1      -3.370   0.126  -1.487  1.00  0.00     0.163 HD
HETATM   31  O1  UNL     1      -3.676  -0.914   1.465  1.00  0.00    -0.267 OA
BRANCH  29  32
HETATM   32  C2  UNL     1      -5.310  -0.149  -0.761  1.00  0.00     0.111 C 
HETATM   33  C1  UNL     1      -5.804  -0.942  -1.932  1.00  0.00     0.035 C 
BRANCH  32  34
HETATM   34  C14 UNL     1      -6.137  -0.399   0.432  1.00  0.00     0.164 C 
BRANCH  34  35
HETATM   35  O7  UNL     1      -7.498  -0.509  -0.057  1.00  0.00    -0.392 OA
ATOM     36  H7  UNL     1      -8.031  -0.670   0.712  1.00  0.00     0.210 HD
ENDBRANCH  34  35
BRANCH  34  37
HETATM   37  C15 UNL     1      -6.283   0.746   1.420  1.00  0.00     0.234 C 
BRANCH  37  38
HETATM   38  N8  UNL     1      -6.825   1.956   0.879  1.00  0.00    -0.153 N 
HETATM   39  O8  UNL     1      -7.332   2.138  -0.222  1.00  0.00    -0.536 OA
HETATM   40  O9  UNL     1      -6.794   3.060   1.743  1.00  0.00    -0.536 OA
ENDBRANCH  37  38
ENDBRANCH  34  37
ENDBRANCH  32  34
ENDBRANCH  29  32
ENDBRANCH   1  28
TORSDOF 12
