REMARK  18 active torsions:
REMARK  status: ('A' for Active; 'I' for Inactive)
REMARK    1  A    between atoms: C2_2  and  C3_3 
REMARK    2  A    between atoms: C3_3  and  N1_4 
REMARK    3  A    between atoms: C3_3  and  C18_30 
REMARK       I    between atoms: N1_4  and  C4_6 
REMARK    4  A    between atoms: C4_6  and  C5_8 
REMARK    5  A    between atoms: C5_8  and  C6_9 
REMARK    6  A    between atoms: C5_8  and  N2_16 
REMARK    7  A    between atoms: C6_9  and  C7_10 
REMARK    8  A    between atoms: N2_16  and  C13_18 
REMARK    9  A    between atoms: C13_18  and  O2_19 
REMARK   10  A    between atoms: C13_18  and  C14_21 
REMARK   11  A    between atoms: C14_21  and  N3_22 
REMARK   12  A    between atoms: C14_21  and  C15_26 
REMARK   13  A    between atoms: C15_26  and  C16_27 
REMARK   14  A    between atoms: C16_27  and  S1_28 
REMARK   15  A    between atoms: C18_30  and  O3_31 
REMARK   16  A    between atoms: C18_30  and  N4_33 
REMARK   17  A    between atoms: C22_37  and  C23_38 
REMARK   18  A    between atoms: C23_38  and  N5_39 
ROOT
HETATM    1  C5  UNL     1       1.804  -0.494   0.165  1.00  0.00     0.171 C 
ENDROOT
BRANCH   1   2
HETATM    2  C4  UNL     1       0.603   0.066   0.826  1.00  0.00     0.240 C 
HETATM    3  N1  UNL     1      -0.371   0.822   0.164  1.00  0.00    -0.347 N 
ATOM      4  H1  UNL     1      -0.267   1.008  -0.833  1.00  0.00     0.163 HD
HETATM    5  O1  UNL     1       0.462  -0.155   2.054  1.00  0.00    -0.271 OA
BRANCH   3   6
HETATM    6  C3  UNL     1      -1.540   1.352   0.877  1.00  0.00     0.158 C 
BRANCH   6   7
HETATM    7  C2  UNL     1      -1.495   2.826   0.901  1.00  0.00     0.029 C 
HETATM    8  C1  UNL     1      -0.218   3.369   1.547  1.00  0.00     0.007 C 
ENDBRANCH   6   7
BRANCH   6   9
HETATM    9  C18 UNL     1      -2.703   0.703   0.248  1.00  0.00     0.137 C 
BRANCH   9  10
HETATM   10  O3  UNL     1      -2.521  -0.560  -0.041  1.00  0.00    -0.348 OA
ATOM     11  H3  UNL     1      -3.271  -0.979  -0.447  1.00  0.00     0.219 HD
ENDBRANCH   9  10
BRANCH   9  12
HETATM   12  N4  UNL     1      -3.962   1.179  -0.100  1.00  0.00    -0.357 N 
HETATM   13  C19 UNL     1      -4.612   2.497  -0.019  1.00  0.00     0.125 C 
HETATM   14  C20 UNL     1      -5.802   2.099   0.853  1.00  0.00     0.022 C 
HETATM   15  C21 UNL     1      -6.137   0.671   0.389  1.00  0.00     0.028 C 
HETATM   16  C22 UNL     1      -5.100   0.419  -0.684  1.00  0.00     0.111 C 
BRANCH  16  17
HETATM   17  C23 UNL     1      -4.832  -0.992  -0.985  1.00  0.00     0.256 C 
BRANCH  17  18
HETATM   18  N5  UNL     1      -6.081  -1.549  -1.558  1.00  0.00    -0.077 N 
HETATM   19  C24 UNL     1      -6.351  -0.974  -2.856  1.00  0.00     0.267 C 
ATOM     20  H52 UNL     1      -6.058  -2.568  -1.594  1.00  0.00     0.276 HD
ATOM     21  H51 UNL     1      -6.871  -1.435  -0.923  1.00  0.00     0.276 HD
ENDBRANCH  17  18
ENDBRANCH  16  17
ENDBRANCH   9  12
ENDBRANCH   6   9
ENDBRANCH   3   6
ENDBRANCH   1   2
BRANCH   1  22
HETATM   22  C6  UNL     1       1.521  -1.842  -0.454  1.00  0.00     0.039 C 
BRANCH  22  23
HETATM   23  C7  UNL     1       1.050  -2.901   0.468  1.00  0.00    -0.012 C 
HETATM   24  C8  UNL     1       0.823  -4.172  -0.381  1.00  0.00     0.005 C 
HETATM   25  C9  UNL     1       1.164  -5.420   0.360  1.00  0.00     0.000 C 
HETATM   26  C10 UNL     1       2.635  -5.508   0.630  1.00  0.00     0.000 C 
HETATM   27  C11 UNL     1       3.116  -4.154   1.102  1.00  0.00     0.000 C 
HETATM   28  C12 UNL     1       1.937  -3.307   1.581  1.00  0.00     0.005 C 
ENDBRANCH  22  23
ENDBRANCH   1  22
BRANCH   1  29
HETATM   29  N2  UNL     1       2.976  -0.567   0.950  1.00  0.00    -0.383 N 
ATOM     30  H2  UNL     1       3.422  -1.459   1.164  1.00  0.00     0.156 HD
BRANCH  29  31
HETATM   31  C13 UNL     1       3.502   0.661   1.426  1.00  0.00     0.244 C 
BRANCH  31  32
HETATM   32  O2  UNL     1       4.713   0.370   2.097  1.00  0.00    -0.375 OA
ATOM     33  H2  UNL     1       5.065   1.193   2.416  1.00  0.00     0.212 HD
ENDBRANCH  31  32
BRANCH  31  34
HETATM   34  C14 UNL     1       3.920   1.589   0.264  1.00  0.00     0.232 C 
BRANCH  34  35
HETATM   35  N3  UNL     1       4.862   0.792  -0.526  1.00  0.00    -0.071 N 
ATOM     36  H33 UNL     1       5.645   0.421   0.012  1.00  0.00     0.274 HD
ATOM     37  H32 UNL     1       4.493  -0.110  -0.827  1.00  0.00     0.274 HD
ATOM     38  H31 UNL     1       5.138   1.405  -1.293  1.00  0.00     0.274 HD
ENDBRANCH  34  35
BRANCH  34  39
HETATM   39  C15 UNL     1       4.651   2.720   0.889  1.00  0.00     0.047 C 
BRANCH  39  40
HETATM   40  C16 UNL     1       5.167   3.779  -0.015  1.00  0.00     0.075 C 
BRANCH  40  41
HETATM   41  S1  UNL     1       3.964   4.686  -0.959  1.00  0.00    -0.173 SA
HETATM   42  C17 UNL     1       3.188   3.672  -2.215  1.00  0.00     0.089 C 
ENDBRANCH  40  41
ENDBRANCH  39  40
ENDBRANCH  34  39
ENDBRANCH  31  34
ENDBRANCH  29  31
ENDBRANCH   1  29
TORSDOF 18
