REMARK  16 active torsions:
REMARK  status: ('A' for Active; 'I' for Inactive)
REMARK    1  A    between atoms: C2_2  and  C3_3 
REMARK    2  A    between atoms: C3_3  and  C5_5 
REMARK    3  A    between atoms: C5_5  and  C6_6 
REMARK    4  A    between atoms: C5_5  and  N1_13 
REMARK    5  A    between atoms: C6_6  and  C7_7 
REMARK       I    between atoms: N1_13  and  C13_15 
REMARK    6  A    between atoms: C13_15  and  C14_17 
REMARK    7  A    between atoms: C14_17  and  C15_18 
REMARK    8  A    between atoms: C14_17  and  N3_25 
REMARK    9  A    between atoms: C15_18  and  N2_19 
REMARK       I    between atoms: N3_25  and  C21_27 
REMARK   10  A    between atoms: C21_27  and  C22_29 
REMARK   11  A    between atoms: C22_29  and  N4_31 
REMARK   12  A    between atoms: N4_31  and  C24_33 
REMARK   13  A    between atoms: C24_33  and  C25_34 
REMARK   14  A    between atoms: C25_34  and  N5_35 
REMARK   15  A    between atoms: C25_34  and  C26_39 
REMARK   16  A    between atoms: C26_39  and  O3_40 
ROOT
HETATM    1  C14 UNL     1       1.216   0.277  -0.743  1.00  0.00     0.215 C 
ENDROOT
BRANCH   1   2
HETATM    2  C13 UNL     1      -0.175   0.134  -0.199  1.00  0.00     0.246 C 
HETATM    3  N1  UNL     1      -1.133  -0.671  -0.788  1.00  0.00    -0.351 N 
ATOM      4  H1  UNL     1      -0.868  -1.173  -1.636  1.00  0.00     0.163 HD
HETATM    5  O1  UNL     1      -0.434   0.783   0.842  1.00  0.00    -0.271 OA
BRANCH   3   6
HETATM    6  C5  UNL     1      -2.540  -0.865  -0.275  1.00  0.00     0.111 C 
BRANCH   6   7
HETATM    7  C3  UNL     1      -3.380  -0.323  -1.351  1.00  0.00     0.008 C 
HETATM    8  C4  UNL     1      -3.331  -1.161  -2.631  1.00  0.00     0.012 C 
BRANCH   7   9
HETATM    9  C2  UNL     1      -4.803   0.003  -1.131  1.00  0.00     0.002 C 
HETATM   10  C1  UNL     1      -5.111   0.829   0.087  1.00  0.00     0.005 C 
ENDBRANCH   7   9
ENDBRANCH   6   7
BRANCH   6  11
HETATM   11  C6  UNL     1      -2.636  -2.098   0.428  1.00  0.00     0.005 C 
BRANCH  11  12
HETATM   12  C7  UNL     1      -3.666  -2.726   1.257  1.00  0.00    -0.064 C 
HETATM   13  C8  UNL     1      -4.950  -3.126   0.687  1.00  0.00    -0.020 C 
HETATM   14  C9  UNL     1      -6.230  -2.680   1.248  1.00  0.00     0.027 C 
HETATM   15  C10 UNL     1      -6.269  -2.061   2.580  1.00  0.00     0.004 C 
HETATM   16  C11 UNL     1      -5.040  -2.419   3.349  1.00  0.00     0.005 C 
HETATM   17  C12 UNL     1      -3.764  -2.114   2.655  1.00  0.00     0.038 C 
ENDBRANCH  11  12
ENDBRANCH   6  11
ENDBRANCH   3   6
ENDBRANCH   1   2
BRANCH   1  18
HETATM   18  C15 UNL     1       1.310   0.946  -2.055  1.00  0.00     0.097 C 
BRANCH  18  19
HETATM   19  N2  UNL     1       0.840   2.255  -2.234  1.00  0.00    -0.371 N 
HETATM   20  C16 UNL     1       1.464   3.349  -1.655  1.00  0.00     0.063 C 
HETATM   21  C17 UNL     1       1.423   4.675  -2.361  1.00  0.00     0.044 C 
HETATM   22  C18 UNL     1       0.846   4.648  -3.735  1.00  0.00     0.007 C 
HETATM   23  C19 UNL     1      -0.400   3.825  -3.701  1.00  0.00     0.021 C 
HETATM   24  C20 UNL     1      -0.100   2.431  -3.271  1.00  0.00     0.127 C 
ENDBRANCH  18  19
ENDBRANCH   1  18
BRANCH   1  25
HETATM   25  N3  UNL     1       2.125   0.828   0.218  1.00  0.00    -0.342 N 
HETATM   26  C21 UNL     1       2.964  -0.039   1.043  1.00  0.00     0.240 C 
HETATM   27  O2  UNL     1       2.821  -1.259   0.837  1.00  0.00    -0.271 OA
ATOM     28  H3  UNL     1       2.187   1.840   0.328  1.00  0.00     0.163 HD
BRANCH  26  29
HETATM   29  C22 UNL     1       3.894   0.489   2.030  1.00  0.00     0.169 C 
HETATM   30  C23 UNL     1       4.686   1.638   1.489  1.00  0.00     0.042 C 
BRANCH  29  31
HETATM   31  N4  UNL     1       4.635  -0.465   2.762  1.00  0.00    -0.388 N 
ATOM     32  H4  UNL     1       4.510  -0.527   3.772  1.00  0.00     0.159 HD
BRANCH  31  33
HETATM   33  C24 UNL     1       5.538  -1.328   2.128  1.00  0.00     0.091 C 
BRANCH  33  34
HETATM   34  C25 UNL     1       6.816  -0.746   1.590  1.00  0.00     0.244 C 
BRANCH  34  35
HETATM   35  N5  UNL     1       7.614  -0.141   2.667  1.00  0.00    -0.069 N 
ATOM     36  H53 UNL     1       7.077   0.550   3.190  1.00  0.00     0.275 HD
ATOM     37  H52 UNL     1       7.791  -0.804   3.422  1.00  0.00     0.275 HD
ATOM     38  H51 UNL     1       8.481   0.254   2.302  1.00  0.00     0.275 HD
ENDBRANCH  34  35
BRANCH  34  39
HETATM   39  C26 UNL     1       7.652  -1.898   1.046  1.00  0.00     0.202 C 
BRANCH  39  40
HETATM   40  O3  UNL     1       8.831  -1.380   0.561  1.00  0.00    -0.398 OA
ATOM     41  H3  UNL     1       9.352  -2.098   0.222  1.00  0.00     0.209 HD
ENDBRANCH  39  40
ENDBRANCH  34  39
ENDBRANCH  33  34
ENDBRANCH  31  33
ENDBRANCH  29  31
ENDBRANCH  26  29
ENDBRANCH   1  25
TORSDOF 16
