REMARK  16 active torsions:
REMARK  status: ('A' for Active; 'I' for Inactive)
REMARK    1  A    between atoms: C2_2  and  C3_3 
REMARK    2  A    between atoms: C3_3  and  C5_5 
REMARK    3  A    between atoms: C5_5  and  N1_6 
REMARK    4  A    between atoms: C5_5  and  C7_10 
REMARK    5  A    between atoms: N1_6  and  C6_8 
REMARK       I    between atoms: C7_10  and  N2_12 
REMARK    6  A    between atoms: N2_12  and  C8_14 
REMARK    7  A    between atoms: C8_14  and  C10_16 
REMARK    8  A    between atoms: C10_16  and  N4_19 
REMARK    9  A    between atoms: N4_19  and  C12_21 
REMARK   10  A    between atoms: C12_21  and  C13_22 
REMARK   11  A    between atoms: C12_21  and  C17_26 
REMARK   12  A    between atoms: C13_22  and  C14_23 
REMARK       I    between atoms: C17_26  and  N5_28 
REMARK   13  A    between atoms: N5_28  and  C18_30 
REMARK   14  A    between atoms: C18_30  and  C19_31 
REMARK   15  A    between atoms: C19_31  and  O4_32 
REMARK   16  A    between atoms: C19_31  and  C20_34 
ROOT
HETATM    1  C10 UNL     1      -2.162  -2.488   1.445  1.00  0.00     0.208 C 
HETATM    2  C11 UNL     1      -3.161  -2.859   0.402  1.00  0.00     0.086 C 
HETATM    3  N3  UNL     1      -3.933  -3.154  -0.409  1.00  0.00    -0.195 NA
ENDROOT
BRANCH   1   4
HETATM    4  C8  UNL     1      -2.934  -1.630   2.474  1.00  0.00     0.116 C 
HETATM    5  C9  UNL     1      -3.900  -2.560   3.163  1.00  0.00     0.035 C 
BRANCH   4   6
HETATM    6  N2  UNL     1      -3.514  -0.462   1.911  1.00  0.00    -0.352 N 
HETATM    7  C7  UNL     1      -3.086   0.862   2.156  1.00  0.00     0.241 C 
HETATM    8  O2  UNL     1      -2.084   0.971   2.943  1.00  0.00    -0.271 OA
ATOM      9  H2  UNL     1      -4.304  -0.589   1.278  1.00  0.00     0.163 HD
BRANCH   7  10
HETATM   10  C5  UNL     1      -3.718   2.069   1.569  1.00  0.00     0.179 C 
BRANCH  10  11
HETATM   11  C3  UNL     1      -4.025   1.949   0.110  1.00  0.00     0.013 C 
HETATM   12  C4  UNL     1      -5.077   2.981  -0.245  1.00  0.00     0.012 C 
BRANCH  11  13
HETATM   13  C2  UNL     1      -2.885   1.914  -0.824  1.00  0.00     0.002 C 
HETATM   14  C1  UNL     1      -2.082   3.150  -0.984  1.00  0.00     0.005 C 
ENDBRANCH  11  13
ENDBRANCH  10  11
BRANCH  10  15
HETATM   15  N1  UNL     1      -3.000   3.257   1.947  1.00  0.00    -0.355 N 
ATOM     16  H1  UNL     1      -2.029   3.370   1.657  1.00  0.00     0.162 HD
BRANCH  15  17
HETATM   17  C6  UNL     1      -3.616   4.265   2.710  1.00  0.00     0.349 C 
HETATM   18  O1  UNL     1      -4.790   4.245   3.125  1.00  0.00    -0.284 OA
ENDBRANCH  15  17
ENDBRANCH  10  15
ENDBRANCH   7  10
ENDBRANCH   4   6
ENDBRANCH   1   4
BRANCH   1  19
HETATM   19  N4  UNL     1      -1.099  -1.777   0.958  1.00  0.00    -0.392 N 
ATOM     20  H4  UNL     1      -1.076  -0.774   1.141  1.00  0.00     0.155 HD
BRANCH  19  21
HETATM   21  C12 UNL     1      -0.053  -2.323   0.234  1.00  0.00     0.170 C 
BRANCH  21  22
HETATM   22  C13 UNL     1       0.930  -3.257   0.819  1.00  0.00     0.038 C 
BRANCH  22  23
HETATM   23  C14 UNL     1       0.451  -4.544   1.346  1.00  0.00    -0.020 C 
HETATM   24  C15 UNL     1      -0.240  -5.383   0.293  1.00  0.00     0.009 C 
HETATM   25  C16 UNL     1       1.710  -5.399   1.744  1.00  0.00     0.009 C 
ENDBRANCH  22  23
ENDBRANCH  21  22
BRANCH  21  26
HETATM   26  C17 UNL     1       0.707  -1.129  -0.369  1.00  0.00     0.240 C 
HETATM   27  O3  UNL     1       0.392   0.039  -0.073  1.00  0.00    -0.271 OA
HETATM   28  N5  UNL     1       1.755  -1.386  -1.254  1.00  0.00    -0.357 N 
ATOM     29  H5  UNL     1       1.977  -2.357  -1.472  1.00  0.00     0.162 HD
BRANCH  28  30
HETATM   30  C18 UNL     1       2.545  -0.341  -1.880  1.00  0.00     0.154 C 
BRANCH  30  31
HETATM   31  C19 UNL     1       3.255   0.489  -0.864  1.00  0.00     0.140 C 
BRANCH  31  32
HETATM   32  O4  UNL     1       4.120  -0.316  -0.104  1.00  0.00    -0.394 OA
ATOM     33  H4  UNL     1       4.572   0.213   0.543  1.00  0.00     0.210 HD
ENDBRANCH  31  32
BRANCH  31  34
HETATM   34  C20 UNL     1       4.098   1.553  -1.511  1.00  0.00     0.016 C 
HETATM   35  C21 UNL     1       3.292   2.503  -2.360  1.00  0.00     0.007 C 
HETATM   36  C22 UNL     1       4.177   3.663  -2.718  1.00  0.00     0.000 C 
HETATM   37  C23 UNL     1       5.636   3.414  -2.440  1.00  0.00     0.000 C 
HETATM   38  C24 UNL     1       6.103   2.041  -2.876  1.00  0.00     0.000 C 
HETATM   39  C25 UNL     1       5.158   0.959  -2.383  1.00  0.00     0.007 C 
ENDBRANCH  31  34
ENDBRANCH  30  31
ENDBRANCH  28  30
ENDBRANCH  21  26
ENDBRANCH  19  21
ENDBRANCH   1  19
TORSDOF 16
