REMARK  9 active torsions:
REMARK  status: ('A' for Active; 'I' for Inactive)
REMARK    1  A    between atoms: C3_3  and  O1_4 
REMARK    2  A    between atoms: C9_11  and  O2_12 
REMARK    3  A    between atoms: C13_17  and  C14_18 
REMARK    4  A    between atoms: C14_18  and  C15_19 
REMARK    5  A    between atoms: C16_20  and  C17_21 
REMARK    6  A    between atoms: C17_21  and  O3_24 
REMARK    7  A    between atoms: C26_32  and  O4_33 
REMARK    8  A    between atoms: O4_33  and  C27_34 
REMARK    9  A    between atoms: C27_34  and  C28_35 
ROOT
HETATM    1  C1  UNL     1      -5.074  -0.907   1.554  1.00  0.00     0.019 C 
HETATM    2  C2  UNL     1      -4.228  -0.692   0.551  1.00  0.00    -0.031 C 
HETATM    3  C3  UNL     1      -4.357  -1.424  -0.708  1.00  0.00     0.157 C 
HETATM    4  C4  UNL     1      -3.094  -1.747  -1.419  1.00  0.00    -0.013 C 
HETATM    5  C5  UNL     1      -3.399  -1.566  -2.919  1.00  0.00     0.018 C 
HETATM    6  C6  UNL     1      -2.719  -3.229  -1.283  1.00  0.00     0.018 C 
HETATM    7  C7  UNL     1      -1.945  -0.846  -1.110  1.00  0.00     0.010 C 
HETATM    8  C8  UNL     1      -1.985   0.351  -2.012  1.00  0.00     0.038 C 
HETATM    9  C9  UNL     1      -0.919   1.379  -1.737  1.00  0.00     0.123 C 
HETATM   10  C10 UNL     1       0.047   0.791  -0.779  1.00  0.00     0.027 C 
HETATM   11  C11 UNL     1       1.266   1.643  -0.496  1.00  0.00    -0.007 C 
HETATM   12  C12 UNL     1       1.752   2.250  -1.796  1.00  0.00     0.011 C 
HETATM   13  C13 UNL     1       2.325   0.697  -0.012  1.00  0.00    -0.007 C 
HETATM   14  C20 UNL     1       1.899  -0.277   1.023  1.00  0.00     0.006 C 
HETATM   15  C21 UNL     1       0.513  -0.810   0.924  1.00  0.00     0.011 C 
HETATM   16  C22 UNL     1      -0.532   0.254   0.512  1.00  0.00    -0.027 C 
HETATM   17  C23 UNL     1      -0.450   1.257   1.640  1.00  0.00     0.016 C 
HETATM   18  C24 UNL     1      -1.855  -0.411   0.358  1.00  0.00    -0.002 C 
HETATM   19  C25 UNL     1      -1.838  -1.651   1.243  1.00  0.00     0.019 C 
HETATM   20  C26 UNL     1      -3.093   0.326   0.653  1.00  0.00     0.162 C 
ENDROOT
BRANCH  13  21
HETATM   21  C14 UNL     1       3.585   1.389   0.450  1.00  0.00     0.031 C 
BRANCH  21  22
HETATM   22  C15 UNL     1       4.592   0.389   0.919  1.00  0.00    -0.027 C 
HETATM   23  C16 UNL     1       5.778   0.246   0.393  1.00  0.00     0.006 C 
BRANCH  23  24
HETATM   24  C17 UNL     1       6.737  -0.762   0.899  1.00  0.00     0.068 C 
HETATM   25  C18 UNL     1       6.005  -1.879   1.616  1.00  0.00     0.050 C 
HETATM   26  C19 UNL     1       7.532  -1.353  -0.229  1.00  0.00     0.050 C 
BRANCH  24  27
HETATM   27  O3  UNL     1       7.555  -0.116   1.832  1.00  0.00    -0.387 OA
ATOM     28  H3  UNL     1       8.170  -0.763   2.157  1.00  0.00     0.211 HD
ENDBRANCH  24  27
ENDBRANCH  23  24
ENDBRANCH  21  22
ENDBRANCH  13  21
BRANCH   9  29
HETATM   29  O2  UNL     1      -1.403   2.629  -1.436  1.00  0.00    -0.395 OA
ATOM     30  H2  UNL     1      -0.731   3.277  -1.263  1.00  0.00     0.210 HD
ENDBRANCH   9  29
BRANCH  20  31
HETATM   31  O4  UNL     1      -3.268   0.903   1.873  1.00  0.00    -0.370 OA
BRANCH  31  32
HETATM   32  C27 UNL     1      -3.841   2.169   1.772  1.00  0.00     0.281 C 
BRANCH  32  33
HETATM   33  C28 UNL     1      -4.026   2.801   3.097  1.00  0.00     0.197 C 
HETATM   34  O5  UNL     1      -3.678   2.192   4.131  1.00  0.00    -0.646 OA
HETATM   35  O6  UNL     1      -4.589   4.068   3.145  1.00  0.00    -0.646 OA
ENDBRANCH  32  33
ENDBRANCH  31  32
ENDBRANCH  20  31
BRANCH   3  36
HETATM   36  O1  UNL     1      -5.274  -0.734  -1.513  1.00  0.00    -0.390 OA
ATOM     37  H1  UNL     1      -5.358  -1.210  -2.331  1.00  0.00     0.210 HD
ENDBRANCH   3  36
TORSDOF 9
