REMARK  10 active torsions:
REMARK  status: ('A' for Active; 'I' for Inactive)
REMARK    1  A    between atoms: C2_2  and  N1_3 
REMARK       I    between atoms: C3_5  and  N3_7 
REMARK    2  A    between atoms: C7_11  and  C8_12 
REMARK    3  A    between atoms: C8_12  and  N4_13 
REMARK    4  A    between atoms: C8_12  and  C31_46 
REMARK       I    between atoms: N4_13  and  C9_15 
REMARK    5  A    between atoms: C9_15  and  C10_17 
REMARK    6  A    between atoms: C10_17  and  C11_18 
REMARK    7  A    between atoms: C10_17  and  N5_22 
REMARK    8  A    between atoms: C11_18  and  C12_19 
REMARK       I    between atoms: N5_22  and  C15_24 
REMARK    9  A    between atoms: C15_24  and  C16_26 
REMARK   10  A    between atoms: C16_26  and  N6_27 
ROOT
HETATM    1  C10 UNL     1       0.657   0.320  -2.099  1.00  0.00     0.177 C 
ENDROOT
BRANCH   1   2
HETATM    2  C9  UNL     1       1.816  -0.293  -1.430  1.00  0.00     0.241 C 
HETATM    3  N4  UNL     1       3.026  -0.712  -2.009  1.00  0.00    -0.346 N 
ATOM      4  H4  UNL     1       3.166  -0.613  -3.014  1.00  0.00     0.163 HD
HETATM    5  O1  UNL     1       1.658  -0.446  -0.150  1.00  0.00    -0.271 OA
BRANCH   3   6
HETATM    6  C8  UNL     1       4.096  -1.294  -1.175  1.00  0.00     0.179 C 
BRANCH   6   7
HETATM    7  C7  UNL     1       5.319  -0.388  -1.274  1.00  0.00     0.035 C 
HETATM    8  C6  UNL     1       4.972   1.000  -0.777  1.00  0.00     0.010 C 
HETATM    9  C5  UNL     1       6.095   1.946  -1.103  1.00  0.00     0.020 C 
HETATM   10  C4  UNL     1       7.424   1.273  -0.928  1.00  0.00     0.125 C 
HETATM   11  N3  UNL     1       7.282   0.180   0.000  1.00  0.00    -0.355 N 
HETATM   12  C3  UNL     1       7.914   0.122   1.257  1.00  0.00     0.186 C 
HETATM   13  C32 UNL     1       6.418  -0.942  -0.425  1.00  0.00     0.132 C 
HETATM   14  N1  UNL     1       7.737   0.988   2.195  1.00  0.00    -0.365 N 
HETATM   15  N2  UNL     1       8.815  -0.966   1.514  1.00  0.00    -0.064 NA
ATOM     16  H1  UNL     1       7.101   1.768   2.032  1.00  0.00     0.162 HD
BRANCH  14  17
HETATM   17  C2  UNL     1       8.413   0.889   3.474  1.00  0.00     0.118 C 
HETATM   18  C1  UNL     1       9.701   1.676   3.460  1.00  0.00     0.026 C 
ENDBRANCH  14  17
ENDBRANCH   6   7
BRANCH   6  19
HETATM   19  C31 UNL     1       4.415  -2.651  -1.611  1.00  0.00     0.254 C 
HETATM   20  N7  UNL     1       5.359  -3.485  -0.956  1.00  0.00    -0.060 NA
HETATM   21  O4  UNL     1       3.857  -3.195  -2.628  1.00  0.00    -0.275 OA
ENDBRANCH   6  19
ENDBRANCH   3   6
ENDBRANCH   1   2
BRANCH   1  22
HETATM   22  C11 UNL     1       0.907   1.680  -2.658  1.00  0.00     0.038 C 
BRANCH  22  23
HETATM   23  C12 UNL     1       1.919   1.833  -3.715  1.00  0.00    -0.020 C 
HETATM   24  C13 UNL     1       1.522   1.008  -4.931  1.00  0.00     0.009 C 
HETATM   25  C14 UNL     1       1.811   3.303  -4.200  1.00  0.00     0.009 C 
ENDBRANCH  22  23
ENDBRANCH   1  22
BRANCH   1  26
HETATM   26  N5  UNL     1      -0.474   0.459  -1.173  1.00  0.00    -0.344 N 
HETATM   27  C15 UNL     1      -1.772   0.028  -1.490  1.00  0.00     0.282 C 
HETATM   28  O2  UNL     1      -1.988  -0.508  -2.618  1.00  0.00    -0.268 OA
ATOM     29  H5  UNL     1      -0.310   0.886  -0.262  1.00  0.00     0.163 HD
BRANCH  27  30
HETATM   30  C16 UNL     1      -2.924   0.170  -0.562  1.00  0.00     0.306 C 
HETATM   31  C17 UNL     1      -2.737  -0.627   0.705  1.00  0.00     0.086 C 
HETATM   32  C18 UNL     1      -3.884  -1.573   0.686  1.00  0.00     0.025 C 
HETATM   33  C19 UNL     1      -4.456  -1.899   2.031  1.00  0.00     0.009 C 
HETATM   34  C29 UNL     1      -4.839  -0.980  -0.269  1.00  0.00     0.065 C 
HETATM   35  C20 UNL     1      -5.395  -0.892   2.587  1.00  0.00     0.010 C 
HETATM   36  C21 UNL     1      -6.424  -0.370   1.621  1.00  0.00    -0.038 C 
HETATM   37  C22 UNL     1      -7.530  -1.354   1.457  1.00  0.00     0.010 C 
HETATM   38  C27 UNL     1      -6.864   0.971   2.182  1.00  0.00     0.010 C 
HETATM   39  C28 UNL     1      -5.870  -0.064   0.250  1.00  0.00     0.047 C 
HETATM   40  C23 UNL     1      -8.766  -1.107   2.264  1.00  0.00     0.001 C 
HETATM   41  C24 UNL     1      -9.411   0.223   2.025  1.00  0.00     0.000 C 
HETATM   42  C25 UNL     1      -9.050   1.115   3.201  1.00  0.00     0.000 C 
HETATM   43  C26 UNL     1      -7.576   0.884   3.496  1.00  0.00     0.001 C 
HETATM   44  C30 UNL     1      -5.429  -2.106  -1.133  1.00  0.00     0.046 C 
HETATM   45  O3  UNL     1      -4.057  -0.250  -1.175  1.00  0.00    -0.336 OA
BRANCH  30  46
HETATM   46  N6  UNL     1      -3.056   1.597  -0.243  1.00  0.00    -0.037 N 
ATOM     47  H63 UNL     1      -2.196   2.005   0.124  1.00  0.00     0.278 HD
ATOM     48  H62 UNL     1      -3.138   2.185  -1.073  1.00  0.00     0.278 HD
ATOM     49  H61 UNL     1      -3.847   1.694   0.394  1.00  0.00     0.278 HD
ENDBRANCH  30  46
ENDBRANCH  27  30
ENDBRANCH   1  26
TORSDOF 10
