REMARK  4 active torsions:
REMARK  status: ('A' for Active; 'I' for Inactive)
REMARK    1  A    between atoms: C2_2  and  O1_3 
REMARK    2  A    between atoms: O1_3  and  C3_4 
REMARK    3  A    between atoms: C3_4  and  C4_6 
REMARK    4  A    between atoms: C4_6  and  O3_7 
ROOT
HETATM    1  C4  UNL     1       1.723  -0.156  -1.070  1.00  0.00     0.153 C 
HETATM    2  C5  UNL     1       2.372  -1.502  -1.267  1.00  0.00     0.049 C 
HETATM    3  C6  UNL     1       1.510  -2.675  -1.052  1.00  0.00     0.004 C 
HETATM    4  C7  UNL     1       0.347  -2.563  -0.142  1.00  0.00     0.010 C 
HETATM    5  C8  UNL     1      -0.404  -1.302  -0.442  1.00  0.00    -0.029 C 
HETATM    6  C9  UNL     1      -0.808  -1.301  -1.868  1.00  0.00     0.016 C 
HETATM    7  C10 UNL     1      -1.536  -1.013   0.469  1.00  0.00    -0.001 C 
HETATM    8  C11 UNL     1      -2.901  -1.386  -0.057  1.00  0.00     0.006 C 
HETATM    9  C12 UNL     1      -3.977  -0.936   0.894  1.00  0.00     0.001 C 
HETATM   10  C13 UNL     1      -3.717   0.396   1.517  1.00  0.00     0.009 C 
HETATM   11  C14 UNL     1      -2.668   1.215   0.759  1.00  0.00    -0.044 C 
HETATM   12  C15 UNL     1      -3.233   1.618  -0.533  1.00  0.00     0.015 C 
HETATM   13  C16 UNL     1      -2.464   2.473   1.617  1.00  0.00     0.015 C 
HETATM   14  C17 UNL     1      -1.417   0.452   0.781  1.00  0.00    -0.001 C 
HETATM   15  C18 UNL     1      -0.298   0.987  -0.093  1.00  0.00     0.019 C 
HETATM   16  C19 UNL     1       0.613  -0.196  -0.086  1.00  0.00     0.005 C 
HETATM   17  C20 UNL     1       1.182  -0.503   1.267  1.00  0.00     0.020 C 
ENDROOT
BRANCH   1  18
HETATM   18  C3  UNL     1       2.763   0.782  -0.611  1.00  0.00     0.294 C 
HETATM   19  O2  UNL     1       3.003   1.851  -1.269  1.00  0.00    -0.262 OA
BRANCH  18  20
HETATM   20  O1  UNL     1       3.557   0.627   0.514  1.00  0.00    -0.319 OA
BRANCH  20  21
HETATM   21  C2  UNL     1       4.536   1.539   0.917  1.00  0.00     0.174 C 
HETATM   22  C1  UNL     1       5.599   1.725  -0.118  1.00  0.00     0.034 C 
ENDBRANCH  20  21
ENDBRANCH  18  20
ENDBRANCH   1  18
BRANCH   1  23
HETATM   23  O3  UNL     1       1.275   0.367  -2.317  1.00  0.00    -0.379 OA
ATOM     24  H3  UNL     1       0.605  -0.238  -2.613  1.00  0.00     0.211 HD
ENDBRANCH   1  23
TORSDOF 4
