REMARK  5 active torsions:
REMARK  status: ('A' for Active; 'I' for Inactive)
REMARK    1  A    between atoms: C2_2  and  O2_4 
REMARK    2  A    between atoms: O2_4  and  C3_5 
REMARK    3  A    between atoms: C3_5  and  C4_6 
REMARK    4  A    between atoms: C6_8  and  O3_10 
REMARK    5  A    between atoms: C18_22  and  O4_23 
ROOT
HETATM    1  C4  UNL     1       0.924   0.197   0.145  1.00  0.00     0.014 C 
HETATM    2  C5  UNL     1       1.624  -0.760  -0.812  1.00  0.00     0.052 C 
HETATM    3  C6  UNL     1       0.840  -1.918  -1.264  1.00  0.00     0.056 C 
HETATM    4  C7  UNL     1       1.868  -2.981  -1.713  1.00  0.00     0.045 C 
HETATM    5  C8  UNL     1      -0.001  -2.571  -0.236  1.00  0.00     0.046 C 
HETATM    6  C9  UNL     1      -0.679  -1.647   0.751  1.00  0.00    -0.037 C 
HETATM    7  C10 UNL     1      -1.038  -2.576   1.916  1.00  0.00     0.015 C 
HETATM    8  C11 UNL     1      -2.043  -1.260   0.176  1.00  0.00     0.013 C 
HETATM    9  C12 UNL     1      -2.875  -0.438   1.083  1.00  0.00     0.028 C 
HETATM   10  C13 UNL     1      -3.723   0.604   0.478  1.00  0.00    -0.024 C 
HETATM   11  C14 UNL     1      -3.451   1.555  -0.380  1.00  0.00    -0.087 C 
HETATM   12  C15 UNL     1      -4.583   2.497  -0.818  1.00  0.00     0.043 C 
HETATM   13  C16 UNL     1      -2.164   1.881  -1.029  1.00  0.00     0.036 C 
HETATM   14  C17 UNL     1      -0.967   1.906  -0.087  1.00  0.00     0.037 C 
HETATM   15  C18 UNL     1       0.153   1.145  -0.674  1.00  0.00     0.129 C 
HETATM   16  C19 UNL     1       0.166  -0.538   1.212  1.00  0.00     0.003 C 
HETATM   17  C20 UNL     1       1.183  -1.106   2.227  1.00  0.00     0.011 C 
ENDROOT
BRANCH   1  18
HETATM   18  C3  UNL     1       2.068   0.911   0.860  1.00  0.00     0.191 C 
BRANCH  18  19
HETATM   19  O2  UNL     1       2.913   1.622  -0.021  1.00  0.00    -0.321 OA
BRANCH  19  20
HETATM   20  C2  UNL     1       3.970   2.300   0.501  1.00  0.00     0.254 C 
HETATM   21  C1  UNL     1       4.889   3.066  -0.403  1.00  0.00     0.126 C 
HETATM   22  O1  UNL     1       4.239   2.331   1.732  1.00  0.00    -0.266 OA
ENDBRANCH  19  20
ENDBRANCH  18  19
ENDBRANCH   1  18
BRANCH  15  23
HETATM   23  O4  UNL     1       1.053   1.998  -1.362  1.00  0.00    -0.395 OA
ATOM     24  H4  UNL     1       0.555   2.610  -1.891  1.00  0.00     0.210 HD
ENDBRANCH  15  23
BRANCH   3  25
HETATM   25  O3  UNL     1       0.063  -1.717  -2.402  1.00  0.00    -0.390 OA
ATOM     26  H3  UNL     1      -0.444  -2.466  -2.694  1.00  0.00     0.210 HD
ENDBRANCH   3  25
TORSDOF 5
