REMARK  6 active torsions:
REMARK  status: ('A' for Active; 'I' for Inactive)
REMARK    1  A    between atoms: O1_2  and  C2_3 
REMARK    2  A    between atoms: C2_3  and  N1_4 
REMARK    3  A    between atoms: N2_6  and  C4_8 
REMARK    4  A    between atoms: C4_8  and  C5_9 
REMARK    5  A    between atoms: C5_9  and  N3_10 
REMARK    6  A    between atoms: C8_21  and  N6_22 
ROOT
HETATM    1  N1  UNL     1      -0.134   0.815   0.127  1.00  0.00    -0.154 N 
HETATM    2  C3  UNL     1       0.781  -0.157   0.423  1.00  0.00     0.683 A 
HETATM    3  N2  UNL     1       2.038   0.109   0.540  1.00  0.00    -0.224 N 
ATOM      4  H2  UNL     1       2.364   1.067   0.408  1.00  0.00     0.177 HD
HETATM    5  N4  UNL     1       0.163  -1.338   0.557  1.00  0.00    -0.184 N 
ATOM      6  H4  UNL     1       0.613  -2.226   0.778  1.00  0.00     0.184 HD
HETATM    7  C6  UNL     1      -1.151  -1.153   0.350  1.00  0.00     0.150 A 
HETATM    8  C7  UNL     1      -2.114  -2.142   0.402  1.00  0.00     0.289 C 
HETATM    9  O2  UNL     1      -1.774  -3.158   1.041  1.00  0.00    -0.265 OA
HETATM   10  N5  UNL     1      -3.325  -2.066  -0.167  1.00  0.00    -0.154 N 
ATOM     11  H5  UNL     1      -3.870  -2.928  -0.139  1.00  0.00     0.187 HD
HETATM   12  C8  UNL     1      -3.938  -1.018  -0.775  1.00  0.00     0.681 C 
HETATM   13  N7  UNL     1      -3.604   0.283  -0.713  1.00  0.00    -0.154 N 
ATOM     14  H7  UNL     1      -4.282   0.924  -1.125  1.00  0.00     0.187 HD
HETATM   15  C9  UNL     1      -2.519   0.862  -0.193  1.00  0.00     0.289 C 
HETATM   16  O3  UNL     1      -2.524   2.084   0.088  1.00  0.00    -0.265 OA
HETATM   17  C10 UNL     1      -1.323   0.208   0.081  1.00  0.00     0.155 A 
ENDROOT
BRANCH   1  18
HETATM   18  C2  UNL     1       0.108   2.206  -0.095  1.00  0.00     0.317 C 
BRANCH  18  19
HETATM   19  O1  UNL     1       0.035   2.983   1.064  1.00  0.00    -0.376 OA
HETATM   20  C1  UNL     1       0.301   4.312   0.663  1.00  0.00     0.203 C 
ENDBRANCH  18  19
ENDBRANCH   1  18
BRANCH   3  21
HETATM   21  C4  UNL     1       2.994  -0.935   0.856  1.00  0.00     0.165 C 
BRANCH  21  22
HETATM   22  C5  UNL     1       3.675  -1.308  -0.449  1.00  0.00     0.249 C 
BRANCH  22  23
HETATM   23  N3  UNL     1       4.659  -2.345  -0.283  1.00  0.00    -0.078 N 
ATOM     24  H33 UNL     1       5.344  -2.089   0.428  1.00  0.00     0.274 HD
ATOM     25  H32 UNL     1       4.254  -3.166   0.167  1.00  0.00     0.274 HD
ATOM     26  H31 UNL     1       5.116  -2.596  -1.160  1.00  0.00     0.274 HD
ENDBRANCH  22  23
ENDBRANCH  21  22
ENDBRANCH   3  21
BRANCH  12  27
HETATM   27  N6  UNL     1      -4.966  -1.300  -1.501  1.00  0.00    -0.234 N 
ATOM     28  H62 UNL     1      -5.219  -2.287  -1.548  1.00  0.00     0.174 HD
ATOM     29  H61 UNL     1      -5.426  -0.513  -1.958  1.00  0.00     0.174 HD
ENDBRANCH  12  27
TORSDOF 6
