REMARK  6 active torsions:
REMARK  status: ('A' for Active; 'I' for Inactive)
REMARK       I    between atoms: N1_2  and  C2_4 
REMARK    1  A    between atoms: C2_4  and  C3_6 
REMARK    2  A    between atoms: C3_6  and  N2_7 
REMARK       I    between atoms: N2_7  and  C4_9 
REMARK       I    between atoms: C4_9  and  N3_11 
REMARK    3  A    between atoms: N3_11  and  N4_13 
REMARK    4  A    between atoms: N4_13  and  C5_15 
REMARK    5  A    between atoms: C5_15  and  C6_17 
REMARK    6  A    between atoms: C6_17  and  N5_18 
REMARK       I    between atoms: N5_18  and  C7_20 
ROOT
HETATM    1  N2  UNL     1       2.196  -1.700  -0.948  1.00  0.00    -0.333 N 
ATOM      2  H2  UNL     1       1.991  -1.913  -1.924  1.00  0.00     0.164 HD
HETATM    3  C4  UNL     1       1.340  -0.795  -0.275  1.00  0.00     0.335 C 
HETATM    4  O2  UNL     1       1.582  -0.533   0.950  1.00  0.00    -0.246 OA
HETATM    5  N3  UNL     1       0.242  -0.186  -0.918  1.00  0.00    -0.251 N 
ATOM      6  H3  UNL     1       0.042  -0.389  -1.897  1.00  0.00     0.191 HD
ENDROOT
BRANCH   5   7
HETATM    7  N4  UNL     1      -0.577   0.707  -0.193  1.00  0.00    -0.289 N 
ATOM      8  H4  UNL     1      -0.153   1.353   0.473  1.00  0.00     0.188 HD
BRANCH   7   9
HETATM    9  C5  UNL     1      -1.974   0.716  -0.380  1.00  0.00     0.110 C 
HETATM   10  S1  UNL     1      -2.645  -0.293  -1.449  1.00  0.00    -0.062 SA
BRANCH   9  11
HETATM   11  C6  UNL     1      -2.797   1.658   0.392  1.00  0.00     0.193 C 
BRANCH  11  12
HETATM   12  N5  UNL     1      -4.220   1.490   0.225  1.00  0.00    -0.355 N 
HETATM   13  C7  UNL     1      -4.864   0.293   0.605  1.00  0.00     0.213 C 
HETATM   14  C8  UNL     1      -6.343   0.195   0.394  1.00  0.00     0.117 C 
HETATM   15  O3  UNL     1      -4.319  -0.710   1.106  1.00  0.00    -0.274 OA
ATOM     16  H5  UNL     1      -4.771   2.250  -0.175  1.00  0.00     0.162 HD
ENDBRANCH  11  12
ENDBRANCH   9  11
ENDBRANCH   7   9
ENDBRANCH   5   7
BRANCH   1  17
HETATM   17  C3  UNL     1       3.328  -2.334  -0.351  1.00  0.00     0.227 C 
BRANCH  17  18
HETATM   18  C2  UNL     1       4.365  -1.367   0.030  1.00  0.00     0.234 C 
HETATM   19  N1  UNL     1       4.350   0.021  -0.211  1.00  0.00    -0.364 N 
HETATM   20  C1  UNL     1       5.473   0.830   0.254  1.00  0.00     0.149 C 
ATOM     21  H1  UNL     1       3.568   0.454  -0.702  1.00  0.00     0.161 HD
HETATM   22  O1  UNL     1       5.375  -1.866   0.637  1.00  0.00    -0.272 OA
ENDBRANCH  17  18
ENDBRANCH   1  17
TORSDOF 6
