REMARK  3 active torsions:
REMARK  status: ('A' for Active; 'I' for Inactive)
REMARK    1  A    between atoms: S1_2  and  N1_5 
REMARK       I    between atoms: N1_5  and  C2_7 
REMARK       I    between atoms: C2_7  and  N2_9 
REMARK    2  A    between atoms: N2_9  and  N3_11 
REMARK    3  A    between atoms: C5_14  and  N4_15 
REMARK       I    between atoms: N4_15  and  C6_17 
ROOT
HETATM    1  N3  UNL     1       0.145   0.984   0.358  1.00  0.00    -0.322 N 
HETATM    2  C3  UNL     1       0.565   1.315  -0.962  1.00  0.00     0.144 C 
HETATM    3  C4  UNL     1       2.045   0.905  -0.877  1.00  0.00     0.048 C 
HETATM    4  C5  UNL     1       1.937  -0.446  -0.194  1.00  0.00     0.105 C 
HETATM    5  C7  UNL     1       0.726  -0.255   0.724  1.00  0.00     0.167 C 
ENDROOT
BRANCH   1   6
HETATM    6  N2  UNL     1      -1.144   1.233   0.702  1.00  0.00    -0.253 N 
HETATM    7  C2  UNL     1      -2.315   0.728   0.085  1.00  0.00     0.348 C 
HETATM    8  N1  UNL     1      -3.608   1.078   0.555  1.00  0.00    -0.235 N 
HETATM    9  O3  UNL     1      -2.272  -0.052  -0.906  1.00  0.00    -0.245 OA
ATOM     10  H1  UNL     1      -3.675   1.708   1.355  1.00  0.00     0.183 HD
ATOM     11  H2  UNL     1      -1.286   1.856   1.497  1.00  0.00     0.191 HD
BRANCH   8  12
HETATM   12  S1  UNL     1      -5.056   0.506  -0.141  1.00  0.00     0.230 S 
HETATM   13  C1  UNL     1      -5.216  -1.233   0.188  1.00  0.00     0.186 C 
HETATM   14  O1  UNL     1      -6.271   1.176   0.452  1.00  0.00    -0.206 OA
HETATM   15  O2  UNL     1      -5.128   0.702  -1.621  1.00  0.00    -0.206 OA
ENDBRANCH   8  12
ENDBRANCH   1   6
BRANCH   4  16
HETATM   16  N4  UNL     1       3.100  -0.748   0.595  1.00  0.00    -0.359 N 
HETATM   17  C6  UNL     1       4.416  -0.823   0.058  1.00  0.00     0.182 C 
HETATM   18  N5  UNL     1       4.853   0.084  -0.745  1.00  0.00    -0.374 N 
HETATM   19  N6  UNL     1       5.302  -1.886   0.374  1.00  0.00    -0.064 NA
ATOM     20  H52 UNL     1       4.216   0.848  -0.972  1.00  0.00     0.158 HD
ATOM     21  H51 UNL     1       5.796   0.030  -1.130  1.00  0.00     0.158 HD
ATOM     22  H4  UNL     1       2.976  -0.918   1.593  1.00  0.00     0.162 HD
ENDBRANCH   4  16
TORSDOF 3
