REMARK  11 active torsions:
REMARK  status: ('A' for Active; 'I' for Inactive)
REMARK    1  A    between atoms: C1_2  and  S1_4 
REMARK    2  A    between atoms: S1_4  and  C2_7 
REMARK    3  A    between atoms: C4_9  and  O4_10 
REMARK    4  A    between atoms: C5_12  and  N2_13 
REMARK    5  A    between atoms: N2_13  and  C6_15 
REMARK    6  A    between atoms: C6_15  and  N3_16 
REMARK    7  A    between atoms: C6_15  and  C9_29 
REMARK    8  A    between atoms: N3_16  and  C7_18 
REMARK    9  A    between atoms: C8_23  and  O5_24 
REMARK   10  A    between atoms: C8_23  and  O6_26 
REMARK   11  A    between atoms: C10_32  and  O10_33 
ROOT
HETATM    1  N2  UNL     1      -0.203   0.536  -0.771  1.00  0.00    -0.356 N 
ATOM      2  H2  UNL     1      -0.344   1.154  -1.570  1.00  0.00     0.162 HD
ENDROOT
BRANCH   1   3
HETATM    3  C5  UNL     1       1.129   0.265  -0.387  1.00  0.00     0.099 A 
HETATM    4  C4  UNL     1       1.560   0.823   0.833  1.00  0.00     0.096 A 
HETATM    5  C3  UNL     1       2.840   0.662   1.306  1.00  0.00     0.065 A 
HETATM    6  C2  UNL     1       3.762  -0.077   0.565  1.00  0.00     0.098 A 
HETATM    7  C11 UNL     1       3.359  -0.627  -0.628  1.00  0.00     0.103 A 
HETATM    8  C10 UNL     1       2.046  -0.450  -1.094  1.00  0.00     0.120 A 
HETATM    9  N7  UNL     1       4.296  -1.382  -1.377  1.00  0.00    -0.098 NA
BRANCH   4  10
HETATM   10  O4  UNL     1       0.682   1.553   1.581  1.00  0.00    -0.358 OA
ATOM     11  H4  UNL     1      -0.203   1.664   1.254  1.00  0.00     0.217 HD
ENDBRANCH   4  10
BRANCH   6  12
HETATM   12  S1  UNL     1       5.387  -0.273   1.173  1.00  0.00     0.260 S 
HETATM   13  O2  UNL     1       5.489   0.356   2.544  1.00  0.00    -0.213 OA
HETATM   14  O3  UNL     1       5.624  -1.773   1.277  1.00  0.00    -0.213 OA
BRANCH  12  15
HETATM   15  C1  UNL     1       6.579   0.399   0.087  1.00  0.00     0.354 C 
HETATM   16  N1  UNL     1       7.207  -0.352  -0.947  1.00  0.00    -0.046 NA
HETATM   17  O1  UNL     1       6.903   1.606   0.219  1.00  0.00    -0.258 OA
ENDBRANCH  12  15
ENDBRANCH   6  12
BRANCH   8  18
HETATM   18  O10 UNL     1       1.733  -1.025  -2.296  1.00  0.00    -0.357 OA
ATOM     19  H10 UNL     1       2.373  -1.524  -2.790  1.00  0.00     0.218 HD
ENDBRANCH   8  18
ENDBRANCH   1   3
BRANCH   1  20
HETATM   20  C6  UNL     1      -1.400   0.001  -0.114  1.00  0.00     0.284 C 
BRANCH  20  21
HETATM   21  N3  UNL     1      -2.516   0.505  -0.836  1.00  0.00    -0.353 N 
ATOM     22  H3  UNL     1      -2.353   1.038  -1.690  1.00  0.00     0.159 HD
BRANCH  21  23
HETATM   23  C7  UNL     1      -3.828   0.292  -0.412  1.00  0.00     0.343 C 
HETATM   24  N4  UNL     1      -4.323  -1.065  -0.394  1.00  0.00    -0.073 NA
HETATM   25  N5  UNL     1      -5.731  -0.943  -0.585  1.00  0.00    -0.025 NA
HETATM   26  N6  UNL     1      -6.301  -0.123   0.354  1.00  0.00    -0.240 N 
HETATM   27  C8  UNL     1      -5.524   0.924   0.901  1.00  0.00     0.388 C 
ATOM     28  H6  UNL     1      -7.266  -0.265   0.652  1.00  0.00     0.185 HD
HETATM   29  O7  UNL     1      -4.161   0.813   0.852  1.00  0.00    -0.273 OA
BRANCH  27  30
HETATM   30  O5  UNL     1      -5.957   1.094   2.240  1.00  0.00    -0.324 OA
ATOM     31  H5  UNL     1      -5.435   1.797   2.608  1.00  0.00     0.217 HD
ENDBRANCH  27  30
BRANCH  27  32
HETATM   32  O6  UNL     1      -5.841   2.165   0.293  1.00  0.00    -0.324 OA
ATOM     33  H6  UNL     1      -5.319   2.868   0.661  1.00  0.00     0.217 HD
ENDBRANCH  27  32
ENDBRANCH  21  23
ENDBRANCH  20  21
BRANCH  20  34
HETATM   34  C9  UNL     1      -1.312  -1.453  -0.026  1.00  0.00     0.217 C 
HETATM   35  O8  UNL     1      -0.947  -2.210  -0.938  1.00  0.00    -0.645 OA
HETATM   36  O9  UNL     1      -1.662  -2.089   1.190  1.00  0.00    -0.645 OA
ENDBRANCH  20  34
ENDBRANCH   1  20
TORSDOF 11
