REMARK  4 active torsions:
REMARK  status: ('A' for Active; 'I' for Inactive)
REMARK    1  A    between atoms: N2_7  and  C4_8 
REMARK    2  A    between atoms: C8_12  and  N3_13 
REMARK    3  A    between atoms: N3_13  and  N4_15 
REMARK    4  A    between atoms: N4_15  and  C9_17 
ROOT
HETATM    1  C4  UNL     1      -1.277   0.655  -0.339  1.00  0.00     0.113 A 
HETATM    2  C5  UNL     1      -0.717   1.909  -0.573  1.00  0.00     0.049 A 
HETATM    3  C6  UNL     1       0.612   2.007  -0.872  1.00  0.00     0.007 A 
HETATM    4  C7  UNL     1       1.376   0.846  -0.934  1.00  0.00     0.050 A 
HETATM    5  C8  UNL     1       0.793  -0.381  -0.698  1.00  0.00     0.121 A 
HETATM    6  N9  UNL     1      -0.514  -0.451  -0.406  1.00  0.00    -0.327 N 
ATOM      7  H9  UNL     1      -0.938  -1.362  -0.231  1.00  0.00     0.169 HD
ENDROOT
BRANCH   5   8
HETATM    8  N3  UNL     1       1.476  -1.496  -0.747  1.00  0.00    -0.283 N 
ATOM      9  H3  UNL     1       1.005  -2.382  -0.565  1.00  0.00     0.188 HD
BRANCH   8  10
HETATM   10  N4  UNL     1       2.838  -1.491  -1.044  1.00  0.00    -0.268 N 
ATOM     11  H4  UNL     1       3.167  -1.747  -1.975  1.00  0.00     0.190 HD
BRANCH  10  12
HETATM   12  C9  UNL     1       3.771  -1.120  -0.017  1.00  0.00     0.224 A 
HETATM   13  N5  UNL     1       3.518  -0.987   1.238  1.00  0.00    -0.255 N 
HETATM   14  N6  UNL     1       4.665  -0.614   1.946  1.00  0.00    -0.006 NA
ATOM     15  H5  UNL     1       2.601  -1.134   1.661  1.00  0.00     0.187 HD
HETATM   16  N7  UNL     1       5.743  -0.576   1.056  1.00  0.00    -0.006 NA
HETATM   17  N8  UNL     1       5.152  -0.829  -0.201  1.00  0.00    -0.255 N 
ATOM     18  H8  UNL     1       5.637  -0.807  -1.098  1.00  0.00     0.187 HD
ENDBRANCH  10  12
ENDBRANCH   8  10
ENDBRANCH   5   8
BRANCH   1  19
HETATM   19  N2  UNL     1      -2.650   0.503  -0.026  1.00  0.00    -0.304 N 
HETATM   20  C3  UNL     1      -3.426  -0.358  -0.699  1.00  0.00     0.103 A 
HETATM   21  C2  UNL     1      -4.771  -0.523  -0.411  1.00  0.00     0.066 A 
HETATM   22  C1  UNL     1      -5.332   0.220   0.600  1.00  0.00     0.100 A 
HETATM   23  N1  UNL     1      -6.576   0.128   0.933  1.00  0.00    -0.385 N 
HETATM   24  N10 UNL     1      -4.535   1.078   1.261  1.00  0.00    -0.339 N 
ATOM     25  H12 UNL     1      -7.181  -0.523   0.432  1.00  0.00     0.157 HD
ATOM     26  H11 UNL     1      -6.992   0.679   1.683  1.00  0.00     0.157 HD
HETATM   27  C10 UNL     1      -3.214   1.220   0.957  1.00  0.00     0.191 A 
ATOM     28  H10 UNL     1      -4.932   1.640   2.014  1.00  0.00     0.168 HD
ENDBRANCH   1  19
TORSDOF 4
