REMARK  8 active torsions:
REMARK  status: ('A' for Active; 'I' for Inactive)
REMARK       I    between atoms: N1_2  and  C2_4 
REMARK    1  A    between atoms: C2_4  and  C3_6 
REMARK    2  A    between atoms: C10_13  and  O2_14 
REMARK    3  A    between atoms: C12_17  and  C13_18 
REMARK    4  A    between atoms: N3_20  and  O3_22 
REMARK    5  A    between atoms: C16_26  and  C17_27 
REMARK    6  A    between atoms: C17_27  and  C18_28 
REMARK    7  A    between atoms: C18_28  and  C19_29 
REMARK    8  A    between atoms: C19_29  and  O4_30 
ROOT
HETATM    1  C3  UNL     1      -2.605  -0.489   0.236  1.00  0.00     0.042 C 
HETATM    2  C4  UNL     1      -3.270  -1.664   1.006  1.00  0.00     0.026 C 
HETATM    3  C5  UNL     1      -2.036  -1.200  -1.013  1.00  0.00     0.052 C 
HETATM    4  C6  UNL     1      -0.591  -1.011  -0.836  1.00  0.00    -0.081 C 
HETATM    5  C7  UNL     1       0.534  -1.569  -1.498  1.00  0.00    -0.019 C 
HETATM    6  C8  UNL     1       1.642  -2.038  -0.656  1.00  0.00     0.018 C 
HETATM    7  C9  UNL     1       1.457  -2.214   0.821  1.00  0.00     0.047 C 
HETATM    8  C10 UNL     1       1.826  -0.783   1.060  1.00  0.00     0.064 C 
HETATM    9  C11 UNL     1       0.902   0.242   1.295  1.00  0.00     0.055 C 
HETATM   10  C12 UNL     1      -0.337   0.711   0.658  1.00  0.00     0.025 C 
HETATM   11  C14 UNL     1      -0.448   0.483  -0.799  1.00  0.00     0.051 C 
HETATM   12  C15 UNL     1      -1.622   0.055   1.195  1.00  0.00     0.036 C 
HETATM   13  C16 UNL     1       2.652  -1.037  -0.140  1.00  0.00     0.028 C 
ENDROOT
BRANCH   1  14
HETATM   14  C2  UNL     1      -3.745   0.377  -0.080  1.00  0.00     0.226 C 
HETATM   15  N1  UNL     1      -4.813  -0.040  -0.901  1.00  0.00    -0.365 N 
HETATM   16  C1  UNL     1      -5.931   0.835  -1.199  1.00  0.00     0.149 C 
ATOM     17  H1  UNL     1      -4.799  -0.981  -1.295  1.00  0.00     0.161 HD
HETATM   18  O1  UNL     1      -3.770   1.533   0.401  1.00  0.00    -0.273 OA
ENDBRANCH   1  14
BRANCH  10  19
HETATM   19  C13 UNL     1      -0.542   2.181   0.883  1.00  0.00     0.122 C 
HETATM   20  N2  UNL     1      -0.678   2.672   2.212  1.00  0.00    -0.085 NA
HETATM   21  N3  UNL     1      -0.596   3.022  -0.088  1.00  0.00    -0.259 N 
ATOM     22  H3  UNL     1      -0.494   2.659  -1.036  1.00  0.00     0.195 HD
BRANCH  21  23
HETATM   23  O3  UNL     1      -0.778   4.354   0.059  1.00  0.00    -0.289 OA
ATOM     24  H3  UNL     1      -0.818   4.975  -0.658  1.00  0.00     0.244 HD
ENDBRANCH  21  23
ENDBRANCH  10  19
BRANCH   8  25
HETATM   25  O2  UNL     1       2.702  -0.757   2.210  1.00  0.00    -0.389 OA
ATOM     26  H2  UNL     1       2.936   0.151   2.362  1.00  0.00     0.210 HD
ENDBRANCH   8  25
BRANCH  13  27
HETATM   27  C17 UNL     1       3.226  -0.024  -0.976  1.00  0.00     0.010 C 
BRANCH  27  28
HETATM   28  C18 UNL     1       4.233   0.824  -0.242  1.00  0.00     0.027 C 
BRANCH  28  29
HETATM   29  C19 UNL     1       5.431   0.068   0.251  1.00  0.00     0.164 C 
BRANCH  29  30
HETATM   30  O4  UNL     1       6.265   0.993   0.918  1.00  0.00    -0.401 OA
ATOM     31  H4  UNL     1       7.024   0.514   1.230  1.00  0.00     0.209 HD
ENDBRANCH  29  30
ENDBRANCH  28  29
ENDBRANCH  27  28
ENDBRANCH  13  27
TORSDOF 8
