REMARK  7 active torsions:
REMARK  status: ('A' for Active; 'I' for Inactive)
REMARK    1  A    between atoms: N1_1  and  C1_4 
REMARK    2  A    between atoms: C3_10  and  C4_11 
REMARK    3  A    between atoms: C4_11  and  C5_12 
REMARK    4  A    between atoms: C5_12  and  C6_13 
REMARK    5  A    between atoms: C6_13  and  C7_14 
REMARK    6  A    between atoms: C7_14  and  C8_15 
REMARK    7  A    between atoms: C8_15  and  N4_16 
ROOT
HETATM    1  C4  UNL     1       2.913  -1.073  -0.368  1.00  0.00     0.059 C 
ENDROOT
BRANCH   1   2
HETATM    2  C3  UNL     1       3.615   0.166  -0.800  1.00  0.00     0.043 A 
HETATM    3  C2  UNL     1       3.565   0.617  -2.079  1.00  0.00     0.133 A 
HETATM    4  N3  UNL     1       4.213   1.740  -2.463  1.00  0.00    -0.296 N 
HETATM    5  N2  UNL     1       4.901   2.397  -1.562  1.00  0.00    -0.133 N 
ATOM      6  H3  UNL     1       4.167   2.067  -3.428  1.00  0.00     0.186 HD
HETATM    7  C1  UNL     1       4.987   2.005  -0.292  1.00  0.00     0.690 A 
ATOM      8  H2  UNL     1       5.392   3.245  -1.845  1.00  0.00     0.205 HD
HETATM    9  N6  UNL     1       4.349   0.898   0.084  1.00  0.00    -0.193 N 
ATOM     10  H6  UNL     1       4.411   0.592   1.055  1.00  0.00     0.184 HD
BRANCH   7  11
HETATM   11  N1  UNL     1       5.682   2.676   0.584  1.00  0.00    -0.233 N 
ATOM     12  H12 UNL     1       6.171   3.524   0.296  1.00  0.00     0.174 HD
ATOM     13  H11 UNL     1       5.748   2.376   1.557  1.00  0.00     0.174 HD
ENDBRANCH   7  11
ENDBRANCH   1   2
BRANCH   1  14
HETATM   14  C5  UNL     1       1.502  -0.794   0.098  1.00  0.00     0.006 C 
BRANCH  14  15
HETATM   15  C6  UNL     1       0.793  -2.029   0.545  1.00  0.00     0.002 C 
BRANCH  15  16
HETATM   16  C7  UNL     1      -0.626  -1.753   1.021  1.00  0.00     0.030 C 
BRANCH  16  17
HETATM   17  C8  UNL     1      -1.500  -1.150  -0.037  1.00  0.00     0.272 C 
BRANCH  17  18
HETATM   18  N4  UNL     1      -2.829  -0.925   0.507  1.00  0.00     0.091 N 
HETATM   19  C9  UNL     1      -3.771  -0.597  -0.515  1.00  0.00     0.300 C 
HETATM   20  C10 UNL     1      -3.946   0.860  -0.661  1.00  0.00     0.262 C 
HETATM   21  N5  UNL     1      -4.546   1.337   0.567  1.00  0.00    -0.072 N 
HETATM   22  C11 UNL     1      -3.741   1.066   1.723  1.00  0.00     0.262 C 
ATOM     23  H52 UNL     1      -4.769   2.330   0.502  1.00  0.00     0.277 HD
ATOM     24  H51 UNL     1      -5.488   0.963   0.682  1.00  0.00     0.277 HD
HETATM   25  C12 UNL     1      -2.834  -0.087   1.654  1.00  0.00     0.300 C 
ENDBRANCH  17  18
ENDBRANCH  16  17
ENDBRANCH  15  16
ENDBRANCH  14  15
ENDBRANCH   1  14
TORSDOF 7
