REMARK  6 active torsions:
REMARK  status: ('A' for Active; 'I' for Inactive)
REMARK    1  A    between atoms: C1_4  and  C2_6 
REMARK    2  A    between atoms: C2_6  and  N3_7 
REMARK    3  A    between atoms: N3_7  and  C3_10 
REMARK    4  A    between atoms: C3_10  and  C4_11 
REMARK    5  A    between atoms: C4_11  and  N4_12 
REMARK    6  A    between atoms: C6_14  and  C7_15 
ROOT
HETATM    1  N4  UNL     1      -0.207   0.198   1.383  1.00  0.00    -0.285 N 
HETATM    2  C5  UNL     1      -1.205  -0.463   0.774  1.00  0.00     0.143 A 
HETATM    3  C6  UNL     1      -2.363   0.290   0.851  1.00  0.00     0.076 A 
HETATM    4  N5  UNL     1      -2.006   1.401   1.520  1.00  0.00    -0.284 N 
ATOM      5  H5  UNL     1      -2.628   2.175   1.752  1.00  0.00     0.188 HD
HETATM    6  N6  UNL     1      -0.710   1.331   1.832  1.00  0.00    -0.240 N 
ATOM      7  H6  UNL     1      -0.188   2.045   2.340  1.00  0.00     0.208 HD
ENDROOT
BRANCH   1   8
HETATM    8  C4  UNL     1       1.171  -0.210   1.542  1.00  0.00     0.177 C 
BRANCH   8   9
HETATM    9  C3  UNL     1       1.940   0.297   0.358  1.00  0.00     0.254 C 
BRANCH   9  10
HETATM   10  N3  UNL     1       3.340  -0.042   0.389  1.00  0.00    -0.067 N 
ATOM     11  H32 UNL     1       3.510  -1.042   0.493  1.00  0.00     0.277 HD
ATOM     12  H31 UNL     1       3.808   0.257   1.245  1.00  0.00     0.277 HD
BRANCH  10  13
HETATM   13  C2  UNL     1       3.936   0.521  -0.822  1.00  0.00     0.304 C 
BRANCH  13  14
HETATM   14  C1  UNL     1       5.381   0.225  -0.884  1.00  0.00     0.112 C 
HETATM   15  N1  UNL     1       5.995  -0.443   0.029  1.00  0.00    -0.390 N 
ATOM     16  H12 UNL     1       6.993  -0.648  -0.014  1.00  0.00     0.157 HD
ATOM     17  H11 UNL     1       5.477  -0.790   0.836  1.00  0.00     0.157 HD
HETATM   18  N2  UNL     1       6.103   0.709  -2.008  1.00  0.00    -0.086 NA
ENDBRANCH  13  14
ENDBRANCH  10  13
ENDBRANCH   9  10
ENDBRANCH   8   9
ENDBRANCH   1   8
BRANCH   3  19
HETATM   19  C7  UNL     1      -3.676  -0.060   0.318  1.00  0.00    -0.007 A 
HETATM   20  C8  UNL     1      -3.918  -1.234  -0.353  1.00  0.00     0.014 A 
HETATM   21  C9  UNL     1      -5.160  -1.531  -0.839  1.00  0.00     0.001 A 
HETATM   22  C10 UNL     1      -6.210  -0.648  -0.666  1.00  0.00     0.000 A 
HETATM   23  C11 UNL     1      -6.007   0.548   0.005  1.00  0.00     0.001 A 
HETATM   24  C12 UNL     1      -4.735   0.810   0.482  1.00  0.00     0.014 A 
ENDBRANCH   3  19
TORSDOF 6
