REMARK  10 active torsions:
REMARK  status: ('A' for Active; 'I' for Inactive)
REMARK    1  A    between atoms: C2_2  and  O1_5 
REMARK    2  A    between atoms: O1_5  and  C5_6 
REMARK    3  A    between atoms: C5_6  and  C6_7 
REMARK    4  A    between atoms: C6_7  and  C7_8 
REMARK    5  A    between atoms: C7_8  and  C8_9 
REMARK    6  A    between atoms: C12_16  and  C13_17 
REMARK    7  A    between atoms: C13_17  and  O3_19 
REMARK    8  A    between atoms: O3_19  and  C14_20 
REMARK    9  A    between atoms: C14_20  and  C15_21 
REMARK       I    between atoms: C15_21  and  N2_23 
REMARK   10  A    between atoms: N2_23  and  C16_25 
ROOT
HETATM    1  C8  UNL     1      -1.454   0.035  -1.324  1.00  0.00     0.103 A 
HETATM    2  N1  UNL     1      -1.771  -0.096  -2.648  1.00  0.00    -0.357 N 
ATOM      3  H1  UNL     1      -2.734   0.035  -2.957  1.00  0.00     0.166 HD
HETATM    4  C9  UNL     1      -0.817  -0.396  -3.540  1.00  0.00     0.108 A 
HETATM    5  C10 UNL     1       0.497  -0.583  -3.185  1.00  0.00     0.027 A 
HETATM    6 BR1  UNL     1       1.823  -1.013  -4.521  1.00  0.00    -0.050 Br
HETATM    7  C11 UNL     1       0.851  -0.460  -1.865  1.00  0.00     0.041 A 
HETATM    8  C12 UNL     1      -0.158  -0.146  -0.948  1.00  0.00     0.076 A 
ENDROOT
BRANCH   8   9
HETATM    9  C13 UNL     1       0.220  -0.015   0.450  1.00  0.00     0.296 C 
HETATM   10  O2  UNL     1      -0.535   0.254   1.384  1.00  0.00    -0.259 OA
BRANCH   9  11
HETATM   11  O3  UNL     1       1.574  -0.207   0.819  1.00  0.00    -0.308 OA
BRANCH  11  12
HETATM   12  C14 UNL     1       1.986  -0.089   2.168  1.00  0.00     0.281 C 
BRANCH  12  13
HETATM   13  C15 UNL     1       3.426  -0.334   2.279  1.00  0.00     0.242 C 
HETATM   14  O4  UNL     1       3.956  -0.267   3.423  1.00  0.00    -0.271 OA
HETATM   15  N2  UNL     1       4.271  -0.643   1.183  1.00  0.00    -0.355 N 
ATOM     16  H2  UNL     1       3.846  -0.697   0.258  1.00  0.00     0.162 HD
BRANCH  15  17
HETATM   17  C16 UNL     1       5.671  -0.883   1.282  1.00  0.00     0.084 C 
HETATM   18  C17 UNL     1       6.489   0.073   0.415  1.00  0.00     0.025 C 
HETATM   19  C18 UNL     1       6.556  -0.553  -0.946  1.00  0.00     0.002 C 
HETATM   20  C19 UNL     1       6.359  -2.036  -0.727  1.00  0.00     0.002 C 
HETATM   21  C20 UNL     1       6.102  -2.224   0.744  1.00  0.00     0.025 C 
ENDBRANCH  15  17
ENDBRANCH  12  13
ENDBRANCH  11  12
ENDBRANCH   9  11
ENDBRANCH   8   9
BRANCH   1  22
HETATM   22  C7  UNL     1      -2.467   0.354  -0.365  1.00  0.00    -0.045 C 
BRANCH  22  23
HETATM   23  C6  UNL     1      -3.364   0.630   0.437  1.00  0.00    -0.073 C 
BRANCH  23  24
HETATM   24  C5  UNL     1      -4.391   0.946   1.415  1.00  0.00     0.262 C 
BRANCH  24  25
HETATM   25  O1  UNL     1      -5.373   1.731   0.948  1.00  0.00    -0.370 OA
BRANCH  25  26
HETATM   26  C2  UNL     1      -6.190   1.358  -0.048  1.00  0.00     0.051 C 
HETATM   27  C1  UNL     1      -6.947   0.068   0.212  1.00  0.00     0.045 C 
HETATM   28  C3  UNL     1      -7.326   2.432  -0.098  1.00  0.00     0.045 C 
HETATM   29  C4  UNL     1      -5.572   1.363  -1.402  1.00  0.00     0.045 C 
ENDBRANCH  25  26
ENDBRANCH  24  25
ENDBRANCH  23  24
ENDBRANCH  22  23
ENDBRANCH   1  22
TORSDOF 10
