REMARK  7 active torsions:
REMARK  status: ('A' for Active; 'I' for Inactive)
REMARK    1  A    between atoms: C2_2  and  N1_4 
REMARK       I    between atoms: N1_4  and  C4_6 
REMARK       I    between atoms: C4_6  and  N2_8 
REMARK    2  A    between atoms: N2_8  and  C5_9 
REMARK    3  A    between atoms: N2_8  and  C22_31 
REMARK    4  A    between atoms: C5_9  and  C6_10 
REMARK       I    between atoms: N3_13  and  C9_14 
REMARK    5  A    between atoms: C9_14  and  O3_16 
REMARK    6  A    between atoms: O3_16  and  C10_17 
REMARK    7  A    between atoms: N4_20  and  C13_21 
ROOT
HETATM    1  C6  UNL     1      -2.909   0.509  -0.229  1.00  0.00     0.008 C 
HETATM    2  C7  UNL     1      -2.531  -0.925  -0.291  1.00  0.00     0.026 C 
HETATM    3  C8  UNL     1      -1.134  -1.187  -0.753  1.00  0.00     0.128 C 
HETATM    4  N3  UNL     1      -0.161  -0.208  -0.402  1.00  0.00    -0.328 N 
HETATM    5  C9  UNL     1       1.221  -0.529  -0.531  1.00  0.00     0.363 C 
HETATM    6  O2  UNL     1       1.591  -1.649  -0.949  1.00  0.00    -0.238 OA
HETATM    7  C20 UNL     1      -0.593   1.089   0.073  1.00  0.00     0.128 C 
HETATM    8  C21 UNL     1      -1.838   1.434  -0.761  1.00  0.00     0.026 C 
ENDROOT
BRANCH   1   9
HETATM    9  C5  UNL     1      -4.242   0.860  -0.802  1.00  0.00     0.157 C 
BRANCH   9  10
HETATM   10  N2  UNL     1      -5.362   0.204  -0.156  1.00  0.00    -0.132 N 
HETATM   11  C4  UNL     1      -5.986   0.839   0.946  1.00  0.00     0.337 C 
HETATM   12  N1  UNL     1      -7.096   0.301   1.619  1.00  0.00    -0.338 N 
HETATM   13  O1  UNL     1      -5.533   1.945   1.354  1.00  0.00    -0.246 OA
ATOM     14  H1  UNL     1      -7.484  -0.591   1.311  1.00  0.00     0.164 HD
BRANCH  12  15
HETATM   15  C2  UNL     1      -7.708   0.997   2.756  1.00  0.00     0.078 C 
HETATM   16  C1  UNL     1      -7.689   0.104   3.955  1.00  0.00     0.032 C 
HETATM   17  C3  UNL     1      -9.136   1.351   2.338  1.00  0.00     0.032 C 
ENDBRANCH  12  15
BRANCH  10  18
HETATM   18  C22 UNL     1      -5.825  -1.049  -0.631  1.00  0.00     0.688 A 
HETATM   19  N5  UNL     1      -6.260  -1.150  -1.903  1.00  0.00    -0.198 N 
HETATM   20  C23 UNL     1      -6.710  -2.306  -2.407  1.00  0.00     0.149 A 
ATOM     21  H5  UNL     1      -6.246  -0.322  -2.499  1.00  0.00     0.183 HD
HETATM   22  C24 UNL     1      -6.747  -3.455  -1.633  1.00  0.00     0.148 A 
HETATM   23  F1  UNL     1      -7.206  -4.625  -2.152  1.00  0.00    -0.203 F 
HETATM   24  C25 UNL     1      -6.305  -3.357  -0.337  1.00  0.00     0.149 A 
HETATM   25  N6  UNL     1      -5.862  -2.176   0.124  1.00  0.00    -0.198 N 
ATOM     26  H6  UNL     1      -5.537  -2.124   1.089  1.00  0.00     0.183 HD
ENDBRANCH  10  18
ENDBRANCH   9  10
ENDBRANCH   1   9
BRANCH   5  27
HETATM   27  O3  UNL     1       2.225   0.376  -0.201  1.00  0.00    -0.298 OA
BRANCH  27  28
HETATM   28  C10 UNL     1       3.597   0.098  -0.316  1.00  0.00     0.140 C 
HETATM   29  C11 UNL     1       4.312   0.130   1.005  1.00  0.00     0.077 C 
HETATM   30  C12 UNL     1       5.782   0.137   0.927  1.00  0.00     0.061 C 
HETATM   31  N4  UNL     1       6.430   0.340  -0.294  1.00  0.00    -0.388 N 
HETATM   32  C18 UNL     1       5.680   0.484  -1.484  1.00  0.00     0.125 C 
HETATM   33  C19 UNL     1       4.317   1.033  -1.239  1.00  0.00     0.053 C 
BRANCH  31  34
HETATM   34  C13 UNL     1       7.649  -0.418  -0.446  1.00  0.00     0.087 C 
HETATM   35  C14 UNL     1       8.619   0.017   0.612  1.00  0.00     0.051 C 
HETATM   36  C15 UNL     1       9.408   1.237   0.218  1.00  0.00     0.169 C 
HETATM   37  O4  UNL     1      10.087   0.949  -0.964  1.00  0.00    -0.391 OA
HETATM   38  C16 UNL     1       9.109   0.918  -1.979  1.00  0.00     0.169 C 
HETATM   39  C17 UNL     1       8.227  -0.306  -1.835  1.00  0.00     0.051 C 
ENDBRANCH  31  34
ENDBRANCH  27  28
ENDBRANCH   5  27
TORSDOF 7
