REMARK  8 active torsions:
REMARK  status: ('A' for Active; 'I' for Inactive)
REMARK    1  A    between atoms: C1_2  and  C2_3 
REMARK       I    between atoms: C1_2  and  N6_27 
REMARK    2  A    between atoms: C2_3  and  C3_4 
REMARK    3  A    between atoms: C3_4  and  C4_5 
REMARK    4  A    between atoms: C4_5  and  C5_6 
REMARK    5  A    between atoms: C5_6  and  N1_7 
REMARK       I    between atoms: N1_7  and  C6_9 
REMARK    6  A    between atoms: C6_9  and  C7_11 
REMARK    7  A    between atoms: C11_23  and  C12_24 
REMARK    8  A    between atoms: N6_27  and  C15_29 
ROOT
HETATM    1  N1  UNL     1      -1.761   0.384   0.342  1.00  0.00    -0.357 N 
ATOM      2  H1  UNL     1      -1.651   1.396   0.277  1.00  0.00     0.162 HD
HETATM    3  C6  UNL     1      -3.003  -0.168   0.001  1.00  0.00     0.255 C 
HETATM    4  O2  UNL     1      -3.273  -1.396   0.039  1.00  0.00    -0.268 OA
ENDROOT
BRANCH   3   5
HETATM    5  C7  UNL     1      -4.081   0.706  -0.434  1.00  0.00     0.072 A 
HETATM    6  C8  UNL     1      -3.903   1.576  -1.469  1.00  0.00     0.109 A 
HETATM    7  N2  UNL     1      -4.899   2.364  -1.853  1.00  0.00    -0.347 N 
HETATM    8  C9  UNL     1      -6.065   2.283  -1.204  1.00  0.00     0.164 A 
ATOM      9  H2  UNL     1      -4.778   3.018  -2.627  1.00  0.00     0.167 HD
HETATM   10  C10 UNL     1      -7.242   2.971  -1.393  1.00  0.00     0.142 A 
HETATM   11  N5  UNL     1      -6.259   1.424  -0.173  1.00  0.00    -0.226 N 
HETATM   12 BR1  UNL     1      -7.553   4.307  -2.703  1.00  0.00    -0.026 Br
HETATM   13  N3  UNL     1      -8.121   2.530  -0.490  1.00  0.00    -0.275 N 
HETATM   14  N4  UNL     1      -7.501   1.620   0.208  1.00  0.00    -0.233 N 
ATOM     15  H3  UNL     1      -9.085   2.842  -0.370  1.00  0.00     0.189 HD
ATOM     16  H4  UNL     1      -7.938   1.110   0.976  1.00  0.00     0.209 HD
HETATM   17  C11 UNL     1      -5.293   0.596   0.268  1.00  0.00     0.059 A 
BRANCH  17  18
HETATM   18  C12 UNL     1      -5.432  -0.345   1.378  1.00  0.00     0.039 A 
HETATM   19  C13 UNL     1      -6.633  -0.579   2.173  1.00  0.00     0.011 A 
HETATM   20  C14 UNL     1      -6.117  -1.652   1.214  1.00  0.00     0.011 A 
ENDBRANCH  17  18
ENDBRANCH   3   5
BRANCH   1  21
HETATM   21  C5  UNL     1      -0.623  -0.398   0.782  1.00  0.00     0.123 C 
BRANCH  21  22
HETATM   22  C4  UNL     1      -0.183  -1.403  -0.280  1.00  0.00     0.020 C 
BRANCH  22  23
HETATM   23  C3  UNL     1       0.175  -0.663  -1.517  1.00  0.00     0.011 C 
BRANCH  23  24
HETATM   24  C2  UNL     1       1.279   0.325  -1.373  1.00  0.00     0.103 C 
BRANCH  24  25
HETATM   25  C1  UNL     1       2.535  -0.327  -0.987  1.00  0.00     0.217 C 
HETATM   26  O1  UNL     1       2.650  -1.575  -0.930  1.00  0.00    -0.274 OA
HETATM   27  N6  UNL     1       3.706   0.447  -0.651  1.00  0.00    -0.356 N 
ATOM     28  H6  UNL     1       3.675   1.466  -0.680  1.00  0.00     0.162 HD
BRANCH  27  29
HETATM   29  C15 UNL     1       4.903  -0.223  -0.279  1.00  0.00     0.084 C 
HETATM   30  C16 UNL     1       5.340   0.233   1.095  1.00  0.00     0.025 C 
HETATM   31  C17 UNL     1       6.808  -0.028   1.241  1.00  0.00     0.002 C 
HETATM   32  C18 UNL     1       7.307  -1.221   0.470  1.00  0.00     0.000 C 
HETATM   33  C19 UNL     1       7.069  -1.061  -1.014  1.00  0.00     0.002 C 
HETATM   34  C20 UNL     1       6.051   0.036  -1.234  1.00  0.00     0.025 C 
ENDBRANCH  27  29
ENDBRANCH  24  25
ENDBRANCH  23  24
ENDBRANCH  22  23
ENDBRANCH  21  22
ENDBRANCH   1  21
TORSDOF 8
