REMARK  6 active torsions:
REMARK  status: ('A' for Active; 'I' for Inactive)
REMARK       I    between atoms: C1_2  and  N2_4 
REMARK    1  A    between atoms: N2_4  and  N3_6 
REMARK    2  A    between atoms: N3_6  and  C2_8 
REMARK    3  A    between atoms: C3_11  and  S1_12 
REMARK    4  A    between atoms: S1_12  and  C4_13 
REMARK    5  A    between atoms: C5_23  and  N9_24 
REMARK    6  A    between atoms: N9_24  and  O2_26 
ROOT
HETATM    1  C2  UNL     1       1.087   1.116   0.087  1.00  0.00     0.713 A 
HETATM    2  N4  UNL     1       0.256   0.348  -0.624  1.00  0.00    -0.167 N 
ATOM      3  H4  UNL     1       0.583  -0.507  -1.073  1.00  0.00     0.186 HD
HETATM    4  C3  UNL     1      -1.034   0.743  -0.728  1.00  0.00     0.182 A 
HETATM    5  N8  UNL     1      -1.466   1.871  -0.135  1.00  0.00    -0.167 N 
ATOM      6  H8  UNL     1      -2.445   2.141  -0.231  1.00  0.00     0.186 HD
HETATM    7  C5  UNL     1      -0.633   2.653   0.584  1.00  0.00     0.718 A 
HETATM    8  N10 UNL     1       0.644   2.240   0.673  1.00  0.00    -0.019 N 
ATOM      9  H10 UNL     1       1.304   2.804   1.208  1.00  0.00     0.203 HD
ENDROOT
BRANCH   4  10
HETATM   10  S1  UNL     1      -2.123  -0.296  -1.680  1.00  0.00    -0.015 SA
BRANCH  10  11
HETATM   11  C4  UNL     1      -2.859  -1.528  -0.567  1.00  0.00     0.174 A 
HETATM   12  N5  UNL     1      -2.286  -2.681  -0.355  1.00  0.00    -0.272 N 
HETATM   13  N6  UNL     1      -2.856  -3.527   0.452  1.00  0.00    -0.254 N 
ATOM     14  H5  UNL     1      -1.406  -2.915  -0.814  1.00  0.00     0.189 HD
HETATM   15  S2  UNL     1      -4.240  -2.710   0.944  1.00  0.00     0.085 SA
ATOM     16  H6  UNL     1      -2.540  -4.459   0.721  1.00  0.00     0.197 HD
HETATM   17  N7  UNL     1      -4.009  -1.292   0.068  1.00  0.00    -0.290 N 
ATOM     18  H7  UNL     1      -4.599  -0.461   0.031  1.00  0.00     0.178 HD
ENDBRANCH  10  11
ENDBRANCH   4  10
BRANCH   1  19
HETATM   19  N3  UNL     1       2.330   0.786   0.220  1.00  0.00    -0.128 N 
ATOM     20  H3  UNL     1       2.933   1.398   0.770  1.00  0.00     0.205 HD
BRANCH  19  21
HETATM   21  N2  UNL     1       2.892  -0.349  -0.340  1.00  0.00    -0.240 N 
HETATM   22  C1  UNL     1       2.656  -1.603   0.257  1.00  0.00     0.347 C 
HETATM   23  N1  UNL     1       3.248  -2.754  -0.342  1.00  0.00    -0.038 NA
HETATM   24  O1  UNL     1       1.940  -1.720   1.294  1.00  0.00    -0.249 OA
ATOM     25  H2  UNL     1       3.471  -0.278  -1.177  1.00  0.00     0.192 HD
ENDBRANCH  19  21
ENDBRANCH   1  19
BRANCH   7  26
HETATM   26  N9  UNL     1      -0.999   3.736   1.167  1.00  0.00    -0.098 N 
ATOM     27  H9  UNL     1      -0.323   4.285   1.698  1.00  0.00     0.213 HD
BRANCH  26  28
HETATM   28  O2  UNL     1      -2.313   4.155   1.072  1.00  0.00    -0.276 OA
ATOM     29  H2  UNL     1      -2.584   4.957   1.504  1.00  0.00     0.245 HD
ENDBRANCH  26  28
ENDBRANCH   7  26
TORSDOF 6
