REMARK  11 active torsions:
REMARK  status: ('A' for Active; 'I' for Inactive)
REMARK    1  A    between atoms: N1_1  and  C1_4 
REMARK    2  A    between atoms: C2_7  and  C3_8 
REMARK       I    between atoms: C3_8  and  N3_10 
REMARK    3  A    between atoms: C4_12  and  C5_13 
REMARK    4  A    between atoms: C5_13  and  N5_14 
REMARK    5  A    between atoms: C6_19  and  N6_20 
REMARK    6  A    between atoms: C9_26  and  N9_27 
REMARK    7  A    between atoms: C12_36  and  N12_37 
REMARK       I    between atoms: N12_37  and  C13_39 
REMARK    8  A    between atoms: C13_39  and  C14_41 
REMARK    9  A    between atoms: C14_41  and  N13_42 
REMARK   10  A    between atoms: C14_41  and  C15_46 
REMARK   11  A    between atoms: C15_46  and  N14_47 
ROOT
HETATM    1  C3  UNL     1       2.413   0.519   1.043  1.00  0.00     0.288 C 
HETATM    2  O1  UNL     1       2.098   1.398   1.930  1.00  0.00    -0.264 OA
HETATM    3  N3  UNL     1       1.335  -0.117   0.434  1.00  0.00    -0.229 N 
HETATM    4  N4  UNL     1       1.508  -1.116  -0.545  1.00  0.00    -0.100 NA
HETATM    5  C4  UNL     1       1.017  -2.316   0.164  1.00  0.00     0.262 C 
HETATM    6  O2  UNL     1      -0.266  -2.188   0.547  1.00  0.00    -0.337 OA
HETATM    7  C6  UNL     1      -0.903  -0.968   0.268  1.00  0.00     0.278 C 
HETATM    8  C12 UNL     1      -0.054   0.164   0.738  1.00  0.00     0.258 C 
ENDROOT
BRANCH   7   9
HETATM    9  N6  UNL     1      -2.262  -0.973   0.707  1.00  0.00    -0.273 N 
HETATM   10  C7  UNL     1      -2.873  -0.312   1.678  1.00  0.00     0.199 A 
HETATM   11  N7  UNL     1      -2.389   0.622   2.615  1.00  0.00    -0.063 NA
HETATM   12  N8  UNL     1      -4.206  -0.656   1.724  1.00  0.00    -0.324 N 
HETATM   13  C8  UNL     1      -4.429  -1.543   0.770  1.00  0.00     0.123 A 
ATOM     14  H8  UNL     1      -4.898  -0.291   2.378  1.00  0.00     0.169 HD
HETATM   15  C9  UNL     1      -5.583  -2.198   0.393  1.00  0.00     0.131 A 
HETATM   16  C11 UNL     1      -3.219  -1.750   0.124  1.00  0.00     0.144 A 
HETATM   17  N10 UNL     1      -5.528  -3.058  -0.630  1.00  0.00    -0.337 N 
HETATM   18  C10 UNL     1      -4.357  -3.271  -1.271  1.00  0.00     0.183 A 
ATOM     19  H10 UNL     1      -6.369  -3.553  -0.926  1.00  0.00     0.168 HD
HETATM   20  N11 UNL     1      -3.242  -2.625  -0.889  1.00  0.00    -0.336 N 
ATOM     21  H11 UNL     1      -2.375  -2.810  -1.393  1.00  0.00     0.168 HD
BRANCH  15  22
HETATM   22  N9  UNL     1      -6.703  -2.030   0.998  1.00  0.00    -0.383 N 
ATOM     23  H92 UNL     1      -6.745  -1.374   1.778  1.00  0.00     0.157 HD
ATOM     24  H91 UNL     1      -7.556  -2.514   0.719  1.00  0.00     0.157 HD
ENDBRANCH  15  22
ENDBRANCH   7   9
BRANCH   8  25
HETATM   25  N12 UNL     1      -0.375   1.459   0.261  1.00  0.00    -0.333 N 
HETATM   26  C13 UNL     1      -1.264   1.891  -0.724  1.00  0.00     0.251 C 
HETATM   27  O3  UNL     1      -1.996   1.170  -1.452  1.00  0.00    -0.271 OA
ATOM     28  H12 UNL     1       0.137   2.212   0.721  1.00  0.00     0.164 HD
BRANCH  26  29
HETATM   29  C14 UNL     1      -1.425   3.368  -0.997  1.00  0.00     0.299 C 
BRANCH  29  30
HETATM   30  N13 UNL     1      -0.710   4.082   0.055  1.00  0.00    -0.065 N 
ATOM     31 3H13 UNL     1      -1.008   3.814   0.993  1.00  0.00     0.275 HD
ATOM     32 2H13 UNL     1       0.265   3.796   0.140  1.00  0.00     0.275 HD
ATOM     33 1H13 UNL     1      -0.819   5.079  -0.129  1.00  0.00     0.275 HD
ENDBRANCH  29  30
BRANCH  29  34
HETATM   34  C15 UNL     1      -0.725   3.701  -2.308  1.00  0.00     0.272 C 
BRANCH  34  35
HETATM   35  N14 UNL     1      -0.855   5.087  -2.615  1.00  0.00    -0.077 N 
ATOM     36 3H14 UNL     1      -1.832   5.381  -2.624  1.00  0.00     0.274 HD
ATOM     37 2H14 UNL     1      -0.523   5.675  -1.851  1.00  0.00     0.274 HD
ATOM     38 1H14 UNL     1      -0.386   5.310  -3.493  1.00  0.00     0.274 HD
ENDBRANCH  34  35
ENDBRANCH  29  34
ENDBRANCH  26  29
ENDBRANCH   8  25
BRANCH   5  39
HETATM   39  C5  UNL     1       1.248  -3.528  -0.689  1.00  0.00     0.280 C 
BRANCH  39  40
HETATM   40  N5  UNL     1       0.461  -3.470  -1.913  1.00  0.00    -0.076 N 
ATOM     41  H53 UNL     1      -0.530  -3.335  -1.715  1.00  0.00     0.274 HD
ATOM     42  H52 UNL     1       0.636  -2.609  -2.431  1.00  0.00     0.274 HD
ATOM     43  H51 UNL     1       0.618  -4.294  -2.493  1.00  0.00     0.274 HD
ENDBRANCH  39  40
ENDBRANCH   5  39
BRANCH   1  44
HETATM   44  C2  UNL     1       3.838   0.358   0.839  1.00  0.00     0.123 A 
HETATM   45  N2  UNL     1       4.720   1.109   1.575  1.00  0.00    -0.186 N 
HETATM   46  C1  UNL     1       6.045   1.036   1.443  1.00  0.00     0.679 A 
ATOM     47  H2  UNL     1       4.340   1.760   2.262  1.00  0.00     0.184 HD
HETATM   48  N15 UNL     1       6.564   0.177   0.533  1.00  0.00    -0.156 N 
HETATM   49  C17 UNL     1       5.766  -0.579  -0.214  1.00  0.00     0.261 A 
ATOM     50  H15 UNL     1       7.576   0.110   0.420  1.00  0.00     0.187 HD
HETATM   51  C16 UNL     1       4.392  -0.506  -0.076  1.00  0.00     0.110 A 
HETATM   52  O4  UNL     1       6.247  -1.388  -1.068  1.00  0.00    -0.268 OA
BRANCH  46  53
HETATM   53  N1  UNL     1       6.822   1.781   2.184  1.00  0.00    -0.234 N 
ATOM     54  H12 UNL     1       6.431   2.428   2.869  1.00  0.00     0.174 HD
ATOM     55  H11 UNL     1       7.835   1.725   2.083  1.00  0.00     0.174 HD
ENDBRANCH  46  53
ENDBRANCH   1  44
TORSDOF 11
