REMARK  3 active torsions:
REMARK  status: ('A' for Active; 'I' for Inactive)
REMARK    1  A    between atoms: C3_10  and  C4_11 
REMARK    2  A    between atoms: C4_11  and  O1_12 
REMARK    3  A    between atoms: O1_12  and  N4_13 
ROOT
HETATM    1  N1  UNL     1      -1.271   1.732   0.808  1.00  0.00    -0.387 N 
ATOM      2  H11 UNL     1      -0.402   2.190   1.084  1.00  0.00     0.157 HD
ATOM      3  H12 UNL     1      -2.013   2.218   1.312  1.00  0.00     0.157 HD
HETATM    4  C1  UNL     1      -1.312   0.738  -0.026  1.00  0.00     0.100 A 
HETATM    5  N2  UNL     1      -2.515   0.104  -0.408  1.00  0.00    -0.289 N 
ATOM      6  H2  UNL     1      -3.452   0.345  -0.086  1.00  0.00     0.188 HD
HETATM    7  N3  UNL     1      -2.187  -0.911  -1.306  1.00  0.00    -0.314 N 
ATOM      8  H3  UNL     1      -2.876  -1.526  -1.738  1.00  0.00     0.185 HD
HETATM    9  C2  UNL     1      -0.940  -0.988  -1.528  1.00  0.00     0.094 A 
HETATM   10  C3  UNL     1      -0.248   0.041  -0.749  1.00  0.00     0.120 A 
ENDROOT
BRANCH  10  11
HETATM   11  C4  UNL     1       0.827  -0.518   0.144  1.00  0.00     0.218 C 
BRANCH  11  12
HETATM   12  O1  UNL     1       1.405   0.538   0.844  1.00  0.00    -0.286 OA
BRANCH  12  13
HETATM   13  N4  UNL     1       2.376   0.082   1.658  1.00  0.00    -0.311 N 
ATOM     14  H42 UNL     1       2.639  -0.900   1.739  1.00  0.00     0.184 HD
ATOM     15  H41 UNL     1       2.799   0.855   2.171  1.00  0.00     0.184 HD
ENDBRANCH  12  13
ENDBRANCH  11  12
ENDBRANCH  10  11
TORSDOF 3
