REMARK  12 active torsions:
REMARK  status: ('A' for Active; 'I' for Inactive)
REMARK       I    between atoms: C2_2  and  N1_4 
REMARK    1  A    between atoms: C3_5  and  C4_6 
REMARK    2  A    between atoms: C5_9  and  C6_10 
REMARK    3  A    between atoms: C6_10  and  S1_11 
REMARK    4  A    between atoms: S1_11  and  C7_12 
REMARK    5  A    between atoms: C8_15  and  N3_16 
REMARK    6  A    between atoms: C9_23  and  O4_24 
REMARK    7  A    between atoms: C10_26  and  C11_27 
REMARK       I    between atoms: C11_27  and  N6_29 
REMARK    8  A    between atoms: N6_29  and  C12_31 
REMARK    9  A    between atoms: C12_31  and  C13_32 
REMARK       I    between atoms: C13_32  and  N7_34 
REMARK   10  A    between atoms: C15_36  and  C16_37 
REMARK   11  A    between atoms: C16_37  and  N8_38 
REMARK   12  A    between atoms: C20_47  and  N12_48 
ROOT
HETATM    1  C11 UNL     1      -2.084  -1.673  -0.022  1.00  0.00     0.244 C 
HETATM    2  O5  UNL     1      -1.812  -2.027   1.147  1.00  0.00    -0.271 OA
HETATM    3  N6  UNL     1      -1.001  -1.411  -0.904  1.00  0.00    -0.350 N 
ATOM      4  H6  UNL     1      -1.194  -1.124  -1.863  1.00  0.00     0.163 HD
ENDROOT
BRANCH   3   5
HETATM    5  C12 UNL     1       0.350  -1.543  -0.471  1.00  0.00     0.227 C 
BRANCH   5   6
HETATM    6  C13 UNL     1       0.760  -0.661   0.632  1.00  0.00     0.258 C 
HETATM    7  O6  UNL     1      -0.020   0.167   1.137  1.00  0.00    -0.270 OA
HETATM    8  N7  UNL     1       2.085  -0.765   1.131  1.00  0.00    -0.216 N 
HETATM    9  C14 UNL     1       3.070  -1.598   0.713  1.00  0.00     0.145 A 
HETATM   10  N14 UNL     1       2.613  -0.057   2.117  1.00  0.00    -0.013 NA
HETATM   11  C15 UNL     1       4.207  -1.387   1.459  1.00  0.00     0.061 A 
HETATM   12  N13 UNL     1       3.877  -0.416   2.324  1.00  0.00    -0.285 N 
ATOM     13  H13 UNL     1       4.497  -0.016   3.029  1.00  0.00     0.184 HD
BRANCH  11  14
HETATM   14  C16 UNL     1       5.510  -2.079   1.331  1.00  0.00     0.213 C 
BRANCH  14  15
HETATM   15  N8  UNL     1       6.323  -1.280   0.403  1.00  0.00    -0.236 N 
HETATM   16  N9  UNL     1       6.303  -1.492  -0.897  1.00  0.00    -0.237 N 
HETATM   17  N10 UNL     1       7.043  -0.756  -1.700  1.00  0.00    -0.285 N 
ATOM     18  H9  UNL     1       5.712  -2.229  -1.283  1.00  0.00     0.208 HD
HETATM   19  C17 UNL     1       7.836   0.228  -1.217  1.00  0.00     0.067 A 
ATOM     20  H10 UNL     1       7.018  -0.931  -2.705  1.00  0.00     0.188 HD
HETATM   21  C18 UNL     1       8.627   1.025  -2.006  1.00  0.00     0.061 A 
HETATM   22  C22 UNL     1       7.869   0.465   0.142  1.00  0.00     0.064 A 
HETATM   23  C19 UNL     1       9.426   2.025  -1.458  1.00  0.00     0.081 A 
HETATM   24  N11 UNL     1      10.249   2.856  -2.266  1.00  0.00    -0.100 NA
HETATM   25  C20 UNL     1       9.432   2.229  -0.105  1.00  0.00     0.128 A 
HETATM   26  C21 UNL     1       8.654   1.450   0.702  1.00  0.00     0.057 A 
HETATM   27  C23 UNL     1       7.083  -0.326   0.938  1.00  0.00     0.276 A 
HETATM   28  O9  UNL     1       7.081  -0.146   2.190  1.00  0.00    -0.266 OA
BRANCH  25  29
HETATM   29  N12 UNL     1      10.228   3.238   0.531  1.00  0.00    -0.114 N 
HETATM   30  O7  UNL     1      11.327   3.604   0.091  1.00  0.00    -0.532 OA
HETATM   31  O8  UNL     1       9.763   3.831   1.678  1.00  0.00    -0.532 OA
ENDBRANCH  25  29
ENDBRANCH  14  15
ENDBRANCH  11  14
ENDBRANCH   5   6
ENDBRANCH   3   5
BRANCH   1  32
HETATM   32  C10 UNL     1      -3.479  -1.524  -0.496  1.00  0.00     0.218 C 
HETATM   33  N1  UNL     1      -4.383  -2.493   0.143  1.00  0.00    -0.295 N 
HETATM   34  C2  UNL     1      -4.068  -3.744   0.674  1.00  0.00     0.221 C 
HETATM   35  C3  UNL     1      -5.656  -1.796   0.171  1.00  0.00     0.121 C 
HETATM   36  C1  UNL     1      -4.875  -4.581   1.578  1.00  0.00     0.117 C 
HETATM   37  O1  UNL     1      -2.921  -4.251   0.353  1.00  0.00    -0.273 OA
HETATM   38  C5  UNL     1      -5.447  -0.515   0.316  1.00  0.00    -0.005 C 
HETATM   39  C9  UNL     1      -3.960  -0.263   0.299  1.00  0.00     0.183 C 
BRANCH  35  40
HETATM   40  C4  UNL     1      -6.970  -2.446   0.000  1.00  0.00     0.227 C 
HETATM   41  O2  UNL     1      -7.112  -3.689  -0.173  1.00  0.00    -0.643 OA
HETATM   42  O3  UNL     1      -8.169  -1.753   0.015  1.00  0.00    -0.643 OA
ENDBRANCH  35  40
BRANCH  38  43
HETATM   43  C6  UNL     1      -6.417   0.644   0.414  1.00  0.00     0.122 C 
BRANCH  43  44
HETATM   44  S1  UNL     1      -6.082   1.777  -0.968  1.00  0.00    -0.088 SA
BRANCH  44  45
HETATM   45  C7  UNL     1      -7.237   3.134  -0.842  1.00  0.00     0.174 A 
HETATM   46  N2  UNL     1      -7.050   4.283  -0.171  1.00  0.00    -0.168 N 
HETATM   47  C8  UNL     1      -8.146   5.044  -0.318  1.00  0.00     0.692 A 
ATOM     48  H2  UNL     1      -6.216   4.534   0.360  1.00  0.00     0.186 HD
HETATM   49  N4  UNL     1      -9.021   4.388  -1.075  1.00  0.00    -0.130 N 
HETATM   50  N5  UNL     1      -8.458   3.228  -1.388  1.00  0.00    -0.265 N 
ATOM     51  H4  UNL     1      -9.945   4.713  -1.360  1.00  0.00     0.205 HD
ATOM     52  H5  UNL     1      -8.894   2.508  -1.964  1.00  0.00     0.189 HD
BRANCH  47  53
HETATM   53  N3  UNL     1      -8.360   6.225   0.175  1.00  0.00    -0.233 N 
ATOM     54  H32 UNL     1      -7.689   6.728   0.756  1.00  0.00     0.174 HD
ATOM     55  H31 UNL     1      -9.193   6.803   0.063  1.00  0.00     0.174 HD
ENDBRANCH  47  53
ENDBRANCH  44  45
ENDBRANCH  43  44
ENDBRANCH  38  43
BRANCH  39  56
HETATM   56  O4  UNL     1      -3.713   0.885  -0.433  1.00  0.00    -0.389 OA
ATOM     57  H4  UNL     1      -2.776   1.044  -0.444  1.00  0.00     0.210 HD
ENDBRANCH  39  56
ENDBRANCH   1  32
TORSDOF 12
