REMARK  18 active torsions:
REMARK  status: ('A' for Active; 'I' for Inactive)
REMARK    1  A    between atoms: O1_2  and  C2_3 
REMARK    2  A    between atoms: C3_5  and  C4_6 
REMARK    3  A    between atoms: C4_6  and  O3_7 
REMARK    4  A    between atoms: C5_9  and  O4_10 
REMARK    5  A    between atoms: O4_10  and  C6_11 
REMARK    6  A    between atoms: C7_13  and  O6_14 
REMARK    7  A    between atoms: C9_18  and  C11_20 
REMARK    8  A    between atoms: C11_20  and  O8_21 
REMARK    9  A    between atoms: C11_20  and  C12_23 
REMARK   10  A    between atoms: C11_20  and  C13_26 
REMARK   11  A    between atoms: C12_23  and  O9_24 
REMARK   12  A    between atoms: C13_26  and  O10_27 
REMARK   13  A    between atoms: C22_40  and  O14_41 
REMARK   14  A    between atoms: C23_43  and  O15_44 
REMARK   15  A    between atoms: O15_44  and  C24_45 
REMARK   16  A    between atoms: C26_48  and  C27_49 
REMARK   17  A    between atoms: C27_49  and  O17_50 
REMARK   18  A    between atoms: C28_52  and  O18_53 
ROOT
HETATM    1  C6  UNL     1      -0.762  -1.034   0.971  1.00  0.00     0.301 C 
HETATM    2  O5  UNL     1      -1.351  -0.342  -0.137  1.00  0.00    -0.317 OA
HETATM    3  C7  UNL     1      -1.603   0.972   0.273  1.00  0.00     0.225 C 
HETATM    4  C8  UNL     1      -2.589   0.867   1.401  1.00  0.00     0.222 C 
HETATM    5  O7  UNL     1      -2.958  -0.467   1.530  1.00  0.00    -0.359 OA
HETATM    6  C9  UNL     1      -1.848  -1.270   1.947  1.00  0.00     0.142 C 
HETATM    7  C10 UNL     1      -1.525  -0.809   3.343  1.00  0.00     0.054 C 
HETATM    8  C14 UNL     1      -3.807   1.711   1.282  1.00  0.00     0.215 C 
HETATM    9  O11 UNL     1      -3.837   2.726   2.236  1.00  0.00    -0.343 OA
HETATM   10  C15 UNL     1      -4.149   3.909   1.621  1.00  0.00     0.160 C 
HETATM   11  C16 UNL     1      -2.864   4.700   1.448  1.00  0.00     0.078 C 
HETATM   12  C17 UNL     1      -5.130   4.764   2.402  1.00  0.00     0.078 C 
HETATM   13  O12 UNL     1      -4.643   3.597   0.355  1.00  0.00    -0.323 OA
HETATM   14  C18 UNL     1      -3.985   2.425  -0.010  1.00  0.00     0.296 C 
HETATM   15  O13 UNL     1      -2.777   2.818  -0.587  1.00  0.00    -0.343 OA
HETATM   16  C19 UNL     1      -2.122   1.675  -0.956  1.00  0.00     0.116 C 
HETATM   17  C20 UNL     1      -2.968   0.771  -1.815  1.00  0.00     0.051 C 
HETATM   18  C21 UNL     1      -0.880   2.071  -1.765  1.00  0.00     0.051 C 
ENDROOT
BRANCH   1  19
HETATM   19  O4  UNL     1      -0.165  -2.103   0.327  1.00  0.00    -0.347 OA
BRANCH  19  20
HETATM   20  C5  UNL     1       1.191  -2.010   0.234  1.00  0.00     0.187 C 
HETATM   21  C3  UNL     1       1.915  -3.196   0.718  1.00  0.00     0.180 C 
HETATM   22  O2  UNL     1       3.266  -3.210   0.279  1.00  0.00    -0.349 OA
HETATM   23  C2  UNL     1       3.836  -1.967   0.227  1.00  0.00     0.291 C 
HETATM   24  C23 UNL     1       3.156  -1.096  -0.769  1.00  0.00     0.211 C 
HETATM   25  C22 UNL     1       1.740  -1.598  -1.107  1.00  0.00     0.183 C 
BRANCH  21  26
HETATM   26  C4  UNL     1       1.362  -4.520   0.212  1.00  0.00     0.198 C 
BRANCH  26  27
HETATM   27  O3  UNL     1       2.093  -5.556   0.817  1.00  0.00    -0.398 OA
ATOM     28  H3  UNL     1       1.748  -6.383   0.501  1.00  0.00     0.209 HD
ENDBRANCH  26  27
ENDBRANCH  21  26
BRANCH  23  29
HETATM   29  O1  UNL     1       3.781  -1.460   1.547  1.00  0.00    -0.363 OA
HETATM   30  C1  UNL     1       5.079  -1.359   2.043  1.00  0.00     0.204 C 
ENDBRANCH  23  29
BRANCH  24  31
HETATM   31  O15 UNL     1       3.869  -0.784  -1.899  1.00  0.00    -0.346 OA
BRANCH  31  32
HETATM   32  C24 UNL     1       4.056   0.591  -1.984  1.00  0.00     0.289 C 
HETATM   33  O16 UNL     1       5.386   0.849  -2.169  1.00  0.00    -0.358 OA
HETATM   34  C25 UNL     1       5.515   2.093  -2.782  1.00  0.00     0.180 C 
HETATM   35  C26 UNL     1       4.169   2.489  -3.316  1.00  0.00     0.067 C 
HETATM   36  C28 UNL     1       3.376   1.204  -3.194  1.00  0.00     0.181 C 
BRANCH  35  37
HETATM   37  C27 UNL     1       4.232   3.011  -4.728  1.00  0.00     0.173 C 
BRANCH  37  38
HETATM   38  O17 UNL     1       4.750   2.019  -5.557  1.00  0.00    -0.400 OA
ATOM     39  H17 UNL     1       4.790   2.348  -6.447  1.00  0.00     0.209 HD
ENDBRANCH  37  38
ENDBRANCH  35  37
BRANCH  36  40
HETATM   40  O18 UNL     1       3.469   0.403  -4.314  1.00  0.00    -0.390 OA
ATOM     41  H18 UNL     1       3.043   0.787  -5.072  1.00  0.00     0.210 HD
ENDBRANCH  36  40
ENDBRANCH  31  32
ENDBRANCH  24  31
BRANCH  25  42
HETATM   42  O14 UNL     1       1.732  -2.569  -2.053  1.00  0.00    -0.390 OA
ATOM     43  H14 UNL     1       2.078  -2.309  -2.899  1.00  0.00     0.210 HD
ENDBRANCH  25  42
ENDBRANCH  19  20
ENDBRANCH   1  19
BRANCH   6  44
HETATM   44  C11 UNL     1      -2.424  -2.674   1.914  1.00  0.00     0.135 C 
BRANCH  44  45
HETATM   45  O8  UNL     1      -2.708  -2.964   0.598  1.00  0.00    -0.382 OA
ATOM     46  H8  UNL     1      -3.068  -3.843   0.577  1.00  0.00     0.210 HD
ENDBRANCH  44  45
BRANCH  44  47
HETATM   47  C12 UNL     1      -3.817  -2.585   2.597  1.00  0.00     0.207 C 
BRANCH  47  48
HETATM   48  O9  UNL     1      -4.418  -3.809   2.409  1.00  0.00    -0.398 OA
ATOM     49  H9  UNL     1      -5.270  -3.755   2.827  1.00  0.00     0.209 HD
ENDBRANCH  47  48
ENDBRANCH  44  47
BRANCH  44  50
HETATM   50  C13 UNL     1      -1.667  -3.692   2.661  1.00  0.00     0.207 C 
BRANCH  50  51
HETATM   51  O10 UNL     1      -2.382  -4.913   2.615  1.00  0.00    -0.398 OA
ATOM     52  H10 UNL     1      -1.894  -5.570   3.097  1.00  0.00     0.209 HD
ENDBRANCH  50  51
ENDBRANCH  44  50
ENDBRANCH   6  44
BRANCH   3  53
HETATM   53  O6  UNL     1      -0.403   1.544   0.639  1.00  0.00    -0.361 OA
ATOM     54  H6  UNL     1      -0.574   2.436   0.917  1.00  0.00     0.213 HD
ENDBRANCH   3  53
TORSDOF 18
