REMARK  5 active torsions:
REMARK  status: ('A' for Active; 'I' for Inactive)
REMARK    1  A    between atoms: C2_2  and  C4_4 
REMARK    2  A    between atoms: C8_9  and  C9_10 
REMARK    3  A    between atoms: C10_11  and  C11_12 
REMARK    4  A    between atoms: C12_13  and  O2_14 
REMARK    5  A    between atoms: C13_16  and  O3_17 
ROOT
HETATM    1  C11 UNL     1      -1.456   0.463   0.390  1.00  0.00     0.045 C 
HETATM    2  C12 UNL     1      -2.095   1.547   1.235  1.00  0.00     0.155 C 
HETATM    3  C13 UNL     1      -3.392   1.926   0.562  1.00  0.00     0.156 C 
HETATM    4  C14 UNL     1      -3.585   1.030  -0.615  1.00  0.00    -0.010 C 
HETATM    5  C15 UNL     1      -3.792   1.730  -1.940  1.00  0.00     0.018 C 
HETATM    6  C16 UNL     1      -4.590  -0.086  -0.414  1.00  0.00     0.021 C 
HETATM    7  C17 UNL     1      -3.428  -1.057  -0.190  1.00  0.00    -0.042 C 
HETATM    8  C18 UNL     1      -3.401  -1.585   1.190  1.00  0.00     0.015 C 
HETATM    9  C19 UNL     1      -3.568  -2.209  -1.194  1.00  0.00     0.015 C 
HETATM   10  C20 UNL     1      -2.498   0.010  -0.588  1.00  0.00     0.014 C 
ENDROOT
BRANCH   1  11
HETATM   11  C10 UNL     1      -0.372   1.122  -0.392  1.00  0.00    -0.021 C 
HETATM   12  C9  UNL     1       0.891   0.716  -0.408  1.00  0.00     0.002 C 
BRANCH  12  13
HETATM   13  C8  UNL     1       1.294  -0.450   0.377  1.00  0.00     0.148 C 
HETATM   14  O1  UNL     1       0.715  -1.609  -0.194  1.00  0.00    -0.381 OA
HETATM   15  C7  UNL     1       1.484  -1.826  -1.343  1.00  0.00     0.173 C 
HETATM   16  C6  UNL     1       2.922  -1.629  -0.908  1.00  0.00     0.017 C 
HETATM   17  C5  UNL     1       3.649  -0.476  -1.568  1.00  0.00     0.012 C 
HETATM   18  C21 UNL     1       2.741  -0.794   0.335  1.00  0.00     0.029 C 
HETATM   19  C4  UNL     1       3.708   0.192  -0.219  1.00  0.00    -0.004 C 
BRANCH  19  20
HETATM   20  C2  UNL     1       5.093  -0.065   0.400  1.00  0.00    -0.018 C 
HETATM   21  C1  UNL     1       6.203   0.472  -0.432  1.00  0.00     0.010 C 
HETATM   22  C3  UNL     1       5.169   0.510   1.787  1.00  0.00     0.010 C 
ENDBRANCH  19  20
ENDBRANCH  12  13
ENDBRANCH   1  11
BRANCH   2  23
HETATM   23  O2  UNL     1      -2.288   1.160   2.549  1.00  0.00    -0.392 OA
ATOM     24  H2  UNL     1      -2.689   1.839   3.079  1.00  0.00     0.210 HD
ENDBRANCH   2  23
BRANCH   3  25
HETATM   25  O3  UNL     1      -4.462   1.863   1.473  1.00  0.00    -0.392 OA
ATOM     26  H3  UNL     1      -5.278   2.102   1.049  1.00  0.00     0.210 HD
ENDBRANCH   3  25
TORSDOF 5
