REMARK  12 active torsions:
REMARK  status: ('A' for Active; 'I' for Inactive)
REMARK       I    between atoms: C1_2  and  N1_3 
REMARK    1  A    between atoms: C1_2  and  O3_12 
REMARK    2  A    between atoms: N1_3  and  C2_5 
REMARK    3  A    between atoms: C5_8  and  O2_9 
REMARK    4  A    between atoms: O3_12  and  N2_13 
REMARK    5  A    between atoms: N2_13  and  C7_14 
REMARK    6  A    between atoms: C8_16  and  C9_17 
REMARK    7  A    between atoms: C9_17  and  O5_18 
REMARK    8  A    between atoms: C10_20  and  O6_21 
REMARK    9  A    between atoms: C11_23  and  N3_24 
REMARK       I    between atoms: N3_24  and  C12_26 
REMARK   10  A    between atoms: C12_26  and  C13_28 
REMARK   11  A    between atoms: C13_28  and  C14_29 
REMARK   12  A    between atoms: C13_28  and  C20_35 
ROOT
HETATM    1  C7  UNL     1       0.507  -1.538  -0.093  1.00  0.00     0.390 C 
HETATM    2  O4  UNL     1       1.076  -2.781   0.132  1.00  0.00    -0.335 OA
HETATM    3  C8  UNL     1       0.230  -3.656   0.790  1.00  0.00     0.182 C 
HETATM    4  C10 UNL     1      -1.096  -3.052   1.146  1.00  0.00     0.198 C 
HETATM    5  C11 UNL     1      -1.642  -2.133   0.102  1.00  0.00     0.259 C 
HETATM    6  O9  UNL     1      -0.666  -1.741  -0.804  1.00  0.00    -0.318 OA
ENDROOT
BRANCH   5   7
HETATM    7  N3  UNL     1      -2.272  -0.942   0.625  1.00  0.00    -0.332 N 
HETATM    8  C12 UNL     1      -3.602  -0.579   0.383  1.00  0.00     0.230 C 
HETATM    9  O7  UNL     1      -4.335  -1.301  -0.328  1.00  0.00    -0.273 OA
ATOM     10  H3  UNL     1      -1.709  -0.324   1.210  1.00  0.00     0.165 HD
BRANCH   8  11
HETATM   11  C13 UNL     1      -4.179   0.657   0.954  1.00  0.00     0.142 C 
BRANCH  11  12
HETATM   12  C14 UNL     1      -5.598   0.841   0.568  1.00  0.00    -0.043 A 
HETATM   13  C15 UNL     1      -5.998   0.951  -0.752  1.00  0.00     0.008 A 
HETATM   14  C16 UNL     1      -7.319   1.124  -1.101  1.00  0.00     0.001 A 
HETATM   15  C17 UNL     1      -8.283   1.191  -0.113  1.00  0.00     0.000 A 
HETATM   16  C18 UNL     1      -7.918   1.084   1.213  1.00  0.00     0.001 A 
HETATM   17  C19 UNL     1      -6.586   0.912   1.525  1.00  0.00     0.008 A 
ENDBRANCH  11  12
BRANCH  11  18
HETATM   18  C20 UNL     1      -3.335   1.855   0.571  1.00  0.00     0.162 A 
HETATM   19  C21 UNL     1      -3.787   3.209   1.076  1.00  0.00     0.201 A 
HETATM   20  O8  UNL     1      -3.966   2.784  -0.238  1.00  0.00    -0.380 OA
ENDBRANCH  11  18
ENDBRANCH   8  11
ENDBRANCH   5   7
BRANCH   4  21
HETATM   21  O6  UNL     1      -2.040  -4.049   1.383  1.00  0.00    -0.389 OA
ATOM     22  H6  UNL     1      -2.880  -3.666   1.608  1.00  0.00     0.210 HD
ENDBRANCH   4  21
BRANCH   3  23
HETATM   23  C9  UNL     1       0.085  -4.887  -0.078  1.00  0.00     0.199 C 
BRANCH  23  24
HETATM   24  O5  UNL     1      -0.454  -4.575  -1.326  1.00  0.00    -0.398 OA
ATOM     25  H5  UNL     1      -0.545  -5.348  -1.871  1.00  0.00     0.209 HD
ENDBRANCH  23  24
ENDBRANCH   3  23
BRANCH   1  26
HETATM   26  N2  UNL     1       1.403  -0.799  -0.961  1.00  0.00    -0.029 NA
BRANCH  26  27
HETATM   27  O3  UNL     1       2.647  -0.640  -0.393  1.00  0.00    -0.184 OA
BRANCH  27  28
HETATM   28  C1  UNL     1       3.565   0.290  -0.839  1.00  0.00     0.379 C 
HETATM   29  O1  UNL     1       3.230   1.012  -1.806  1.00  0.00    -0.237 OA
HETATM   30  N1  UNL     1       4.847   0.467  -0.268  1.00  0.00    -0.331 N 
ATOM     31  H1  UNL     1       5.143  -0.110   0.519  1.00  0.00     0.165 HD
BRANCH  30  32
HETATM   32  C2  UNL     1       5.731   1.468  -0.807  1.00  0.00     0.089 C 
HETATM   33  C3  UNL     1       7.016   0.867  -1.346  1.00  0.00     0.028 C 
HETATM   34  C4  UNL     1       7.839   2.122  -1.600  1.00  0.00     0.034 C 
HETATM   35  C5  UNL     1       7.425   3.075  -0.484  1.00  0.00     0.120 C 
HETATM   36  C6  UNL     1       6.246   2.440   0.205  1.00  0.00     0.057 C 
BRANCH  35  37
HETATM   37  O2  UNL     1       8.488   3.277   0.398  1.00  0.00    -0.396 OA
ATOM     38  H2  UNL     1       8.230   3.871   1.093  1.00  0.00     0.210 HD
ENDBRANCH  35  37
ENDBRANCH  30  32
ENDBRANCH  27  28
ENDBRANCH  26  27
ENDBRANCH   1  26
TORSDOF 12
