REMARK  5 active torsions:
REMARK  status: ('A' for Active; 'I' for Inactive)
REMARK    1  A    between atoms: C2_2  and  C4_4 
REMARK    2  A    between atoms: C4_4  and  C5_5 
REMARK    3  A    between atoms: C5_5  and  C6_6 
REMARK    4  A    between atoms: C6_6  and  C7_7 
REMARK    5  A    between atoms: C7_7  and  C9_9 
ROOT
HETATM    1  C9  UNL     1       0.588  -0.526   0.385  1.00  0.00    -0.010 C 
HETATM    2  C10 UNL     1       0.567  -0.721  -1.003  1.00  0.00     0.005 C 
HETATM    3  C11 UNL     1      -0.576  -0.625  -2.035  1.00  0.00     0.005 C 
HETATM    4  C12 UNL     1      -1.705  -0.066  -1.367  1.00  0.00    -0.009 C 
HETATM    5  C13 UNL     1      -1.776  -1.020  -0.252  1.00  0.00     0.015 C 
HETATM    6  C14 UNL     1      -1.841  -0.076   0.848  1.00  0.00    -0.034 C 
HETATM    7  C15 UNL     1      -1.564   1.375   0.766  1.00  0.00     0.010 C 
HETATM    8  C16 UNL     1      -2.331   2.284  -0.093  1.00  0.00     0.008 C 
HETATM    9  C17 UNL     1      -3.387   1.698  -0.956  1.00  0.00     0.014 C 
HETATM   10  C18 UNL     1      -4.647   1.863  -0.215  1.00  0.00     0.172 C 
HETATM   11  O1  UNL     1      -4.868   1.362   0.973  1.00  0.00    -0.390 OA
HETATM   12  C19 UNL     1      -3.937   0.952   1.868  1.00  0.00     0.172 C 
HETATM   13  C20 UNL     1      -3.136  -0.282   1.418  1.00  0.00     0.018 C 
HETATM   14  C21 UNL     1      -4.188  -0.913   0.474  1.00  0.00     0.008 C 
HETATM   15  C22 UNL     1      -4.180  -0.530  -0.935  1.00  0.00     0.006 C 
HETATM   16  C23 UNL     1      -3.072   0.322  -1.527  1.00  0.00    -0.004 C 
HETATM   17  C24 UNL     1      -0.506  -0.525   1.435  1.00  0.00     0.015 C 
ENDROOT
BRANCH   1  18
HETATM   18  C7  UNL     1       1.608  -1.519   0.979  1.00  0.00    -0.014 C 
HETATM   19  C8  UNL     1       1.602  -1.656   2.432  1.00  0.00     0.010 C 
BRANCH  18  20
HETATM   20  C6  UNL     1       3.027  -1.307   0.424  1.00  0.00     0.005 C 
BRANCH  20  21
HETATM   21  C5  UNL     1       3.687  -0.103   0.965  1.00  0.00     0.001 C 
BRANCH  21  22
HETATM   22  C4  UNL     1       5.077   0.112   0.523  1.00  0.00     0.004 C 
BRANCH  22  23
HETATM   23  C2  UNL     1       5.399   0.290  -0.901  1.00  0.00    -0.023 C 
HETATM   24  C1  UNL     1       5.100  -0.809  -1.847  1.00  0.00     0.009 C 
HETATM   25  C3  UNL     1       4.821   1.593  -1.470  1.00  0.00     0.009 C 
ENDBRANCH  22  23
ENDBRANCH  21  22
ENDBRANCH  20  21
ENDBRANCH  18  20
ENDBRANCH   1  18
TORSDOF 5
