REMARK  5 active torsions:
REMARK  status: ('A' for Active; 'I' for Inactive)
REMARK    1  A    between atoms: C2_2  and  C3_3 
REMARK    2  A    between atoms: C2_2  and  C11_11 
REMARK    3  A    between atoms: C3_3  and  C4_4 
REMARK    4  A    between atoms: C4_4  and  C5_5 
REMARK    5  A    between atoms: C18_18  and  O1_19 
ROOT
HETATM    1  C11 UNL     1      -0.203   0.782  -0.575  1.00  0.00    -0.002 C 
HETATM    2  C12 UNL     1      -0.501   0.676  -2.064  1.00  0.00     0.006 C 
HETATM    3  C13 UNL     1      -2.002   0.596  -2.175  1.00  0.00     0.006 C 
HETATM    4  C14 UNL     1      -2.473   0.506  -0.795  1.00  0.00    -0.002 C 
HETATM    5  C15 UNL     1      -3.759  -0.227  -0.589  1.00  0.00    -0.005 C 
HETATM    6  C16 UNL     1      -4.847   0.500  -1.351  1.00  0.00     0.008 C 
HETATM    7  C17 UNL     1      -6.124  -0.294  -1.137  1.00  0.00     0.032 C 
HETATM    8  C18 UNL     1      -6.465  -0.198   0.347  1.00  0.00     0.118 C 
HETATM    9  C19 UNL     1      -5.334  -0.840   1.159  1.00  0.00     0.036 C 
HETATM   10  C20 UNL     1      -4.098  -0.055   0.899  1.00  0.00    -0.008 C 
HETATM   11  C21 UNL     1      -2.974  -0.506   1.764  1.00  0.00     0.006 C 
HETATM   12  C22 UNL     1      -1.636   0.130   1.433  1.00  0.00     0.010 C 
HETATM   13  C23 UNL     1      -1.328  -0.073   0.002  1.00  0.00    -0.036 C 
HETATM   14  C24 UNL     1      -1.106  -1.536  -0.300  1.00  0.00     0.016 C 
ENDROOT
BRANCH   1  15
HETATM   15  C2  UNL     1       1.180   0.340  -0.231  1.00  0.00    -0.014 C 
HETATM   16  C1  UNL     1       1.508   0.473   1.215  1.00  0.00     0.010 C 
BRANCH  15  17
HETATM   17  C3  UNL     1       2.221   0.673  -1.230  1.00  0.00     0.005 C 
BRANCH  17  18
HETATM   18  C4  UNL     1       3.435  -0.150  -1.194  1.00  0.00     0.005 C 
BRANCH  18  19
HETATM   19  C5  UNL     1       4.380  -0.153  -0.081  1.00  0.00    -0.014 C 
HETATM   20  C6  UNL     1       5.085   1.147   0.226  1.00  0.00     0.004 C 
HETATM   21  C7  UNL     1       5.934   0.906   1.458  1.00  0.00     0.000 C 
HETATM   22  C8  UNL     1       6.991  -0.146   1.206  1.00  0.00     0.000 C 
HETATM   23  C9  UNL     1       6.378  -1.419   0.716  1.00  0.00     0.000 C 
HETATM   24  C10 UNL     1       5.529  -1.112  -0.489  1.00  0.00     0.004 C 
ENDBRANCH  18  19
ENDBRANCH  17  18
ENDBRANCH  15  17
ENDBRANCH   1  15
BRANCH   8  25
HETATM   25  O1  UNL     1      -6.516   1.166   0.647  1.00  0.00    -0.396 OA
ATOM     26  H1  UNL     1      -6.728   1.226   1.571  1.00  0.00     0.210 HD
ENDBRANCH   8  25
TORSDOF 5
