REMARK  3 active torsions:
REMARK  status: ('A' for Active; 'I' for Inactive)
REMARK       I    between atoms: N1_7  and  C6_8 
REMARK       I    between atoms: C6_8  and  N2_10 
REMARK       I    between atoms: C7_12  and  N3_13 
REMARK       I    between atoms: C7_12  and  N6_34 
REMARK    1  A    between atoms: N3_13  and  C8_15 
REMARK    2  A    between atoms: C10_19  and  C11_20 
REMARK    3  A    between atoms: N6_34  and  N7_36 
ROOT
HETATM    1  C8  UNL     1      -0.291   0.810   0.344  1.00  0.00     0.137 A 
HETATM    2  C9  UNL     1       0.476   1.470  -0.591  1.00  0.00     0.137 A 
HETATM    3  N4  UNL     1       1.760   1.162  -0.727  1.00  0.00    -0.363 N 
ATOM      4  H4  UNL     1       2.302   1.668  -1.428  1.00  0.00     0.165 HD
HETATM    5  C10 UNL     1       2.404   0.203   0.019  1.00  0.00     0.052 A 
HETATM    6  C20 UNL     1       1.611  -0.428   0.933  1.00  0.00     0.104 A 
HETATM    7 BR1  UNL     1       2.319  -1.753   2.071  1.00  0.00    -0.029 Br
HETATM    8  N5  UNL     1       0.295  -0.134   1.094  1.00  0.00    -0.333 N 
ATOM      9  H5  UNL     1      -0.253  -0.636   1.792  1.00  0.00     0.168 HD
ENDROOT
BRANCH   1  10
HETATM   10  N3  UNL     1      -1.547   1.075   0.513  1.00  0.00    -0.174 N 
HETATM   11  C7  UNL     1      -2.393   0.446   1.443  1.00  0.00     0.702 C 
HETATM   12  N2  UNL     1      -3.314  -0.351   1.062  1.00  0.00    -0.140 N 
HETATM   13  N6  UNL     1      -2.234   0.696   2.828  1.00  0.00    -0.138 N 
HETATM   14  C6  UNL     1      -3.480  -0.601  -0.325  1.00  0.00     0.339 C 
ATOM     15  H2  UNL     1      -3.922  -0.802   1.745  1.00  0.00     0.189 HD
HETATM   16  N1  UNL     1      -4.694  -0.453  -1.011  1.00  0.00    -0.301 N 
HETATM   17  O2  UNL     1      -2.463  -0.977  -0.959  1.00  0.00    -0.246 OA
HETATM   18  C2  UNL     1      -5.950  -0.034  -0.456  1.00  0.00     0.053 C 
HETATM   19  C5  UNL     1      -4.924  -0.693  -2.406  1.00  0.00     0.298 C 
HETATM   20  C1  UNL     1      -5.819   1.065   0.575  1.00  0.00     0.041 C 
HETATM   21  C3  UNL     1      -6.745  -1.207   0.085  1.00  0.00     0.041 C 
HETATM   22  C4  UNL     1      -6.666   0.495  -1.681  1.00  0.00     0.200 C 
HETATM   23  O1  UNL     1      -6.071  -0.048  -2.789  1.00  0.00    -0.369 OA
ATOM     24  H6  UNL     1      -1.865   1.595   3.139  1.00  0.00     0.205 HD
ATOM     25  H3  UNL     1      -1.956   1.800  -0.077  1.00  0.00     0.186 HD
BRANCH  13  26
HETATM   26  N7  UNL     1      -2.578  -0.277   3.777  1.00  0.00    -0.331 N 
ATOM     27  H72 UNL     1      -2.946  -1.170   3.449  1.00  0.00     0.177 HD
ATOM     28  H71 UNL     1      -2.463  -0.097   4.774  1.00  0.00     0.177 HD
ENDBRANCH  13  26
ENDBRANCH   1  10
BRANCH   5  29
HETATM   29  C11 UNL     1       3.813  -0.113  -0.181  1.00  0.00     0.011 C 
HETATM   30  C12 UNL     1       4.158  -1.490  -0.610  1.00  0.00     0.021 C 
HETATM   31  C13 UNL     1       5.675  -1.506  -0.375  1.00  0.00    -0.012 C 
HETATM   32  C14 UNL     1       6.273  -0.768  -1.557  1.00  0.00     0.020 C 
HETATM   33  C19 UNL     1       5.845  -0.709   0.873  1.00  0.00     0.011 C 
HETATM   34  C15 UNL     1       5.721   0.603  -1.692  1.00  0.00     0.049 C 
HETATM   35  C16 UNL     1       4.268   0.754  -1.379  1.00  0.00     0.031 C 
HETATM   36  S1  UNL     1       6.552   1.635  -0.407  1.00  0.00    -0.164 SA
HETATM   37  C17 UNL     1       5.238   1.701   0.881  1.00  0.00     0.080 C 
HETATM   38  C18 UNL     1       4.709   0.268   0.955  1.00  0.00     0.010 C 
ENDBRANCH   5  29
TORSDOF 3
