REMARK  17 active torsions:
REMARK  status: ('A' for Active; 'I' for Inactive)
REMARK    1  A    between atoms: C2_2  and  C3_3 
REMARK    2  A    between atoms: C3_3  and  C4_4 
REMARK    3  A    between atoms: C6_6  and  N1_7 
REMARK    4  A    between atoms: N1_7  and  C7_9 
REMARK    5  A    between atoms: C7_9  and  C8_10 
REMARK    6  A    between atoms: C9_11  and  C10_12 
REMARK    7  A    between atoms: C10_12  and  C13_15 
REMARK    8  A    between atoms: C13_15  and  N2_16 
REMARK    9  A    between atoms: N2_16  and  N3_18 
REMARK   10  A    between atoms: N3_18  and  N4_19 
REMARK   11  A    between atoms: N6_26  and  C15_27 
REMARK   12  A    between atoms: C15_27  and  O2_28 
REMARK   13  A    between atoms: O2_28  and  C16_29 
REMARK   14  A    between atoms: C19_32  and  C20_33 
REMARK   15  A    between atoms: C20_33  and  O3_34 
REMARK   16  A    between atoms: C21_36  and  O4_37 
REMARK   17  A    between atoms: C22_39  and  O5_40 
ROOT
HETATM    1  C4  UNL     1       0.287  -0.254   0.636  1.00  0.00     0.022 A 
HETATM    2  C5  UNL     1       1.462   0.022   1.343  1.00  0.00     0.073 A 
HETATM    3  C6  UNL     1       1.938   1.296   1.549  1.00  0.00     0.106 A 
HETATM    4  N5  UNL     1       1.201   2.302   1.024  1.00  0.00    -0.294 N 
ATOM      5  H5  UNL     1       1.511   3.266   1.149  1.00  0.00     0.172 HD
HETATM    6  C14 UNL     1       0.071   2.058   0.342  1.00  0.00     0.330 A 
HETATM    7  O1  UNL     1      -0.577   3.019  -0.125  1.00  0.00    -0.246 OA
HETATM    8  N6  UNL     1      -0.393   0.794   0.143  1.00  0.00    -0.281 N 
ENDROOT
BRANCH   3   9
HETATM    9  N1  UNL     1       3.024   1.523   2.206  1.00  0.00    -0.373 N 
ATOM     10  H1  UNL     1       3.322   2.492   2.322  1.00  0.00     0.161 HD
BRANCH   9  11
HETATM   11  C7  UNL     1       3.838   0.492   2.784  1.00  0.00     0.148 C 
BRANCH  11  12
HETATM   12  C8  UNL     1       4.785  -0.107   1.807  1.00  0.00    -0.011 C 
HETATM   13  C9  UNL     1       4.872   0.268   0.547  1.00  0.00    -0.019 C 
BRANCH  13  14
HETATM   14  C10 UNL     1       5.830  -0.354  -0.400  1.00  0.00    -0.012 C 
HETATM   15  C11 UNL     1       5.829   0.378  -1.705  1.00  0.00     0.021 C 
HETATM   16  C12 UNL     1       5.422  -1.802  -0.705  1.00  0.00     0.021 C 
BRANCH  14  17
HETATM   17  C13 UNL     1       7.231  -0.429   0.149  1.00  0.00     0.168 C 
BRANCH  17  18
HETATM   18  N2  UNL     1       7.757   0.882   0.461  1.00  0.00    -0.252 N 
ATOM     19  H2  UNL     1       8.735   1.002   0.725  1.00  0.00     0.197 HD
BRANCH  18  20
HETATM   20  N3  UNL     1       7.004   1.844   0.402  1.00  0.00    -0.249 NA
BRANCH  20  21
HETATM   21  N4  UNL     1       6.578   2.998   0.315  1.00  0.00    -0.261 N 
ATOM     22  H42 UNL     1       7.498   3.433   0.245  1.00  0.00     0.193 HD
ATOM     23  H41 UNL     1       5.950   3.800   0.266  1.00  0.00     0.193 HD
ENDBRANCH  20  21
ENDBRANCH  18  20
ENDBRANCH  17  18
ENDBRANCH  14  17
ENDBRANCH  13  14
ENDBRANCH  11  12
ENDBRANCH   9  11
ENDBRANCH   3   9
BRANCH   1  24
HETATM   24  C3  UNL     1      -0.140  -1.654   0.473  1.00  0.00     0.057 C 
BRANCH  24  25
HETATM   25  C2  UNL     1       0.451  -2.319  -0.752  1.00  0.00     0.002 C 
HETATM   26  C1  UNL     1      -0.026  -3.744  -0.865  1.00  0.00     0.005 C 
ENDBRANCH  24  25
ENDBRANCH   1  24
BRANCH   8  27
HETATM   27  C15 UNL     1      -1.638   0.575  -0.595  1.00  0.00     0.303 C 
BRANCH  27  28
HETATM   28  O2  UNL     1      -2.724   0.596   0.281  1.00  0.00    -0.363 OA
BRANCH  28  29
HETATM   29  C16 UNL     1      -3.925   0.397  -0.347  1.00  0.00     0.159 C 
HETATM   30  C17 UNL     1      -4.747   1.674  -0.165  1.00  0.00     0.022 C 
HETATM   31  C18 UNL     1      -4.561   2.624  -1.311  1.00  0.00     0.013 C 
HETATM   32  C19 UNL     1      -6.179   1.209  -0.021  1.00  0.00     0.047 C 
HETATM   33  C21 UNL     1      -6.031  -0.048   0.776  1.00  0.00     0.156 C 
HETATM   34  C22 UNL     1      -4.779  -0.672   0.240  1.00  0.00     0.176 C 
BRANCH  32  35
HETATM   35  C20 UNL     1      -6.826   0.978  -1.368  1.00  0.00     0.172 C 
BRANCH  35  36
HETATM   36  O3  UNL     1      -8.126   0.554  -1.271  1.00  0.00    -0.400 OA
ATOM     37  H3  UNL     1      -8.532   0.409  -2.117  1.00  0.00     0.209 HD
ENDBRANCH  35  36
ENDBRANCH  32  35
BRANCH  33  38
HETATM   38  O4  UNL     1      -7.136  -0.878   0.728  1.00  0.00    -0.392 OA
ATOM     39  H4  UNL     1      -7.042  -1.676   1.234  1.00  0.00     0.210 HD
ENDBRANCH  33  38
BRANCH  34  40
HETATM   40  O5  UNL     1      -4.172  -1.367   1.282  1.00  0.00    -0.390 OA
ATOM     41  H5  UNL     1      -4.717  -2.049   1.657  1.00  0.00     0.210 HD
ENDBRANCH  34  40
ENDBRANCH  28  29
ENDBRANCH  27  28
ENDBRANCH   8  27
TORSDOF 17
