REMARK  13 active torsions:
REMARK  status: ('A' for Active; 'I' for Inactive)
REMARK    1  A    between atoms: C2_2  and  O1_3 
REMARK    2  A    between atoms: O1_3  and  C3_4 
REMARK    3  A    between atoms: C3_4  and  C4_5 
REMARK    4  A    between atoms: C4_5  and  N1_6 
REMARK    5  A    between atoms: N1_6  and  C6_8 
REMARK    6  A    between atoms: C9_11  and  O2_12 
REMARK    7  A    between atoms: C11_14  and  N2_15 
REMARK    8  A    between atoms: N2_15  and  C12_17 
REMARK    9  A    between atoms: C13_20  and  N4_21 
REMARK   10  A    between atoms: C16_28  and  O3_29 
REMARK   11  A    between atoms: O3_29  and  C17_30 
REMARK   12  A    between atoms: C17_30  and  C18_31 
REMARK   13  A    between atoms: C19_34  and  O5_35 
ROOT
HETATM    1  C12 UNL     1      -1.132   0.053   0.314  1.00  0.00     0.134 A 
HETATM    2  N3  UNL     1      -0.425   0.763   1.211  1.00  0.00    -0.176 N 
ATOM      3  H3  UNL     1       0.579   0.608   1.299  1.00  0.00     0.186 HD
HETATM    4  C13 UNL     1      -1.031   1.677   1.994  1.00  0.00     0.677 A 
HETATM    5  N5  UNL     1      -2.358   1.870   1.866  1.00  0.00    -0.191 N 
ATOM      6  H5  UNL     1      -2.814   2.563   2.460  1.00  0.00     0.184 HD
HETATM    7  C14 UNL     1      -3.104   1.180   0.981  1.00  0.00     0.066 A 
HETATM    8  C15 UNL     1      -4.468   1.382   0.856  1.00  0.00     0.070 A 
HETATM    9  C16 UNL     1      -5.260   0.692  -0.037  1.00  0.00     0.104 A 
HETATM   10  C19 UNL     1      -4.618  -0.252  -0.841  1.00  0.00     0.102 A 
HETATM   11  C21 UNL     1      -3.260  -0.474  -0.739  1.00  0.00     0.057 A 
HETATM   12  C22 UNL     1      -2.510   0.242   0.170  1.00  0.00     0.039 A 
ENDROOT
BRANCH   1  13
HETATM   13  N2  UNL     1      -0.611  -0.807  -0.446  1.00  0.00    -0.339 N 
ATOM     14  H2  UNL     1      -1.262  -1.273  -1.079  1.00  0.00     0.167 HD
BRANCH  13  15
HETATM   15  C11 UNL     1       0.725  -1.224  -0.558  1.00  0.00     0.069 A 
HETATM   16  C9  UNL     1       0.943  -2.594  -0.356  1.00  0.00     0.095 A 
HETATM   17  C8  UNL     1       2.220  -3.079  -0.457  1.00  0.00     0.041 A 
HETATM   18  C7  UNL     1       3.304  -2.240  -0.755  1.00  0.00     0.032 A 
HETATM   19  C6  UNL     1       3.067  -0.901  -0.949  1.00  0.00     0.032 A 
HETATM   20  C23 UNL     1       1.769  -0.392  -0.849  1.00  0.00     0.061 A 
BRANCH  16  21
HETATM   21  O2  UNL     1      -0.120  -3.445  -0.059  1.00  0.00    -0.354 OA
HETATM   22  C10 UNL     1       0.142  -4.821   0.137  1.00  0.00     0.210 C 
ENDBRANCH  16  21
BRANCH  19  23
HETATM   23  N1  UNL     1       4.140  -0.018  -1.255  1.00  0.00    -0.383 N 
HETATM   24  C5  UNL     1       3.840   1.431  -1.302  1.00  0.00     0.150 C 
BRANCH  23  25
HETATM   25  C4  UNL     1       5.459  -0.490  -1.477  1.00  0.00     0.148 C 
BRANCH  25  26
HETATM   26  C3  UNL     1       6.408  -0.145  -0.347  1.00  0.00     0.187 C 
BRANCH  26  27
HETATM   27  O1  UNL     1       6.544   1.199  -0.117  1.00  0.00    -0.390 OA
BRANCH  27  28
HETATM   28  C2  UNL     1       7.425   1.401   0.929  1.00  0.00     0.163 C 
HETATM   29  C1  UNL     1       7.626   2.863   1.246  1.00  0.00     0.033 C 
ENDBRANCH  27  28
ENDBRANCH  26  27
ENDBRANCH  25  26
ENDBRANCH  23  25
ENDBRANCH  19  23
ENDBRANCH  13  15
ENDBRANCH   1  13
BRANCH   4  30
HETATM   30  N4  UNL     1      -0.315   2.331   2.834  1.00  0.00    -0.234 N 
ATOM     31  H42 UNL     1       0.690   2.185   2.931  1.00  0.00     0.174 HD
ATOM     32  H41 UNL     1      -0.774   3.023   3.427  1.00  0.00     0.174 HD
ENDBRANCH   4  30
BRANCH  10  33
HETATM   33  O5  UNL     1      -5.429  -0.937  -1.732  1.00  0.00    -0.353 OA
HETATM   34  C20 UNL     1      -4.823  -1.904  -2.567  1.00  0.00     0.210 C 
ENDBRANCH  10  33
BRANCH   9  35
HETATM   35  O3  UNL     1      -6.631   0.907  -0.149  1.00  0.00    -0.340 OA
BRANCH  35  36
HETATM   36  C17 UNL     1      -7.235   1.869   0.682  1.00  0.00     0.275 C 
BRANCH  36  37
HETATM   37  C18 UNL     1      -8.692   1.974   0.442  1.00  0.00     0.255 C 
HETATM   38  N6  UNL     1      -9.388   1.198  -0.506  1.00  0.00    -0.060 NA
HETATM   39  O4  UNL     1      -9.345   2.807   1.127  1.00  0.00    -0.274 OA
ENDBRANCH  36  37
ENDBRANCH  35  36
ENDBRANCH   9  35
TORSDOF 13
