REMARK  18 active torsions:
REMARK  status: ('A' for Active; 'I' for Inactive)
REMARK    1  A    between atoms: C2_2  and  C3_3 
REMARK    2  A    between atoms: C10_10  and  C11_11 
REMARK    3  A    between atoms: C11_11  and  C12_12 
REMARK    4  A    between atoms: C12_12  and  C13_13 
REMARK    5  A    between atoms: C15_15  and  N1_16 
REMARK       I    between atoms: N1_16  and  C16_18 
REMARK       I    between atoms: C16_18  and  N2_20 
REMARK    6  A    between atoms: N2_20  and  C17_22 
REMARK    7  A    between atoms: C17_22  and  C18_23 
REMARK    8  A    between atoms: C17_22  and  C22_27 
REMARK    9  A    between atoms: C18_23  and  C19_24 
REMARK   10  A    between atoms: C22_27  and  C23_29 
REMARK       I    between atoms: C23_29  and  N3_31 
REMARK   11  A    between atoms: N3_31  and  C24_33 
REMARK   12  A    between atoms: C24_33  and  C25_34 
REMARK   13  A    between atoms: C24_33  and  C29_38 
REMARK   14  A    between atoms: C25_34  and  C26_35 
REMARK   15  A    between atoms: C30_41  and  C31_42 
REMARK       I    between atoms: C31_42  and  N5_44 
REMARK   16  A    between atoms: N5_44  and  C32_46 
REMARK   17  A    between atoms: C32_46  and  C33_47 
REMARK   18  A    between atoms: C33_47  and  O6_48 
ROOT
HETATM    1  C3  UNL     1      -5.611  -2.880  -0.646  1.00  0.00    -0.011 C 
HETATM    2  C4  UNL     1      -7.098  -2.520  -0.522  1.00  0.00     0.021 C 
HETATM    3  C5  UNL     1      -5.010  -3.117   0.714  1.00  0.00     0.015 C 
HETATM    4  C6  UNL     1      -5.295  -1.843   1.455  1.00  0.00     0.010 C 
HETATM    5  C7  UNL     1      -4.331  -0.749   0.916  1.00  0.00    -0.043 C 
HETATM    6  C8  UNL     1      -4.782   0.492   1.661  1.00  0.00     0.015 C 
HETATM    7  C9  UNL     1      -3.002  -1.149   1.527  1.00  0.00     0.015 C 
HETATM    8  C10 UNL     1      -4.293  -0.689  -0.540  1.00  0.00     0.012 C 
HETATM    9  C35 UNL     1      -4.883  -1.813  -1.340  1.00  0.00     0.109 C 
HETATM   10  C36 UNL     1      -3.814  -2.464  -2.143  1.00  0.00     0.065 C 
HETATM   11  N6  UNL     1      -2.959  -2.960  -2.766  1.00  0.00    -0.197 NA
ENDROOT
BRANCH   1  12
HETATM   12  C2  UNL     1      -5.573  -4.177  -1.401  1.00  0.00    -0.026 C 
HETATM   13  C1  UNL     1      -6.093  -5.289  -0.853  1.00  0.00     0.008 C 
ENDBRANCH   1  12
BRANCH   8  14
HETATM   14  C11 UNL     1      -4.699   0.569  -1.240  1.00  0.00     0.007 C 
BRANCH  14  15
HETATM   15  C12 UNL     1      -3.942   1.820  -1.058  1.00  0.00     0.012 C 
BRANCH  15  16
HETATM   16  C13 UNL     1      -2.532   1.719  -1.565  1.00  0.00    -0.009 A 
HETATM   17  C14 UNL     1      -2.401   1.353  -3.067  1.00  0.00     0.018 C 
HETATM   18  C15 UNL     1      -1.335   1.525  -0.762  1.00  0.00     0.109 A 
HETATM   19  C30 UNL     1      -1.604   2.920  -1.189  1.00  0.00     0.111 A 
BRANCH  18  20
HETATM   20  N1  UNL     1      -0.156   0.894  -1.376  1.00  0.00    -0.337 N 
HETATM   21  C16 UNL     1       0.638  -0.067  -0.731  1.00  0.00     0.317 C 
HETATM   22  O1  UNL     1       0.344  -0.431   0.431  1.00  0.00    -0.247 OA
HETATM   23  N2  UNL     1       1.774  -0.659  -1.341  1.00  0.00    -0.331 N 
ATOM     24  H2  UNL     1       2.043  -0.362  -2.279  1.00  0.00     0.165 HD
ATOM     25  H1  UNL     1       0.099   1.171  -2.324  1.00  0.00     0.164 HD
BRANCH  23  26
HETATM   26  C17 UNL     1       2.569  -1.680  -0.667  1.00  0.00     0.166 C 
BRANCH  26  27
HETATM   27  C18 UNL     1       2.839  -2.891  -1.468  1.00  0.00     0.037 C 
BRANCH  27  28
HETATM   28  C19 UNL     1       1.560  -3.611  -1.937  1.00  0.00    -0.020 C 
HETATM   29  C20 UNL     1       0.696  -4.032  -0.797  1.00  0.00     0.009 C 
HETATM   30  C21 UNL     1       0.870  -2.909  -3.043  1.00  0.00     0.009 C 
ENDBRANCH  27  28
ENDBRANCH  26  27
BRANCH  26  31
HETATM   31  C22 UNL     1       3.726  -1.067   0.015  1.00  0.00     0.238 C 
HETATM   32  O2  UNL     1       3.485   0.084   0.519  1.00  0.00    -0.285 OA
BRANCH  31  33
HETATM   33  C23 UNL     1       5.054  -1.613   0.167  1.00  0.00     0.290 C 
HETATM   34  O3  UNL     1       5.394  -2.674  -0.353  1.00  0.00    -0.264 OA
HETATM   35  N3  UNL     1       6.042  -0.907   0.958  1.00  0.00    -0.342 N 
ATOM     36  H3  UNL     1       5.776  -0.027   1.400  1.00  0.00     0.163 HD
BRANCH  35  37
HETATM   37  C24 UNL     1       7.382  -1.394   1.147  1.00  0.00     0.174 C 
BRANCH  37  38
HETATM   38  C25 UNL     1       8.433  -0.416   0.753  1.00  0.00     0.038 C 
BRANCH  38  39
HETATM   39  C26 UNL     1       8.428   0.887   1.472  1.00  0.00    -0.020 C 
HETATM   40  C27 UNL     1       9.586   1.718   0.883  1.00  0.00     0.009 C 
HETATM   41  C28 UNL     1       8.772   0.775   2.953  1.00  0.00     0.009 C 
ENDBRANCH  38  39
ENDBRANCH  37  38
BRANCH  37  42
HETATM   42  C29 UNL     1       7.576  -2.035   2.457  1.00  0.00     0.254 C 
HETATM   43  N4  UNL     1       8.843  -2.558   2.801  1.00  0.00    -0.060 NA
HETATM   44  O4  UNL     1       6.637  -2.128   3.276  1.00  0.00    -0.275 OA
ENDBRANCH  37  42
ENDBRANCH  35  37
ENDBRANCH  31  33
ENDBRANCH  26  31
ENDBRANCH  23  26
ENDBRANCH  18  20
BRANCH  19  45
HETATM   45  C31 UNL     1      -2.066   3.915  -0.205  1.00  0.00     0.224 C 
HETATM   46  O5  UNL     1      -2.459   3.608   0.937  1.00  0.00    -0.273 OA
HETATM   47  N5  UNL     1      -2.065   5.288  -0.574  1.00  0.00    -0.359 N 
ATOM     48  H5  UNL     1      -1.741   5.515  -1.514  1.00  0.00     0.162 HD
BRANCH  47  49
HETATM   49  C32 UNL     1      -2.477   6.381   0.254  1.00  0.00     0.148 C 
BRANCH  49  50
HETATM   50  C33 UNL     1      -1.631   6.493   1.494  1.00  0.00     0.186 C 
BRANCH  50  51
HETATM   51  O6  UNL     1      -2.021   7.539   2.303  1.00  0.00    -0.394 OA
HETATM   52  C34 UNL     1      -1.945   8.766   1.705  1.00  0.00     0.201 C 
ENDBRANCH  50  51
ENDBRANCH  49  50
ENDBRANCH  47  49
ENDBRANCH  19  45
ENDBRANCH  15  16
ENDBRANCH  14  15
ENDBRANCH   8  14
TORSDOF 18
