REMARK  14 active torsions:
REMARK  status: ('A' for Active; 'I' for Inactive)
REMARK    1  A    between atoms: O1_2  and  C2_3 
REMARK       I    between atoms: C2_3  and  N1_5 
REMARK    2  A    between atoms: N1_5  and  C3_7 
REMARK    3  A    between atoms: C3_7  and  C4_8 
REMARK    4  A    between atoms: C3_7  and  C6_12 
REMARK    5  A    between atoms: C3_7  and  C8_16 
REMARK    6  A    between atoms: C4_8  and  O4_10 
REMARK    7  A    between atoms: C6_12  and  O6_14 
REMARK    8  A    between atoms: C9_17  and  O7_18 
REMARK    9  A    between atoms: C10_20  and  C11_21 
REMARK   10  A    between atoms: C11_21  and  O8_22 
REMARK   11  A    between atoms: C11_21  and  N2_24 
REMARK   12  A    between atoms: N2_24  and  N3_25 
REMARK   13  A    between atoms: C12_31  and  N5_32 
REMARK       I    between atoms: N5_32  and  C13_34 
REMARK   14  A    between atoms: N7_36  and  O10_38 
ROOT
HETATM    1  C8  UNL     1       0.043  -0.018  -0.120  1.00  0.00     0.079 A 
HETATM    2  C9  UNL     1       0.905  -0.881  -0.804  1.00  0.00     0.108 A 
HETATM    3  C10 UNL     1       2.248  -0.791  -0.734  1.00  0.00     0.112 A 
HETATM    4  N4  UNL     1       2.813   0.182   0.028  1.00  0.00    -0.257 N 
ATOM      5  H4  UNL     1       3.827   0.273   0.096  1.00  0.00     0.195 HD
HETATM    6  O9  UNL     1       2.043   0.976   0.654  1.00  0.00    -0.219 OA
HETATM    7  C12 UNL     1       0.724   0.944   0.635  1.00  0.00     0.185 A 
ENDROOT
BRANCH   1   8
HETATM    8  C3  UNL     1      -1.404  -0.155  -0.016  1.00  0.00     0.246 C 
BRANCH   8   9
HETATM    9  N1  UNL     1      -1.987  -1.179   0.744  1.00  0.00    -0.306 N 
HETATM   10  C2  UNL     1      -2.137  -2.549   0.739  1.00  0.00     0.361 C 
HETATM   11  O2  UNL     1      -1.744  -3.395  -0.071  1.00  0.00    -0.238 OA
ATOM     12  H1  UNL     1      -2.448  -0.783   1.563  1.00  0.00     0.167 HD
BRANCH  10  13
HETATM   13  O1  UNL     1      -2.861  -3.191   1.820  1.00  0.00    -0.309 OA
HETATM   14  C1  UNL     1      -3.000  -4.595   1.788  1.00  0.00     0.215 C 
ENDBRANCH  10  13
ENDBRANCH   8   9
BRANCH   8  15
HETATM   15  C4  UNL     1      -1.897  -0.312  -1.491  1.00  0.00     0.302 C 
HETATM   16  O3  UNL     1      -2.686  -1.224  -1.709  1.00  0.00    -0.261 OA
BRANCH  15  17
HETATM   17  O4  UNL     1      -1.451   0.533  -2.443  1.00  0.00    -0.324 OA
HETATM   18  C5  UNL     1      -1.796   0.520  -3.800  1.00  0.00     0.213 C 
ENDBRANCH  15  17
ENDBRANCH   8  15
BRANCH   8  19
HETATM   19  C6  UNL     1      -2.055   1.165   0.311  1.00  0.00     0.302 C 
HETATM   20  O5  UNL     1      -2.723   1.248   1.367  1.00  0.00    -0.261 OA
BRANCH  19  21
HETATM   21  O6  UNL     1      -1.951   2.274  -0.526  1.00  0.00    -0.324 OA
HETATM   22  C7  UNL     1      -2.589   3.483  -0.236  1.00  0.00     0.213 C 
ENDBRANCH  19  21
ENDBRANCH   8  19
ENDBRANCH   1   8
BRANCH   2  23
HETATM   23  O7  UNL     1       0.326  -1.830  -1.572  1.00  0.00    -0.358 OA
ATOM     24  H7  UNL     1       0.912  -2.416  -2.037  1.00  0.00     0.217 HD
ENDBRANCH   2  23
BRANCH   7  25
HETATM   25  N5  UNL     1       0.152   1.835   1.351  1.00  0.00    -0.307 N 
HETATM   26  C13 UNL     1       0.827   2.802   2.109  1.00  0.00     0.214 C 
HETATM   27  N6  UNL     1       0.421   3.170   3.440  1.00  0.00    -0.061 NA
HETATM   28  N7  UNL     1       1.855   3.407   1.621  1.00  0.00    -0.241 N 
ATOM     29  H7  UNL     1       2.171   3.174   0.679  1.00  0.00     0.197 HD
ATOM     30  H5  UNL     1      -0.868   1.843   1.372  1.00  0.00     0.170 HD
BRANCH  28  31
HETATM   31  O10 UNL     1       2.531   4.353   2.337  1.00  0.00    -0.287 OA
ATOM     32  H10 UNL     1       3.289   4.799   1.977  1.00  0.00     0.244 HD
ENDBRANCH  28  31
ENDBRANCH   7  25
BRANCH   3  33
HETATM   33  C11 UNL     1       3.132  -1.774  -1.414  1.00  0.00     0.285 C 
BRANCH  33  34
HETATM   34  O8  UNL     1       2.768  -3.074  -1.137  1.00  0.00    -0.372 OA
ATOM     35  H8  UNL     1       3.333  -3.702  -1.572  1.00  0.00     0.212 HD
ENDBRANCH  33  34
BRANCH  33  36
HETATM   36  N2  UNL     1       4.529  -1.573  -1.071  1.00  0.00    -0.110 NA
BRANCH  36  37
HETATM   37  N3  UNL     1       4.865  -0.274  -1.538  1.00  0.00    -0.346 N 
ATOM     38  H32 UNL     1       4.240   0.375  -2.016  1.00  0.00     0.172 HD
ATOM     39  H31 UNL     1       5.846  -0.133  -1.297  1.00  0.00     0.172 HD
ENDBRANCH  36  37
ENDBRANCH  33  36
ENDBRANCH   3  33
TORSDOF 14
