REMARK  7 active torsions:
REMARK  status: ('A' for Active; 'I' for Inactive)
REMARK    1  A    between atoms: N1_1  and  C1_5 
REMARK    2  A    between atoms: C1_5  and  C2_6 
REMARK    3  A    between atoms: C2_6  and  C3_7 
REMARK    4  A    between atoms: C3_7  and  C4_8 
REMARK    5  A    between atoms: C4_8  and  C5_9 
REMARK    6  A    between atoms: C7_13  and  C8_14 
REMARK    7  A    between atoms: C12_20  and  N4_21 
ROOT
HETATM    1  C4  UNL     1      -0.976  -0.418  -0.670  1.00  0.00     0.015 C 
HETATM    2  C6  UNL     1      -1.021   1.031  -1.042  1.00  0.00     0.030 C 
HETATM    3  C7  UNL     1      -0.462   1.952  -0.026  1.00  0.00     0.076 C 
HETATM    4  C9  UNL     1       1.024   1.572   0.071  1.00  0.00     0.018 C 
HETATM    5  C10 UNL     1       0.988   0.206   0.754  1.00  0.00    -0.007 C 
HETATM    6  C11 UNL     1       2.312  -0.171   1.314  1.00  0.00     0.037 C 
HETATM    7  C12 UNL     1       3.411  -0.258   0.293  1.00  0.00     0.183 C 
HETATM    8  C13 UNL     1       3.582  -1.633  -0.296  1.00  0.00     0.033 C 
HETATM    9  C14 UNL     1       2.281  -2.365  -0.271  1.00  0.00     0.002 C 
HETATM   10  C15 UNL     1       1.261  -1.522  -1.046  1.00  0.00     0.006 C 
HETATM   11  C16 UNL     1       0.328  -0.853  -0.057  1.00  0.00     0.004 C 
ENDROOT
BRANCH   1  12
HETATM   12  C3  UNL     1      -2.063  -0.744   0.319  1.00  0.00     0.018 C 
BRANCH  12  13
HETATM   13  C2  UNL     1      -3.438  -0.353  -0.047  1.00  0.00     0.028 C 
BRANCH  13  14
HETATM   14  C1  UNL     1      -4.363  -0.797   1.100  1.00  0.00     0.229 C 
BRANCH  14  15
HETATM   15  N1  UNL     1      -3.961  -0.143   2.333  1.00  0.00    -0.079 N 
ATOM     16  H13 UNL     1      -2.977  -0.302   2.549  1.00  0.00     0.274 HD
ATOM     17  H12 UNL     1      -3.928   0.872   2.237  1.00  0.00     0.274 HD
ATOM     18  H11 UNL     1      -4.574  -0.437   3.093  1.00  0.00     0.274 HD
ENDBRANCH  14  15
ENDBRANCH  13  14
ENDBRANCH  12  13
ENDBRANCH   1  12
BRANCH   1  19
HETATM   19  C5  UNL     1      -1.274  -1.149  -1.928  1.00  0.00     0.099 C 
HETATM   20  N2  UNL     1      -0.685  -0.740  -3.182  1.00  0.00    -0.094 NA
HETATM   21  S1  UNL     1      -2.233  -2.464  -2.023  1.00  0.00    -0.068 SA
ENDBRANCH   1  19
BRANCH   3  22
HETATM   22  C8  UNL     1      -0.660   3.346  -0.390  1.00  0.00     0.235 C 
HETATM   23  N3  UNL     1      -0.171   4.362   0.499  1.00  0.00    -0.062 NA
HETATM   24  O1  UNL     1      -1.230   3.717  -1.432  1.00  0.00    -0.277 OA
ENDBRANCH   3  22
BRANCH   7  25
HETATM   25  N4  UNL     1       4.689   0.073   0.942  1.00  0.00    -0.075 N 
ATOM     26  H43 UNL     1       4.664   0.978   1.412  1.00  0.00     0.274 HD
ATOM     27  H42 UNL     1       4.872  -0.507   1.761  1.00  0.00     0.274 HD
ATOM     28  H41 UNL     1       5.435   0.014   0.249  1.00  0.00     0.274 HD
ENDBRANCH   7  25
TORSDOF 7
