REMARK  5 active torsions:
REMARK  status: ('A' for Active; 'I' for Inactive)
REMARK       I    between atoms: C1_4  and  N3_6 
REMARK       I    between atoms: N3_6  and  C2_7 
REMARK    1  A    between atoms: C2_7  and  C3_9 
REMARK    2  A    between atoms: C3_9  and  C4_10 
REMARK    3  A    between atoms: C4_10  and  C5_11 
REMARK       I    between atoms: C5_11  and  N4_13 
REMARK    4  A    between atoms: N4_13  and  C6_15 
REMARK    5  A    between atoms: C6_15  and  C7_16 
ROOT
HETATM    1  C5  UNL     1       1.550   0.685  -0.680  1.00  0.00     0.218 C 
HETATM    2  O2  UNL     1       1.677   1.919  -0.640  1.00  0.00    -0.274 OA
HETATM    3  N4  UNL     1       0.263   0.052  -0.601  1.00  0.00    -0.360 N 
ATOM      4  H4  UNL     1       0.157  -0.962  -0.615  1.00  0.00     0.162 HD
ENDROOT
BRANCH   3   5
HETATM    5  C6  UNL     1      -0.864   0.935  -0.501  1.00  0.00     0.132 C 
BRANCH   5   6
HETATM    6  C7  UNL     1      -2.187   0.261  -0.305  1.00  0.00    -0.022 C 
HETATM    7  C8  UNL     1      -2.185  -0.530   1.005  1.00  0.00     0.016 C 
HETATM    8  C9  UNL     1      -3.574  -1.051   1.270  1.00  0.00    -0.012 C 
HETATM    9  C10 UNL     1      -4.008  -2.029   0.219  1.00  0.00     0.009 C 
HETATM   10  C14 UNL     1      -4.582   0.074   1.320  1.00  0.00     0.030 C 
HETATM   11  C11 UNL     1      -3.889  -1.299  -1.112  1.00  0.00    -0.012 C 
HETATM   12  C12 UNL     1      -4.879  -0.173  -1.178  1.00  0.00     0.030 C 
HETATM   13  C16 UNL     1      -2.514  -0.770  -1.372  1.00  0.00     0.016 C 
HETATM   14  C13 UNL     1      -4.616   0.761  -0.018  1.00  0.00     0.038 C 
HETATM   15 CL1  UNL     1      -5.792   2.082   0.063  1.00  0.00    -0.119 Cl
HETATM   16  C15 UNL     1      -3.240   1.345  -0.238  1.00  0.00     0.036 C 
ENDBRANCH   5   6
ENDBRANCH   3   5
BRANCH   1  17
HETATM   17  C4  UNL     1       2.762  -0.156  -0.808  1.00  0.00     0.113 C 
BRANCH  17  18
HETATM   18  C3  UNL     1       3.914   0.628  -0.246  1.00  0.00     0.128 C 
BRANCH  18  19
HETATM   19  C2  UNL     1       5.242  -0.116  -0.405  1.00  0.00     0.294 C 
HETATM   20  N3  UNL     1       6.223   0.188   0.396  1.00  0.00    -0.338 NA
HETATM   21  C1  UNL     1       7.288   0.518   1.265  1.00  0.00     0.264 C 
HETATM   22  N1  UNL     1       7.091   1.479   2.169  1.00  0.00    -0.362 N 
HETATM   23  N2  UNL     1       8.556  -0.067   1.335  1.00  0.00    -0.049 NA
ATOM     24  H12 UNL     1       7.859   1.717   2.796  1.00  0.00     0.159 HD
ATOM     25  H11 UNL     1       6.166   1.906   2.118  1.00  0.00     0.159 HD
HETATM   26  O1  UNL     1       5.167  -0.974  -1.368  1.00  0.00    -0.257 OA
ENDBRANCH  18  19
ENDBRANCH  17  18
ENDBRANCH   1  17
TORSDOF 5
