REMARK  6 active torsions:
REMARK  status: ('A' for Active; 'I' for Inactive)
REMARK       I    between atoms: C1_4  and  N2_5 
REMARK       I    between atoms: C1_4  and  N3_16 
REMARK    1  A    between atoms: N2_5  and  C2_7 
REMARK    2  A    between atoms: C2_7  and  C3_8 
REMARK    3  A    between atoms: C3_8  and  C4_9 
REMARK    4  A    between atoms: N3_16  and  C10_18 
REMARK    5  A    between atoms: C10_18  and  C11_19 
REMARK    6  A    between atoms: C11_19  and  N4_20 
ROOT
HETATM    1  N4  UNL     1      -0.597  -0.402   0.864  1.00  0.00    -0.372 N 
HETATM    2  C12 UNL     1      -1.002  -1.281  -0.118  1.00  0.00     0.063 C 
HETATM    3  C13 UNL     1      -2.492  -1.587  -0.129  1.00  0.00     0.046 C 
HETATM    4  C14 UNL     1      -2.910  -2.038  -1.510  1.00  0.00     0.024 C 
HETATM    5  C15 UNL     1      -4.307  -2.625  -1.494  1.00  0.00     0.114 C 
HETATM    6  N5  UNL     1      -5.341  -1.681  -1.201  1.00  0.00    -0.420 N 
ATOM      7  H5  UNL     1      -5.604  -0.943  -1.854  1.00  0.00     0.153 HD
HETATM    8  C16 UNL     1      -5.981  -1.841   0.068  1.00  0.00     0.141 C 
HETATM    9  C17 UNL     1      -7.004  -0.748   0.255  1.00  0.00     0.251 C 
HETATM   10  N6  UNL     1      -6.735   0.405  -0.573  1.00  0.00    -0.074 N 
ATOM     11  H61 UNL     1      -7.458   0.521  -1.283  1.00  0.00     0.277 HD
ATOM     12  H62 UNL     1      -5.932   0.239  -1.180  1.00  0.00     0.277 HD
HETATM   13  C18 UNL     1      -6.563   1.614   0.190  1.00  0.00     0.234 C 
HETATM   14  C19 UNL     1      -5.106   1.973   0.396  1.00  0.00     0.046 C 
HETATM   15  C20 UNL     1      -4.399   2.303  -0.891  1.00  0.00     0.115 C 
HETATM   16  N7  UNL     1      -3.349   3.248  -0.655  1.00  0.00    -0.421 N 
ATOM     17  H7  UNL     1      -3.321   4.158  -1.115  1.00  0.00     0.153 HD
HETATM   18  C21 UNL     1      -2.346   2.829   0.268  1.00  0.00     0.115 C 
HETATM   19  C22 UNL     1      -1.574   1.601  -0.143  1.00  0.00     0.039 C 
HETATM   20  C23 UNL     1      -1.430   0.747   1.097  1.00  0.00     0.128 C 
ENDROOT
BRANCH   1  21
HETATM   21  C11 UNL     1       0.619  -0.414   1.519  1.00  0.00     0.083 C 
BRANCH  21  22
HETATM   22  C10 UNL     1       1.790   0.037   0.726  1.00  0.00     0.182 C 
BRANCH  22  23
HETATM   23  N3  UNL     1       2.073  -0.758  -0.409  1.00  0.00    -0.222 N 
HETATM   24  C1  UNL     1       3.213  -0.370  -1.223  1.00  0.00     0.667 C 
HETATM   25  N1  UNL     1       3.122   0.768  -1.778  1.00  0.00    -0.235 N 
HETATM   26  N2  UNL     1       4.288  -1.284  -1.312  1.00  0.00    -0.227 N 
ATOM     27  H12 UNL     1       3.922   1.040  -2.349  1.00  0.00     0.174 HD
ATOM     28  H11 UNL     1       2.346   1.427  -1.714  1.00  0.00     0.174 HD
ATOM     29  H2  UNL     1       4.129  -2.121  -1.873  1.00  0.00     0.177 HD
ATOM     30  H3  UNL     1       1.502  -1.569  -0.646  1.00  0.00     0.178 HD
BRANCH  26  31
HETATM   31  C2  UNL     1       5.574  -1.161  -0.701  1.00  0.00     0.142 C 
BRANCH  31  32
HETATM   32  C3  UNL     1       6.379  -0.057  -1.333  1.00  0.00     0.058 C 
BRANCH  32  33
HETATM   33  C4  UNL     1       7.732   0.053  -0.700  1.00  0.00    -0.054 A 
HETATM   34  C5  UNL     1       7.944   0.919   0.346  1.00  0.00     0.007 A 
HETATM   35  C6  UNL     1       9.194   1.027   0.965  1.00  0.00     0.003 A 
HETATM   36  C7  UNL     1      10.252   0.252   0.528  1.00  0.00     0.042 A 
HETATM   37  C8  UNL     1      10.048  -0.605  -0.506  1.00  0.00     0.116 A 
HETATM   38  F1  UNL     1      11.061  -1.380  -0.959  1.00  0.00    -0.206 F 
HETATM   39  C9  UNL     1       8.814  -0.708  -1.113  1.00  0.00     0.049 A 
ENDBRANCH  32  33
ENDBRANCH  31  32
ENDBRANCH  26  31
ENDBRANCH  22  23
ENDBRANCH  21  22
ENDBRANCH   1  21
TORSDOF 6
