REMARK  2 active torsions:
REMARK  status: ('A' for Active; 'I' for Inactive)
REMARK       I    between atoms: C1_2  and  N2_4 
REMARK    1  A    between atoms: N2_4  and  N3_6 
REMARK       I    between atoms: N3_6  and  C2_8 
REMARK       I    between atoms: C2_8  and  N4_10 
REMARK    2  A    between atoms: N4_10  and  C3_12 
ROOT
HETATM    1  N3  UNL     1       3.013   0.132  -0.545  1.00  0.00    -0.248 N 
ATOM      2  H3  UNL     1       3.045  -0.128  -1.531  1.00  0.00     0.192 HD
HETATM    3  C2  UNL     1       1.754   0.164   0.090  1.00  0.00     0.335 C 
HETATM    4  O2  UNL     1       1.704   0.481   1.300  1.00  0.00    -0.246 OA
HETATM    5  N4  UNL     1       0.581  -0.146  -0.595  1.00  0.00    -0.332 N 
ATOM      6  H4  UNL     1       0.669  -0.398  -1.579  1.00  0.00     0.165 HD
ENDROOT
BRANCH   5   7
HETATM    7  C3  UNL     1      -0.742  -0.141  -0.035  1.00  0.00     0.041 C 
HETATM    8  C4  UNL     1      -1.230   1.171   0.528  1.00  0.00     0.036 C 
HETATM    9  C5  UNL     1      -2.749   1.149   0.460  1.00  0.00    -0.010 C 
HETATM   10  C6  UNL     1      -3.104   1.310  -1.008  1.00  0.00     0.025 C 
HETATM   11  C10 UNL     1      -3.251  -0.205   0.933  1.00  0.00     0.010 C 
HETATM   12  C7  UNL     1      -2.553   0.145  -1.747  1.00  0.00     0.089 C 
HETATM   13 CL1  UNL     1      -3.841  -0.782  -2.547  1.00  0.00    -0.124 Cl
HETATM   14  C8  UNL     1      -1.738  -0.806  -0.922  1.00  0.00     0.036 C 
HETATM   15  C9  UNL     1      -2.413  -1.299   0.323  1.00  0.00    -0.004 C 
HETATM   16  C11 UNL     1      -1.019  -1.246   0.974  1.00  0.00     0.036 C 
ENDBRANCH   5   7
BRANCH   1  17
HETATM   17  N2  UNL     1       4.209   0.431   0.086  1.00  0.00    -0.250 N 
HETATM   18  C1  UNL     1       5.140  -0.584   0.397  1.00  0.00     0.347 C 
HETATM   19  N1  UNL     1       6.381  -0.290   1.050  1.00  0.00    -0.038 NA
HETATM   20  O1  UNL     1       4.872  -1.784   0.093  1.00  0.00    -0.249 OA
ATOM     21  H2  UNL     1       4.420   1.399   0.330  1.00  0.00     0.191 HD
ENDBRANCH   1  17
TORSDOF 2
