REMARK  4 active torsions:
REMARK  status: ('A' for Active; 'I' for Inactive)
REMARK    1  A    between atoms: C2_2  and  C5_5 
REMARK    2  A    between atoms: C5_5  and  C6_6 
REMARK    3  A    between atoms: C6_6  and  N1_7 
REMARK       I    between atoms: N1_7  and  C7_9 
REMARK       I    between atoms: C7_9  and  N2_11 
REMARK       I    between atoms: C8_13  and  N4_15 
REMARK    4  A    between atoms: N4_15  and  C9_17 
ROOT
HETATM    1  N1  UNL     1      -2.826   0.155  -0.342  1.00  0.00    -0.343 N 
ATOM      2  H1  UNL     1      -2.784  -0.259  -1.273  1.00  0.00     0.164 HD
HETATM    3  C7  UNL     1      -1.642   0.430   0.377  1.00  0.00     0.322 C 
HETATM    4  O1  UNL     1      -1.744   0.942   1.525  1.00  0.00    -0.247 OA
HETATM    5  N2  UNL     1      -0.394   0.123  -0.214  1.00  0.00    -0.283 N 
ATOM      6  H2  UNL     1       0.014   0.752  -0.906  1.00  0.00     0.173 HD
HETATM    7  C8  UNL     1       0.220  -0.948   0.124  1.00  0.00     0.192 C 
HETATM    8  N3  UNL     1      -0.379  -1.797   1.087  1.00  0.00    -0.063 NA
HETATM    9  N4  UNL     1       1.477  -1.292  -0.448  1.00  0.00    -0.359 N 
ATOM     10  H4  UNL     1       1.519  -1.873  -1.285  1.00  0.00     0.162 HD
ENDROOT
BRANCH   9  11
HETATM   11  C9  UNL     1       2.713  -0.805   0.176  1.00  0.00     0.088 C 
HETATM   12  C10 UNL     1       2.663   0.686   0.162  1.00  0.00     0.030 C 
HETATM   13  C11 UNL     1       3.945   1.337   0.588  1.00  0.00    -0.012 C 
HETATM   14  C12 UNL     1       4.710   0.560   1.602  1.00  0.00     0.009 C 
HETATM   15  C16 UNL     1       4.730   1.697  -0.639  1.00  0.00     0.009 C 
HETATM   16  C13 UNL     1       5.654  -0.447   1.053  1.00  0.00    -0.013 C 
HETATM   17  C14 UNL     1       6.436   0.035  -0.144  1.00  0.00     0.009 C 
HETATM   18  C19 UNL     1       4.927  -1.715   0.611  1.00  0.00     0.011 C 
HETATM   19  C15 UNL     1       5.433   0.481  -1.183  1.00  0.00    -0.013 C 
HETATM   20  C17 UNL     1       4.482  -0.590  -1.587  1.00  0.00     0.011 C 
HETATM   21  C18 UNL     1       3.924  -1.396  -0.465  1.00  0.00     0.009 C 
ENDBRANCH   9  11
BRANCH   1  22
HETATM   22  C6  UNL     1      -4.100   0.472   0.267  1.00  0.00     0.125 C 
BRANCH  22  23
HETATM   23  C5  UNL     1      -5.190   0.083  -0.700  1.00  0.00     0.028 C 
BRANCH  23  24
HETATM   24  C2  UNL     1      -6.566   0.381  -0.142  1.00  0.00    -0.050 C 
HETATM   25  C1  UNL     1      -7.584  -0.045  -1.187  1.00  0.00     0.014 C 
HETATM   26  C3  UNL     1      -6.773   1.843   0.115  1.00  0.00     0.014 C 
HETATM   27  C4  UNL     1      -6.743  -0.359   1.152  1.00  0.00     0.014 C 
ENDBRANCH  23  24
ENDBRANCH  22  23
ENDBRANCH   1  22
TORSDOF 4
