REMARK  11 active torsions:
REMARK  status: ('A' for Active; 'I' for Inactive)
REMARK    1  A    between atoms: C2_2  and  C3_3 
REMARK    2  A    between atoms: C3_3  and  C4_4 
REMARK    3  A    between atoms: C3_3  and  C25_33 
REMARK    4  A    between atoms: C4_4  and  C5_5 
REMARK    5  A    between atoms: C5_5  and  C6_6 
REMARK    6  A    between atoms: C6_6  and  C7_7 
REMARK    7  A    between atoms: C8_8  and  C9_9 
REMARK    8  A    between atoms: C9_9  and  C10_10 
REMARK    9  A    between atoms: C12_14  and  C13_15 
REMARK   10  A    between atoms: C17_19  and  O3_20 
REMARK   11  A    between atoms: C24_30  and  O4_31 
ROOT
HETATM    1  C10 UNL     1      -0.021   0.771   0.791  1.00  0.00     0.159 C 
HETATM    2  O1  UNL     1      -0.882  -0.311   0.965  1.00  0.00    -0.351 OA
HETATM    3  C11 UNL     1      -1.786  -0.260  -0.115  1.00  0.00     0.285 C 
HETATM    4  O2  UNL     1      -2.802  -1.129   0.114  1.00  0.00    -0.353 OA
HETATM    5  C12 UNL     1      -3.742  -1.221  -0.870  1.00  0.00     0.131 C 
HETATM    6  C16 UNL     1      -5.099  -1.679  -0.467  1.00  0.00     0.068 C 
HETATM    7  C17 UNL     1      -5.402  -1.794   0.969  1.00  0.00     0.143 C 
HETATM    8  C18 UNL     1      -6.593  -1.055   1.458  1.00  0.00     0.001 C 
HETATM    9  C19 UNL     1      -6.848   0.210   1.442  1.00  0.00    -0.028 C 
HETATM   10  C20 UNL     1      -6.048   1.344   0.936  1.00  0.00     0.028 C 
HETATM   11  C21 UNL     1      -5.055   1.911   1.907  1.00  0.00     0.023 C 
HETATM   12  C22 UNL     1      -3.835   2.456   1.152  1.00  0.00     0.114 C 
HETATM   13  N1  UNL     1      -2.726   1.555   1.198  1.00  0.00    -0.410 N 
ATOM     14  H1  UNL     1      -2.366   1.182   2.077  1.00  0.00     0.153 HD
HETATM   15  C23 UNL     1      -2.154   1.210  -0.065  1.00  0.00     0.163 C 
HETATM   16  C24 UNL     1      -0.732   1.799  -0.055  1.00  0.00     0.174 C 
ENDROOT
BRANCH   1  17
HETATM   17  C9  UNL     1       1.223   0.221   0.117  1.00  0.00     0.061 C 
BRANCH  17  18
HETATM   18  C8  UNL     1       2.235   1.227  -0.140  1.00  0.00    -0.028 C 
HETATM   19  C7  UNL     1       3.451   1.222   0.335  1.00  0.00    -0.031 C 
BRANCH  19  20
HETATM   20  C6  UNL     1       3.991   0.175   1.220  1.00  0.00     0.027 C 
BRANCH  20  21
HETATM   21  C5  UNL     1       5.183  -0.503   0.567  1.00  0.00     0.005 C 
BRANCH  21  22
HETATM   22  C4  UNL     1       6.309   0.431   0.268  1.00  0.00     0.015 C 
BRANCH  22  23
HETATM   23  C3  UNL     1       7.469  -0.262  -0.356  1.00  0.00     0.086 C 
BRANCH  23  24
HETATM   24  C2  UNL     1       8.592   0.749  -0.597  1.00  0.00     0.011 C 
HETATM   25  C1  UNL     1       8.962   1.313   0.747  1.00  0.00     0.006 C 
ENDBRANCH  23  24
BRANCH  23  26
HETATM   26  C25 UNL     1       7.199  -0.883  -1.666  1.00  0.00     0.176 C 
HETATM   27  O5  UNL     1       6.136  -0.664  -2.265  1.00  0.00    -0.648 OA
HETATM   28  O6  UNL     1       8.131  -1.721  -2.251  1.00  0.00    -0.648 OA
ENDBRANCH  23  26
ENDBRANCH  22  23
ENDBRANCH  21  22
ENDBRANCH  20  21
ENDBRANCH  19  20
ENDBRANCH  17  18
ENDBRANCH   1  17
BRANCH  16  29
HETATM   29  O4  UNL     1      -0.714   3.061   0.517  1.00  0.00    -0.391 OA
ATOM     30  H4  UNL     1      -1.162   3.708  -0.015  1.00  0.00     0.210 HD
ENDBRANCH  16  29
BRANCH   5  31
HETATM   31  C13 UNL     1      -3.214  -1.980  -2.084  1.00  0.00     0.006 C 
HETATM   32  C14 UNL     1      -4.308  -2.046  -3.138  1.00  0.00     0.012 C 
HETATM   33  C15 UNL     1      -2.636  -3.310  -1.752  1.00  0.00     0.012 C 
ENDBRANCH   5  31
BRANCH   7  34
HETATM   34  O3  UNL     1      -4.363  -1.497   1.846  1.00  0.00    -0.392 OA
ATOM     35  H3  UNL     1      -4.559  -1.571   2.773  1.00  0.00     0.210 HD
ENDBRANCH   7  34
TORSDOF 11
