REMARK  10 active torsions:
REMARK  status: ('A' for Active; 'I' for Inactive)
REMARK    1  A    between atoms: N1_1  and  N2_4 
REMARK    2  A    between atoms: N2_4  and  C1_6 
REMARK    3  A    between atoms: C1_6  and  N3_7 
REMARK    4  A    between atoms: N3_7  and  N4_9 
REMARK    5  A    between atoms: N5_11  and  N6_13 
REMARK    6  A    between atoms: N6_13  and  C3_15 
REMARK    7  A    between atoms: C4_20  and  O1_21 
REMARK    8  A    between atoms: C5_23  and  C6_24 
REMARK    9  A    between atoms: C6_24  and  C8_31 
REMARK   10  A    between atoms: N9_25  and  N10_27 
REMARK       I    between atoms: N10_27  and  C7_28 
ROOT
HETATM    1  N4  UNL     1       1.345   0.922  -0.976  1.00  0.00    -0.037 N 
HETATM    2  C2  UNL     1       2.127   0.094  -0.269  1.00  0.00     0.724 A 
HETATM    3  N5  UNL     1       3.403   0.191  -0.395  1.00  0.00    -0.128 N 
ATOM      4  H5  UNL     1       3.803   0.888  -1.023  1.00  0.00     0.205 HD
HETATM    5  N8  UNL     1       1.615  -0.827   0.557  1.00  0.00    -0.166 N 
ATOM      6  H8  UNL     1       2.236  -1.442   1.082  1.00  0.00     0.186 HD
HETATM    7  C4  UNL     1       0.251  -0.944   0.698  1.00  0.00     0.173 A 
HETATM    8  C5  UNL     1      -0.566  -0.122  -0.003  1.00  0.00     0.118 A 
HETATM    9  C9  UNL     1       0.024   0.844  -0.870  1.00  0.00     0.300 A 
HETATM   10  O4  UNL     1      -0.697   1.625  -1.537  1.00  0.00    -0.264 OA
ENDROOT
BRANCH   8  11
HETATM   11  C6  UNL     1      -2.015  -0.120   0.038  1.00  0.00     0.127 C 
HETATM   12  N9  UNL     1      -2.597   0.753  -0.723  1.00  0.00    -0.225 N 
ATOM     13  H9  UNL     1      -1.944   1.329  -1.255  1.00  0.00     0.202 HD
BRANCH  12  14
HETATM   14  N10 UNL     1      -3.831   1.040  -0.943  1.00  0.00    -0.255 NA
HETATM   15  C7  UNL     1      -5.145   1.346  -1.177  1.00  0.00     0.388 C 
HETATM   16  O2  UNL     1      -5.796   2.330  -0.789  1.00  0.00    -0.617 OA
HETATM   17  O3  UNL     1      -5.919   0.434  -1.977  1.00  0.00    -0.617 OA
ENDBRANCH  12  14
BRANCH  11  18
HETATM   18  C8  UNL     1      -2.900  -0.944   0.822  1.00  0.00     0.168 A 
HETATM   19  N11 UNL     1      -4.285  -0.823   0.839  1.00  0.00    -0.267 N 
HETATM   20  N12 UNL     1      -4.773  -1.726   1.641  1.00  0.00    -0.227 N 
ATOM     21  H11 UNL     1      -4.829  -0.140   0.311  1.00  0.00     0.190 HD
HETATM   22  N13 UNL     1      -3.798  -2.453   2.169  1.00  0.00    -0.227 N 
ATOM     23  H12 UNL     1      -5.766  -1.856   1.836  1.00  0.00     0.210 HD
HETATM   24  N14 UNL     1      -2.701  -1.945   1.649  1.00  0.00    -0.267 N 
ATOM     25  H13 UNL     1      -3.879  -3.228   2.827  1.00  0.00     0.210 HD
ATOM     26  H14 UNL     1      -1.771  -2.300   1.870  1.00  0.00     0.190 HD
ENDBRANCH  11  18
ENDBRANCH   8  11
BRANCH   7  27
HETATM   27  O1  UNL     1      -0.229  -1.906   1.559  1.00  0.00    -0.345 OA
ATOM     28  H1  UNL     1      -1.171  -1.987   1.656  1.00  0.00     0.219 HD
ENDBRANCH   7  27
BRANCH   1  29
HETATM   29  N3  UNL     1       1.981   1.865  -1.816  1.00  0.00    -0.225 N 
ATOM     30  H3  UNL     1       2.213   1.622  -2.779  1.00  0.00     0.199 HD
BRANCH  29  31
HETATM   31  C1  UNL     1       2.266   3.039  -1.352  1.00  0.00     0.084 C 
BRANCH  31  32
HETATM   32  N2  UNL     1       2.616   4.077  -0.713  1.00  0.00    -0.256 N 
ATOM     33  H2  UNL     1       3.255   4.736  -1.157  1.00  0.00     0.197 HD
BRANCH  32  34
HETATM   34  N1  UNL     1       2.158   4.349   0.574  1.00  0.00    -0.337 N 
ATOM     35  H12 UNL     1       1.519   3.680   1.003  1.00  0.00     0.177 HD
ATOM     36  H11 UNL     1       2.440   5.184   1.088  1.00  0.00     0.177 HD
ENDBRANCH  32  34
ENDBRANCH  31  32
ENDBRANCH  29  31
ENDBRANCH   1  29
BRANCH   3  37
HETATM   37  N6  UNL     1       4.244  -0.663   0.332  1.00  0.00    -0.264 N 
ATOM     38  H6  UNL     1       4.648  -0.328   1.207  1.00  0.00     0.189 HD
BRANCH  37  39
HETATM   39  C3  UNL     1       4.551  -1.972  -0.105  1.00  0.00     0.200 C 
HETATM   40  N7  UNL     1       5.402  -2.812   0.651  1.00  0.00    -0.068 NA
HETATM   41  S1  UNL     1       3.924  -2.535  -1.492  1.00  0.00    -0.043 SA
ENDBRANCH  37  39
ENDBRANCH   3  37
TORSDOF 10
