REMARK  2 active torsions:
REMARK  status: ('A' for Active; 'I' for Inactive)
REMARK       I    between atoms: N1_1  and  C1_5 
REMARK       I    between atoms: C1_5  and  N2_6 
REMARK       I    between atoms: C1_5  and  N3_10 
REMARK    1  A    between atoms: N3_10  and  N4_11 
REMARK    2  A    between atoms: N3_10  and  C2_14 
ROOT
HETATM    1  C2  UNL     1      -0.559   0.146  -0.294  1.00  0.00     0.126 A 
HETATM    2  C3  UNL     1      -0.115   1.105  -1.156  1.00  0.00     0.052 A 
HETATM    3  C4  UNL     1       1.215   1.368  -1.393  1.00  0.00     0.036 A 
HETATM    4  C5  UNL     1       2.148   0.598  -0.703  1.00  0.00     0.069 A 
HETATM    5  N5  UNL     1       3.465   0.788  -0.871  1.00  0.00    -0.306 N 
ATOM      6  H5  UNL     1       3.808   1.503  -1.513  1.00  0.00     0.171 HD
HETATM    7  C6  UNL     1       4.337   0.010  -0.170  1.00  0.00     0.327 A 
HETATM    8  O1  UNL     1       5.570   0.204  -0.341  1.00  0.00    -0.247 OA
HETATM    9  N6  UNL     1       3.930  -0.940   0.683  1.00  0.00    -0.274 N 
ATOM     10  H6  UNL     1       4.617  -1.500   1.188  1.00  0.00     0.173 HD
HETATM   11  C7  UNL     1       2.614  -1.156   0.874  1.00  0.00     0.278 A 
HETATM   12  O2  UNL     1       2.191  -2.038   1.669  1.00  0.00    -0.265 OA
HETATM   13  C8  UNL     1       1.704  -0.369   0.166  1.00  0.00     0.130 A 
HETATM   14  N7  UNL     1       0.368  -0.582   0.360  1.00  0.00    -0.335 N 
ATOM     15  H7  UNL     1       0.067  -1.306   1.012  1.00  0.00     0.168 HD
ENDROOT
BRANCH   1  16
HETATM   16  N3  UNL     1      -1.919  -0.147  -0.028  1.00  0.00    -0.228 N 
HETATM   17  C1  UNL     1      -2.640   0.223   1.164  1.00  0.00     0.502 C 
HETATM   18  N1  UNL     1      -3.855   0.921   0.707  1.00  0.00    -0.031 N 
HETATM   19  N2  UNL     1      -3.067  -1.011   1.831  1.00  0.00    -0.031 N 
ATOM     20  H13 UNL     1      -4.452   0.338   0.121  1.00  0.00     0.279 HD
ATOM     21  H12 UNL     1      -4.526   1.086   1.458  1.00  0.00     0.279 HD
ATOM     22  H11 UNL     1      -3.558   1.779   0.243  1.00  0.00     0.279 HD
ATOM     23  H23 UNL     1      -3.738  -0.846   2.582  1.00  0.00     0.279 HD
ATOM     24  H22 UNL     1      -3.664  -1.594   1.245  1.00  0.00     0.279 HD
ATOM     25  H21 UNL     1      -2.226  -1.494   2.147  1.00  0.00     0.279 HD
BRANCH  16  26
HETATM   26  N4  UNL     1      -2.662  -0.882  -0.995  1.00  0.00    -0.338 N 
ATOM     27  H42 UNL     1      -3.641  -1.093  -0.803  1.00  0.00     0.177 HD
ATOM     28  H41 UNL     1      -2.152  -1.144  -1.839  1.00  0.00     0.177 HD
ENDBRANCH  16  26
ENDBRANCH   1  16
TORSDOF 2
