REMARK  3 active torsions:
REMARK  status: ('A' for Active; 'I' for Inactive)
REMARK    1  A    between atoms: N2_7  and  C4_8 
REMARK    2  A    between atoms: C4_8  and  N3_9 
REMARK    3  A    between atoms: C7_18  and  C8_19 
ROOT
HETATM    1  C1  UNL     1       3.678   0.572  -0.472  1.00  0.00     0.069 C 
HETATM    2  C2  UNL     1       2.213   0.405  -0.270  1.00  0.00     0.028 A 
HETATM    3  N1  UNL     1       1.400   1.417  -0.558  1.00  0.00    -0.311 N 
ATOM      4  H1  UNL     1       1.790   2.290  -0.912  1.00  0.00     0.170 HD
HETATM    5  C3  UNL     1       0.068   1.305  -0.389  1.00  0.00     0.332 A 
HETATM    6  O1  UNL     1      -0.706   2.255  -0.659  1.00  0.00    -0.246 OA
HETATM    7  N2  UNL     1      -0.525   0.189   0.072  1.00  0.00    -0.214 N 
HETATM    8  C6  UNL     1       0.289  -0.848   0.369  1.00  0.00     0.270 A 
HETATM    9  O2  UNL     1      -0.161  -1.943   0.809  1.00  0.00    -0.267 OA
HETATM   10  C7  UNL     1       1.661  -0.768   0.207  1.00  0.00     0.092 A 
ENDROOT
BRANCH   7  11
HETATM   11  C4  UNL     1      -1.913   0.022   0.266  1.00  0.00     0.310 C 
HETATM   12  C5  UNL     1      -2.892   0.661  -0.612  1.00  0.00     0.213 C 
HETATM   13  N4  UNL     1      -3.578  -0.630  -0.734  1.00  0.00    -0.139 NA
HETATM   14  N5  UNL     1      -2.351  -1.226  -0.383  1.00  0.00    -0.086 NA
BRANCH  11  15
HETATM   15  N3  UNL     1      -2.290  -0.018   1.653  1.00  0.00    -0.034 N 
ATOM     16  H33 UNL     1      -1.765  -0.736   2.151  1.00  0.00     0.279 HD
ATOM     17  H32 UNL     1      -1.952   0.809   2.145  1.00  0.00     0.279 HD
ATOM     18  H31 UNL     1      -3.293  -0.139   1.793  1.00  0.00     0.279 HD
ENDBRANCH  11  15
ENDBRANCH   7  11
BRANCH  10  19
HETATM   19  C8  UNL     1       2.569  -1.863   0.516  1.00  0.00     0.277 C 
HETATM   20  O3  UNL     1       3.036  -1.930   1.677  1.00  0.00    -0.301 OA
ENDBRANCH  10  19
TORSDOF 3
