REMARK  1 active torsions:
REMARK  status: ('A' for Active; 'I' for Inactive)
REMARK    1  A    between atoms: C2_2  and  C3_3 
ROOT
HETATM    1  C3  UNL     1       0.218  -0.270  -0.374  1.00  0.00     0.130 A 
HETATM    2  C4  UNL     1      -0.825  -1.091   0.264  1.00  0.00     0.007 A 
HETATM    3  C5  UNL     1      -1.978  -0.484   0.123  1.00  0.00     0.072 A 
HETATM    4  C6  UNL     1      -1.827   0.768  -0.604  1.00  0.00     0.241 A 
HETATM    5  O1  UNL     1      -2.788   1.554  -0.878  1.00  0.00    -0.269 OA
HETATM    6  N1  UNL     1      -0.458   0.877  -0.900  1.00  0.00    -0.347 N 
ATOM      7  H1  UNL     1      -0.019   1.646  -1.406  1.00  0.00     0.163 HD
ENDROOT
BRANCH   1   8
HETATM    8  C2  UNL     1       1.188   0.253   0.642  1.00  0.00    -0.008 C 
HETATM    9  C1  UNL     1       2.478  -0.045   0.548  1.00  0.00     0.009 C 
ENDBRANCH   1   8
TORSDOF 1
