REMARK  5 active torsions:
REMARK  status: ('A' for Active; 'I' for Inactive)
REMARK    1  A    between atoms: C2_2  and  C3_3 
REMARK    2  A    between atoms: C3_3  and  N1_4 
REMARK    3  A    between atoms: C3_3  and  C4_8 
REMARK       I    between atoms: C4_8  and  N2_10 
REMARK    4  A    between atoms: N2_10  and  C5_12 
REMARK    5  A    between atoms: N6_22  and  N7_23 
ROOT
HETATM    1  C5  UNL     1      -1.169  -0.290  -0.769  1.00  0.00     0.719 A 
HETATM    2  N3  UNL     1      -1.436  -0.557  -2.046  1.00  0.00    -0.097 N 
ATOM      3  H3  UNL     1      -0.669  -0.841  -2.655  1.00  0.00     0.199 HD
HETATM    4  S1  UNL     1      -2.989  -0.446  -2.703  1.00  0.00     0.339 S 
HETATM    5  O2  UNL     1      -3.431  -1.847  -3.123  1.00  0.00    -0.182 OA
HETATM    6  O3  UNL     1      -3.056   0.484  -3.888  1.00  0.00    -0.182 OA
HETATM    7  N4  UNL     1      -4.057   0.048  -1.457  1.00  0.00    -0.238 N 
ATOM      8  H4  UNL     1      -5.051   0.177  -1.646  1.00  0.00     0.183 HD
HETATM    9  C6  UNL     1      -3.587   0.251  -0.292  1.00  0.00     0.241 A 
HETATM   10  N5  UNL     1      -4.551   0.668   0.714  1.00  0.00    -0.060 NA
HETATM   11  N6  UNL     1      -2.207   0.102   0.086  1.00  0.00    -0.061 N 
ENDROOT
BRANCH   1  12
HETATM   12  N2  UNL     1       0.187  -0.445  -0.427  1.00  0.00    -0.155 N 
HETATM   13  C4  UNL     1       0.906  -0.284   0.743  1.00  0.00     0.266 C 
HETATM   14  O1  UNL     1       0.491   0.060   1.844  1.00  0.00    -0.270 OA
ATOM     15  H2  UNL     1       0.766  -0.740  -1.213  1.00  0.00     0.187 HD
BRANCH  13  16
HETATM   16  C3  UNL     1       2.423  -0.552   0.733  1.00  0.00     0.275 C 
BRANCH  16  17
HETATM   17  C2  UNL     1       3.039   0.394  -0.272  1.00  0.00     0.038 C 
HETATM   18  C1  UNL     1       4.526   0.281  -0.332  1.00  0.00     0.007 C 
ENDBRANCH  16  17
BRANCH  16  19
HETATM   19  N1  UNL     1       2.888  -0.332   2.066  1.00  0.00    -0.067 N 
ATOM     20  H13 UNL     1       3.906  -0.370   2.107  1.00  0.00     0.275 HD
ATOM     21  H12 UNL     1       2.746   0.639   2.345  1.00  0.00     0.275 HD
ATOM     22  H11 UNL     1       2.472  -0.970   2.744  1.00  0.00     0.275 HD
ENDBRANCH  16  19
ENDBRANCH  13  16
ENDBRANCH   1  12
BRANCH  11  23
HETATM   23  N7  UNL     1      -1.976   0.399   1.461  1.00  0.00    -0.322 N 
ATOM     24  H72 UNL     1      -0.998   0.293   1.729  1.00  0.00     0.178 HD
ATOM     25  H71 UNL     1      -2.732   0.684   2.084  1.00  0.00     0.178 HD
ENDBRANCH  11  23
TORSDOF 5
