REMARK  5 active torsions:
REMARK  status: ('A' for Active; 'I' for Inactive)
REMARK    1  A    between atoms: C3_5  and  N3_6 
REMARK    2  A    between atoms: C4_11  and  C5_12 
REMARK       I    between atoms: C5_12  and  N5_14 
REMARK    3  A    between atoms: N5_14  and  N6_16 
REMARK    4  A    between atoms: N6_16  and  C6_18 
REMARK    5  A    between atoms: C7_27  and  N11_28 
ROOT
HETATM    1  C1  UNL     1      -3.987  -1.279   0.431  1.00  0.00     0.159 C 
HETATM    2  N1  UNL     1      -2.706  -0.628   0.118  1.00  0.00    -0.321 N 
HETATM    3  C2  UNL     1      -2.681   0.645  -0.234  1.00  0.00     0.170 A 
HETATM    4  N2  UNL     1      -3.905   1.380  -0.308  1.00  0.00    -0.078 NA
HETATM    5  C3  UNL     1      -1.500   1.299  -0.538  1.00  0.00     0.216 A 
HETATM    6  N4  UNL     1      -0.376   0.576  -0.457  1.00  0.00    -0.327 N 
ATOM      7  H4  UNL     1       0.510   1.033  -0.675  1.00  0.00     0.168 HD
HETATM    8  C4  UNL     1      -0.354  -0.741  -0.097  1.00  0.00     0.148 A 
HETATM    9  C7  UNL     1      -1.536  -1.344   0.193  1.00  0.00     0.135 A 
ENDROOT
BRANCH   8  10
HETATM   10  C5  UNL     1       0.929  -1.389  -0.053  1.00  0.00     0.290 C 
HETATM   11  O3  UNL     1       1.073  -2.582   0.257  1.00  0.00    -0.264 OA
HETATM   12  N5  UNL     1       2.101  -0.663  -0.373  1.00  0.00    -0.250 N 
ATOM     13  H5  UNL     1       2.033   0.321  -0.634  1.00  0.00     0.191 HD
BRANCH  12  14
HETATM   14  N6  UNL     1       3.338  -1.280  -0.334  1.00  0.00    -0.127 N 
ATOM     15  H6  UNL     1       3.436  -2.257  -0.612  1.00  0.00     0.206 HD
BRANCH  14  16
HETATM   16  C6  UNL     1       4.373  -0.602   0.060  1.00  0.00     0.728 A 
HETATM   17  N7  UNL     1       5.639  -1.042   0.157  1.00  0.00    -0.114 N 
HETATM   18  N8  UNL     1       6.379  -0.032   0.597  1.00  0.00    -0.213 N 
ATOM     19  H7  UNL     1       5.970  -1.980  -0.067  1.00  0.00     0.207 HD
HETATM   20  N9  UNL     1       5.633   1.034   0.784  1.00  0.00    -0.213 N 
ATOM     21  H8  UNL     1       7.384  -0.077   0.766  1.00  0.00     0.210 HD
HETATM   22  N10 UNL     1       4.404   0.700   0.459  1.00  0.00    -0.114 N 
ATOM     23  H9  UNL     1       5.947   1.945   1.117  1.00  0.00     0.210 HD
ATOM     24  H10 UNL     1       3.596   1.321   0.499  1.00  0.00     0.207 HD
ENDBRANCH  14  16
ENDBRANCH  12  14
ENDBRANCH   8  10
BRANCH   9  25
HETATM   25  N11 UNL     1      -1.664  -2.553   0.539  1.00  0.00    -0.383 N 
ATOM     26 2H11 UNL     1      -2.552  -3.006   0.757  1.00  0.00     0.157 HD
ATOM     27 1H11 UNL     1      -0.795  -3.085   0.595  1.00  0.00     0.157 HD
ENDBRANCH   9  25
BRANCH   5  28
HETATM   28  N3  UNL     1      -1.459   2.662  -0.917  1.00  0.00    -0.094 N 
HETATM   29  O1  UNL     1      -2.307   3.429  -0.445  1.00  0.00    -0.530 OA
HETATM   30  O2  UNL     1      -0.525   3.156  -1.780  1.00  0.00    -0.530 OA
ENDBRANCH   5  28
TORSDOF 5
