REMARK  4 active torsions:
REMARK  status: ('A' for Active; 'I' for Inactive)
REMARK       I    between atoms: N3_4  and  C2_6 
REMARK    1  A    between atoms: C2_6  and  C3_8 
REMARK    2  A    between atoms: C4_9  and  O2_10 
REMARK    3  A    between atoms: C5_12  and  N4_13 
REMARK    4  A    between atoms: N5_18  and  N6_19 
ROOT
HETATM    1  C3  UNL     1      -0.223  -0.236   0.130  1.00  0.00     0.111 A 
HETATM    2  C4  UNL     1      -0.585   1.083   0.364  1.00  0.00     0.123 A 
HETATM    3  C5  UNL     1      -1.907   1.448   0.348  1.00  0.00     0.206 A 
HETATM    4  C6  UNL     1      -2.828   0.457   0.094  1.00  0.00     0.303 A 
HETATM    5  O5  UNL     1      -4.057   0.819   0.083  1.00  0.00    -0.263 OA
HETATM    6  N5  UNL     1      -2.461  -0.815  -0.130  1.00  0.00    -0.210 N 
HETATM    7  C7  UNL     1      -1.180  -1.219  -0.124  1.00  0.00     0.159 A 
HETATM    8  N7  UNL     1      -0.800  -2.575  -0.363  1.00  0.00    -0.079 NA
ENDROOT
BRANCH   1   9
HETATM    9  C2  UNL     1       1.174  -0.624   0.151  1.00  0.00     0.264 C 
HETATM   10  N3  UNL     1       2.198   0.286   0.407  1.00  0.00    -0.299 N 
HETATM   11  C1  UNL     1       3.391   0.169  -0.054  1.00  0.00     0.203 C 
ATOM     12  H3  UNL     1       1.988   1.092   0.995  1.00  0.00     0.171 HD
HETATM   13  N1  UNL     1       4.380   1.141   0.253  1.00  0.00    -0.066 NA
HETATM   14  N2  UNL     1       3.726  -0.935  -0.872  1.00  0.00    -0.066 NA
HETATM   15  O1  UNL     1       1.445  -1.847  -0.073  1.00  0.00    -0.267 OA
ENDBRANCH   1   9
BRANCH   2  16
HETATM   16  O2  UNL     1       0.385   2.049   0.615  1.00  0.00    -0.357 OA
ATOM     17  H2  UNL     1       0.137   2.952   0.775  1.00  0.00     0.217 HD
ENDBRANCH   2  16
BRANCH   3  18
HETATM   18  N4  UNL     1      -2.365   2.787   0.578  1.00  0.00    -0.107 N 
HETATM   19  O3  UNL     1      -2.243   3.695  -0.283  1.00  0.00    -0.531 OA
HETATM   20  O4  UNL     1      -2.956   3.113   1.763  1.00  0.00    -0.531 OA
ENDBRANCH   3  18
BRANCH   6  21
HETATM   21  N6  UNL     1      -3.459  -1.790  -0.382  1.00  0.00    -0.334 N 
ATOM     22  H62 UNL     1      -4.432  -1.483  -0.387  1.00  0.00     0.177 HD
ATOM     23  H61 UNL     1      -3.180  -2.756  -0.552  1.00  0.00     0.177 HD
ENDBRANCH   6  21
TORSDOF 4
