REMARK  14 active torsions:
REMARK  status: ('A' for Active; 'I' for Inactive)
REMARK    1  A    between atoms: N1_2  and  C3_4 
REMARK    2  A    between atoms: C3_4  and  C4_5 
REMARK    3  A    between atoms: C5_6  and  C6_7 
REMARK    4  A    between atoms: C6_7  and  N2_8 
REMARK    5  A    between atoms: N2_8  and  C7_10 
REMARK    6  A    between atoms: C9_12  and  N3_13 
REMARK    7  A    between atoms: N3_13  and  C10_15 
REMARK    8  A    between atoms: C14_22  and  C15_23 
REMARK    9  A    between atoms: C15_23  and  C16_24 
REMARK   10  A    between atoms: C18_28  and  N7_29 
REMARK   11  A    between atoms: C19_34  and  N9_35 
REMARK   12  A    between atoms: N12_44  and  C22_45 
REMARK   13  A    between atoms: C22_45  and  C23_46 
REMARK   14  A    between atoms: C23_46  and  O1_47 
ROOT
HETATM    1  C7  UNL     1      -0.459   0.026  -0.132  1.00  0.00     0.106 A 
HETATM    2  C8  UNL     1      -0.381   1.375  -0.424  1.00  0.00     0.098 A 
HETATM    3  C9  UNL     1      -1.496   2.101  -0.811  1.00  0.00     0.129 A 
HETATM    4  N4  UNL     1      -2.657   1.434  -0.890  1.00  0.00    -0.223 N 
HETATM    5  N5  UNL     1      -3.862   1.849  -1.223  1.00  0.00    -0.301 N 
ATOM      6  H5  UNL     1      -4.099   2.805  -1.488  1.00  0.00     0.186 HD
HETATM    7  C13 UNL     1      -4.749   0.811  -1.162  1.00  0.00     0.123 A 
HETATM    8  C14 UNL     1      -4.053  -0.310  -0.769  1.00  0.00     0.028 A 
HETATM    9  C20 UNL     1      -2.749   0.104  -0.606  1.00  0.00     0.142 A 
HETATM   10  N10 UNL     1      -1.652  -0.574  -0.233  1.00  0.00    -0.327 N 
ATOM     11  H10 UNL     1      -1.729  -1.569  -0.022  1.00  0.00     0.169 HD
ENDROOT
BRANCH   1  12
HETATM   12  N2  UNL     1       0.662  -0.747   0.271  1.00  0.00    -0.372 N 
ATOM     13  H2  UNL     1       0.530  -1.739   0.466  1.00  0.00     0.161 HD
BRANCH  12  14
HETATM   14  C6  UNL     1       1.978  -0.180   0.414  1.00  0.00     0.163 C 
BRANCH  14  15
HETATM   15  C5  UNL     1       2.989  -1.176   0.840  1.00  0.00     0.006 A 
HETATM   16  C4  UNL     1       4.374  -0.896   1.063  1.00  0.00     0.075 A 
HETATM   17  N12 UNL     1       4.967  -2.015   1.434  1.00  0.00    -0.289 N 
HETATM   18  N11 UNL     1       4.015  -2.981   1.448  1.00  0.00    -0.309 N 
HETATM   19  C21 UNL     1       2.836  -2.505   1.100  1.00  0.00     0.118 A 
ATOM     20  H11 UNL     1       4.190  -3.955   1.697  1.00  0.00     0.186 HD
BRANCH  16  21
HETATM   21  C3  UNL     1       4.857   0.442   0.757  1.00  0.00     0.116 C 
BRANCH  21  22
HETATM   22  N1  UNL     1       6.156   0.876   0.942  1.00  0.00    -0.397 N 
HETATM   23  C1  UNL     1       6.616   1.235   2.225  1.00  0.00     0.148 C 
HETATM   24  C2  UNL     1       6.707   1.690  -0.115  1.00  0.00     0.148 C 
ENDBRANCH  21  22
ENDBRANCH  16  21
BRANCH  17  25
HETATM   25  C22 UNL     1       6.289  -2.382   1.877  1.00  0.00     0.175 C 
BRANCH  25  26
HETATM   26  C23 UNL     1       6.278  -2.565   3.372  1.00  0.00     0.185 C 
BRANCH  26  27
HETATM   27  O1  UNL     1       5.870  -1.494   4.108  1.00  0.00    -0.399 OA
ATOM     28  H1  UNL     1       5.863  -1.609   5.051  1.00  0.00     0.209 HD
ENDBRANCH  26  27
ENDBRANCH  25  26
ENDBRANCH  17  25
ENDBRANCH  14  15
ENDBRANCH  12  14
ENDBRANCH   1  12
BRANCH   3  29
HETATM   29  N3  UNL     1      -1.340   3.348  -1.064  1.00  0.00    -0.370 N 
ATOM     30  H3  UNL     1      -0.391   3.706  -0.957  1.00  0.00     0.161 HD
BRANCH  29  31
HETATM   31  C10 UNL     1      -2.314   4.295  -1.473  1.00  0.00     0.083 A 
HETATM   32  C11 UNL     1      -1.736   5.351  -2.439  1.00  0.00     0.027 A 
HETATM   33  C12 UNL     1      -2.831   4.434  -2.847  1.00  0.00     0.027 A 
ENDBRANCH  29  31
ENDBRANCH   3  29
BRANCH   8  34
HETATM   34  C15 UNL     1      -4.579  -1.508  -0.595  1.00  0.00     0.033 C 
BRANCH  34  35
HETATM   35  C16 UNL     1      -5.982  -1.793  -0.801  1.00  0.00     0.025 A 
HETATM   36  C17 UNL     1      -6.980  -1.117  -0.133  1.00  0.00     0.121 A 
HETATM   37  N6  UNL     1      -8.289  -1.405  -0.344  1.00  0.00    -0.201 N 
HETATM   38  C18 UNL     1      -8.641  -2.364  -1.216  1.00  0.00     0.677 A 
ATOM     39  H6  UNL     1      -9.010  -0.890   0.162  1.00  0.00     0.183 HD
HETATM   40  N8  UNL     1      -7.700  -3.047  -1.887  1.00  0.00    -0.177 N 
HETATM   41  C19 UNL     1      -6.377  -2.768  -1.686  1.00  0.00     0.126 A 
ATOM     42  H8  UNL     1      -7.973  -3.775  -2.548  1.00  0.00     0.186 HD
BRANCH  38  43
HETATM   43  N7  UNL     1      -9.882  -2.634  -1.416  1.00  0.00    -0.234 N 
ATOM     44  H72 UNL     1     -10.597  -2.115  -0.906  1.00  0.00     0.174 HD
ATOM     45  H71 UNL     1     -10.149  -3.362  -2.078  1.00  0.00     0.174 HD
ENDBRANCH  38  43
BRANCH  41  46
HETATM   46  N9  UNL     1      -5.506  -3.450  -2.354  1.00  0.00    -0.384 N 
ATOM     47  H92 UNL     1      -4.519  -3.242  -2.204  1.00  0.00     0.157 HD
ATOM     48  H91 UNL     1      -5.799  -4.173  -3.011  1.00  0.00     0.157 HD
ENDBRANCH  41  46
ENDBRANCH  34  35
ENDBRANCH   8  34
TORSDOF 14
