REMARK  12 active torsions:
REMARK  status: ('A' for Active; 'I' for Inactive)
REMARK    1  A    between atoms: N1_2  and  C2_4 
REMARK    2  A    between atoms: C2_4  and  C3_5 
REMARK    3  A    between atoms: C3_5  and  N2_6 
REMARK    4  A    between atoms: N2_6  and  C4_7 
REMARK    5  A    between atoms: C5_10  and  N4_11 
REMARK    6  A    between atoms: C6_13  and  C7_14 
REMARK    7  A    between atoms: C7_14  and  C8_15 
REMARK    8  A    between atoms: C11_18  and  C12_19 
REMARK    9  A    between atoms: C12_19  and  O1_21 
REMARK   10  A    between atoms: C15_30  and  C16_31 
REMARK   11  A    between atoms: C16_31  and  C17_32 
REMARK   12  A    between atoms: C19_39  and  O2_40 
ROOT
HETATM    1  C4  UNL     1      -2.381  -1.599   0.402  1.00  0.00     0.296 A 
HETATM    2  N3  UNL     1      -1.060  -2.030   0.469  1.00  0.00    -0.147 N 
ATOM      3  H3  UNL     1      -0.881  -2.918   0.939  1.00  0.00     0.188 HD
HETATM    4  C5  UNL     1      -0.025  -1.391  -0.021  1.00  0.00     0.687 A 
HETATM    5  N7  UNL     1      -0.305  -0.187  -0.652  1.00  0.00    -0.173 N 
ATOM      6  H7  UNL     1       0.462   0.354  -1.051  1.00  0.00     0.186 HD
HETATM    7  C14 UNL     1      -1.531   0.275  -0.749  1.00  0.00     0.158 A 
HETATM    8  C15 UNL     1      -2.007   1.474  -1.346  1.00  0.00     0.030 A 
HETATM    9  C20 UNL     1      -3.356   1.439  -1.145  1.00  0.00     0.123 A 
HETATM   10  N10 UNL     1      -3.653   0.298  -0.477  1.00  0.00    -0.299 N 
ATOM     11  H10 UNL     1      -4.593   0.017  -0.196  1.00  0.00     0.186 HD
HETATM   12  N11 UNL     1      -2.556  -0.401  -0.240  1.00  0.00    -0.195 N 
ENDROOT
BRANCH   4  13
HETATM   13  N4  UNL     1       1.158  -1.715  -0.066  1.00  0.00    -0.205 N 
HETATM   14  C6  UNL     1       2.179  -2.560   0.168  1.00  0.00     0.085 C 
ATOM     15  H4  UNL     1       1.605  -0.922  -0.525  1.00  0.00     0.183 HD
BRANCH  14  16
HETATM   16  C7  UNL     1       3.120  -2.378   1.322  1.00  0.00     0.103 C 
BRANCH  16  17
HETATM   17  C8  UNL     1       3.867  -1.124   1.355  1.00  0.00     0.030 A 
HETATM   18  C9  UNL     1       3.498   0.079   0.840  1.00  0.00     0.029 A 
HETATM   19  C10 UNL     1       4.417   1.115   0.976  1.00  0.00     0.031 A 
HETATM   20  C11 UNL     1       5.621   1.023   1.562  1.00  0.00     0.054 A 
HETATM   21  N5  UNL     1       5.961  -0.235   2.079  1.00  0.00    -0.302 N 
HETATM   22  N6  UNL     1       5.094  -1.183   1.944  1.00  0.00    -0.304 N 
ATOM     23  H5  UNL     1       6.855  -0.395   2.542  1.00  0.00     0.186 HD
ATOM     24  H6  UNL     1       5.362  -2.090   2.327  1.00  0.00     0.186 HD
BRANCH  20  25
HETATM   25  C12 UNL     1       6.541   2.157   1.692  1.00  0.00     0.165 C 
HETATM   26  C13 UNL     1       7.506   2.320   0.559  1.00  0.00     0.046 C 
BRANCH  25  27
HETATM   27  O1  UNL     1       7.247   2.136   2.895  1.00  0.00    -0.390 OA
ATOM     28  H1  UNL     1       7.843   2.871   2.979  1.00  0.00     0.210 HD
ENDBRANCH  25  27
ENDBRANCH  20  25
ENDBRANCH  16  17
ENDBRANCH  14  16
ENDBRANCH   4  13
BRANCH   1  29
HETATM   29  N2  UNL     1      -3.223  -2.263   0.865  1.00  0.00    -0.384 NA
BRANCH  29  30
HETATM   30  C3  UNL     1      -4.209  -3.034   1.403  1.00  0.00     0.178 C 
BRANCH  30  31
HETATM   31  C2  UNL     1      -4.672  -4.056   0.371  1.00  0.00     0.173 C 
BRANCH  31  32
HETATM   32  N1  UNL     1      -5.668  -4.959   0.847  1.00  0.00    -0.420 N 
HETATM   33  C1  UNL     1      -6.952  -4.414   1.131  1.00  0.00     0.140 C 
ATOM     34  H1  UNL     1      -5.469  -5.951   0.978  1.00  0.00     0.153 HD
ENDBRANCH  31  32
ENDBRANCH  30  31
ENDBRANCH  29  30
ENDBRANCH   1  29
BRANCH   8  35
HETATM   35  C16 UNL     1      -1.225   2.323  -1.948  1.00  0.00     0.050 C 
BRANCH  35  36
HETATM   36  C17 UNL     1      -1.520   3.571  -2.590  1.00  0.00     0.086 A 
HETATM   37  N8  UNL     1      -1.453   3.893  -3.882  1.00  0.00    -0.330 N 
HETATM   38  C18 UNL     1      -1.768   5.190  -4.047  1.00  0.00     0.178 A 
ATOM     39  H8  UNL     1      -1.200   3.251  -4.633  1.00  0.00     0.168 HD
HETATM   40  S1  UNL     1      -1.809   5.986  -5.446  1.00  0.00    -0.040 SA
HETATM   41  N9  UNL     1      -2.048   5.724  -2.829  1.00  0.00    -0.312 N 
HETATM   42  C19 UNL     1      -1.900   4.740  -1.924  1.00  0.00     0.169 A 
ATOM     43  H9  UNL     1      -2.319   6.688  -2.637  1.00  0.00     0.170 HD
BRANCH  42  44
HETATM   44  O2  UNL     1      -2.084   4.847  -0.570  1.00  0.00    -0.344 OA
ATOM     45  H2  UNL     1      -2.342   5.641  -0.117  1.00  0.00     0.219 HD
ENDBRANCH  42  44
ENDBRANCH  35  36
ENDBRANCH   8  35
TORSDOF 12
