REMARK  10 active torsions:
REMARK  status: ('A' for Active; 'I' for Inactive)
REMARK    1  A    between atoms: C5_5  and  N1_6 
REMARK    2  A    between atoms: N1_6  and  C6_8 
REMARK    3  A    between atoms: C6_8  and  C7_9 
REMARK    4  A    between atoms: C6_8  and  C9_15 
REMARK    5  A    between atoms: C7_9  and  N2_10 
REMARK    6  A    between atoms: C9_15  and  N5_16 
REMARK    7  A    between atoms: N5_16  and  C10_19 
REMARK    8  A    between atoms: C10_19  and  C11_20 
REMARK    9  A    between atoms: C11_20  and  C12_21 
REMARK   10  A    between atoms: C12_21  and  N6_22 
ROOT
HETATM    1  C6  UNL     1      -1.391  -0.331  -0.284  1.00  0.00     0.126 C 
ENDROOT
BRANCH   1   2
HETATM    2  N1  UNL     1      -2.572   0.271  -0.637  1.00  0.00    -0.367 N 
ATOM      3  H1  UNL     1      -3.129  -0.363  -1.210  1.00  0.00     0.161 HD
BRANCH   2   4
HETATM    4  C5  UNL     1      -3.182   1.351  -0.479  1.00  0.00     0.116 A 
HETATM    5  C4  UNL     1      -2.738   2.439   0.239  1.00  0.00     0.051 A 
HETATM    6  C3  UNL     1      -3.502   3.587   0.346  1.00  0.00     0.030 A 
HETATM    7  C2  UNL     1      -4.732   3.633  -0.281  1.00  0.00     0.022 A 
HETATM    8  C1  UNL     1      -5.563   4.852  -0.173  1.00  0.00     0.069 C 
HETATM    9  N10 UNL     1      -5.092   2.540  -0.956  1.00  0.00    -0.304 N 
HETATM   10  N9  UNL     1      -4.403   1.451  -1.077  1.00  0.00    -0.286 N 
ATOM     11  H10 UNL     1      -5.999   2.565  -1.422  1.00  0.00     0.186 HD
ATOM     12  H9  UNL     1      -4.773   0.670  -1.618  1.00  0.00     0.188 HD
ENDBRANCH   2   4
ENDBRANCH   1   2
BRANCH   1  13
HETATM   13  C7  UNL     1      -1.341  -1.762  -0.806  1.00  0.00     0.148 C 
BRANCH  13  14
HETATM   14  N2  UNL     1      -2.410  -2.566  -0.277  1.00  0.00    -0.365 N 
HETATM   15  C8  UNL     1      -2.273  -3.773   0.138  1.00  0.00     0.197 C 
HETATM   16  N3  UNL     1      -3.433  -4.428   0.631  1.00  0.00    -0.067 NA
HETATM   17  N4  UNL     1      -1.051  -4.477   0.132  1.00  0.00    -0.067 NA
ATOM     18  H2  UNL     1      -3.340  -2.149  -0.228  1.00  0.00     0.161 HD
ENDBRANCH  13  14
ENDBRANCH   1  13
BRANCH   1  19
HETATM   19  C9  UNL     1      -0.088   0.323  -0.740  1.00  0.00     0.258 C 
BRANCH  19  20
HETATM   20  N5  UNL     1       0.954  -0.580  -0.235  1.00  0.00    -0.073 N 
ATOM     21  H52 UNL     1       0.862  -0.738   0.768  1.00  0.00     0.277 HD
ATOM     22  H51 UNL     1       0.811  -1.538  -0.556  1.00  0.00     0.277 HD
BRANCH  20  23
HETATM   23  C10 UNL     1       2.253  -0.098  -0.576  1.00  0.00     0.234 C 
BRANCH  23  24
HETATM   24  C11 UNL     1       3.249  -1.158  -0.136  1.00  0.00     0.047 C 
BRANCH  24  25
HETATM   25  C12 UNL     1       4.679  -0.797  -0.423  1.00  0.00     0.123 C 
BRANCH  25  26
HETATM   26  N6  UNL     1       5.028   0.405   0.302  1.00  0.00    -0.367 N 
HETATM   27  C13 UNL     1       5.882   0.413   1.268  1.00  0.00     0.196 C 
HETATM   28  N7  UNL     1       6.576  -0.729   1.735  1.00  0.00    -0.067 NA
HETATM   29  N8  UNL     1       6.134   1.657   1.899  1.00  0.00    -0.067 NA
ATOM     30  H6  UNL     1       4.580   1.283   0.038  1.00  0.00     0.161 HD
ENDBRANCH  25  26
ENDBRANCH  24  25
ENDBRANCH  23  24
ENDBRANCH  20  23
ENDBRANCH  19  20
ENDBRANCH   1  19
TORSDOF 10
