REMARK  0 active torsions:
REMARK  status: ('A' for Active; 'I' for Inactive)
ROOT
HETATM    1  C1  UNL     1      -4.837   0.811   1.730  1.00  0.00     0.043 C 
HETATM    2  C2  UNL     1      -4.107   0.586   0.461  1.00  0.00    -0.083 C 
HETATM    3  C3  UNL     1      -4.851   0.663  -0.822  1.00  0.00     0.043 C 
HETATM    4  C4  UNL     1      -2.820   0.323   0.471  1.00  0.00    -0.047 C 
HETATM    5  C5  UNL     1      -1.988   0.225   1.698  1.00  0.00     0.268 C 
HETATM    6  N1  UNL     1      -0.636   0.516   1.272  1.00  0.00    -0.062 N 
ATOM      7  H11 UNL     1       0.078   0.136   1.893  1.00  0.00     0.278 HD
ATOM      8  H12 UNL     1      -0.378   1.498   1.375  1.00  0.00     0.278 HD
HETATM    9  C6  UNL     1      -0.535   0.025  -0.107  1.00  0.00     0.133 C 
HETATM   10  C7  UNL     1       0.050  -1.365  -0.036  1.00  0.00     0.042 C 
HETATM   11  C8  UNL     1       1.295  -1.272   0.834  1.00  0.00     0.040 C 
HETATM   12  C9  UNL     1       2.354  -0.406   0.152  1.00  0.00     0.061 C 
HETATM   13  C10 UNL     1       3.431  -1.362  -0.323  1.00  0.00     0.038 C 
HETATM   14  C11 UNL     1       4.583  -0.602  -0.875  1.00  0.00     0.005 C 
HETATM   15  C12 UNL     1       4.944   0.634  -0.130  1.00  0.00     0.026 C 
HETATM   16  C13 UNL     1       3.938   1.183   0.780  1.00  0.00     0.168 C 
HETATM   17  O1  UNL     1       2.854   0.434   1.096  1.00  0.00    -0.380 OA
HETATM   18  C14 UNL     1       1.779   0.271  -1.057  1.00  0.00     0.040 C 
HETATM   19  C15 UNL     1       0.441   0.906  -0.816  1.00  0.00     0.042 C 
HETATM   20  C16 UNL     1      -1.910   0.068  -0.683  1.00  0.00     0.048 C 
HETATM   21  C17 UNL     1      -2.308  -1.147  -1.448  1.00  0.00     0.017 C 
ENDROOT
TORSDOF 0
