REMARK  2 active torsions:
REMARK  status: ('A' for Active; 'I' for Inactive)
REMARK    1  A    between atoms: C4_4  and  N1_5 
REMARK    2  A    between atoms: C7_8  and  N2_9 
ROOT
HETATM    1  N1  UNL     1      -1.733  -0.232  -0.403  1.00  0.00     0.093 N 
HETATM    2  C5  UNL     1      -1.212  -1.381   0.351  1.00  0.00     0.275 C 
HETATM    3  C6  UNL     1       0.264  -1.436   0.052  1.00  0.00     0.055 C 
HETATM    4  C7  UNL     1       0.864  -0.133  -0.373  1.00  0.00     0.086 C 
HETATM    5  C13 UNL     1       0.187   1.066   0.248  1.00  0.00     0.055 C 
HETATM    6  C14 UNL     1      -1.295   0.920   0.359  1.00  0.00     0.275 C 
ENDROOT
BRANCH   4   7
HETATM    7  N2  UNL     1       2.267  -0.039  -0.058  1.00  0.00    -0.387 N 
HETATM    8  C8  UNL     1       2.975   0.972  -0.753  1.00  0.00     0.124 C 
HETATM    9  C9  UNL     1       3.837   1.721   0.243  1.00  0.00     0.039 C 
HETATM   10  C10 UNL     1       4.575   0.684   1.059  1.00  0.00     0.115 C 
HETATM   11  N3  UNL     1       5.174  -0.250   0.159  1.00  0.00    -0.417 N 
HETATM   12  C11 UNL     1       4.353  -1.329  -0.251  1.00  0.00     0.158 C 
ATOM     13  H3  UNL     1       6.134  -0.146  -0.168  1.00  0.00     0.153 HD
HETATM   14  C12 UNL     1       2.929  -1.260   0.182  1.00  0.00     0.077 C 
ENDBRANCH   4   7
BRANCH   1  15
HETATM   15  C4  UNL     1      -3.150  -0.369  -0.475  1.00  0.00     0.223 C 
HETATM   16  C3  UNL     1      -3.901  -0.321   0.801  1.00  0.00     0.036 C 
HETATM   17  C2  UNL     1      -5.272   0.270   0.439  1.00  0.00     0.002 C 
HETATM   18  C1  UNL     1      -5.321   0.248  -1.081  1.00  0.00     0.002 C 
HETATM   19  C15 UNL     1      -3.853   0.555  -1.409  1.00  0.00     0.036 C 
ENDBRANCH   1  15
TORSDOF 2
