REMARK  4 active torsions:
REMARK  status: ('A' for Active; 'I' for Inactive)
REMARK       I    between atoms: N1_8  and  C6_9 
REMARK    1  A    between atoms: C6_9  and  O3_11 
REMARK    2  A    between atoms: O3_11  and  C7_12 
REMARK    3  A    between atoms: C9_14  and  C10_15 
REMARK    4  A    between atoms: C10_15  and  C11_16 
ROOT
HETATM    1  C7  UNL     1       1.194  -0.672  -0.201  1.00  0.00     0.103 A 
HETATM    2  C8  UNL     1       2.236   0.183   0.047  1.00  0.00     0.048 A 
HETATM    3  C9  UNL     1       3.469   0.012  -0.610  1.00  0.00    -0.024 A 
HETATM    4  C12 UNL     1       3.635  -1.009  -1.502  1.00  0.00     0.042 A 
HETATM    5 CL2  UNL     1       5.144  -1.194  -2.342  1.00  0.00    -0.084 Cl
HETATM    6  C13 UNL     1       2.569  -1.885  -1.756  1.00  0.00     0.051 A 
HETATM    7  C14 UNL     1       1.388  -1.687  -1.097  1.00  0.00     0.069 A 
HETATM    8 CL3  UNL     1       0.080  -2.805  -1.451  1.00  0.00    -0.081 Cl
ENDROOT
BRANCH   1   9
HETATM    9  O3  UNL     1      -0.010  -0.511   0.427  1.00  0.00    -0.259 OA
BRANCH   9  10
HETATM   10  C6  UNL     1      -1.151  -0.073  -0.251  1.00  0.00     0.376 C 
HETATM   11  N1  UNL     1      -2.416   0.130   0.275  1.00  0.00    -0.240 N 
HETATM   12  C2  UNL     1      -3.612   0.569  -0.473  1.00  0.00     0.119 C 
HETATM   13  C5  UNL     1      -2.923  -0.004   1.602  1.00  0.00     0.230 C 
HETATM   14  C1  UNL     1      -4.090   1.867   0.086  1.00  0.00     0.057 C 
HETATM   15 CL1  UNL     1      -3.367   0.549  -2.200  1.00  0.00    -0.095 Cl
HETATM   16  C3  UNL     1      -4.556  -0.559   0.008  1.00  0.00     0.057 C 
HETATM   17  C4  UNL     1      -4.361  -0.447   1.511  1.00  0.00     0.107 C 
HETATM   18  O1  UNL     1      -2.241   0.222   2.646  1.00  0.00    -0.273 OA
HETATM   19  O2  UNL     1      -0.950   0.152  -1.490  1.00  0.00    -0.237 OA
ENDBRANCH   9  10
ENDBRANCH   1   9
BRANCH   3  20
HETATM   20  C10 UNL     1       4.543   0.961  -0.248  1.00  0.00     0.153 C 
BRANCH  20  21
HETATM   21  C11 UNL     1       5.496   0.418   0.724  1.00  0.00     0.177 C 
HETATM   22  O4  UNL     1       6.247  -0.537   0.419  1.00  0.00    -0.648 OA
HETATM   23  O5  UNL     1       5.595   0.932   2.000  1.00  0.00    -0.648 OA
ENDBRANCH  20  21
ENDBRANCH   3  20
TORSDOF 4
