REMARK  4 active torsions:
REMARK  status: ('A' for Active; 'I' for Inactive)
REMARK    1  A    between atoms: N2_4  and  C3_5 
REMARK    2  A    between atoms: C7_13  and  N5_14 
REMARK    3  A    between atoms: N5_14  and  C8_16 
REMARK    4  A    between atoms: C8_16  and  C9_17 
ROOT
HETATM    1  N1  UNL     1       4.587  -2.307  -0.998  1.00  0.00    -0.195 NA
HETATM    2  C1  UNL     1       4.549  -1.310  -0.421  1.00  0.00     0.088 C 
HETATM    3  C2  UNL     1       4.476  -0.046   0.319  1.00  0.00     0.231 C 
HETATM    4  N2  UNL     1       3.332   0.755  -0.072  1.00  0.00    -0.358 N 
HETATM    5  C15 UNL     1       3.778   2.076  -0.453  1.00  0.00     0.128 C 
HETATM    6  C16 UNL     1       5.187   2.192   0.152  1.00  0.00     0.065 C 
HETATM    7  C17 UNL     1       5.697   0.786  -0.007  1.00  0.00     0.147 C 
HETATM    8 CL1  UNL     1       6.237   0.464  -1.678  1.00  0.00    -0.098 Cl
HETATM    9 CL2  UNL     1       7.040   0.440   1.104  1.00  0.00    -0.098 Cl
ENDROOT
BRANCH   4  10
HETATM   10  C3  UNL     1       1.979   0.319  -0.064  1.00  0.00     0.072 A 
HETATM   11  C4  UNL     1       1.627  -0.871   0.563  1.00  0.00     0.063 A 
HETATM   12  C5  UNL     1       0.321  -1.344   0.622  1.00  0.00     0.049 A 
HETATM   13  N3  UNL     1       0.055  -2.524   1.258  1.00  0.00    -0.351 N 
HETATM   14  C12 UNL     1      -0.668  -0.609   0.036  1.00  0.00     0.037 A 
HETATM   15  C6  UNL     1      -1.216  -2.927   1.282  1.00  0.00     0.182 A 
ATOM     16  H3  UNL     1       0.796  -3.072   1.695  1.00  0.00     0.166 HD
HETATM   17  N4  UNL     1      -2.206  -2.229   0.718  1.00  0.00    -0.338 N 
HETATM   18  C7  UNL     1      -1.965  -1.069   0.089  1.00  0.00     0.114 A 
ATOM     19  H4  UNL     1      -3.161  -2.584   0.767  1.00  0.00     0.168 HD
HETATM   20  C13 UNL     1      -0.385   0.573  -0.598  1.00  0.00     0.062 A 
HETATM   21  C14 UNL     1       0.932   1.010  -0.634  1.00  0.00     0.143 A 
HETATM   22  F1  UNL     1       1.183   2.172  -1.275  1.00  0.00    -0.204 F 
BRANCH  18  23
HETATM   23  N5  UNL     1      -2.912  -0.360  -0.475  1.00  0.00    -0.375 N 
ATOM     24  H5  UNL     1      -2.717   0.521  -0.951  1.00  0.00     0.161 HD
BRANCH  23  25
HETATM   25  C8  UNL     1      -4.253  -0.901  -0.383  1.00  0.00     0.126 C 
BRANCH  25  26
HETATM   26  C9  UNL     1      -5.277  -0.057  -1.056  1.00  0.00     0.003 A 
HETATM   27  C10 UNL     1      -5.536   1.345  -0.658  1.00  0.00     0.007 A 
HETATM   28  C11 UNL     1      -6.509   0.244  -0.187  1.00  0.00     0.007 A 
ENDBRANCH  25  26
ENDBRANCH  23  25
ENDBRANCH  18  23
ENDBRANCH   4  10
TORSDOF 4
