REMARK  8 active torsions:
REMARK  status: ('A' for Active; 'I' for Inactive)
REMARK    1  A    between atoms: C6_6  and  O1_7 
REMARK    2  A    between atoms: O1_7  and  C7_8 
REMARK    3  A    between atoms: C7_8  and  C8_9 
REMARK    4  A    between atoms: C8_9  and  O2_10 
REMARK    5  A    between atoms: C10_13  and  C11_14 
REMARK    6  A    between atoms: C11_14  and  C13_16 
REMARK       I    between atoms: N1_20  and  C14_21 
REMARK    7  A    between atoms: C14_21  and  O4_23 
REMARK    8  A    between atoms: O4_23  and  C15_24 
ROOT
HETATM    1  C1  UNL     1      -1.569  -2.404   2.810  1.00  0.00     0.014 C 
HETATM    2  C2  UNL     1      -1.202  -1.778   1.706  1.00  0.00    -0.084 C 
HETATM    3  C3  UNL     1      -0.176  -2.424   0.861  1.00  0.00     0.059 C 
HETATM    4  C4  UNL     1      -0.297  -1.883  -0.531  1.00  0.00     0.097 C 
HETATM    5  C5  UNL     1      -1.761  -1.559  -0.738  1.00  0.00     0.066 C 
HETATM    6  C6  UNL     1      -1.842  -0.169  -0.115  1.00  0.00     0.087 C 
HETATM    7  C9  UNL     1      -1.825  -0.452   1.347  1.00  0.00     0.073 C 
HETATM    8  C10 UNL     1      -0.604   0.409  -0.695  1.00  0.00     0.137 C 
HETATM    9  N1  UNL     1       0.404  -0.609  -0.544  1.00  0.00    -0.315 N 
HETATM   10  C14 UNL     1       1.817  -0.555  -0.434  1.00  0.00     0.364 C 
HETATM   11  O3  UNL     1       2.466  -1.659  -0.332  1.00  0.00    -0.238 OA
ENDROOT
BRANCH   8  12
HETATM   12  C11 UNL     1      -0.158   1.764  -0.441  1.00  0.00     0.115 C 
HETATM   13  C12 UNL     1       0.139   2.147   0.980  1.00  0.00     0.021 C 
BRANCH  12  14
HETATM   14  C13 UNL     1      -1.031   2.898  -0.983  1.00  0.00     0.393 C 
HETATM   15  F1  UNL     1      -1.207   2.843  -2.337  1.00  0.00    -0.171 F 
HETATM   16  F2  UNL     1      -0.281   4.115  -0.821  1.00  0.00    -0.171 F 
HETATM   17  F3  UNL     1      -2.147   3.146  -0.238  1.00  0.00    -0.171 F 
ENDBRANCH  12  14
ENDBRANCH   8  12
BRANCH  10  18
HETATM   18  O4  UNL     1       2.608   0.568  -0.424  1.00  0.00    -0.294 OA
BRANCH  18  19
HETATM   19  C15 UNL     1       4.003   0.557  -0.313  1.00  0.00     0.061 C 
HETATM   20  C16 UNL     1       4.502   1.999  -0.340  1.00  0.00     0.046 C 
HETATM   21  C17 UNL     1       4.681  -0.176  -1.434  1.00  0.00     0.046 C 
HETATM   22  C18 UNL     1       4.491  -0.040   0.992  1.00  0.00     0.046 C 
ENDBRANCH  18  19
ENDBRANCH  10  18
BRANCH   6  23
HETATM   23  O1  UNL     1      -2.901   0.447  -0.609  1.00  0.00    -0.376 OA
BRANCH  23  24
HETATM   24  C7  UNL     1      -4.177   0.205  -0.626  1.00  0.00     0.195 C 
BRANCH  24  25
HETATM   25  C8  UNL     1      -4.677  -0.991  -1.359  1.00  0.00     0.190 C 
BRANCH  25  26
HETATM   26  O2  UNL     1      -6.107  -1.032  -1.243  1.00  0.00    -0.399 OA
ATOM     27  H2  UNL     1      -6.426  -1.795  -1.711  1.00  0.00     0.209 HD
ENDBRANCH  25  26
ENDBRANCH  24  25
ENDBRANCH  23  24
ENDBRANCH   6  23
TORSDOF 8
