REMARK  3 active torsions:
REMARK  status: ('A' for Active; 'I' for Inactive)
REMARK    1  A    between atoms: C4_5  and  C5_6 
REMARK    2  A    between atoms: C5_6  and  C6_8 
REMARK    3  A    between atoms: C8_10  and  N1_11 
ROOT
HETATM    1  C1  UNL     1      -2.558  -0.759  -2.388  1.00  0.00     0.051 C 
HETATM    2  C2  UNL     1      -1.819  -0.352  -1.193  1.00  0.00    -0.026 A 
HETATM    3  C3  UNL     1      -0.452  -0.040  -1.258  1.00  0.00     0.056 A 
HETATM    4 CL1  UNL     1       0.336  -0.158  -2.837  1.00  0.00    -0.083 Cl
HETATM    5  C4  UNL     1       0.332   0.346  -0.228  1.00  0.00     0.055 A 
HETATM    6  C9  UNL     1      -0.263   0.444   1.011  1.00  0.00     0.062 A 
HETATM    7 CL2  UNL     1       0.635   0.932   2.428  1.00  0.00    -0.082 Cl
HETATM    8  C10 UNL     1      -1.602   0.158   1.180  1.00  0.00     0.015 A 
HETATM    9  C11 UNL     1      -2.213   0.251   2.407  1.00  0.00     0.105 A 
HETATM   10  N2  UNL     1      -3.509  -0.022   2.588  1.00  0.00    -0.331 N 
ATOM     11  H2  UNL     1      -3.926   0.058   3.515  1.00  0.00     0.168 HD
HETATM   12  C12 UNL     1      -4.253  -0.400   1.549  1.00  0.00     0.268 A 
HETATM   13  O4  UNL     1      -5.477  -0.671   1.650  1.00  0.00    -0.266 OA
HETATM   14  C13 UNL     1      -3.705  -0.516   0.277  1.00  0.00     0.113 A 
HETATM   15 CL3  UNL     1      -4.688  -1.009  -1.068  1.00  0.00    -0.077 Cl
HETATM   16  C14 UNL     1      -2.377  -0.238   0.082  1.00  0.00     0.012 A 
ENDROOT
BRANCH   5  17
HETATM   17  C5  UNL     1       1.751   0.668  -0.309  1.00  0.00     0.169 C 
HETATM   18  O1  UNL     1       2.035   1.866  -0.547  1.00  0.00    -0.292 OA
BRANCH  17  19
HETATM   19  C6  UNL     1       2.819  -0.323  -0.127  1.00  0.00     0.092 A 
HETATM   20  C7  UNL     1       3.929  -0.296  -1.160  1.00  0.00     0.047 A 
HETATM   21  C8  UNL     1       4.185  -0.034   0.281  1.00  0.00     0.168 A 
BRANCH  21  22
HETATM   22  N1  UNL     1       4.726   1.246   0.607  1.00  0.00    -0.150 N 
HETATM   23  O2  UNL     1       5.149   1.418   1.790  1.00  0.00    -0.536 OA
HETATM   24  O3  UNL     1       4.835   2.323  -0.240  1.00  0.00    -0.536 OA
ENDBRANCH  21  22
ENDBRANCH  17  19
ENDBRANCH   5  17
TORSDOF 3
