REMARK  8 active torsions:
REMARK  status: ('A' for Active; 'I' for Inactive)
REMARK    1  A    between atoms: N3_4  and  C2_6 
REMARK    2  A    between atoms: C2_6  and  C3_7 
REMARK    3  A    between atoms: C4_8  and  O1_9 
REMARK    4  A    between atoms: C5_11  and  O2_12 
REMARK    5  A    between atoms: C6_14  and  C7_15 
REMARK       I    between atoms: C7_15  and  N4_17 
REMARK    6  A    between atoms: N4_17  and  C8_19 
REMARK    7  A    between atoms: C13_24  and  C14_25 
REMARK       I    between atoms: N6_35  and  C20_36 
REMARK    8  A    between atoms: C20_36  and  C21_38 
ROOT
HETATM    1  C3  UNL     1      -2.925   1.345  -0.580  1.00  0.00     0.137 C 
HETATM    2  C4  UNL     1      -2.042   2.534  -0.995  1.00  0.00     0.173 C 
HETATM    3  C5  UNL     1      -0.679   1.868  -1.137  1.00  0.00     0.181 C 
HETATM    4  C6  UNL     1      -0.957   0.449  -1.538  1.00  0.00     0.211 C 
HETATM    5  N6  UNL     1      -2.379   0.227  -1.296  1.00  0.00    -0.325 N 
HETATM    6  C20 UNL     1      -3.068  -0.908  -1.749  1.00  0.00     0.253 C 
HETATM    7  O5  UNL     1      -2.460  -1.837  -2.385  1.00  0.00    -0.271 OA
ENDROOT
BRANCH   4   8
HETATM    8  C7  UNL     1      -0.140  -0.457  -0.709  1.00  0.00     0.243 C 
HETATM    9  O3  UNL     1      -0.714  -1.305   0.052  1.00  0.00    -0.271 OA
HETATM   10  N4  UNL     1       1.278  -0.426  -0.723  1.00  0.00    -0.354 N 
ATOM     11  H4  UNL     1       1.765   0.239  -1.323  1.00  0.00     0.162 HD
BRANCH  10  12
HETATM   12  C8  UNL     1       2.021  -1.316   0.094  1.00  0.00     0.091 C 
HETATM   13  C9  UNL     1       2.703  -2.375  -0.788  1.00  0.00     0.026 C 
HETATM   14  C10 UNL     1       2.974  -3.562   0.110  1.00  0.00     0.002 C 
HETATM   15  C11 UNL     1       3.369  -3.060   1.482  1.00  0.00     0.001 C 
HETATM   16  C12 UNL     1       4.045  -1.703   1.401  1.00  0.00     0.009 C 
HETATM   17  C13 UNL     1       2.994  -0.665   1.019  1.00  0.00     0.046 C 
BRANCH  17  18
HETATM   18  C14 UNL     1       3.645   0.571   0.519  1.00  0.00     0.260 C 
HETATM   19  N5  UNL     1       4.414   0.433  -0.674  1.00  0.00    -0.064 N 
HETATM   20  C15 UNL     1       4.768   1.746  -1.180  1.00  0.00     0.233 C 
ATOM     21  H52 UNL     1       5.233  -0.160  -0.538  1.00  0.00     0.278 HD
ATOM     22  H51 UNL     1       3.937  -0.134  -1.375  1.00  0.00     0.278 HD
HETATM   23  C16 UNL     1       5.696   2.482  -0.256  1.00  0.00     0.028 C 
HETATM   24  C17 UNL     1       6.656   1.577   0.472  1.00  0.00     0.009 C 
HETATM   25  C18 UNL     1       6.056   0.951   1.697  1.00  0.00     0.080 C 
HETATM   26  C19 UNL     1       4.577   1.049   1.605  1.00  0.00     0.158 C 
HETATM   27  O4  UNL     1       4.004   1.605   2.555  1.00  0.00    -0.296 OA
ENDBRANCH  17  18
ENDBRANCH  10  12
ENDBRANCH   4   8
BRANCH   3  28
HETATM   28  O2  UNL     1       0.098   2.503  -2.091  1.00  0.00    -0.390 OA
ATOM     29  H2  UNL     1       0.948   2.088  -2.180  1.00  0.00     0.210 HD
ENDBRANCH   3  28
BRANCH   2  30
HETATM   30  O1  UNL     1      -2.486   2.964  -2.232  1.00  0.00    -0.391 OA
ATOM     31  H1  UNL     1      -1.941   3.698  -2.488  1.00  0.00     0.210 HD
ENDBRANCH   2  30
BRANCH   1  32
HETATM   32  C2  UNL     1      -2.832   1.182   0.906  1.00  0.00     0.150 C 
BRANCH  32  33
HETATM   33  N3  UNL     1      -3.302   2.394   1.569  1.00  0.00    -0.365 N 
HETATM   34  C1  UNL     1      -3.242   2.456   2.839  1.00  0.00     0.197 C 
HETATM   35  N1  UNL     1      -2.732   1.379   3.589  1.00  0.00    -0.067 NA
HETATM   36  N2  UNL     1      -3.693   3.616   3.508  1.00  0.00    -0.067 NA
ATOM     37  H3  UNL     1      -3.671   3.175   1.026  1.00  0.00     0.161 HD
ENDBRANCH  32  33
ENDBRANCH   1  32
BRANCH   6  38
HETATM   38  C21 UNL     1      -4.518  -1.115  -1.537  1.00  0.00     0.294 C 
HETATM   39  C22 UNL     1      -4.725  -2.064  -0.376  1.00  0.00     0.156 C 
HETATM   40  N7  UNL     1      -6.072  -2.429  -0.159  1.00  0.00    -0.417 N 
HETATM   41  C23 UNL     1      -6.981  -2.252  -1.223  1.00  0.00     0.141 C 
ATOM     42  H7  UNL     1      -6.377  -2.808   0.737  1.00  0.00     0.153 HD
HETATM   43  C24 UNL     1      -6.447  -1.917  -2.551  1.00  0.00     0.252 C 
HETATM   44  N8  UNL     1      -5.019  -1.907  -2.690  1.00  0.00    -0.059 N 
ATOM     45  H82 UNL     1      -4.696  -1.565  -3.595  1.00  0.00     0.278 HD
ATOM     46  H81 UNL     1      -4.606  -2.837  -2.760  1.00  0.00     0.278 HD
ENDBRANCH   6  38
TORSDOF 8
