REMARK  5 active torsions:
REMARK  status: ('A' for Active; 'I' for Inactive)
REMARK    1  A    between atoms: S1_2  and  C2_3 
REMARK    2  A    between atoms: C2_3  and  C3_4 
REMARK    3  A    between atoms: C3_4  and  C4_5 
REMARK    4  A    between atoms: C16_34  and  C17_35 
REMARK    5  A    between atoms: C17_35  and  C18_36 
ROOT
HETATM    1  C4  UNL     1       3.097  -0.896   1.195  1.00  0.00     0.177 C 
HETATM    2  N1  UNL     1       1.831  -1.545   1.470  1.00  0.00    -0.347 N 
ATOM      3  H1  UNL     1       1.410  -1.334   2.375  1.00  0.00     0.163 HD
HETATM    4  C5  UNL     1       1.110  -2.426   0.652  1.00  0.00     0.230 C 
HETATM    5  O1  UNL     1       0.775  -3.565   1.142  1.00  0.00    -0.273 OA
HETATM    6  C6  UNL     1       0.668  -2.213  -0.743  1.00  0.00     0.211 C 
HETATM    7  S2  UNL     1      -0.803  -3.193  -1.100  1.00  0.00     0.025 S 
HETATM    8  O2  UNL     1      -1.465  -2.768  -2.558  1.00  0.00    -0.258 OA
HETATM    9  C7  UNL     1      -1.949  -3.156   0.227  1.00  0.00     0.136 C 
HETATM   10  C8  UNL     1      -3.318  -3.517  -0.319  1.00  0.00     0.244 C 
HETATM   11  N2  UNL     1      -4.307  -2.677   0.321  1.00  0.00    -0.074 N 
ATOM     12  H21 UNL     1      -4.192  -2.626   1.333  1.00  0.00     0.277 HD
ATOM     13  H22 UNL     1      -5.242  -3.086   0.315  1.00  0.00     0.277 HD
HETATM   14  C9  UNL     1      -4.252  -1.380  -0.321  1.00  0.00     0.234 C 
HETATM   15  C10 UNL     1      -5.579  -0.705  -0.424  1.00  0.00     0.055 C 
HETATM   16  C11 UNL     1      -5.527   0.725   0.070  1.00  0.00     0.236 C 
HETATM   17  N3  UNL     1      -5.065   1.645  -0.939  1.00  0.00    -0.059 N 
ATOM     18  H31 UNL     1      -5.656   2.476  -0.974  1.00  0.00     0.279 HD
ATOM     19  H32 UNL     1      -5.239   1.279  -1.875  1.00  0.00     0.279 HD
HETATM   20  C12 UNL     1      -3.669   2.006  -0.774  1.00  0.00     0.357 C 
HETATM   21  N4  UNL     1      -2.830   1.396  -1.775  1.00  0.00    -0.337 N 
ATOM     22  H4  UNL     1      -3.291   0.890  -2.531  1.00  0.00     0.164 HD
HETATM   23  C13 UNL     1      -1.425   1.445  -1.790  1.00  0.00     0.236 C 
HETATM   24  O3  UNL     1      -0.789   0.837  -2.693  1.00  0.00    -0.272 OA
HETATM   25  C14 UNL     1      -0.599   2.180  -0.798  1.00  0.00     0.225 C 
HETATM   26  N5  UNL     1      -0.408   1.433   0.433  1.00  0.00    -0.351 N 
ATOM     27  H5  UNL     1      -1.056   0.673   0.639  1.00  0.00     0.163 HD
HETATM   28  C15 UNL     1       0.611   1.695   1.351  1.00  0.00     0.241 C 
HETATM   29  O4  UNL     1       0.396   1.497   2.573  1.00  0.00    -0.271 OA
HETATM   30  C16 UNL     1       1.966   2.206   0.960  1.00  0.00     0.186 C 
HETATM   31  N6  UNL     1       3.000   1.634   1.777  1.00  0.00    -0.346 N 
ATOM     32  H6  UNL     1       3.619   2.308   2.226  1.00  0.00     0.163 HD
HETATM   33  C19 UNL     1       3.284   0.301   2.048  1.00  0.00     0.241 C 
HETATM   34  O7  UNL     1       3.782   0.045   3.199  1.00  0.00    -0.271 OA
ENDROOT
BRANCH   1  35
HETATM   35  C3  UNL     1       3.351  -0.688  -0.269  1.00  0.00     0.045 C 
BRANCH  35  36
HETATM   36  C2  UNL     1       4.687  -0.023  -0.515  1.00  0.00     0.076 C 
BRANCH  36  37
HETATM   37  S1  UNL     1       6.024  -1.081   0.162  1.00  0.00    -0.173 SA
HETATM   38  C1  UNL     1       6.132  -2.630  -0.764  1.00  0.00     0.089 C 
ENDBRANCH  36  37
ENDBRANCH  35  36
ENDBRANCH   1  35
BRANCH  30  39
HETATM   39  C17 UNL     1       1.916   3.718   1.066  1.00  0.00     0.147 C 
BRANCH  39  40
HETATM   40  C18 UNL     1       3.174   4.381   0.705  1.00  0.00     0.175 C 
HETATM   41  O5  UNL     1       4.178   3.750   0.323  1.00  0.00    -0.648 OA
HETATM   42  O6  UNL     1       3.226   5.785   0.802  1.00  0.00    -0.648 OA
ENDBRANCH  39  40
ENDBRANCH  30  39
TORSDOF 5
