REMARK  6 active torsions:
REMARK  status: ('A' for Active; 'I' for Inactive)
REMARK       I    between atoms: C1_2  and  N1_3 
REMARK       I    between atoms: C1_2  and  N2_10 
REMARK    1  A    between atoms: N1_3  and  C2_4 
REMARK    2  A    between atoms: N2_10  and  C8_12 
REMARK    3  A    between atoms: C11_15  and  O2_16 
REMARK    4  A    between atoms: O2_16  and  C12_17 
REMARK    5  A    between atoms: C13_20  and  O3_21 
REMARK    6  A    between atoms: O3_21  and  C14_22 
ROOT
HETATM    1  C12 UNL     1      -1.857  -0.811   1.272  1.00  0.00     0.163 A 
HETATM    2  N3  UNL     1      -2.487   0.399   1.422  1.00  0.00    -0.301 N 
ATOM      3  H3  UNL     1      -2.016   1.141   1.940  1.00  0.00     0.171 HD
HETATM    4  C13 UNL     1      -3.704   0.635   0.908  1.00  0.00     0.231 A 
HETATM    5  N6  UNL     1      -4.356  -0.335   0.208  1.00  0.00    -0.321 N 
ATOM      6  H6  UNL     1      -5.280  -0.142  -0.178  1.00  0.00     0.169 HD
HETATM    7  C21 UNL     1      -3.793  -1.551   0.019  1.00  0.00     0.049 A 
HETATM    8  C22 UNL     1      -4.437  -2.554  -0.676  1.00  0.00     0.030 A 
HETATM    9  C23 UNL     1      -3.875  -3.779  -0.852  1.00  0.00     0.002 A 
HETATM   10  C24 UNL     1      -2.613  -4.002  -0.307  1.00  0.00     0.001 A 
HETATM   11  C25 UNL     1      -1.938  -3.027   0.391  1.00  0.00     0.018 A 
HETATM   12  C26 UNL     1      -2.550  -1.781   0.550  1.00  0.00     0.042 A 
ENDROOT
BRANCH   1  13
HETATM   13  O2  UNL     1      -0.667  -1.098   1.767  1.00  0.00    -0.293 OA
BRANCH  13  14
HETATM   14  C11 UNL     1       0.604  -1.030   1.315  1.00  0.00     0.078 A 
HETATM   15  C10 UNL     1       1.636  -1.591   2.086  1.00  0.00     0.039 A 
HETATM   16  C9  UNL     1       2.922  -1.540   1.683  1.00  0.00     0.032 A 
HETATM   17  C8  UNL     1       3.331  -0.930   0.481  1.00  0.00     0.037 A 
HETATM   18  C28 UNL     1       2.338  -0.384  -0.279  1.00  0.00     0.032 A 
HETATM   19  C27 UNL     1       1.030  -0.445   0.142  1.00  0.00     0.039 A 
BRANCH  17  20
HETATM   20  N2  UNL     1       4.711  -0.887   0.210  1.00  0.00    -0.297 N 
HETATM   21  C1  UNL     1       5.388   0.419   0.205  1.00  0.00     0.398 C 
HETATM   22  O1  UNL     1       4.589   1.391   0.426  1.00  0.00    -0.230 OA
HETATM   23  N1  UNL     1       6.711   0.525  -0.001  1.00  0.00    -0.352 NA
ATOM     24  H2  UNL     1       5.231  -1.744   0.021  1.00  0.00     0.172 HD
BRANCH  23  25
HETATM   25  C2  UNL     1       8.056   0.637  -0.210  1.00  0.00     0.112 A 
HETATM   26  C3  UNL     1       8.864  -0.432   0.263  1.00  0.00     0.045 A 
HETATM   27  C4  UNL     1      10.214  -0.462   0.096  1.00  0.00     0.003 A 
HETATM   28  C5  UNL     1      10.811   0.576  -0.552  1.00  0.00     0.000 A 
HETATM   29  C6  UNL     1      10.119   1.650  -1.045  1.00  0.00     0.003 A 
HETATM   30  C7  UNL     1       8.750   1.639  -0.851  1.00  0.00     0.045 A 
ENDBRANCH  23  25
ENDBRANCH  17  20
ENDBRANCH  13  14
ENDBRANCH   1  13
BRANCH   4  31
HETATM   31  O3  UNL     1      -4.331   1.874   1.073  1.00  0.00    -0.279 OA
BRANCH  31  32
HETATM   32  C14 UNL     1      -5.610   2.070   0.548  1.00  0.00     0.081 A 
HETATM   33  C15 UNL     1      -5.776   2.472  -0.751  1.00  0.00     0.040 A 
HETATM   34  C16 UNL     1      -7.035   2.677  -1.308  1.00  0.00     0.035 A 
HETATM   35  C17 UNL     1      -8.173   2.476  -0.552  1.00  0.00     0.060 A 
HETATM   36  N4  UNL     1      -9.496   2.587  -0.806  1.00  0.00    -0.351 N 
HETATM   37  C19 UNL     1      -8.024   2.071   0.758  1.00  0.00     0.062 A 
HETATM   38  C18 UNL     1     -10.184   2.265   0.305  1.00  0.00     0.181 A 
ATOM     39  H4  UNL     1      -9.907   2.869  -1.696  1.00  0.00     0.166 HD
HETATM   40  N5  UNL     1      -9.271   1.955   1.243  1.00  0.00    -0.350 N 
ATOM     41  H5  UNL     1      -9.496   1.670   2.196  1.00  0.00     0.166 HD
HETATM   42  C20 UNL     1      -6.753   1.870   1.303  1.00  0.00     0.069 A 
ENDBRANCH  31  32
ENDBRANCH   4  31
TORSDOF 6
