REMARK  1 active torsions:
REMARK  status: ('A' for Active; 'I' for Inactive)
REMARK    1  A    between atoms: C1_4  and  N2_5 
ROOT
HETATM    1  N2  UNL     1       0.776   0.316  -0.405  1.00  0.00    -0.377 N 
HETATM    2  C2  UNL     1      -0.313   1.133   0.071  1.00  0.00     0.128 C 
HETATM    3  C3  UNL     1      -1.350   0.142   0.522  1.00  0.00     0.010 A 
HETATM    4  C4  UNL     1      -2.180  -0.535  -0.544  1.00  0.00     0.013 A 
HETATM    5  C5  UNL     1      -0.972  -1.202   0.057  1.00  0.00     0.010 A 
HETATM    6  C6  UNL     1       0.303  -1.023  -0.703  1.00  0.00     0.128 C 
ENDROOT
BRANCH   1   7
HETATM    7  C1  UNL     1       2.116   0.722  -0.571  1.00  0.00     0.171 C 
HETATM    8  N1  UNL     1       2.939   0.576   0.401  1.00  0.00    -0.395 N 
ATOM      9  H12 UNL     1       2.612   0.169   1.277  1.00  0.00     0.156 HD
ATOM     10  H11 UNL     1       3.908   0.870   0.281  1.00  0.00     0.156 HD
ENDBRANCH   1   7
TORSDOF 1
