REMARK  12 active torsions:
REMARK  status: ('A' for Active; 'I' for Inactive)
REMARK    1  A    between atoms: C2_2  and  O1_3 
REMARK    2  A    between atoms: O1_3  and  C3_4 
REMARK    3  A    between atoms: C7_8  and  O2_9 
REMARK    4  A    between atoms: O2_9  and  C8_10 
REMARK    5  A    between atoms: C8_10  and  C9_11 
REMARK    6  A    between atoms: C10_13  and  O4_14 
REMARK    7  A    between atoms: O4_14  and  C11_15 
REMARK    8  A    between atoms: C18_25  and  O5_26 
REMARK    9  A    between atoms: C19_28  and  O6_29 
REMARK   10  A    between atoms: C20_31  and  O7_32 
REMARK   11  A    between atoms: C21_34  and  O8_35 
REMARK   12  A    between atoms: C22_37  and  O9_38 
ROOT
HETATM    1  C9  UNL     1      -0.182   0.793  -1.039  1.00  0.00     0.179 C 
HETATM    2  O3  UNL     1       1.028   0.097  -1.177  1.00  0.00    -0.348 OA
HETATM    3  C10 UNL     1       2.168   0.779  -0.920  1.00  0.00     0.292 C 
HETATM    4  C18 UNL     1       2.305   2.136  -1.519  1.00  0.00     0.204 C 
HETATM    5  C19 UNL     1       1.008   2.901  -1.363  1.00  0.00     0.183 C 
HETATM    6  C20 UNL     1      -0.080   2.014  -1.911  1.00  0.00     0.180 C 
ENDROOT
BRANCH   1   7
HETATM    7  C8  UNL     1      -0.330   1.044   0.420  1.00  0.00     0.203 C 
BRANCH   7   8
HETATM    8  O2  UNL     1      -1.491   1.570   0.894  1.00  0.00    -0.381 OA
BRANCH   8   9
HETATM    9  C7  UNL     1      -2.608   0.736   0.788  1.00  0.00     0.153 C 
HETATM   10  C6  UNL     1      -3.003   0.389   2.237  1.00  0.00     0.041 C 
HETATM   11  C4  UNL     1      -4.395  -0.111   2.356  1.00  0.00     0.016 C 
HETATM   12  C3  UNL     1      -4.877  -0.548   0.996  1.00  0.00     0.162 C 
HETATM   13  C5  UNL     1      -4.437  -1.345   3.261  1.00  0.00     0.012 C 
HETATM   14  C22 UNL     1      -5.020   0.668   0.101  1.00  0.00     0.179 C 
HETATM   15  C21 UNL     1      -3.711   1.447   0.082  1.00  0.00     0.178 C 
BRANCH  12  16
HETATM   16  O1  UNL     1      -6.124  -1.220   1.052  1.00  0.00    -0.356 OA
BRANCH  16  17
HETATM   17  C2  UNL     1      -6.651  -1.667  -0.149  1.00  0.00     0.125 C 
HETATM   18  C1  UNL     1      -7.822  -1.323  -0.619  1.00  0.00     0.037 C 
ENDBRANCH  16  17
ENDBRANCH  12  16
BRANCH  14  19
HETATM   19  O9  UNL     1      -5.997   1.492   0.624  1.00  0.00    -0.390 OA
ATOM     20  H9  UNL     1      -6.087   2.254   0.063  1.00  0.00     0.210 HD
ENDBRANCH  14  19
BRANCH  15  21
HETATM   21  O8  UNL     1      -3.902   2.744   0.577  1.00  0.00    -0.390 OA
ATOM     22  H8  UNL     1      -4.605   3.197   0.127  1.00  0.00     0.210 HD
ENDBRANCH  15  21
ENDBRANCH   8   9
ENDBRANCH   7   8
ENDBRANCH   1   7
BRANCH   6  23
HETATM   23  O7  UNL     1      -1.221   2.663  -2.235  1.00  0.00    -0.390 OA
ATOM     24  H7  UNL     1      -1.157   3.434  -2.786  1.00  0.00     0.210 HD
ENDBRANCH   6  23
BRANCH   3  25
HETATM   25  O4  UNL     1       3.241  -0.055  -1.201  1.00  0.00    -0.351 OA
BRANCH  25  26
HETATM   26  C11 UNL     1       4.001  -0.440  -0.156  1.00  0.00     0.156 C 
HETATM   27  C12 UNL     1       5.464  -0.019  -0.383  1.00  0.00     0.041 C 
HETATM   28  C13 UNL     1       5.697  -1.437  -0.936  1.00  0.00     0.021 C 
HETATM   29  C14 UNL     1       6.954  -2.100  -0.465  1.00  0.00     0.008 C 
HETATM   30  C17 UNL     1       4.514  -1.839  -0.084  1.00  0.00     0.218 C 
HETATM   31  C15 UNL     1       6.708  -3.454   0.156  1.00  0.00     0.028 C 
HETATM   32  C16 UNL     1       5.608  -3.465   1.171  1.00  0.00     0.233 C 
HETATM   33  N1  UNL     1       5.073  -2.107   1.251  1.00  0.00    -0.068 N 
ATOM     34  H12 UNL     1       4.409  -1.969   2.013  1.00  0.00     0.277 HD
ATOM     35  H11 UNL     1       5.753  -1.413   1.561  1.00  0.00     0.277 HD
ENDBRANCH  25  26
ENDBRANCH   3  25
BRANCH   5  36
HETATM   36  O6  UNL     1       1.147   4.019  -2.231  1.00  0.00    -0.390 OA
ATOM     37  H6  UNL     1       0.333   4.499  -2.133  1.00  0.00     0.210 HD
ENDBRANCH   5  36
BRANCH   4  38
HETATM   38  O5  UNL     1       2.548   2.094  -2.910  1.00  0.00    -0.388 OA
ATOM     39  H5  UNL     1       2.635   2.959  -3.292  1.00  0.00     0.210 HD
ENDBRANCH   4  38
TORSDOF 12
