REMARK  3 active torsions:
REMARK  status: ('A' for Active; 'I' for Inactive)
REMARK    1  A    between atoms: C2_2  and  N1_3 
REMARK       I    between atoms: C3_5  and  N2_6 
REMARK       I    between atoms: C3_5  and  N5_11 
REMARK    2  A    between atoms: N5_11  and  C5_13 
REMARK    3  A    between atoms: C5_13  and  C7_15 
ROOT
HETATM    1  N1  UNL     1       3.298  -0.734   0.017  1.00  0.00    -0.227 N 
ATOM      2  H1  UNL     1       4.302  -0.555   0.026  1.00  0.00     0.177 HD
HETATM    3  C3  UNL     1       2.491   0.112   0.527  1.00  0.00     0.676 C 
HETATM    4  N2  UNL     1       2.953   1.312   1.115  1.00  0.00    -0.166 N 
ATOM      5  H2  UNL     1       2.511   1.638   1.975  1.00  0.00     0.186 HD
HETATM    6  C4  UNL     1       3.898   2.002   0.614  1.00  0.00     0.215 C 
HETATM    7  N3  UNL     1       4.503   1.526  -0.596  1.00  0.00    -0.066 NA
HETATM    8  N4  UNL     1       4.338   3.205   1.233  1.00  0.00    -0.066 NA
HETATM    9  N5  UNL     1       1.102  -0.139   0.513  1.00  0.00    -0.221 N 
ATOM     10  H5  UNL     1       0.699  -0.892   1.070  1.00  0.00     0.178 HD
ENDROOT
BRANCH   9  11
HETATM   11  C5  UNL     1       0.266   0.706  -0.317  1.00  0.00     0.103 C 
HETATM   12  C6  UNL     1       0.682   0.599  -1.754  1.00  0.00     0.033 C 
BRANCH  11  13
HETATM   13  C7  UNL     1      -1.171   0.300  -0.096  1.00  0.00    -0.019 C 
HETATM   14  C8  UNL     1      -2.106   1.153  -0.942  1.00  0.00     0.016 C 
HETATM   15  C9  UNL     1      -3.526   0.770  -0.591  1.00  0.00    -0.013 C 
HETATM   16  C10 UNL     1      -3.844   1.054   0.857  1.00  0.00     0.009 C 
HETATM   17  C14 UNL     1      -3.791  -0.699  -0.837  1.00  0.00     0.009 C 
HETATM   18  C11 UNL     1      -2.916   0.227   1.708  1.00  0.00    -0.013 C 
HETATM   19  C12 UNL     1      -3.069  -1.244   1.448  1.00  0.00     0.009 C 
HETATM   20  C16 UNL     1      -1.495   0.609   1.359  1.00  0.00     0.016 C 
HETATM   21  C13 UNL     1      -2.820  -1.507  -0.005  1.00  0.00    -0.013 C 
HETATM   22  C15 UNL     1      -1.428  -1.131  -0.448  1.00  0.00     0.016 C 
ENDBRANCH  11  13
ENDBRANCH   9  11
BRANCH   1  23
HETATM   23  C2  UNL     1       2.785  -1.942  -0.571  1.00  0.00     0.133 C 
HETATM   24  C1  UNL     1       3.657  -3.138  -0.310  1.00  0.00     0.027 C 
ENDBRANCH   1  23
TORSDOF 3
