REMARK  3 active torsions:
REMARK  status: ('A' for Active; 'I' for Inactive)
REMARK       I    between atoms: N1_2  and  C3_4 
REMARK       I    between atoms: N3_6  and  C4_8 
REMARK       I    between atoms: C4_8  and  N5_12 
REMARK    1  A    between atoms: N5_12  and  C5_14 
REMARK    2  A    between atoms: C5_14  and  C6_15 
REMARK    3  A    between atoms: C6_15  and  C7_16 
ROOT
HETATM    1  C1  UNL     1       6.469   1.815   0.106  1.00  0.00     0.151 C 
HETATM    2  N1  UNL     1       5.698   0.833  -0.625  1.00  0.00    -0.364 N 
HETATM    3  C2  UNL     1       5.937   0.684  -2.048  1.00  0.00     0.151 C 
HETATM    4  C3  UNL     1       4.732   0.023  -0.019  1.00  0.00     0.204 C 
HETATM    5  N2  UNL     1       5.159  -1.075   0.777  1.00  0.00    -0.063 NA
HETATM    6  N3  UNL     1       3.449   0.214  -0.138  1.00  0.00    -0.164 N 
ATOM      7  H3  UNL     1       3.119   0.996  -0.704  1.00  0.00     0.187 HD
HETATM    8  C4  UNL     1       2.503  -0.618   0.485  1.00  0.00     0.674 C 
HETATM    9  N4  UNL     1       2.525  -1.873   0.268  1.00  0.00    -0.235 N 
ATOM     10  H41 UNL     1       1.838  -2.477   0.720  1.00  0.00     0.174 HD
ATOM     11  H42 UNL     1       3.225  -2.277  -0.355  1.00  0.00     0.174 HD
HETATM   12  N5  UNL     1       1.540  -0.062   1.342  1.00  0.00    -0.226 N 
ATOM     13  H5  UNL     1       1.801   0.094   2.316  1.00  0.00     0.177 HD
ENDROOT
BRANCH  12  14
HETATM   14  C5  UNL     1       0.199   0.305   0.934  1.00  0.00     0.139 C 
BRANCH  14  15
HETATM   15  C6  UNL     1      -0.651  -0.857   0.594  1.00  0.00     0.029 C 
BRANCH  15  16
HETATM   16  C7  UNL     1      -2.030  -0.469   0.185  1.00  0.00    -0.038 C 
HETATM   17  C8  UNL     1      -2.753   0.287   1.273  1.00  0.00     0.014 C 
HETATM   18  C9  UNL     1      -4.122   0.738   0.814  1.00  0.00    -0.013 C 
HETATM   19  C10 UNL     1      -3.971   1.600  -0.397  1.00  0.00     0.009 C 
HETATM   20  C14 UNL     1      -4.956  -0.494   0.556  1.00  0.00     0.009 C 
HETATM   21  C11 UNL     1      -3.354   0.801  -1.518  1.00  0.00    -0.013 C 
HETATM   22  C12 UNL     1      -4.224  -0.403  -1.764  1.00  0.00     0.009 C 
HETATM   23  C16 UNL     1      -1.983   0.303  -1.102  1.00  0.00     0.014 C 
HETATM   24  C13 UNL     1      -4.248  -1.270  -0.526  1.00  0.00    -0.013 C 
HETATM   25  C15 UNL     1      -2.887  -1.704  -0.097  1.00  0.00     0.014 C 
ENDBRANCH  15  16
ENDBRANCH  14  15
ENDBRANCH  12  14
TORSDOF 3
