REMARK  8 active torsions:
REMARK  status: ('A' for Active; 'I' for Inactive)
REMARK    1  A    between atoms: N1_2  and  C2_5 
REMARK    2  A    between atoms: C2_5  and  C3_6 
REMARK    3  A    between atoms: C2_5  and  C15_25 
REMARK       I    between atoms: C3_6  and  N2_8 
REMARK    4  A    between atoms: C4_10  and  C5_11 
REMARK    5  A    between atoms: C6_12  and  C7_13 
REMARK    6  A    between atoms: C8_14  and  C9_15 
REMARK    7  A    between atoms: C9_15  and  C10_16 
REMARK    8  A    between atoms: C10_16  and  N3_17 
ROOT
HETATM    1  C3  UNL     1      -3.222   0.043  -0.566  1.00  0.00     0.253 C 
HETATM    2  O1  UNL     1      -2.495  -0.029   0.457  1.00  0.00    -0.271 OA
HETATM    3  N2  UNL     1      -2.905   0.741  -1.726  1.00  0.00    -0.328 N 
ATOM      4  H2  UNL     1      -3.633   0.870  -2.428  1.00  0.00     0.168 HD
HETATM    5  C4  UNL     1      -1.758   1.224  -1.954  1.00  0.00     0.157 C 
ENDROOT
BRANCH   5   6
HETATM    6  C5  UNL     1      -0.670   1.101  -1.042  1.00  0.00    -0.047 C 
HETATM    7  C6  UNL     1       0.282   1.012  -0.271  1.00  0.00    -0.009 C 
BRANCH   7   8
HETATM    8  C7  UNL     1       1.363   0.924   0.634  1.00  0.00    -0.015 C 
HETATM    9  C8  UNL     1       2.295   0.843   1.396  1.00  0.00    -0.091 C 
BRANCH   9  10
HETATM   10  C9  UNL     1       3.430   0.726   2.327  1.00  0.00     0.114 C 
BRANCH  10  11
HETATM   11  C10 UNL     1       4.686   1.283   1.636  1.00  0.00     0.133 C 
BRANCH  11  12
HETATM   12  N3  UNL     1       4.867   0.469   0.459  1.00  0.00    -0.379 N 
HETATM   13  C11 UNL     1       5.968  -0.144   0.258  1.00  0.00     0.072 C 
HETATM   14  C12 UNL     1       6.236  -1.007  -0.937  1.00  0.00     0.077 C 
HETATM   15  N4  UNL     1       7.151  -0.163   1.065  1.00  0.00    -0.380 N 
HETATM   16  C13 UNL     1       7.728  -0.921  -1.068  1.00  0.00     0.027 C 
HETATM   17  C14 UNL     1       8.298  -0.457   0.241  1.00  0.00     0.121 C 
ATOM     18  H4  UNL     1       7.178   0.006   2.071  1.00  0.00     0.160 HD
ATOM     19  H3  UNL     1       4.109   0.383  -0.218  1.00  0.00     0.160 HD
ENDBRANCH  11  12
ENDBRANCH  10  11
ENDBRANCH   9  10
ENDBRANCH   7   8
ENDBRANCH   5   6
BRANCH   1  20
HETATM   20  C2  UNL     1      -4.537  -0.679  -0.543  1.00  0.00     0.284 C 
BRANCH  20  21
HETATM   21  N1  UNL     1      -4.715  -1.378   0.710  1.00  0.00    -0.066 N 
HETATM   22  C1  UNL     1      -3.738  -2.416   0.944  1.00  0.00     0.267 C 
ATOM     23  H12 UNL     1      -5.661  -1.753   0.781  1.00  0.00     0.277 HD
ATOM     24  H11 UNL     1      -4.733  -0.720   1.489  1.00  0.00     0.277 HD
ENDBRANCH  20  21
BRANCH  20  25
HETATM   25  C15 UNL     1      -5.679   0.304  -0.654  1.00  0.00    -0.014 C 
HETATM   26  C16 UNL     1      -5.661   1.124  -1.904  1.00  0.00     0.017 C 
HETATM   27  C17 UNL     1      -5.550   1.264   0.531  1.00  0.00     0.017 C 
HETATM   28  C18 UNL     1      -6.987  -0.461  -0.567  1.00  0.00     0.017 C 
ENDBRANCH  20  25
ENDBRANCH   1  20
TORSDOF 8
