REMARK  7 active torsions:
REMARK  status: ('A' for Active; 'I' for Inactive)
REMARK    1  A    between atoms: N1_2  and  C2_3 
REMARK    2  A    between atoms: C2_3  and  C3_4 
REMARK    3  A    between atoms: C4_5  and  C5_6 
REMARK    4  A    between atoms: C6_7  and  C7_8 
REMARK    5  A    between atoms: N4_20  and  C16_22 
REMARK    6  A    between atoms: C16_22  and  C17_23 
REMARK    7  A    between atoms: C17_23  and  N5_24 
ROOT
HETATM    1  C2  UNL     1      -1.199  -2.108  -0.084  1.00  0.00     0.332 C 
ENDROOT
BRANCH   1   2
HETATM    2  N1  UNL     1      -2.103  -1.333   0.730  1.00  0.00    -0.035 N 
HETATM    3  C1  UNL     1      -2.309  -2.093   1.967  1.00  0.00     0.275 C 
HETATM    4  C13 UNL     1      -1.566  -0.030   1.066  1.00  0.00     0.268 C 
HETATM    5  C14 UNL     1      -2.756   0.920   1.025  1.00  0.00     0.267 C 
HETATM    6  N4  UNL     1      -3.690   0.266   0.141  1.00  0.00    -0.043 N 
HETATM    7  C15 UNL     1      -5.042   0.486   0.675  1.00  0.00     0.274 C 
HETATM    8  C18 UNL     1      -3.376  -1.129   0.110  1.00  0.00     0.473 C 
BRANCH   6   9
HETATM    9  C16 UNL     1      -3.680   0.797  -1.189  1.00  0.00     0.266 C 
BRANCH   9  10
HETATM   10  C17 UNL     1      -4.251   2.197  -1.261  1.00  0.00     0.257 C 
BRANCH  10  11
HETATM   11  N5  UNL     1      -4.208   2.666  -2.632  1.00  0.00    -0.078 N 
ATOM     12  H53 UNL     1      -3.270   2.611  -3.029  1.00  0.00     0.274 HD
ATOM     13  H52 UNL     1      -4.675   2.025  -3.274  1.00  0.00     0.274 HD
ATOM     14  H51 UNL     1      -4.593   3.609  -2.681  1.00  0.00     0.274 HD
ENDBRANCH  10  11
ENDBRANCH   9  10
ENDBRANCH   6   9
ENDBRANCH   1   2
BRANCH   1  15
HETATM   15  C3  UNL     1       0.180  -1.752   0.253  1.00  0.00    -0.074 C 
HETATM   16  C4  UNL     1       1.310  -1.442   0.544  1.00  0.00    -0.077 C 
BRANCH  16  17
HETATM   17  C5  UNL     1       2.651  -1.049   0.885  1.00  0.00     0.065 C 
HETATM   18  C6  UNL     1       3.464  -0.675  -0.068  1.00  0.00     0.022 C 
BRANCH  18  19
HETATM   19  C7  UNL     1       4.841  -0.266   0.239  1.00  0.00    -0.006 A 
HETATM   20  C8  UNL     1       5.450  -0.213   1.459  1.00  0.00     0.100 A 
HETATM   21  N2  UNL     1       6.731   0.219   1.308  1.00  0.00    -0.363 N 
HETATM   22  C9  UNL     1       6.945   0.442  -0.005  1.00  0.00     0.060 A 
ATOM     23  H2  UNL     1       7.411   0.351   2.057  1.00  0.00     0.165 HD
HETATM   24  C10 UNL     1       7.837   0.844  -0.979  1.00  0.00     0.117 A 
HETATM   25  C12 UNL     1       5.776   0.144  -0.682  1.00  0.00     0.019 A 
HETATM   26  N3  UNL     1       7.264   0.802  -2.197  1.00  0.00    -0.372 N 
HETATM   27  C11 UNL     1       5.991   0.371  -2.023  1.00  0.00     0.102 A 
ATOM     28  H3  UNL     1       7.705   1.048  -3.083  1.00  0.00     0.164 HD
ENDBRANCH  18  19
ENDBRANCH  16  17
ENDBRANCH   1  15
TORSDOF 7
