REMARK  2 active torsions:
REMARK  status: ('A' for Active; 'I' for Inactive)
REMARK    1  A    between atoms: C2_3  and  N2_4 
REMARK    2  A    between atoms: N2_4  and  C3_6 
ROOT
HETATM    1  N1  UNL     1       3.643   0.169   1.649  1.00  0.00    -0.196 NA
HETATM    2  C1  UNL     1       3.182   0.179   0.575  1.00  0.00     0.078 C 
HETATM    3  C2  UNL     1       2.617   0.178  -0.767  1.00  0.00     0.239 C 
ENDROOT
BRANCH   3   4
HETATM    4  N2  UNL     1       1.497  -0.679  -0.948  1.00  0.00    -0.401 N 
ATOM      5  H2  UNL     1       1.595  -1.541  -1.484  1.00  0.00     0.154 HD
BRANCH   4   6
HETATM    6  C3  UNL     1       0.267  -0.340  -0.394  1.00  0.00     0.028 C 
HETATM    7  C4  UNL     1      -0.583  -1.598  -0.280  1.00  0.00     0.031 C 
HETATM    8  C5  UNL     1      -1.650  -1.265   0.778  1.00  0.00     0.008 C 
HETATM    9  C6  UNL     1      -1.382   0.172   1.068  1.00  0.00     0.005 C 
HETATM   10  C7  UNL     1       0.165   0.190   0.995  1.00  0.00     0.036 C 
HETATM   11  C8  UNL     1      -1.664   0.982  -0.187  1.00  0.00     0.099 C 
HETATM   12  C9  UNL     1      -1.726   2.422   0.077  1.00  0.00     0.064 C 
HETATM   13  C10 UNL     1      -0.566   0.646  -1.172  1.00  0.00     0.050 C 
HETATM   14  N3  UNL     1      -1.792   3.565   0.285  1.00  0.00    -0.197 NA
ENDBRANCH   4   6
ENDBRANCH   3   4
TORSDOF 2
