REMARK  6 active torsions:
REMARK  status: ('A' for Active; 'I' for Inactive)
REMARK    1  A    between atoms: C2_2  and  N1_3 
REMARK    2  A    between atoms: C2_2  and  C5_14 
REMARK    3  A    between atoms: N1_3  and  C3_5 
REMARK    4  A    between atoms: C3_5  and  N2_7 
REMARK    5  A    between atoms: N2_7  and  N3_9 
REMARK    6  A    between atoms: N3_9  and  C4_11 
ROOT
HETATM    1  N1  UNL     1       0.631  -0.457  -0.172  1.00  0.00    -0.361 N 
ATOM      2  H1  UNL     1       0.385  -1.344  -0.611  1.00  0.00     0.162 HD
ENDROOT
BRANCH   1   3
HETATM    3  C2  UNL     1      -0.408   0.531   0.001  1.00  0.00     0.083 C 
HETATM    4  C1  UNL     1      -0.589   0.853   1.462  1.00  0.00     0.032 C 
BRANCH   3   5
HETATM    5  C5  UNL     1      -1.689   0.148  -0.681  1.00  0.00     0.008 C 
HETATM    6  C6  UNL     1      -2.375  -1.045  -0.125  1.00  0.00     0.007 C 
HETATM    7  C7  UNL     1      -3.775  -0.640   0.278  1.00  0.00     0.000 C 
HETATM    8  C8  UNL     1      -4.061   0.477  -0.703  1.00  0.00     0.000 C 
HETATM    9  C9  UNL     1      -2.730   1.245  -0.633  1.00  0.00     0.007 C 
ENDBRANCH   3   5
ENDBRANCH   1   3
BRANCH   1  10
HETATM   10  C3  UNL     1       1.970  -0.260   0.234  1.00  0.00     0.186 C 
HETATM   11  S1  UNL     1       2.436   1.148   0.949  1.00  0.00    -0.040 SA
BRANCH  10  12
HETATM   12  N2  UNL     1       2.956  -1.266   0.041  1.00  0.00    -0.274 N 
ATOM     13  H2  UNL     1       2.687  -2.146  -0.400  1.00  0.00     0.189 HD
BRANCH  12  14
HETATM   14  N3  UNL     1       4.279  -1.084   0.437  1.00  0.00    -0.276 N 
ATOM     15  H3  UNL     1       4.602  -1.563   1.277  1.00  0.00     0.189 HD
BRANCH  14  16
HETATM   16  C4  UNL     1       5.200  -0.267  -0.268  1.00  0.00     0.199 C 
HETATM   17  N4  UNL     1       4.811   0.425  -1.446  1.00  0.00    -0.068 NA
HETATM   18  S2  UNL     1       6.737  -0.090   0.241  1.00  0.00    -0.043 SA
ENDBRANCH  14  16
ENDBRANCH  12  14
ENDBRANCH  10  12
ENDBRANCH   1  10
TORSDOF 6
