REMARK  18 active torsions:
REMARK  status: ('A' for Active; 'I' for Inactive)
REMARK    1  A    between atoms: C4_4  and  O1_5 
REMARK    2  A    between atoms: O1_5  and  C5_6 
REMARK    3  A    between atoms: C5_6  and  C6_7 
REMARK    4  A    between atoms: C6_7  and  O2_8 
REMARK    5  A    between atoms: O2_8  and  C7_9 
REMARK    6  A    between atoms: C7_9  and  C8_10 
REMARK    7  A    between atoms: C8_10  and  O3_11 
REMARK    8  A    between atoms: O3_11  and  C9_12 
REMARK    9  A    between atoms: C9_12  and  C10_13 
REMARK   10  A    between atoms: C10_13  and  O4_14 
REMARK   11  A    between atoms: O4_14  and  C11_15 
REMARK   12  A    between atoms: C11_15  and  C12_16 
REMARK   13  A    between atoms: C12_16  and  O5_17 
REMARK   14  A    between atoms: O5_17  and  C13_18 
REMARK   15  A    between atoms: C16_21  and  O6_22 
REMARK   16  A    between atoms: O6_22  and  C17_23 
REMARK   17  A    between atoms: C17_23  and  C18_24 
REMARK   18  A    between atoms: C18_24  and  N1_25 
ROOT
HETATM    1  O4  UNL     1       0.640   2.339   1.680  1.00  0.00    -0.387 OA
ENDROOT
BRANCH   1   2
HETATM    2  C10 UNL     1       1.321   2.567   0.501  1.00  0.00     0.193 C 
BRANCH   2   3
HETATM    3  C9  UNL     1       2.129   3.813   0.605  1.00  0.00     0.193 C 
BRANCH   3   4
HETATM    4  O3  UNL     1       2.847   4.093  -0.558  1.00  0.00    -0.387 OA
BRANCH   4   5
HETATM    5  C8  UNL     1       3.743   3.104  -0.916  1.00  0.00     0.193 C 
BRANCH   5   6
HETATM    6  C7  UNL     1       4.736   2.914   0.177  1.00  0.00     0.193 C 
BRANCH   6   7
HETATM    7  O2  UNL     1       5.683   1.940  -0.089  1.00  0.00    -0.387 OA
BRANCH   7   8
HETATM    8  C6  UNL     1       5.184   0.682  -0.304  1.00  0.00     0.194 C 
BRANCH   8   9
HETATM    9  C5  UNL     1       6.360  -0.234  -0.575  1.00  0.00     0.201 C 
BRANCH   9  10
HETATM   10  O1  UNL     1       5.991  -1.558  -0.813  1.00  0.00    -0.349 OA
BRANCH  10  11
HETATM   11  C4  UNL     1       6.991  -2.479  -1.072  1.00  0.00     0.068 A 
HETATM   12  C3  UNL     1       6.689  -3.795  -1.314  1.00  0.00     0.037 A 
HETATM   13  C2  UNL     1       7.682  -4.737  -1.577  1.00  0.00     0.003 A 
HETATM   14  C1  UNL     1       9.011  -4.359  -1.600  1.00  0.00     0.000 A 
HETATM   15  C25 UNL     1       9.317  -3.048  -1.359  1.00  0.00     0.003 A 
HETATM   16  C24 UNL     1       8.326  -2.128  -1.101  1.00  0.00     0.037 A 
ENDBRANCH  10  11
ENDBRANCH   9  10
ENDBRANCH   8   9
ENDBRANCH   7   8
ENDBRANCH   6   7
ENDBRANCH   5   6
ENDBRANCH   4   5
ENDBRANCH   3   4
ENDBRANCH   2   3
ENDBRANCH   1   2
BRANCH   1  17
HETATM   17  C11 UNL     1      -0.246   3.342   2.048  1.00  0.00     0.194 C 
BRANCH  17  18
HETATM   18  C12 UNL     1      -0.897   2.889   3.330  1.00  0.00     0.201 C 
BRANCH  18  19
HETATM   19  O5  UNL     1      -1.575   1.719   3.200  1.00  0.00    -0.349 OA
BRANCH  19  20
HETATM   20  C13 UNL     1      -2.660   1.428   2.476  1.00  0.00     0.069 A 
HETATM   21  C14 UNL     1      -3.130   0.101   2.503  1.00  0.00     0.039 A 
HETATM   22  C15 UNL     1      -4.239  -0.268   1.787  1.00  0.00     0.039 A 
HETATM   23  C16 UNL     1      -4.946   0.633   1.011  1.00  0.00     0.069 A 
HETATM   24  C22 UNL     1      -4.484   1.930   0.988  1.00  0.00     0.039 A 
HETATM   25  C23 UNL     1      -3.349   2.331   1.714  1.00  0.00     0.039 A 
BRANCH  23  26
HETATM   26  O6  UNL     1      -6.070   0.291   0.276  1.00  0.00    -0.349 OA
BRANCH  26  27
HETATM   27  C17 UNL     1      -6.526  -1.059   0.318  1.00  0.00     0.206 C 
BRANCH  27  28
HETATM   28  C18 UNL     1      -7.759  -1.238  -0.544  1.00  0.00     0.299 C 
BRANCH  28  29
HETATM   29  N1  UNL     1      -8.139  -2.646  -0.430  1.00  0.00     0.090 N 
HETATM   30  C19 UNL     1      -9.324  -2.885  -1.241  1.00  0.00     0.274 C 
HETATM   31  C20 UNL     1      -8.377  -3.291  -2.367  1.00  0.00     0.060 C 
HETATM   32  C21 UNL     1      -7.270  -3.427  -1.319  1.00  0.00     0.274 C 
ENDBRANCH  28  29
ENDBRANCH  27  28
ENDBRANCH  26  27
ENDBRANCH  23  26
ENDBRANCH  19  20
ENDBRANCH  18  19
ENDBRANCH  17  18
ENDBRANCH   1  17
TORSDOF 18
