REMARK  3 active torsions:
REMARK  status: ('A' for Active; 'I' for Inactive)
REMARK       I    between atoms: C1_2  and  N2_4 
REMARK    1  A    between atoms: N2_4  and  N3_6 
REMARK    2  A    between atoms: C2_8  and  N4_9 
REMARK    3  A    between atoms: N4_9  and  C3_11 
ROOT
HETATM    1  N4  UNL     1      -0.520  -1.037  -1.319  1.00  0.00    -0.351 N 
ATOM      2  H4  UNL     1      -0.811  -1.563  -2.143  1.00  0.00     0.166 HD
ENDROOT
BRANCH   1   3
HETATM    3  C2  UNL     1       0.833  -0.684  -1.145  1.00  0.00     0.197 C 
HETATM    4  N3  UNL     1       1.206   0.522  -1.320  1.00  0.00    -0.293 N 
ATOM      5  H3  UNL     1       0.492   1.201  -1.586  1.00  0.00     0.187 HD
BRANCH   4   6
HETATM    6  N2  UNL     1       2.508   0.985  -1.177  1.00  0.00    -0.253 N 
HETATM    7  C1  UNL     1       3.279   0.601  -0.036  1.00  0.00     0.347 C 
HETATM    8  N1  UNL     1       4.607   1.078   0.101  1.00  0.00    -0.038 NA
HETATM    9  O1  UNL     1       2.780  -0.151   0.830  1.00  0.00    -0.249 OA
ATOM     10  H2  UNL     1       2.913   1.598  -1.885  1.00  0.00     0.191 HD
ENDBRANCH   4   6
ENDBRANCH   1   3
BRANCH   1  11
HETATM   11  C3  UNL     1      -1.478  -0.655  -0.338  1.00  0.00     0.039 A 
HETATM   12  C4  UNL     1      -1.110   0.057   0.785  1.00  0.00     0.046 A 
HETATM   13  C5  UNL     1      -2.051   0.426   1.737  1.00  0.00     0.093 A 
HETATM   14  N5  UNL     1      -3.351   0.104   1.601  1.00  0.00    -0.334 N 
HETATM   15  C6  UNL     1      -3.727  -0.590   0.513  1.00  0.00     0.247 A 
ATOM     16  H5  UNL     1      -4.034   0.380   2.306  1.00  0.00     0.168 HD
HETATM   17  O2  UNL     1      -4.927  -0.916   0.337  1.00  0.00    -0.268 OA
HETATM   18  C7  UNL     1      -2.816  -0.973  -0.454  1.00  0.00     0.104 A 
ENDBRANCH   1  11
TORSDOF 3
