REMARK  11 active torsions:
REMARK  status: ('A' for Active; 'I' for Inactive)
REMARK    1  A    between atoms: N1_1  and  C1_4 
REMARK    2  A    between atoms: C2_7  and  N3_8 
REMARK    3  A    between atoms: N4_11  and  C3_12 
REMARK    4  A    between atoms: C5_14  and  O1_15 
REMARK    5  A    between atoms: C5_14  and  C6_17 
REMARK    6  A    between atoms: C6_17  and  N5_18 
REMARK    7  A    between atoms: N5_18  and  C7_20 
REMARK    8  A    between atoms: C7_20  and  C8_21 
REMARK    9  A    between atoms: C8_21  and  N6_22 
REMARK   10  A    between atoms: C9_26  and  C10_27 
REMARK   11  A    between atoms: C10_27  and  O2_28 
ROOT
HETATM    1  C3  UNL     1      -1.480  -0.183   1.020  1.00  0.00     0.267 C 
HETATM    2  C4  UNL     1      -0.663  -1.224   0.333  1.00  0.00     0.102 C 
HETATM    3  C5  UNL     1       0.728  -0.475   0.401  1.00  0.00     0.121 C 
HETATM    4  C9  UNL     1       0.237   0.876   0.053  1.00  0.00     0.187 C 
HETATM    5  O3  UNL     1      -0.882   1.034   0.889  1.00  0.00    -0.353 OA
ENDROOT
BRANCH   1   6
HETATM    6  N4  UNL     1      -2.867  -0.181   0.597  1.00  0.00    -0.079 N 
HETATM    7  C2  UNL     1      -3.616  -1.103   0.009  1.00  0.00     0.710 A 
HETATM    8  N2  UNL     1      -4.853  -0.602  -0.176  1.00  0.00    -0.020 N 
HETATM    9  C1  UNL     1      -4.886   0.655   0.301  1.00  0.00     0.705 A 
ATOM     10  H2  UNL     1      -5.635  -1.095  -0.607  1.00  0.00     0.203 HD
HETATM   11  N7  UNL     1      -3.644   0.886   0.772  1.00  0.00    -0.113 N 
ATOM     12  H7  UNL     1      -3.341   1.759   1.204  1.00  0.00     0.206 HD
BRANCH   7  13
HETATM   13  N3  UNL     1      -3.185  -2.289  -0.322  1.00  0.00    -0.233 N 
ATOM     14  H32 UNL     1      -3.761  -2.999  -0.774  1.00  0.00     0.174 HD
ATOM     15  H31 UNL     1      -2.249  -2.668  -0.182  1.00  0.00     0.174 HD
ENDBRANCH   7  13
BRANCH   9  16
HETATM   16  N1  UNL     1      -5.930   1.413   0.274  1.00  0.00    -0.233 N 
ATOM     17  H12 UNL     1      -6.870   1.238  -0.082  1.00  0.00     0.174 HD
ATOM     18  H11 UNL     1      -5.955   2.366   0.636  1.00  0.00     0.174 HD
ENDBRANCH   9  16
ENDBRANCH   1   6
BRANCH   3  19
HETATM   19  O1  UNL     1       1.044  -0.585   1.738  1.00  0.00    -0.382 OA
ATOM     20  H1  UNL     1       1.880  -0.135   1.779  1.00  0.00     0.211 HD
ENDBRANCH   3  19
BRANCH   3  21
HETATM   21  C6  UNL     1       1.665  -1.158  -0.511  1.00  0.00     0.096 C 
BRANCH  21  22
HETATM   22  N5  UNL     1       3.002  -0.764  -0.391  1.00  0.00    -0.398 N 
ATOM     23  H5  UNL     1       3.676  -1.437  -0.025  1.00  0.00     0.158 HD
BRANCH  22  24
HETATM   24  C7  UNL     1       3.458   0.507  -0.748  1.00  0.00     0.146 C 
BRANCH  24  25
HETATM   25  C8  UNL     1       5.001   0.584  -0.700  1.00  0.00     0.249 C 
BRANCH  25  26
HETATM   26  N6  UNL     1       5.457   0.284   0.623  1.00  0.00    -0.078 N 
ATOM     27  H63 UNL     1       5.020   0.882   1.325  1.00  0.00     0.274 HD
ATOM     28  H62 UNL     1       5.106  -0.614   0.956  1.00  0.00     0.274 HD
ATOM     29  H61 UNL     1       6.475   0.335   0.655  1.00  0.00     0.274 HD
ENDBRANCH  25  26
ENDBRANCH  24  25
ENDBRANCH  22  24
ENDBRANCH  21  22
ENDBRANCH   3  21
BRANCH   4  30
HETATM   30  C10 UNL     1      -0.160   1.072  -1.392  1.00  0.00     0.199 C 
BRANCH  30  31
HETATM   31  O2  UNL     1      -0.681   2.366  -1.593  1.00  0.00    -0.398 OA
ATOM     32  H2  UNL     1      -0.931   2.489  -2.501  1.00  0.00     0.209 HD
ENDBRANCH  30  31
ENDBRANCH   4  30
TORSDOF 11
