REMARK  5 active torsions:
REMARK  status: ('A' for Active; 'I' for Inactive)
REMARK    1  A    between atoms: C7_7  and  O1_8 
REMARK    2  A    between atoms: C7_7  and  C8_10 
REMARK    3  A    between atoms: C8_10  and  O2_11 
REMARK    4  A    between atoms: O2_11  and  C9_12 
REMARK    5  A    between atoms: C17_21  and  C18_22 
ROOT
HETATM    1  C1  UNL     1      -2.169  -3.424  -0.689  1.00  0.00     0.010 C 
HETATM    2  C2  UNL     1      -2.661  -2.008  -0.301  1.00  0.00    -0.014 C 
HETATM    3  C3  UNL     1      -3.137  -1.383  -1.505  1.00  0.00     0.005 C 
HETATM    4  C4  UNL     1      -3.374   0.053  -1.626  1.00  0.00     0.006 C 
HETATM    5  C5  UNL     1      -2.465   1.050  -1.022  1.00  0.00     0.001 C 
HETATM    6  C6  UNL     1      -1.051   0.979  -1.449  1.00  0.00     0.046 C 
HETATM    7  C7  UNL     1      -0.213  -0.157  -1.007  1.00  0.00     0.087 C 
HETATM    8  C15 UNL     1      -0.522  -0.707   0.343  1.00  0.00     0.049 C 
HETATM    9  C16 UNL     1      -0.474   0.548   1.169  1.00  0.00    -0.008 C 
HETATM   10  C17 UNL     1      -1.461   1.467   1.176  1.00  0.00    -0.015 C 
HETATM   11  C19 UNL     1      -2.724   1.399   0.427  1.00  0.00    -0.010 C 
HETATM   12  C20 UNL     1      -3.511   2.673   0.583  1.00  0.00     0.021 C 
HETATM   13  C21 UNL     1      -3.527   0.326   1.137  1.00  0.00     0.015 C 
HETATM   14  C22 UNL     1      -2.600  -0.695   1.755  1.00  0.00     0.007 C 
HETATM   15  C23 UNL     1      -1.749  -1.396   0.664  1.00  0.00    -0.000 C 
ENDROOT
BRANCH   7  16
HETATM   16  O1  UNL     1       0.114  -1.092  -1.979  1.00  0.00    -0.387 OA
ATOM     17  H1  UNL     1       0.652  -1.822  -1.695  1.00  0.00     0.210 HD
ENDBRANCH   7  16
BRANCH   7  18
HETATM   18  C8  UNL     1       1.202   0.470  -0.812  1.00  0.00     0.206 C 
BRANCH  18  19
HETATM   19  O2  UNL     1       2.098  -0.480  -0.408  1.00  0.00    -0.383 OA
BRANCH  19  20
HETATM   20  C9  UNL     1       3.336   0.059  -0.236  1.00  0.00     0.121 C 
HETATM   21  C10 UNL     1       3.737  -0.143   1.221  1.00  0.00     0.035 C 
HETATM   22  C11 UNL     1       5.050   0.557   1.502  1.00  0.00     0.040 C 
HETATM   23  C12 UNL     1       6.113  -0.207   0.702  1.00  0.00     0.170 C 
HETATM   24  F1  UNL     1       6.128  -1.537   1.056  1.00  0.00    -0.249 F 
HETATM   25  C13 UNL     1       5.755  -0.034  -0.750  1.00  0.00     0.040 C 
HETATM   26  C14 UNL     1       4.405  -0.581  -1.090  1.00  0.00     0.035 C 
ENDBRANCH  19  20
ENDBRANCH  18  19
ENDBRANCH   7  18
BRANCH  10  27
HETATM   27  C18 UNL     1      -1.142   2.563   2.057  1.00  0.00     0.266 C 
HETATM   28  O3  UNL     1      -1.835   3.555   2.285  1.00  0.00    -0.302 OA
ENDBRANCH  10  27
TORSDOF 5
