REMARK  20 active torsions:
REMARK  status: ('A' for Active; 'I' for Inactive)
REMARK    1  A    between atoms: C2_2  and  N1_3 
REMARK    2  A    between atoms: N1_3  and  C3_5 
REMARK    3  A    between atoms: C3_5  and  O1_7 
REMARK    4  A    between atoms: O1_7  and  C4_8 
REMARK    5  A    between atoms: C4_8  and  C5_9 
REMARK    6  A    between atoms: C5_9  and  C6_10 
REMARK    7  A    between atoms: C6_10  and  C7_11 
REMARK    8  A    between atoms: C7_11  and  C8_12 
REMARK    9  A    between atoms: C8_12  and  C9_13 
REMARK   10  A    between atoms: C9_13  and  C10_14 
REMARK   11  A    between atoms: C12_16  and  C13_17 
REMARK   12  A    between atoms: C16_22  and  O2_23 
REMARK   13  A    between atoms: C17_25  and  C18_26 
REMARK   14  A    between atoms: C18_26  and  C19_27 
REMARK   15  A    between atoms: C23_38  and  C24_39 
REMARK   16  A    between atoms: C24_39  and  C25_40 
REMARK   17  A    between atoms: C25_40  and  C26_41 
REMARK   18  A    between atoms: C26_41  and  C27_42 
REMARK   19  A    between atoms: C27_42  and  C28_43 
REMARK   20  A    between atoms: C28_43  and  C29_44 
ROOT
HETATM    1  C10 UNL     1       0.180  -0.286  -0.787  1.00  0.00     0.102 C 
HETATM    2  C11 UNL     1      -0.110   1.061  -0.402  1.00  0.00     0.012 C 
HETATM    3  C12 UNL     1       0.420   2.339  -0.687  1.00  0.00     0.011 C 
HETATM    4  N2  UNL     1      -0.442   3.330  -0.716  1.00  0.00    -0.342 N 
ATOM      5  H2  UNL     1      -0.036   4.243  -0.922  1.00  0.00     0.167 HD
HETATM    6  C16 UNL     1      -1.830   3.338  -0.510  1.00  0.00     0.139 C 
HETATM    7  C17 UNL     1      -2.593   2.883   0.678  1.00  0.00     0.165 C 
HETATM    8  N5  UNL     1      -3.847   2.221   0.360  1.00  0.00    -0.347 N 
ATOM      9  H5  UNL     1      -4.674   2.814   0.428  1.00  0.00     0.163 HD
HETATM   10  C22 UNL     1      -4.098   0.908  -0.022  1.00  0.00     0.241 C 
HETATM   11  O3  UNL     1      -5.211   0.607  -0.526  1.00  0.00    -0.271 OA
HETATM   12  C23 UNL     1      -3.124  -0.249   0.111  1.00  0.00     0.176 C 
HETATM   13  N6  UNL     1      -2.411  -0.498  -1.110  1.00  0.00    -0.347 N 
ATOM     14  H6  UNL     1      -2.967  -0.364  -1.954  1.00  0.00     0.163 HD
HETATM   15  C30 UNL     1      -1.087  -0.892  -1.350  1.00  0.00     0.226 C 
HETATM   16  O6  UNL     1      -0.845  -1.886  -2.138  1.00  0.00    -0.273 OA
ENDROOT
BRANCH   1  17
HETATM   17  C9  UNL     1       0.464  -1.280   0.325  1.00  0.00     0.018 C 
BRANCH  17  18
HETATM   18  C8  UNL     1       1.615  -1.043   1.190  1.00  0.00     0.001 C 
BRANCH  18  19
HETATM   19  C7  UNL     1       2.962  -1.073   0.515  1.00  0.00     0.000 C 
BRANCH  19  20
HETATM   20  C6  UNL     1       3.231  -2.426  -0.123  1.00  0.00     0.002 C 
BRANCH  20  21
HETATM   21  C5  UNL     1       4.589  -2.355  -0.790  1.00  0.00     0.027 C 
BRANCH  21  22
HETATM   22  C4  UNL     1       5.704  -2.048   0.158  1.00  0.00     0.178 C 
BRANCH  22  23
HETATM   23  O1  UNL     1       6.948  -2.015  -0.455  1.00  0.00    -0.327 OA
BRANCH  23  24
HETATM   24  C3  UNL     1       7.416  -1.228  -1.462  1.00  0.00     0.210 C 
HETATM   25  S1  UNL     1       6.720  -1.210  -2.928  1.00  0.00    -0.033 SA
BRANCH  24  26
HETATM   26  N1  UNL     1       8.548  -0.374  -1.284  1.00  0.00    -0.362 N 
ATOM     27  H1  UNL     1       8.882   0.209  -2.051  1.00  0.00     0.162 HD
BRANCH  26  28
HETATM   28  C2  UNL     1       9.205  -0.349  -0.015  1.00  0.00     0.118 C 
HETATM   29  C1  UNL     1       8.365   0.274   1.066  1.00  0.00     0.026 C 
ENDBRANCH  26  28
ENDBRANCH  24  26
ENDBRANCH  23  24
ENDBRANCH  22  23
ENDBRANCH  21  22
ENDBRANCH  20  21
ENDBRANCH  19  20
ENDBRANCH  18  19
ENDBRANCH  17  18
ENDBRANCH   1  17
BRANCH   3  30
HETATM   30  C13 UNL     1       1.841   2.767  -0.965  1.00  0.00     0.027 C 
HETATM   31  C14 UNL     1       2.430   2.047  -2.145  1.00  0.00     0.016 C 
HETATM   32  C15 UNL     1       2.699   2.783   0.262  1.00  0.00     0.016 C 
ENDBRANCH   3  30
BRANCH  12  33
HETATM   33  C24 UNL     1      -4.009  -1.456   0.478  1.00  0.00     0.035 C 
BRANCH  33  34
HETATM   34  C25 UNL     1      -3.232  -2.712   0.659  1.00  0.00     0.002 C 
BRANCH  34  35
HETATM   35  C26 UNL     1      -4.176  -3.834   1.025  1.00  0.00     0.001 C 
BRANCH  35  36
HETATM   36  C27 UNL     1      -5.191  -4.051  -0.047  1.00  0.00     0.010 C 
BRANCH  36  37
HETATM   37  C28 UNL     1      -6.097  -5.207   0.404  1.00  0.00     0.113 C 
BRANCH  37  38
HETATM   38  C29 UNL     1      -7.119  -5.469  -0.614  1.00  0.00     0.172 C 
HETATM   39  O4  UNL     1      -7.133  -4.778  -1.661  1.00  0.00    -0.648 OA
HETATM   40  O5  UNL     1      -8.082  -6.453  -0.477  1.00  0.00    -0.648 OA
ENDBRANCH  37  38
ENDBRANCH  36  37
ENDBRANCH  35  36
ENDBRANCH  34  35
ENDBRANCH  33  34
ENDBRANCH  12  33
BRANCH   6  41
HETATM   41  O2  UNL     1      -2.648   3.785  -1.417  1.00  0.00    -0.348 OA
ATOM     42  H2  UNL     1      -3.588   3.790  -1.278  1.00  0.00     0.219 HD
ENDBRANCH   6  41
BRANCH   7  43
HETATM   43  C18 UNL     1      -2.841   4.062   1.636  1.00  0.00     0.092 C 
BRANCH  43  44
HETATM   44  C19 UNL     1      -3.591   5.164   1.071  1.00  0.00     0.028 A 
HETATM   45  C20 UNL     1      -3.114   6.284   0.394  1.00  0.00     0.114 A 
HETATM   46  N3  UNL     1      -4.171   7.044   0.054  1.00  0.00    -0.360 N 
HETATM   47  C21 UNL     1      -5.292   6.455   0.486  1.00  0.00     0.180 A 
ATOM     48  H3  UNL     1      -4.125   7.928  -0.452  1.00  0.00     0.166 HD
HETATM   49  N4  UNL     1      -4.925   5.327   1.094  1.00  0.00    -0.354 N 
ATOM     50  H4  UNL     1      -5.576   4.669   1.523  1.00  0.00     0.166 HD
ENDBRANCH  43  44
ENDBRANCH   7  43
TORSDOF 20
