REMARK  5 active torsions:
REMARK  status: ('A' for Active; 'I' for Inactive)
REMARK       I    between atoms: C2_2  and  N1_4 
REMARK    1  A    between atoms: N1_4  and  N2_6 
REMARK    2  A    between atoms: N2_6  and  C3_8 
REMARK    3  A    between atoms: C3_8  and  O2_9 
REMARK    4  A    between atoms: C3_8  and  C4_11 
REMARK    5  A    between atoms: C5_14  and  N4_15 
ROOT
HETATM    1  C4  UNL     1       0.476   0.570  -0.091  1.00  0.00     0.094 A 
HETATM    2  N3  UNL     1       1.349   1.642  -0.143  1.00  0.00    -0.332 N 
ATOM      3  H3  UNL     1       0.962   2.578  -0.265  1.00  0.00     0.168 HD
HETATM    4  C5  UNL     1       2.669   1.511  -0.042  1.00  0.00     0.200 A 
HETATM    5  C6  UNL     1       3.174   0.240   0.122  1.00  0.00     0.121 A 
HETATM    6  N5  UNL     1       4.585   0.080   0.235  1.00  0.00    -0.096 NA
HETATM    7  C7  UNL     1       2.381  -0.873   0.182  1.00  0.00     0.082 A 
HETATM    8  N6  UNL     1       2.863  -2.201   0.348  1.00  0.00    -0.100 NA
HETATM    9  C8  UNL     1       0.983  -0.684   0.069  1.00  0.00    -0.005 A 
HETATM   10  C9  UNL     1       0.123  -1.885   0.074  1.00  0.00     0.052 C 
ENDROOT
BRANCH   1  11
HETATM   11  C3  UNL     1      -0.942   0.826  -0.243  1.00  0.00     0.183 C 
BRANCH  11  12
HETATM   12  N2  UNL     1      -2.045   0.150   0.226  1.00  0.00    -0.276 N 
ATOM     13  H2  UNL     1      -1.909  -0.681   0.802  1.00  0.00     0.189 HD
BRANCH  12  14
HETATM   14  N1  UNL     1      -3.343   0.569  -0.064  1.00  0.00    -0.268 N 
HETATM   15  C2  UNL     1      -4.499  -0.046   0.458  1.00  0.00     0.232 C 
HETATM   16  C1  UNL     1      -5.881   0.332   0.203  1.00  0.00     0.119 C 
HETATM   17  O1  UNL     1      -4.282  -1.043   1.238  1.00  0.00    -0.272 OA
ATOM     18  H1  UNL     1      -3.463   1.366  -0.689  1.00  0.00     0.190 HD
ENDBRANCH  12  14
ENDBRANCH  11  12
BRANCH  11  19
HETATM   19  O2  UNL     1      -1.180   1.906  -0.957  1.00  0.00    -0.344 OA
ATOM     20  H2  UNL     1      -0.419   2.373  -1.281  1.00  0.00     0.219 HD
ENDBRANCH  11  19
ENDBRANCH   1  11
BRANCH   4  21
HETATM   21  N4  UNL     1       3.565   2.632  -0.098  1.00  0.00    -0.096 N 
HETATM   22  O3  UNL     1       4.653   2.617   0.547  1.00  0.00    -0.530 OA
HETATM   23  O4  UNL     1       3.314   3.759  -0.835  1.00  0.00    -0.530 OA
ENDBRANCH   4  21
TORSDOF 5
