REMARK  10 active torsions:
REMARK  status: ('A' for Active; 'I' for Inactive)
REMARK    1  A    between atoms: O1_2  and  C2_3 
REMARK    2  A    between atoms: C2_3  and  O3_5 
REMARK    3  A    between atoms: O3_5  and  N1_6 
REMARK    4  A    between atoms: N1_6  and  C3_8 
REMARK    5  A    between atoms: C3_8  and  N2_10 
REMARK    6  A    between atoms: N2_10  and  N3_12 
REMARK    7  A    between atoms: N3_12  and  C4_14 
REMARK    8  A    between atoms: N5_18  and  C6_19 
REMARK    9  A    between atoms: C6_19  and  C7_20 
REMARK   10  A    between atoms: C13_26  and  O4_27 
ROOT
HETATM    1  C4  UNL     1       1.368   1.021  -0.715  1.00  0.00     0.173 A 
HETATM    2  N4  UNL     1       1.340   0.902   0.643  1.00  0.00    -0.334 N 
ATOM      3  H4  UNL     1       2.137   0.682   1.241  1.00  0.00     0.168 HD
HETATM    4  C5  UNL     1       0.079   1.125   1.058  1.00  0.00     0.186 A 
HETATM    5  N5  UNL     1      -0.718   1.387   0.012  1.00  0.00    -0.320 N 
HETATM    6  C13 UNL     1       0.085   1.321  -1.084  1.00  0.00     0.190 A 
ENDROOT
BRANCH   1   7
HETATM    7  N3  UNL     1       2.486   0.868  -1.572  1.00  0.00    -0.280 N 
ATOM      8  H3  UNL     1       2.687   1.570  -2.284  1.00  0.00     0.189 HD
BRANCH   7   9
HETATM    9  N2  UNL     1       3.228  -0.140  -1.447  1.00  0.00    -0.273 N 
ATOM     10  H2  UNL     1       4.038  -0.268  -2.054  1.00  0.00     0.189 HD
BRANCH   9  11
HETATM   11  C3  UNL     1       2.916  -1.097  -0.443  1.00  0.00     0.211 C 
HETATM   12  S1  UNL     1       1.632  -2.092  -0.671  1.00  0.00    -0.037 SA
BRANCH  11  13
HETATM   13  N1  UNL     1       3.709  -1.178   0.728  1.00  0.00    -0.229 N 
ATOM     14  H1  UNL     1       3.489  -1.863   1.451  1.00  0.00     0.197 HD
BRANCH  13  15
HETATM   15  O3  UNL     1       4.765  -0.336   0.881  1.00  0.00    -0.173 OA
BRANCH  15  16
HETATM   16  C2  UNL     1       5.918  -0.474   0.119  1.00  0.00     0.428 C 
HETATM   17  O2  UNL     1       5.963  -1.396  -0.717  1.00  0.00    -0.227 OA
BRANCH  16  18
HETATM   18  O1  UNL     1       7.008   0.364   0.249  1.00  0.00    -0.302 OA
HETATM   19  C1  UNL     1       8.185   0.265  -0.492  1.00  0.00     0.215 C 
ENDBRANCH  16  18
ENDBRANCH  15  16
ENDBRANCH  13  15
ENDBRANCH  11  13
ENDBRANCH   9  11
ENDBRANCH   7   9
ENDBRANCH   1   7
BRANCH   6  20
HETATM   20  O4  UNL     1      -0.373   1.535  -2.369  1.00  0.00    -0.343 OA
ATOM     21  H4  UNL     1      -1.264   1.743  -2.625  1.00  0.00     0.219 HD
ENDBRANCH   6  20
BRANCH   5  22
HETATM   22  C6  UNL     1      -2.142   1.680   0.039  1.00  0.00     0.136 C 
BRANCH  22  23
HETATM   23  C7  UNL     1      -2.936   0.398  -0.080  1.00  0.00     0.004 C 
HETATM   24  C8  UNL     1      -4.421   0.771  -0.046  1.00  0.00     0.006 C 
HETATM   25  C9  UNL     1      -5.131  -0.492  -0.513  1.00  0.00     0.000 C 
HETATM   26  C10 UNL     1      -4.941  -1.578   0.484  1.00  0.00     0.000 C 
HETATM   27  C11 UNL     1      -3.804  -1.448   1.403  1.00  0.00     0.000 C 
HETATM   28  C12 UNL     1      -2.683  -0.565   1.012  1.00  0.00     0.006 C 
ENDBRANCH  22  23
ENDBRANCH   5  22
TORSDOF 10
