REMARK  13 active torsions:
REMARK  status: ('A' for Active; 'I' for Inactive)
REMARK    1  A    between atoms: S1_2  and  C2_5 
REMARK    2  A    between atoms: C4_12  and  C5_13 
REMARK    3  A    between atoms: C5_13  and  S2_14 
REMARK    4  A    between atoms: S2_14  and  C6_17 
REMARK    5  A    between atoms: N4_24  and  C11_25 
REMARK    6  A    between atoms: C11_25  and  C12_26 
REMARK    7  A    between atoms: C12_26  and  O5_27 
REMARK    8  A    between atoms: C12_26  and  C13_29 
REMARK    9  A    between atoms: C13_29  and  N5_30 
REMARK   10  A    between atoms: C16_34  and  O7_35 
REMARK   11  A    between atoms: O7_35  and  S3_36 
REMARK   12  A    between atoms: C20_47  and  N7_48 
REMARK   13  A    between atoms: N7_48  and  O13_50 
ROOT
HETATM    1  C6  UNL     1       1.222   1.461   1.056  1.00  0.00     0.130 A 
HETATM    2  C7  UNL     1       1.457   2.766   1.539  1.00  0.00     0.043 A 
HETATM    3  C8  UNL     1       0.616   3.779   1.215  1.00  0.00     0.020 A 
HETATM    4  C9  UNL     1      -0.482   3.508   0.402  1.00  0.00     0.026 A 
HETATM    5  C10 UNL     1      -1.474   4.244  -0.188  1.00  0.00     0.122 A 
HETATM    6  N3  UNL     1      -2.230   3.407  -0.961  1.00  0.00    -0.307 N 
ATOM      7  H3  UNL     1      -3.032   3.701  -1.519  1.00  0.00     0.186 HD
HETATM    8  N4  UNL     1      -1.793   2.198  -0.889  1.00  0.00    -0.273 N 
HETATM    9  C18 UNL     1      -0.684   2.220  -0.039  1.00  0.00     0.135 A 
HETATM   10  N6  UNL     1       0.154   1.243   0.292  1.00  0.00    -0.331 N 
ATOM     11  H6  UNL     1      -0.026   0.299  -0.049  1.00  0.00     0.168 HD
ENDROOT
BRANCH   1  12
HETATM   12  S2  UNL     1       2.430   0.325   1.419  1.00  0.00     0.195 S 
HETATM   13  O3  UNL     1       1.869  -0.418   2.724  1.00  0.00    -0.221 OA
HETATM   14  O4  UNL     1       3.734   0.847   1.857  1.00  0.00    -0.221 OA
BRANCH  12  15
HETATM   15  C5  UNL     1       2.508  -1.046   0.262  1.00  0.00     0.189 C 
BRANCH  15  16
HETATM   16  C4  UNL     1       3.974  -1.336   0.272  1.00  0.00     0.002 A 
HETATM   17  C3  UNL     1       4.651  -2.461   0.383  1.00  0.00     0.107 A 
HETATM   18  N1  UNL     1       5.982  -2.511   0.120  1.00  0.00    -0.331 N 
HETATM   19  N2  UNL     1       4.017  -3.531   0.766  1.00  0.00    -0.385 N 
HETATM   20  C2  UNL     1       6.669  -1.401  -0.273  1.00  0.00     0.158 A 
ATOM     21  H1  UNL     1       6.478  -3.397   0.218  1.00  0.00     0.168 HD
HETATM   22  C20 UNL     1       6.040  -0.199  -0.422  1.00  0.00     0.093 A 
HETATM   23  C19 UNL     1       4.698  -0.169  -0.148  1.00  0.00     0.046 A 
ATOM     24  H22 UNL     1       4.541  -4.402   0.852  1.00  0.00     0.157 HD
ATOM     25  H21 UNL     1       3.017  -3.493   0.964  1.00  0.00     0.157 HD
BRANCH  20  26
HETATM   26  S1  UNL     1       8.385  -1.537  -0.561  1.00  0.00     0.189 S 
HETATM   27  C1  UNL     1       9.269  -0.238   0.285  1.00  0.00     0.168 C 
HETATM   28  O1  UNL     1       8.888  -2.833   0.076  1.00  0.00    -0.221 OA
HETATM   29  O2  UNL     1       8.682  -1.573  -1.999  1.00  0.00    -0.221 OA
ENDBRANCH  20  26
BRANCH  22  30
HETATM   30  N7  UNL     1       6.724   0.956  -0.881  1.00  0.00    -0.266 N 
ATOM     31  H7  UNL     1       7.115   1.019  -1.821  1.00  0.00     0.194 HD
BRANCH  30  32
HETATM   32  O13 UNL     1       6.823   1.974   0.017  1.00  0.00    -0.289 OA
ATOM     33  H13 UNL     1       7.281   2.747  -0.290  1.00  0.00     0.244 HD
ENDBRANCH  30  32
ENDBRANCH  22  30
ENDBRANCH  15  16
ENDBRANCH  12  15
ENDBRANCH   1  12
BRANCH   8  34
HETATM   34  C11 UNL     1      -2.318   0.920  -1.321  1.00  0.00     0.188 C 
BRANCH  34  35
HETATM   35  C12 UNL     1      -3.712   0.793  -0.650  1.00  0.00     0.177 C 
BRANCH  35  36
HETATM   36  O5  UNL     1      -3.254   1.123   0.736  1.00  0.00    -0.389 OA
ATOM     37  H5  UNL     1      -4.107   1.045   1.147  1.00  0.00     0.210 HD
ENDBRANCH  35  36
BRANCH  35  38
HETATM   38  C13 UNL     1      -4.054  -0.648  -0.432  1.00  0.00     0.112 C 
BRANCH  38  39
HETATM   39  N5  UNL     1      -5.356  -1.000  -0.032  1.00  0.00    -0.236 N 
HETATM   40  C14 UNL     1      -5.968  -1.956  -0.803  1.00  0.00     0.260 A 
HETATM   41  O6  UNL     1      -5.352  -2.516  -1.735  1.00  0.00    -0.267 OA
HETATM   42  C15 UNL     1      -7.258  -2.331  -0.579  1.00  0.00     0.140 A 
HETATM   43  C16 UNL     1      -7.993  -1.747   0.436  1.00  0.00     0.215 A 
HETATM   44  O11 UNL     1      -7.365  -0.840   1.138  1.00  0.00    -0.236 OA
HETATM   45  C17 UNL     1      -6.098  -0.468   0.928  1.00  0.00     0.380 A 
HETATM   46  O12 UNL     1      -5.670   0.406   1.685  1.00  0.00    -0.237 OA
BRANCH  43  47
HETATM   47  O7  UNL     1      -9.289  -2.086   0.698  1.00  0.00    -0.188 OA
BRANCH  47  48
HETATM   48  S3  UNL     1     -10.506  -1.423  -0.264  1.00  0.00     0.258 S 
HETATM   49  O8  UNL     1     -11.881  -1.663   0.322  1.00  0.00    -0.572 OA
HETATM   50  O9  UNL     1     -10.484  -2.221  -1.577  1.00  0.00    -0.572 OA
HETATM   51  O10 UNL     1     -10.271   0.180  -0.601  1.00  0.00    -0.572 OA
ENDBRANCH  47  48
ENDBRANCH  43  47
ENDBRANCH  38  39
ENDBRANCH  35  38
ENDBRANCH  34  35
ENDBRANCH   8  34
TORSDOF 13
