REMARK  9 active torsions:
REMARK  status: ('A' for Active; 'I' for Inactive)
REMARK    1  A    between atoms: C2_2  and  C3_3 
REMARK    2  A    between atoms: C2_2  and  N8_27 
REMARK    3  A    between atoms: C4_4  and  N1_5 
REMARK    4  A    between atoms: N1_5  and  N2_7 
REMARK    5  A    between atoms: N2_7  and  N3_8 
REMARK    6  A    between atoms: N4_15  and  C8_16 
REMARK    7  A    between atoms: C8_16  and  N5_17 
REMARK    8  A    between atoms: C8_16  and  C9_21 
REMARK    9  A    between atoms: N7_23  and  O2_25 
ROOT
HETATM    1  C3  UNL     1       0.502   0.689  -0.424  1.00  0.00     0.086 A 
HETATM    2  C4  UNL     1       0.079   2.058  -0.322  1.00  0.00     0.091 A 
HETATM    3  C5  UNL     1       0.798   3.092   0.064  1.00  0.00     0.040 A 
HETATM    4  C6  UNL     1       2.120   2.842   0.437  1.00  0.00     0.077 A 
HETATM    5  C7  UNL     1       2.546   1.527   0.362  1.00  0.00     0.250 A 
HETATM    6  O1  UNL     1       3.723   1.403   0.720  1.00  0.00    -0.268 OA
HETATM    7  N4  UNL     1       1.770   0.462  -0.055  1.00  0.00    -0.275 N 
ENDROOT
BRANCH   7   8
HETATM    8  C8  UNL     1       2.225  -0.809   0.215  1.00  0.00     0.358 C 
BRANCH   8   9
HETATM    9  N5  UNL     1       2.234  -0.877   1.766  1.00  0.00    -0.051 N 
ATOM     10  H53 UNL     1       2.768  -0.134   2.217  1.00  0.00     0.277 HD
ATOM     11  H52 UNL     1       1.341  -0.648   2.202  1.00  0.00     0.277 HD
ATOM     12  H51 UNL     1       2.571  -1.819   1.966  1.00  0.00     0.277 HD
ENDBRANCH   8   9
BRANCH   8  13
HETATM   13  C9  UNL     1       3.438  -1.425  -0.232  1.00  0.00     0.163 C 
HETATM   14  N6  UNL     1       4.782  -1.111   0.063  1.00  0.00    -0.082 NA
HETATM   15  N7  UNL     1       3.378  -2.505  -1.023  1.00  0.00    -0.256 N 
ATOM     16  H7  UNL     1       2.471  -2.882  -1.298  1.00  0.00     0.195 HD
BRANCH  15  17
HETATM   17  O2  UNL     1       4.538  -3.111  -1.469  1.00  0.00    -0.289 OA
ATOM     18  H2  UNL     1       4.495  -3.877  -2.030  1.00  0.00     0.244 HD
ENDBRANCH  15  17
ENDBRANCH   8  13
ENDBRANCH   7   8
BRANCH   1  19
HETATM   19  C2  UNL     1      -0.452  -0.254  -0.963  1.00  0.00     0.013 C 
HETATM   20  C1  UNL     1      -0.047  -1.450  -1.756  1.00  0.00     0.064 C 
BRANCH  19  21
HETATM   21  N8  UNL     1      -1.604  -0.517  -0.102  1.00  0.00    -0.282 NA
HETATM   22  C10 UNL     1      -1.495  -1.552   0.842  1.00  0.00     0.123 C 
HETATM   23  C11 UNL     1      -2.917  -1.873   1.363  1.00  0.00     0.247 C 
HETATM   24  N9  UNL     1      -3.695  -0.655   1.471  1.00  0.00    -0.073 N 
HETATM   25  C12 UNL     1      -3.962  -0.154   0.129  1.00  0.00     0.247 C 
ATOM     26  H92 UNL     1      -4.547  -0.782   2.017  1.00  0.00     0.277 HD
ATOM     27  H91 UNL     1      -3.249   0.042   2.067  1.00  0.00     0.277 HD
HETATM   28  C13 UNL     1      -2.854  -0.653  -0.780  1.00  0.00     0.123 C 
ENDBRANCH  19  21
ENDBRANCH   1  19
BRANCH   2  29
HETATM   29  N1  UNL     1      -1.337   2.281  -0.522  1.00  0.00    -0.214 N 
ATOM     30  H1  UNL     1      -1.910   1.460  -0.717  1.00  0.00     0.204 HD
BRANCH  29  31
HETATM   31  N2  UNL     1      -1.887   3.312  -0.481  1.00  0.00    -0.243 NA
BRANCH  31  32
HETATM   32  N3  UNL     1      -2.455   4.470  -0.426  1.00  0.00    -0.260 N 
ATOM     33  H32 UNL     1      -1.451   4.409  -0.254  1.00  0.00     0.193 HD
ATOM     34  H31 UNL     1      -2.935   5.369  -0.390  1.00  0.00     0.193 HD
ENDBRANCH  31  32
ENDBRANCH  29  31
ENDBRANCH   2  29
TORSDOF 9
