REMARK  5 active torsions:
REMARK  status: ('A' for Active; 'I' for Inactive)
REMARK    1  A    between atoms: C2_2  and  C4_4 
REMARK    2  A    between atoms: C4_4  and  O1_5 
REMARK    3  A    between atoms: C5_7  and  N1_8 
REMARK    4  A    between atoms: C5_7  and  C9_13 
REMARK    5  A    between atoms: N1_8  and  C6_10 
ROOT
HETATM    1  C4  UNL     1      -0.878   0.488   0.321  1.00  0.00     0.078 C 
HETATM    2  C5  UNL     1       0.453   0.988   0.224  1.00  0.00     0.123 C 
ENDROOT
BRANCH   2   3
HETATM    3  N1  UNL     1       1.601   0.543   0.882  1.00  0.00    -0.379 N 
ATOM      4  H1  UNL     1       1.782   0.818   1.847  1.00  0.00     0.160 HD
BRANCH   3   5
HETATM    5  C6  UNL     1       2.505  -0.290   0.196  1.00  0.00     0.082 A 
HETATM    6  C7  UNL     1       2.098  -1.662  -0.245  1.00  0.00     0.027 A 
HETATM    7  C8  UNL     1       3.259  -1.437   0.674  1.00  0.00     0.027 A 
ENDBRANCH   3   5
ENDBRANCH   2   3
BRANCH   2   8
HETATM    8  C9  UNL     1       0.507   2.474   0.182  1.00  0.00     0.283 C 
HETATM    9  N2  UNL     1      -0.046   3.304  -0.788  1.00  0.00    -0.056 NA
HETATM   10  O2  UNL     1       1.137   3.049   1.129  1.00  0.00    -0.269 OA
ENDBRANCH   2   8
BRANCH   1  11
HETATM   11  C2  UNL     1      -1.425  -0.851   0.266  1.00  0.00     0.036 C 
HETATM   12  C1  UNL     1      -1.475  -1.454  -1.142  1.00  0.00     0.016 C 
HETATM   13  C3  UNL     1      -2.915  -0.726   0.682  1.00  0.00     0.016 C 
ENDBRANCH   1  11
BRANCH   1  14
HETATM   14  O1  UNL     1      -1.740   1.274  -0.527  1.00  0.00    -0.362 OA
ATOM     15  H1  UNL     1      -1.381   2.153  -0.491  1.00  0.00     0.217 HD
ENDBRANCH   1  14
TORSDOF 5
