REMARK  2 active torsions:
REMARK  status: ('A' for Active; 'I' for Inactive)
REMARK    1  A    between atoms: C5_6  and  N2_7 
REMARK    2  A    between atoms: N3_15  and  O1_16 
ROOT
HETATM    1  C1  UNL     1       4.052   1.110   0.147  1.00  0.00     0.052 C 
HETATM    2  C2  UNL     1       2.815   0.314   0.130  1.00  0.00    -0.015 C 
HETATM    3  C3  UNL     1       2.784  -0.898   0.810  1.00  0.00     0.056 C 
HETATM    4  N1  UNL     1       3.878  -1.144   1.657  1.00  0.00    -0.102 NA
HETATM    5  C4  UNL     1       1.806  -1.903   0.755  1.00  0.00     0.057 C 
HETATM    6  C5  UNL     1       0.566  -1.798   0.155  1.00  0.00     0.041 C 
HETATM    7  C6  UNL     1      -0.094  -0.618  -0.108  1.00  0.00     0.032 A 
HETATM    8  C7  UNL     1      -1.461  -0.767  -0.002  1.00  0.00    -0.017 A 
HETATM    9  C8  UNL     1      -2.224   0.357  -0.262  1.00  0.00    -0.022 A 
HETATM   10  C9  UNL     1      -1.639   1.554  -0.603  1.00  0.00     0.044 A 
HETATM   11  C10 UNL     1      -2.495   2.732  -0.873  1.00  0.00     0.071 C 
HETATM   12  N3  UNL     1      -0.305   1.706  -0.705  1.00  0.00    -0.227 N 
HETATM   13  C11 UNL     1       0.440   0.633  -0.461  1.00  0.00     0.097 A 
HETATM   14  C12 UNL     1       1.789   0.889  -0.605  1.00  0.00     0.082 C 
HETATM   15  C13 UNL     1       2.125   1.822  -1.642  1.00  0.00     0.102 C 
HETATM   16  N4  UNL     1       2.447   2.566  -2.515  1.00  0.00    -0.191 NA
HETATM   17  C14 UNL     1      -3.662  -0.015  -0.110  1.00  0.00     0.045 C 
HETATM   18  C15 UNL     1      -3.622  -1.243   0.773  1.00  0.00     0.033 C 
HETATM   19  C16 UNL     1      -2.302  -1.843   0.348  1.00  0.00    -0.013 C 
ENDROOT
BRANCH  12  20
HETATM   20  O1  UNL     1       0.278   2.893  -1.006  1.00  0.00    -0.282 OA
ATOM     21  H1  UNL     1       1.219   3.000  -1.078  1.00  0.00     0.245 HD
ENDBRANCH  12  20
BRANCH   6  22
HETATM   22  N2  UNL     1      -0.074  -2.834  -0.235  1.00  0.00    -0.398 N 
ATOM     23  H22 UNL     1       0.415  -3.708  -0.040  1.00  0.00     0.156 HD
ATOM     24  H21 UNL     1      -0.990  -2.756  -0.678  1.00  0.00     0.156 HD
ENDBRANCH   6  22
TORSDOF 2
