REMARK  0 active torsions:
REMARK  status: ('A' for Active; 'I' for Inactive)
ROOT
HETATM    1  O1  UNL     1       0.008   0.520   3.229  1.00  0.00    -0.205 OA
HETATM    2  S1  UNL     1      -0.860  -0.174   2.179  1.00  0.00     0.234 S 
HETATM    3  O2  UNL     1      -1.537  -1.307   2.949  1.00  0.00    -0.205 OA
HETATM    4  N1  UNL     1      -1.977   0.877   1.622  1.00  0.00    -0.314 N 
ATOM      5  H1  UNL     1      -2.398   1.531   2.282  1.00  0.00     0.172 HD
HETATM    6  C1  UNL     1      -2.385   0.926   0.290  1.00  0.00     0.093 C 
HETATM    7  C2  UNL     1      -2.658  -0.363  -0.388  1.00  0.00     0.031 C 
HETATM    8  C3  UNL     1      -1.537  -0.580  -1.370  1.00  0.00    -0.008 C 
HETATM    9  C4  UNL     1      -0.761  -1.819  -1.109  1.00  0.00     0.006 C 
HETATM   10  C5  UNL     1      -0.378  -2.089   0.290  1.00  0.00     0.026 C 
HETATM   11  C6  UNL     1       0.243  -0.947   1.037  1.00  0.00     0.175 C 
HETATM   12  C7  UNL     1       1.105  -0.057   0.268  1.00  0.00     0.192 C 
HETATM   13  C8  UNL     1       0.727   0.468  -1.023  1.00  0.00     0.057 C 
HETATM   14  C9  UNL     1      -0.704   0.647  -1.370  1.00  0.00    -0.005 C 
HETATM   15  C10 UNL     1      -1.375   1.693  -0.525  1.00  0.00     0.031 C 
HETATM   16  N2  UNL     1       2.444  -0.667   0.105  1.00  0.00    -0.055 N 
ATOM     17  H21 UNL     1       2.444  -1.489  -0.499  1.00  0.00     0.279 HD
ATOM     18  H22 UNL     1       2.784  -1.130   0.948  1.00  0.00     0.279 HD
HETATM   19  C11 UNL     1       3.308   0.381  -0.358  1.00  0.00     0.244 C 
HETATM   20  C12 UNL     1       3.340   1.453   0.709  1.00  0.00     0.104 C 
HETATM   21  S2  UNL     1       1.635   1.311   1.379  1.00  0.00    -0.127 SA
ENDROOT
TORSDOF 0
