REMARK  8 active torsions:
REMARK  status: ('A' for Active; 'I' for Inactive)
REMARK    1  A    between atoms: N1_2  and  C2_4 
REMARK    2  A    between atoms: C2_4  and  N2_6 
REMARK    3  A    between atoms: C3_8  and  C4_9 
REMARK    4  A    between atoms: C4_9  and  N3_10 
REMARK       I    between atoms: N3_10  and  C5_12 
REMARK       I    between atoms: C5_12  and  N4_14 
REMARK    5  A    between atoms: N4_14  and  N5_16 
REMARK    6  A    between atoms: N5_16  and  C6_18 
REMARK    7  A    between atoms: C6_18  and  N6_20 
REMARK    8  A    between atoms: N6_20  and  N7_22 
ROOT
HETATM    1  N3  UNL     1      -0.005   1.012  -0.007  1.00  0.00    -0.337 N 
ATOM      2  H3  UNL     1       0.169   0.007   0.007  1.00  0.00     0.164 HD
HETATM    3  C5  UNL     1      -1.326   1.498  -0.126  1.00  0.00     0.335 C 
HETATM    4  O1  UNL     1      -1.539   2.731  -0.144  1.00  0.00    -0.246 OA
HETATM    5  N4  UNL     1      -2.406   0.569  -0.227  1.00  0.00    -0.249 N 
ATOM      6  H4  UNL     1      -2.226  -0.435  -0.212  1.00  0.00     0.192 HD
ENDROOT
BRANCH   1   7
HETATM    7  C4  UNL     1       1.091   1.929   0.094  1.00  0.00     0.169 C 
BRANCH   7   8
HETATM    8  C3  UNL     1       2.355   1.168   0.205  1.00  0.00     0.083 C 
HETATM    9  N2  UNL     1       2.963   0.671  -0.812  1.00  0.00    -0.345 N 
ATOM     10  H2  UNL     1       2.581   0.790  -1.750  1.00  0.00     0.167 HD
BRANCH   9  11
HETATM   11  C2  UNL     1       4.173  -0.046  -0.615  1.00  0.00     0.171 C 
HETATM   12  S1  UNL     1       5.420   0.335  -1.591  1.00  0.00    -0.041 SA
BRANCH  11  13
HETATM   13  N1  UNL     1       4.333  -1.051   0.369  1.00  0.00    -0.371 N 
HETATM   14  C1  UNL     1       5.616  -1.718   0.481  1.00  0.00     0.148 C 
ATOM     15  H1  UNL     1       3.561  -1.301   0.987  1.00  0.00     0.161 HD
ENDBRANCH  11  13
ENDBRANCH   9  11
ENDBRANCH   7   8
ENDBRANCH   1   7
BRANCH   5  16
HETATM   16  N5  UNL     1      -3.721   1.055  -0.347  1.00  0.00    -0.271 N 
ATOM     17  H5  UNL     1      -3.890   2.056  -0.444  1.00  0.00     0.189 HD
BRANCH  16  18
HETATM   18  C6  UNL     1      -4.794   0.160  -0.333  1.00  0.00     0.210 C 
HETATM   19  S2  UNL     1      -6.311   0.737  -0.478  1.00  0.00    -0.038 SA
BRANCH  18  20
HETATM   20  N6  UNL     1      -4.602  -1.227  -0.198  1.00  0.00    -0.214 N 
ATOM     21  H6  UNL     1      -3.651  -1.585  -0.106  1.00  0.00     0.195 HD
BRANCH  20  22
HETATM   22  N7  UNL     1      -5.672  -2.137  -0.185  1.00  0.00    -0.037 N 
HETATM   23  O2  UNL     1      -5.463  -3.347  -0.368  1.00  0.00    -0.516 OA
HETATM   24  O3  UNL     1      -6.968  -1.704   0.033  1.00  0.00    -0.516 OA
ENDBRANCH  20  22
ENDBRANCH  18  20
ENDBRANCH  16  18
ENDBRANCH   5  16
TORSDOF 8
