REMARK  6 active torsions:
REMARK  status: ('A' for Active; 'I' for Inactive)
REMARK    1  A    between atoms: C2_2  and  O1_5 
REMARK    2  A    between atoms: O1_5  and  C5_6 
REMARK       I    between atoms: C5_6  and  N1_8 
REMARK    3  A    between atoms: N1_8  and  C6_10 
REMARK    4  A    between atoms: C6_10  and  C7_11 
REMARK    5  A    between atoms: C6_10  and  C9_19 
REMARK    6  A    between atoms: N2_12  and  N3_14 
REMARK       I    between atoms: C9_19  and  N6_21 
ROOT
HETATM    1  C6  UNL     1       0.631   0.962  -0.073  1.00  0.00     0.219 C 
ENDROOT
BRANCH   1   2
HETATM    2  N1  UNL     1      -0.778   0.955   0.244  1.00  0.00    -0.319 N 
HETATM    3  C5  UNL     1      -1.516  -0.247   0.414  1.00  0.00     0.362 C 
HETATM    4  O2  UNL     1      -0.893  -1.338   0.277  1.00  0.00    -0.238 OA
ATOM      5  H1  UNL     1      -1.262   1.847   0.350  1.00  0.00     0.166 HD
BRANCH   3   6
HETATM    6  O1  UNL     1      -2.853  -0.220   0.715  1.00  0.00    -0.294 OA
BRANCH   6   7
HETATM    7  C2  UNL     1      -3.538  -1.447   0.872  1.00  0.00     0.061 C 
HETATM    8  C1  UNL     1      -5.005  -1.176   1.202  1.00  0.00     0.046 C 
HETATM    9  C3  UNL     1      -2.929  -2.148   2.069  1.00  0.00     0.046 C 
HETATM   10  C4  UNL     1      -3.495  -2.297  -0.361  1.00  0.00     0.046 C 
ENDBRANCH   6   7
ENDBRANCH   3   6
ENDBRANCH   1   2
BRANCH   1  11
HETATM   11  C7  UNL     1       0.921   1.623  -1.358  1.00  0.00     0.115 C 
HETATM   12  N2  UNL     1       1.803   1.127  -2.130  1.00  0.00    -0.311 N 
ATOM     13  H2  UNL     1       2.020   1.567  -3.024  1.00  0.00     0.185 HD
BRANCH  12  14
HETATM   14  N3  UNL     1       2.464  -0.028  -1.727  1.00  0.00    -0.277 N 
HETATM   15  C8  UNL     1       2.582  -1.091  -2.424  1.00  0.00     0.215 C 
HETATM   16  N4  UNL     1       2.009  -1.140  -3.710  1.00  0.00    -0.065 NA
HETATM   17  N5  UNL     1       3.282  -2.194  -1.889  1.00  0.00    -0.065 NA
ATOM     18  H3  UNL     1       2.889  -0.026  -0.800  1.00  0.00     0.189 HD
ENDBRANCH  12  14
ENDBRANCH   1  11
BRANCH   1  19
HETATM   19  C9  UNL     1       1.434   1.574   1.027  1.00  0.00     0.251 C 
HETATM   20  O3  UNL     1       0.915   2.016   2.082  1.00  0.00    -0.270 OA
HETATM   21  N6  UNL     1       2.841   1.668   0.892  1.00  0.00    -0.301 N 
HETATM   22  C10 UNL     1       3.412   2.821   0.927  1.00  0.00     0.203 C 
ATOM     23  H6  UNL     1       3.400   0.824   0.767  1.00  0.00     0.171 HD
HETATM   24  N7  UNL     1       2.624   3.985   1.099  1.00  0.00    -0.066 NA
HETATM   25  N8  UNL     1       4.824   2.968   0.796  1.00  0.00    -0.066 NA
ENDBRANCH   1  19
TORSDOF 6
