REMARK  4 active torsions:
REMARK  status: ('A' for Active; 'I' for Inactive)
REMARK       I    between atoms: N1_2  and  C2_4 
REMARK       I    between atoms: C2_4  and  N4_9 
REMARK    1  A    between atoms: C8_15  and  N5_16 
REMARK    2  A    between atoms: N5_16  and  C9_18 
REMARK    3  A    between atoms: C10_21  and  C11_22 
REMARK    4  A    between atoms: C11_22  and  O2_23 
ROOT
HETATM    1  C1  UNL     1      -3.835   2.506  -0.464  1.00  0.00     0.165 C 
HETATM    2  N1  UNL     1      -3.517   1.410   0.424  1.00  0.00    -0.228 N 
ATOM      3  H1  UNL     1      -3.850   1.458   1.387  1.00  0.00     0.177 HD
HETATM    4  C2  UNL     1      -2.767   0.271   0.029  1.00  0.00     0.709 C 
HETATM    5  N2  UNL     1      -3.396  -0.737  -0.448  1.00  0.00    -0.124 N 
ATOM      6  H2  UNL     1      -2.868  -1.561  -0.735  1.00  0.00     0.197 HD
HETATM    7  C3  UNL     1      -4.784  -0.738  -0.586  1.00  0.00     0.196 C 
HETATM    8  N3  UNL     1      -5.945  -0.725  -0.712  1.00  0.00    -0.171 NA
HETATM    9  N4  UNL     1      -1.353   0.219   0.148  1.00  0.00    -0.076 N 
HETATM   10  O1  UNL     1      -0.404   0.871  -0.580  1.00  0.00    -0.248 OA
HETATM   11  C4  UNL     1       0.472  -0.137  -0.165  1.00  0.00     0.135 C 
HETATM   12  C5  UNL     1       0.545  -1.241  -1.216  1.00  0.00     0.045 C 
HETATM   13  C6  UNL     1       1.693  -0.686  -2.072  1.00  0.00     0.005 C 
HETATM   14  C7  UNL     1       2.698  -0.405  -0.978  1.00  0.00     0.028 C 
HETATM   15  C8  UNL     1       1.848   0.377   0.022  1.00  0.00     0.123 C 
HETATM   16  C10 UNL     1      -0.374  -0.472   1.002  1.00  0.00     0.196 C 
ENDROOT
BRANCH  16  17
HETATM   17  C11 UNL     1      -0.798  -1.924   1.119  1.00  0.00     0.195 C 
BRANCH  17  18
HETATM   18  O2  UNL     1       0.081  -2.651   1.916  1.00  0.00    -0.399 OA
ATOM     19  H2  UNL     1      -0.184  -3.560   1.989  1.00  0.00     0.209 HD
ENDBRANCH  17  18
ENDBRANCH  16  17
BRANCH  15  20
HETATM   20  N5  UNL     1       2.357   0.291   1.346  1.00  0.00    -0.362 N 
ATOM     21  H5  UNL     1       1.797  -0.155   2.073  1.00  0.00     0.162 HD
BRANCH  20  22
HETATM   22  C9  UNL     1       3.623   0.812   1.668  1.00  0.00     0.181 C 
HETATM   23  N6  UNL     1       4.406   1.434   0.668  1.00  0.00    -0.070 NA
HETATM   24  S1  UNL     1       4.247   0.732   3.175  1.00  0.00    -0.044 SA
ENDBRANCH  20  22
ENDBRANCH  15  20
TORSDOF 4
