REMARK  7 active torsions:
REMARK  status: ('A' for Active; 'I' for Inactive)
REMARK    1  A    between atoms: C2_2  and  C3_3 
REMARK    2  A    between atoms: C3_3  and  O1_4 
REMARK    3  A    between atoms: C5_8  and  C6_9 
REMARK       I    between atoms: C6_9  and  N1_11 
REMARK    4  A    between atoms: N1_11  and  C7_13 
REMARK    5  A    between atoms: C7_13  and  C8_14 
REMARK    6  A    between atoms: C7_13  and  C9_17 
REMARK    7  A    between atoms: C13_21  and  O6_22 
ROOT
HETATM    1  C3  UNL     1       3.071  -0.058   0.192  1.00  0.00     0.104 C 
HETATM    2  C4  UNL     1       2.312   0.687   1.281  1.00  0.00     0.209 C 
HETATM    3  O2  UNL     1       1.064   0.115   1.516  1.00  0.00    -0.373 OA
HETATM    4  C5  UNL     1       0.293   0.342   0.379  1.00  0.00     0.215 C 
HETATM    5  C12 UNL     1       0.887  -0.304  -0.854  1.00  0.00     0.076 C 
HETATM    6  C13 UNL     1       2.120  -1.084  -0.389  1.00  0.00     0.157 C 
ENDROOT
BRANCH   4   7
HETATM    7  C6  UNL     1      -1.080  -0.161   0.531  1.00  0.00     0.247 C 
HETATM    8  O3  UNL     1      -1.430  -0.718   1.599  1.00  0.00    -0.271 OA
HETATM    9  N1  UNL     1      -2.039  -0.038  -0.502  1.00  0.00    -0.344 N 
ATOM     10  H1  UNL     1      -1.768   0.413  -1.376  1.00  0.00     0.163 HD
BRANCH   9  11
HETATM   11  C7  UNL     1      -3.391  -0.531  -0.358  1.00  0.00     0.189 C 
BRANCH  11  12
HETATM   12  C8  UNL     1      -3.719  -1.520  -1.402  1.00  0.00     0.197 C 
HETATM   13  O4  UNL     1      -2.878  -1.828  -2.257  1.00  0.00    -0.646 OA
HETATM   14  O5  UNL     1      -4.965  -2.090  -1.413  1.00  0.00    -0.646 OA
ENDBRANCH  11  12
BRANCH  11  15
HETATM   15  C9  UNL     1      -4.419   0.570  -0.457  1.00  0.00     0.019 A 
HETATM   16  C10 UNL     1      -4.437   1.709   0.479  1.00  0.00     0.007 A 
HETATM   17  C11 UNL     1      -3.845   1.916  -0.869  1.00  0.00     0.007 A 
ENDBRANCH  11  15
ENDBRANCH   9  11
ENDBRANCH   4   7
BRANCH   6  18
HETATM   18  O6  UNL     1       2.645  -1.755  -1.470  1.00  0.00    -0.392 OA
ATOM     19  H6  UNL     1       2.049  -2.398  -1.834  1.00  0.00     0.210 HD
ENDBRANCH   6  18
BRANCH   1  20
HETATM   20  C2  UNL     1       4.280  -0.734   0.801  1.00  0.00     0.038 C 
HETATM   21  C1  UNL     1       5.218   0.287   1.357  1.00  0.00     0.008 C 
ENDBRANCH   1  20
BRANCH   1  22
HETATM   22  O1  UNL     1       3.438   0.802  -0.841  1.00  0.00    -0.385 OA
ATOM     23  H1  UNL     1       2.679   1.226  -1.223  1.00  0.00     0.210 HD
ENDBRANCH   1  22
TORSDOF 7
