REMARK  5 active torsions:
REMARK  status: ('A' for Active; 'I' for Inactive)
REMARK    1  A    between atoms: N1_2  and  C2_3 
REMARK    2  A    between atoms: N1_2  and  C15_20 
REMARK    3  A    between atoms: C5_6  and  C6_7 
REMARK       I    between atoms: C6_7  and  N2_9 
REMARK    4  A    between atoms: N2_9  and  C7_11 
REMARK    5  A    between atoms: C7_11  and  C8_12 
ROOT
HETATM    1  C2  UNL     1      -2.113  -0.033  -0.055  1.00  0.00     0.082 C 
HETATM    2  C3  UNL     1      -1.285   0.104   1.235  1.00  0.00     0.053 C 
HETATM    3  C4  UNL     1       0.118  -0.086   0.788  1.00  0.00    -0.012 C 
HETATM    4  C5  UNL     1       0.356  -1.081  -0.027  1.00  0.00     0.006 C 
HETATM    5  C13 UNL     1      -0.718  -2.007  -0.495  1.00  0.00     0.046 C 
HETATM    6  C14 UNL     1      -2.111  -1.481  -0.392  1.00  0.00     0.030 C 
ENDROOT
BRANCH   4   7
HETATM    7  C6  UNL     1       1.692  -1.331  -0.508  1.00  0.00     0.247 C 
HETATM    8  O1  UNL     1       1.853  -2.324  -1.304  1.00  0.00    -0.268 OA
HETATM    9  N2  UNL     1       2.781  -0.529  -0.130  1.00  0.00    -0.357 N 
ATOM     10  H2  UNL     1       2.657   0.260   0.504  1.00  0.00     0.162 HD
BRANCH   9  11
HETATM   11  C7  UNL     1       4.095  -0.858  -0.671  1.00  0.00     0.127 C 
BRANCH  11  12
HETATM   12  C8  UNL     1       5.127   0.116  -0.148  1.00  0.00     0.007 C 
HETATM   13  C9  UNL     1       6.507  -0.196  -0.695  1.00  0.00     0.032 C 
HETATM   14  C10 UNL     1       7.455   0.843  -0.153  1.00  0.00     0.168 C 
HETATM   15  O2  UNL     1       6.801   1.786   0.648  1.00  0.00    -0.391 OA
HETATM   16  C11 UNL     1       6.233   1.156   1.764  1.00  0.00     0.168 C 
HETATM   17  C12 UNL     1       5.220   0.112   1.351  1.00  0.00     0.032 C 
ENDBRANCH  11  12
ENDBRANCH   9  11
ENDBRANCH   4   7
BRANCH   1  18
HETATM   18  N1  UNL     1      -3.355   0.574   0.119  1.00  0.00    -0.408 N 
HETATM   19  C1  UNL     1      -3.298   1.962   0.337  1.00  0.00     0.144 C 
BRANCH  18  20
HETATM   20  C15 UNL     1      -4.557  -0.024  -0.186  1.00  0.00     0.079 C 
HETATM   21  C16 UNL     1      -5.628   0.077   0.893  1.00  0.00     0.025 C 
HETATM   22  C17 UNL     1      -6.951  -0.004   0.158  1.00  0.00     0.002 C 
HETATM   23  C18 UNL     1      -6.668   0.126  -1.314  1.00  0.00     0.002 C 
HETATM   24  C19 UNL     1      -5.274   0.755  -1.301  1.00  0.00     0.025 C 
ENDBRANCH  18  20
ENDBRANCH   1  18
TORSDOF 5
