REMARK  11 active torsions:
REMARK  status: ('A' for Active; 'I' for Inactive)
REMARK    1  A    between atoms: C2_2  and  O1_3 
REMARK    2  A    between atoms: O1_3  and  C3_4 
REMARK    3  A    between atoms: C3_4  and  C4_5 
REMARK    4  A    between atoms: C4_5  and  N1_6 
REMARK    5  A    between atoms: N1_6  and  C5_8 
REMARK    6  A    between atoms: C6_11  and  N3_12 
REMARK    7  A    between atoms: C9_16  and  C10_17 
REMARK    8  A    between atoms: N5_18  and  N6_20 
REMARK    9  A    between atoms: N6_20  and  C11_22 
REMARK   10  A    between atoms: C14_29  and  O2_30 
REMARK   11  A    between atoms: C15_32  and  C16_33 
ROOT
HETATM    1  N3  UNL     1       0.619   1.832  -0.018  1.00  0.00    -0.274 N 
HETATM    2  C7  UNL     1       0.561   2.859   1.002  1.00  0.00     0.170 C 
HETATM    3  C8  UNL     1       1.125   2.153  -1.291  1.00  0.00     0.185 C 
HETATM    4  N4  UNL     1       1.547   2.421  -2.335  1.00  0.00    -0.172 NA
ENDROOT
BRANCH   1   5
HETATM    5  C6  UNL     1       0.145   0.494   0.185  1.00  0.00     0.132 A 
HETATM    6  N2  UNL     1      -1.164   0.237  -0.117  1.00  0.00    -0.326 N 
HETATM    7  C5  UNL     1      -1.763  -0.952   0.014  1.00  0.00     0.124 A 
ATOM      8  H2  UNL     1      -1.727   1.011  -0.469  1.00  0.00     0.169 HD
HETATM    9  C15 UNL     1      -0.979  -2.011   0.500  1.00  0.00     0.107 A 
HETATM   10  C14 UNL     1       0.342  -1.819   0.821  1.00  0.00     0.100 A 
HETATM   11  C9  UNL     1       0.910  -0.538   0.659  1.00  0.00     0.060 A 
BRANCH   7  12
HETATM   12  N1  UNL     1      -2.937  -1.201  -0.252  1.00  0.00    -0.353 N 
ATOM     13  H1  UNL     1      -3.081  -2.189  -0.044  1.00  0.00     0.166 HD
BRANCH  12  14
HETATM   14  C4  UNL     1      -4.134  -0.717  -0.709  1.00  0.00     0.088 C 
BRANCH  14  15
HETATM   15  C3  UNL     1      -4.249   0.742  -1.008  1.00  0.00     0.212 C 
BRANCH  15  16
HETATM   16  O1  UNL     1      -5.526   1.067  -1.461  1.00  0.00    -0.387 OA
BRANCH  16  17
HETATM   17  C2  UNL     1      -6.539   0.794  -0.584  1.00  0.00     0.163 C 
HETATM   18  C1  UNL     1      -6.410   1.521   0.739  1.00  0.00     0.033 C 
ENDBRANCH  16  17
ENDBRANCH  15  16
ENDBRANCH  14  15
ENDBRANCH  12  14
ENDBRANCH   7  12
BRANCH   9  19
HETATM   19  C16 UNL     1      -1.631  -3.309   0.643  1.00  0.00     0.271 C 
HETATM   20  N9  UNL     1      -0.923  -4.441   1.125  1.00  0.00    -0.057 NA
HETATM   21  O3  UNL     1      -2.842  -3.489   0.349  1.00  0.00    -0.271 OA
ENDBRANCH   9  19
BRANCH  10  22
HETATM   22  O2  UNL     1       1.066  -2.877   1.290  1.00  0.00    -0.358 OA
ATOM     23  H2  UNL     1       0.683  -3.740   1.399  1.00  0.00     0.217 HD
ENDBRANCH  10  22
BRANCH  11  24
HETATM   24  C10 UNL     1       2.304  -0.334   0.998  1.00  0.00     0.125 C 
HETATM   25  N5  UNL     1       2.873   0.798   0.872  1.00  0.00    -0.308 N 
ATOM     26  H5  UNL     1       2.340   1.594   0.522  1.00  0.00     0.186 HD
BRANCH  25  27
HETATM   27  N6  UNL     1       4.205   0.962   1.204  1.00  0.00    -0.272 N 
ATOM     28  H6  UNL     1       4.451   1.415   2.084  1.00  0.00     0.190 HD
BRANCH  27  29
HETATM   29  C11 UNL     1       5.251   0.503   0.327  1.00  0.00     0.190 C 
HETATM   30  N7  UNL     1       5.410  -0.700  -0.054  1.00  0.00    -0.360 N 
HETATM   31  C12 UNL     1       6.537  -0.871  -0.927  1.00  0.00     0.142 C 
ATOM     32  H7  UNL     1       4.799  -1.465   0.232  1.00  0.00     0.162 HD
HETATM   33  C13 UNL     1       7.261   0.455  -0.775  1.00  0.00     0.142 C 
HETATM   34  N8  UNL     1       6.247   1.336  -0.230  1.00  0.00    -0.360 N 
ATOM     35  H8  UNL     1       6.252   2.356  -0.246  1.00  0.00     0.162 HD
ENDBRANCH  27  29
ENDBRANCH  25  27
ENDBRANCH  11  24
ENDBRANCH   1   5
TORSDOF 11
