REMARK  7 active torsions:
REMARK  status: ('A' for Active; 'I' for Inactive)
REMARK    1  A    between atoms: C2_2  and  N2_6 
REMARK       I    between atoms: N3_9  and  C5_10 
REMARK       I    between atoms: C5_10  and  N4_12 
REMARK    2  A    between atoms: N4_12  and  C6_14 
REMARK    3  A    between atoms: C6_14  and  C7_15 
REMARK    4  A    between atoms: C6_14  and  C11_24 
REMARK       I    between atoms: C7_15  and  N5_17 
REMARK    5  A    between atoms: N5_17  and  C8_19 
REMARK    6  A    between atoms: C8_19  and  C9_20 
REMARK    7  A    between atoms: C9_20  and  C10_21 
ROOT
HETATM    1  N2  UNL     1       4.560   0.302   0.265  1.00  0.00    -0.368 N 
HETATM    2  C3  UNL     1       4.212  -0.830   1.140  1.00  0.00     0.144 C 
HETATM    3  C4  UNL     1       2.874  -0.406   1.763  1.00  0.00     0.147 C 
HETATM    4  N3  UNL     1       1.930  -0.414   0.673  1.00  0.00    -0.331 N 
HETATM    5  C5  UNL     1       0.568  -0.670   0.922  1.00  0.00     0.319 C 
HETATM    6  O1  UNL     1       0.189  -0.882   2.124  1.00  0.00    -0.247 OA
HETATM    7  N4  UNL     1      -0.407  -0.708  -0.091  1.00  0.00    -0.327 N 
ATOM      8  H4  UNL     1      -0.142  -0.539  -1.061  1.00  0.00     0.165 HD
HETATM    9  C13 UNL     1       2.385  -0.157  -0.674  1.00  0.00     0.147 C 
HETATM   10  C14 UNL     1       3.605   0.743  -0.705  1.00  0.00     0.144 C 
ENDROOT
BRANCH   7  11
HETATM   11  C6  UNL     1      -1.829  -0.995   0.255  1.00  0.00     0.216 C 
BRANCH  11  12
HETATM   12  C7  UNL     1      -2.622   0.194  -0.082  1.00  0.00     0.243 C 
HETATM   13  O2  UNL     1      -2.003   1.315  -0.035  1.00  0.00    -0.271 OA
HETATM   14  N5  UNL     1      -3.976   0.252  -0.453  1.00  0.00    -0.359 N 
ATOM     15  H5  UNL     1      -4.528  -0.604  -0.515  1.00  0.00     0.162 HD
BRANCH  14  16
HETATM   16  C8  UNL     1      -4.599   1.566  -0.754  1.00  0.00     0.133 C 
BRANCH  16  17
HETATM   17  C9  UNL     1      -6.019   1.310  -1.128  1.00  0.00     0.133 C 
BRANCH  17  18
HETATM   18  C10 UNL     1      -6.762   2.548  -1.462  1.00  0.00     0.174 C 
HETATM   19  O3  UNL     1      -6.185   3.669  -1.396  1.00  0.00    -0.648 OA
HETATM   20  O4  UNL     1      -8.087   2.425  -1.843  1.00  0.00    -0.648 OA
ENDBRANCH  17  18
ENDBRANCH  16  17
ENDBRANCH  14  16
ENDBRANCH  11  12
BRANCH  11  21
HETATM   21  C11 UNL     1      -2.209  -2.273  -0.425  1.00  0.00     0.138 C 
HETATM   22  C12 UNL     1      -1.187  -3.323   0.088  1.00  0.00     0.053 C 
HETATM   23 CL1  UNL     1      -3.828  -2.821   0.173  1.00  0.00    -0.099 Cl
HETATM   24 CL2  UNL     1      -2.161  -2.233  -2.178  1.00  0.00    -0.099 Cl
ENDBRANCH  11  21
ENDBRANCH   7  11
BRANCH   1  25
HETATM   25  C2  UNL     1       5.830   0.887   0.440  1.00  0.00     0.068 C 
HETATM   26  C1  UNL     1       6.487   0.828   1.752  1.00  0.00     0.088 C 
HETATM   27  N1  UNL     1       6.403   1.463  -0.543  1.00  0.00    -0.389 N 
ATOM     28  H12 UNL     1       7.322   1.886  -0.416  1.00  0.00     0.157 HD
ATOM     29  H11 UNL     1       5.947   1.504  -1.454  1.00  0.00     0.157 HD
ENDBRANCH   1  25
TORSDOF 7
