REMARK  11 active torsions:
REMARK  status: ('A' for Active; 'I' for Inactive)
REMARK    1  A    between atoms: C2_2  and  C3_3 
REMARK    2  A    between atoms: C3_3  and  C6_6 
REMARK    3  A    between atoms: C6_6  and  O1_7 
REMARK    4  A    between atoms: C7_9  and  C8_10 
REMARK    5  A    between atoms: C8_10  and  C10_12 
REMARK    6  A    between atoms: C10_12  and  C11_13 
REMARK    7  A    between atoms: C11_13  and  C12_14 
REMARK    8  A    between atoms: C12_14  and  C14_16 
REMARK    9  A    between atoms: C14_16  and  O2_17 
REMARK   10  A    between atoms: C21_26  and  O4_27 
REMARK   11  A    between atoms: C22_29  and  O5_30 
ROOT
HETATM    1  C6  UNL     1      -2.910  -0.049   0.087  1.00  0.00     0.085 C 
HETATM    2  C7  UNL     1      -1.856  -0.826   0.686  1.00  0.00     0.057 C 
HETATM    3  C21 UNL     1      -1.529  -1.929  -0.359  1.00  0.00     0.161 C 
HETATM    4  C22 UNL     1      -2.930  -2.361  -0.713  1.00  0.00     0.098 C 
HETATM    5  C23 UNL     1      -3.722  -3.039   0.324  1.00  0.00     0.075 C 
HETATM    6  C24 UNL     1      -4.654  -1.888   0.354  1.00  0.00    -0.076 C 
HETATM    7  C25 UNL     1      -5.817  -1.624   0.965  1.00  0.00     0.015 C 
HETATM    8  C26 UNL     1      -3.773  -1.163  -0.566  1.00  0.00     0.087 C 
ENDROOT
BRANCH   2   9
HETATM    9  C8  UNL     1      -0.655  -0.319   1.339  1.00  0.00    -0.009 C 
HETATM   10  C9  UNL     1       0.217  -1.421   1.979  1.00  0.00     0.010 C 
BRANCH   9  11
HETATM   11  C10 UNL     1       0.391   0.316   0.384  1.00  0.00     0.005 C 
BRANCH  11  12
HETATM   12  C11 UNL     1       1.548   0.760   1.234  1.00  0.00     0.008 C 
BRANCH  12  13
HETATM   13  C12 UNL     1       2.639   1.484   0.523  1.00  0.00     0.024 C 
HETATM   14  C13 UNL     1       2.141   2.751  -0.153  1.00  0.00     0.013 C 
BRANCH  13  15
HETATM   15  C14 UNL     1       3.416   0.619  -0.391  1.00  0.00     0.125 C 
HETATM   16  C15 UNL     1       4.064  -0.466   0.469  1.00  0.00     0.051 C 
HETATM   17  C16 UNL     1       5.387  -0.898  -0.114  1.00  0.00     0.037 C 
HETATM   18  C17 UNL     1       6.294   0.277  -0.033  1.00  0.00    -0.080 C 
HETATM   19  C18 UNL     1       7.669   0.217   0.524  1.00  0.00     0.043 C 
HETATM   20  C19 UNL     1       5.823   1.429  -0.489  1.00  0.00     0.056 C 
HETATM   21  C20 UNL     1       4.475   1.458  -1.027  1.00  0.00     0.184 C 
HETATM   22  O3  UNL     1       4.239   2.197  -2.022  1.00  0.00    -0.290 OA
BRANCH  15  23
HETATM   23  O2  UNL     1       2.659   0.075  -1.387  1.00  0.00    -0.381 OA
ATOM     24  H2  UNL     1       3.158  -0.481  -1.974  1.00  0.00     0.211 HD
ENDBRANCH  15  23
ENDBRANCH  13  15
ENDBRANCH  12  13
ENDBRANCH  11  12
ENDBRANCH   9  11
ENDBRANCH   2   9
BRANCH   1  25
HETATM   25  C3  UNL     1      -2.908   1.070  -0.821  1.00  0.00     0.002 C 
HETATM   26  C4  UNL     1      -2.720   2.460  -0.181  1.00  0.00     0.022 C 
HETATM   27  C5  UNL     1      -2.267   0.951  -2.163  1.00  0.00     0.022 C 
BRANCH  25  28
HETATM   28  C2  UNL     1      -4.405   1.247  -1.184  1.00  0.00    -0.025 C 
HETATM   29  C1  UNL     1      -4.842   1.541  -2.359  1.00  0.00     0.008 C 
ENDBRANCH  25  28
ENDBRANCH   1  25
BRANCH   1  30
HETATM   30  O1  UNL     1      -3.777   0.409   1.158  1.00  0.00    -0.387 OA
ATOM     31  H1  UNL     1      -3.778  -0.329   1.757  1.00  0.00     0.210 HD
ENDBRANCH   1  30
BRANCH   3  32
HETATM   32  O4  UNL     1      -0.895  -3.023   0.170  1.00  0.00    -0.392 OA
ATOM     33  H4  UNL     1      -0.695  -3.697  -0.469  1.00  0.00     0.210 HD
ENDBRANCH   3  32
BRANCH   4  34
HETATM   34  O5  UNL     1      -2.975  -2.971  -1.967  1.00  0.00    -0.386 OA
ATOM     35  H5  UNL     1      -3.857  -3.243  -2.190  1.00  0.00     0.210 HD
ENDBRANCH   4  34
TORSDOF 11
