REMARK  5 active torsions:
REMARK  status: ('A' for Active; 'I' for Inactive)
REMARK    1  A    between atoms: C3_4  and  C4_5 
REMARK       I    between atoms: N1_8  and  C5_9 
REMARK    2  A    between atoms: C5_9  and  C6_11 
REMARK    3  A    between atoms: C6_11  and  N2_12 
REMARK    4  A    between atoms: C6_11  and  C18_28 
REMARK       I    between atoms: N2_12  and  C7_14 
REMARK       I    between atoms: C7_14  and  N3_16 
REMARK    5  A    between atoms: N3_16  and  C8_18 
ROOT
HETATM    1  C6  UNL     1      -1.295  -0.140  -0.043  1.00  0.00     0.182 C 
ENDROOT
BRANCH   1   2
HETATM    2  C5  UNL     1      -2.208   1.014   0.067  1.00  0.00     0.244 C 
HETATM    3  N1  UNL     1      -2.997   1.359   1.201  1.00  0.00    -0.328 N 
HETATM    4  C3  UNL     1      -3.944   2.399   1.386  1.00  0.00     0.195 C 
HETATM    5  C25 UNL     1      -2.853   0.653   2.455  1.00  0.00     0.205 C 
HETATM    6  C2  UNL     1      -4.714   2.029   2.638  1.00  0.00     0.116 C 
HETATM    7  C1  UNL     1      -4.252   0.644   2.966  1.00  0.00     0.147 C 
HETATM    8  O1  UNL     1      -4.815  -0.278   3.500  1.00  0.00    -0.296 OA
HETATM    9  O4  UNL     1      -2.286   1.757  -0.942  1.00  0.00    -0.271 OA
BRANCH   4  10
HETATM   10  C4  UNL     1      -4.951   2.563   0.321  1.00  0.00     0.197 C 
HETATM   11  O2  UNL     1      -5.069   1.774  -0.625  1.00  0.00    -0.646 OA
HETATM   12  O3  UNL     1      -5.795   3.658   0.400  1.00  0.00    -0.646 OA
ENDBRANCH   4  10
ENDBRANCH   1   2
BRANCH   1  13
HETATM   13  N2  UNL     1      -0.074   0.294  -0.738  1.00  0.00    -0.329 N 
HETATM   14  C7  UNL     1       1.167   0.138  -0.062  1.00  0.00     0.317 C 
HETATM   15  O5  UNL     1       1.164  -0.354   1.073  1.00  0.00    -0.247 OA
HETATM   16  N3  UNL     1       2.354   0.548  -0.705  1.00  0.00    -0.334 N 
ATOM     17  H3  UNL     1       2.274   0.941  -1.643  1.00  0.00     0.165 HD
ATOM     18  H2  UNL     1      -0.116   0.694  -1.675  1.00  0.00     0.165 HD
BRANCH  16  19
HETATM   19  C8  UNL     1       3.669   0.451  -0.130  1.00  0.00     0.035 C 
HETATM   20  C9  UNL     1       3.744   1.274   1.113  1.00  0.00     0.035 C 
HETATM   21  C10 UNL     1       5.144   1.196   1.701  1.00  0.00    -0.012 C 
HETATM   22  C11 UNL     1       5.488  -0.240   2.017  1.00  0.00     0.009 C 
HETATM   23  C15 UNL     1       6.124   1.740   0.714  1.00  0.00     0.009 C 
HETATM   24  C12 UNL     1       5.404  -1.048   0.735  1.00  0.00    -0.012 C 
HETATM   25  C13 UNL     1       6.425  -0.523  -0.233  1.00  0.00     0.009 C 
HETATM   26  C17 UNL     1       4.029  -0.996   0.144  1.00  0.00     0.035 C 
HETATM   27  C14 UNL     1       6.067   0.921  -0.560  1.00  0.00    -0.012 C 
HETATM   28  C16 UNL     1       4.689   0.936  -1.153  1.00  0.00     0.035 C 
ENDBRANCH  16  19
ENDBRANCH   1  13
BRANCH   1  29
HETATM   29  C18 UNL     1      -1.887  -1.300  -0.836  1.00  0.00     0.018 C 
HETATM   30  C19 UNL     1      -3.143  -1.854  -0.224  1.00  0.00     0.007 C 
HETATM   31  C20 UNL     1      -3.477  -3.228  -0.760  1.00  0.00     0.000 C 
HETATM   32  C21 UNL     1      -4.591  -3.068  -1.765  1.00  0.00     0.000 C 
HETATM   33  C22 UNL     1      -3.955  -2.496  -3.022  1.00  0.00     0.000 C 
HETATM   34  C23 UNL     1      -3.495  -1.083  -2.771  1.00  0.00     0.000 C 
HETATM   35  C24 UNL     1      -2.058  -0.999  -2.288  1.00  0.00     0.007 C 
ENDBRANCH   1  29
TORSDOF 5
