REMARK  5 active torsions:
REMARK  status: ('A' for Active; 'I' for Inactive)
REMARK    1  A    between atoms: C2_2  and  C4_4 
REMARK    2  A    between atoms: C4_4  and  C5_5 
REMARK       I    between atoms: N3_15  and  C10_16 
REMARK    3  A    between atoms: C10_16  and  C11_18 
REMARK    4  A    between atoms: C18_26  and  C19_27 
REMARK    5  A    between atoms: C19_27  and  C20_28 
ROOT
HETATM    1  C5  UNL     1      -2.044  -1.674  -0.206  1.00  0.00     0.075 C 
HETATM    2  N1  UNL     1      -0.998  -2.294   0.463  1.00  0.00    -0.360 N 
ATOM      3  H1  UNL     1      -0.440  -2.981  -0.044  1.00  0.00     0.161 HD
HETATM    4  C6  UNL     1      -0.669  -2.026   1.798  1.00  0.00     0.307 C 
HETATM    5  N2  UNL     1      -0.755  -3.273   2.580  1.00  0.00    -0.052 N 
ATOM      6  H21 UNL     1      -1.657  -3.741   2.488  1.00  0.00     0.279 HD
ATOM      7  H22 UNL     1      -0.793  -3.111   3.586  1.00  0.00     0.279 HD
HETATM    8  C7  UNL     1       0.337  -4.090   2.190  1.00  0.00     0.237 C 
HETATM    9  C8  UNL     1       1.413  -3.116   1.730  1.00  0.00     0.057 C 
HETATM   10  C9  UNL     1       0.824  -1.750   1.915  1.00  0.00     0.147 C 
HETATM   11  N3  UNL     1       1.300  -0.869   0.874  1.00  0.00    -0.278 N 
HETATM   12  C10 UNL     1       2.672  -1.006   0.480  1.00  0.00     0.231 C 
HETATM   13  O1  UNL     1       3.419  -1.826   1.053  1.00  0.00    -0.273 OA
HETATM   14  C17 UNL     1       0.484   0.135   0.257  1.00  0.00     0.249 C 
HETATM   15  O2  UNL     1       0.549   0.225  -0.992  1.00  0.00    -0.271 OA
HETATM   16  C18 UNL     1      -0.428   1.077   0.968  1.00  0.00     0.178 C 
HETATM   17  N4  UNL     1      -1.783   0.612   1.010  1.00  0.00    -0.343 N 
ATOM     18  H4  UNL     1      -2.357   0.988   1.764  1.00  0.00     0.163 HD
HETATM   19  C26 UNL     1      -2.425  -0.296   0.147  1.00  0.00     0.264 C 
HETATM   20  O3  UNL     1      -3.501   0.114  -0.424  1.00  0.00    -0.266 OA
ENDROOT
BRANCH  12  21
HETATM   21  C11 UNL     1       3.314  -0.219  -0.601  1.00  0.00     0.078 C 
HETATM   22  C12 UNL     1       3.456   1.199  -0.139  1.00  0.00     0.014 C 
HETATM   23  C13 UNL     1       4.900   1.678  -0.147  1.00  0.00     0.001 C 
HETATM   24  C14 UNL     1       5.509   1.440  -1.513  1.00  0.00     0.000 C 
HETATM   25  C15 UNL     1       5.374   0.003  -1.921  1.00  0.00     0.001 C 
HETATM   26  C16 UNL     1       4.717  -0.755  -0.795  1.00  0.00     0.014 C 
ENDBRANCH  12  21
BRANCH  16  27
HETATM   27  C19 UNL     1      -0.291   2.419   0.343  1.00  0.00     0.039 C 
BRANCH  27  28
HETATM   28  C20 UNL     1      -1.063   3.572   0.837  1.00  0.00    -0.012 C 
HETATM   29  C21 UNL     1      -0.582   4.766  -0.039  1.00  0.00     0.005 C 
HETATM   30  C22 UNL     1      -1.285   4.777  -1.374  1.00  0.00     0.000 C 
HETATM   31  C23 UNL     1      -2.756   5.163  -1.205  1.00  0.00     0.000 C 
HETATM   32  C24 UNL     1      -3.073   4.863   0.242  1.00  0.00     0.000 C 
HETATM   33  C25 UNL     1      -2.520   3.461   0.521  1.00  0.00     0.005 C 
ENDBRANCH  27  28
ENDBRANCH  16  27
BRANCH   1  34
HETATM   34  C4  UNL     1      -3.322  -2.456  -0.404  1.00  0.00     0.066 C 
BRANCH  34  35
HETATM   35  C2  UNL     1      -3.173  -3.705  -1.216  1.00  0.00    -0.017 C 
HETATM   36  C1  UNL     1      -4.533  -4.377  -1.336  1.00  0.00     0.010 C 
HETATM   37  C3  UNL     1      -2.134  -4.660  -0.711  1.00  0.00     0.010 C 
ENDBRANCH  34  35
ENDBRANCH   1  34
TORSDOF 5
