REMARK  9 active torsions:
REMARK  status: ('A' for Active; 'I' for Inactive)
REMARK    1  A    between atoms: O1_1  and  C1_3 
REMARK    2  A    between atoms: C4_6  and  C5_7 
REMARK    3  A    between atoms: C5_7  and  N1_8 
REMARK    4  A    between atoms: N1_8  and  C6_11 
REMARK    5  A    between atoms: C6_11  and  C7_12 
REMARK    6  A    between atoms: C7_12  and  C8_13 
REMARK    7  A    between atoms: C8_13  and  C9_14 
REMARK    8  A    between atoms: C9_14  and  N2_15 
REMARK    9  A    between atoms: N2_15  and  C10_17 
ROOT
HETATM    1  C8  UNL     1       1.428  -2.322  -0.307  1.00  0.00     0.021 C 
ENDROOT
BRANCH   1   2
HETATM    2  C7  UNL     1       0.299  -1.632   0.433  1.00  0.00     0.029 C 
BRANCH   2   3
HETATM    3  C6  UNL     1      -0.827  -1.404  -0.525  1.00  0.00     0.232 C 
BRANCH   3   4
HETATM    4  N1  UNL     1      -1.960  -0.745   0.107  1.00  0.00    -0.071 N 
ATOM      5  H12 UNL     1      -1.712   0.130   0.568  1.00  0.00     0.277 HD
ATOM      6  H11 UNL     1      -2.300  -1.233   0.935  1.00  0.00     0.277 HD
BRANCH   4   7
HETATM    7  C5  UNL     1      -2.970  -0.586  -0.920  1.00  0.00     0.270 C 
BRANCH   7   8
HETATM    8  C4  UNL     1      -4.187   0.091  -0.345  1.00  0.00    -0.033 A 
HETATM    9  C3  UNL     1      -4.252   0.437   0.988  1.00  0.00     0.011 A 
HETATM   10  C2  UNL     1      -5.369   1.061   1.523  1.00  0.00     0.037 A 
HETATM   11  C1  UNL     1      -6.459   1.357   0.731  1.00  0.00     0.065 A 
HETATM   12  C18 UNL     1      -6.385   1.007  -0.603  1.00  0.00     0.037 A 
HETATM   13  C17 UNL     1      -5.274   0.386  -1.136  1.00  0.00     0.011 A 
BRANCH  11  14
HETATM   14  O1  UNL     1      -7.592   1.986   1.258  1.00  0.00    -0.361 OA
ATOM     15  H1  UNL     1      -8.343   2.190   0.713  1.00  0.00     0.217 HD
ENDBRANCH  11  14
ENDBRANCH   7   8
ENDBRANCH   4   7
ENDBRANCH   3   4
ENDBRANCH   2   3
ENDBRANCH   1   2
BRANCH   1  16
HETATM   16  C9  UNL     1       1.941  -1.509  -1.455  1.00  0.00     0.120 C 
BRANCH  16  17
HETATM   17  N2  UNL     1       2.462  -0.225  -1.125  1.00  0.00    -0.389 N 
ATOM     18  H2  UNL     1       1.931   0.595  -1.417  1.00  0.00     0.159 HD
BRANCH  17  19
HETATM   19  C10 UNL     1       3.656  -0.018  -0.425  1.00  0.00     0.042 A 
HETATM   20  C11 UNL     1       4.482  -1.056  -0.106  1.00  0.00     0.030 A 
HETATM   21  C12 UNL     1       5.680  -0.846   0.575  1.00  0.00     0.005 A 
HETATM   22  C13 UNL     1       6.016   0.448   0.922  1.00  0.00     0.032 A 
HETATM   23  C14 UNL     1       5.185   1.497   0.601  1.00  0.00     0.061 A 
HETATM   24  N3  UNL     1       5.260   2.819   0.810  1.00  0.00    -0.300 N 
HETATM   25  C16 UNL     1       4.005   1.283  -0.070  1.00  0.00     0.035 A 
HETATM   26  N4  UNL     1       4.193   3.408   0.302  1.00  0.00    -0.310 N 
ATOM     27  H3  UNL     1       6.024   3.297   1.288  1.00  0.00     0.187 HD
HETATM   28  C15 UNL     1       3.381   2.492  -0.257  1.00  0.00     0.123 A 
ATOM     29  H4  UNL     1       4.011   4.411   0.329  1.00  0.00     0.186 HD
ENDBRANCH  17  19
ENDBRANCH  16  17
ENDBRANCH   1  16
TORSDOF 9
