REMARK  10 active torsions:
REMARK  status: ('A' for Active; 'I' for Inactive)
REMARK    1  A    between atoms: N1_2  and  C2_5 
REMARK    2  A    between atoms: C2_5  and  C4_7 
REMARK       I    between atoms: C4_7  and  N2_9 
REMARK    3  A    between atoms: N2_9  and  C5_11 
REMARK    4  A    between atoms: C18_24  and  C19_25 
REMARK    5  A    between atoms: C19_25  and  C20_26 
REMARK    6  A    between atoms: C20_26  and  N3_27 
REMARK    7  A    between atoms: C21_31  and  C22_32 
REMARK       I    between atoms: C22_32  and  N4_34 
REMARK    8  A    between atoms: N4_34  and  C23_36 
REMARK    9  A    between atoms: C23_36  and  C24_37 
REMARK   10  A    between atoms: N5_40  and  C27_41 
ROOT
HETATM    1  C5  UNL     1      -2.802  -1.101   0.706  1.00  0.00     0.176 C 
HETATM    2  C6  UNL     1      -3.904  -0.066   0.943  1.00  0.00     0.035 C 
HETATM    3  C7  UNL     1      -4.902  -0.258  -0.142  1.00  0.00     0.002 C 
HETATM    4  C8  UNL     1      -6.063   0.651  -0.189  1.00  0.00     0.000 C 
HETATM    5  C9  UNL     1      -5.856   2.080   0.108  1.00  0.00     0.000 C 
HETATM    6  C10 UNL     1      -5.868   2.992  -1.125  1.00  0.00     0.000 C 
HETATM    7  C11 UNL     1      -4.732   2.759  -2.055  1.00  0.00     0.000 C 
HETATM    8  C12 UNL     1      -3.994   3.944  -2.516  1.00  0.00     0.000 C 
HETATM    9  C13 UNL     1      -2.845   4.402  -1.706  1.00  0.00     0.000 C 
HETATM   10  C14 UNL     1      -2.060   3.357  -1.003  1.00  0.00     0.000 C 
HETATM   11  C15 UNL     1      -1.198   2.485  -1.841  1.00  0.00     0.002 C 
HETATM   12  C16 UNL     1      -1.097   1.041  -1.297  1.00  0.00     0.026 C 
HETATM   13  C17 UNL     1      -0.675   1.172   0.141  1.00  0.00     0.095 C 
HETATM   14  C18 UNL     1       0.796   1.372   0.218  1.00  0.00     0.042 C 
HETATM   15  C21 UNL     1       0.967  -0.032   0.742  1.00  0.00     0.185 C 
HETATM   16  N6  UNL     1      -0.491  -0.056   0.860  1.00  0.00    -0.331 N 
HETATM   17  C32 UNL     1      -1.550  -0.804   1.418  1.00  0.00     0.243 C 
HETATM   18  O3  UNL     1      -1.468  -1.277   2.614  1.00  0.00    -0.271 OA
ENDROOT
BRANCH  15  19
HETATM   19  C22 UNL     1       1.612  -0.946  -0.192  1.00  0.00     0.241 C 
HETATM   20  O2  UNL     1       0.878  -1.795  -0.800  1.00  0.00    -0.271 OA
HETATM   21  N4  UNL     1       3.003  -0.873  -0.398  1.00  0.00    -0.359 N 
ATOM     22  H4  UNL     1       3.575  -0.188   0.096  1.00  0.00     0.162 HD
BRANCH  21  23
HETATM   23  C23 UNL     1       3.594  -1.807  -1.338  1.00  0.00     0.127 C 
BRANCH  23  24
HETATM   24  C24 UNL     1       5.065  -1.576  -1.421  1.00  0.00     0.006 C 
HETATM   25  C25 UNL     1       5.457  -0.214  -1.871  1.00  0.00     0.026 C 
HETATM   26  C26 UNL     1       6.216   0.598  -0.881  1.00  0.00     0.117 C 
HETATM   27  N5  UNL     1       7.191  -0.102  -0.126  1.00  0.00    -0.409 N 
HETATM   28  C30 UNL     1       7.213  -1.516  -0.302  1.00  0.00     0.117 C 
HETATM   29  C31 UNL     1       5.765  -1.998  -0.132  1.00  0.00     0.026 C 
BRANCH  27  30
HETATM   30  C27 UNL     1       8.464   0.530  -0.008  1.00  0.00     0.070 C 
HETATM   31  C28 UNL     1       9.354  -0.393   0.830  1.00  0.00     0.031 C 
HETATM   32  C29 UNL     1       8.342   1.851   0.740  1.00  0.00     0.031 C 
ENDBRANCH  27  30
ENDBRANCH  23  24
ENDBRANCH  21  23
ENDBRANCH  15  19
BRANCH  14  33
HETATM   33  C19 UNL     1       1.335   2.450   1.085  1.00  0.00     0.036 C 
BRANCH  33  34
HETATM   34  C20 UNL     1       1.057   2.389   2.537  1.00  0.00     0.230 C 
BRANCH  34  35
HETATM   35  N3  UNL     1      -0.299   2.421   2.957  1.00  0.00    -0.079 N 
ATOM     36  H33 UNL     1      -0.752   3.246   2.564  1.00  0.00     0.274 HD
ATOM     37  H32 UNL     1      -0.813   1.676   2.486  1.00  0.00     0.274 HD
ATOM     38  H31 UNL     1      -0.491   2.379   3.958  1.00  0.00     0.274 HD
ENDBRANCH  34  35
ENDBRANCH  33  34
ENDBRANCH  14  33
BRANCH   1  39
HETATM   39  N2  UNL     1      -3.377  -2.355   1.245  1.00  0.00    -0.346 N 
HETATM   40  C4  UNL     1      -3.606  -3.497   0.482  1.00  0.00     0.248 C 
HETATM   41  O1  UNL     1      -3.332  -3.529  -0.738  1.00  0.00    -0.271 OA
ATOM     42  H2  UNL     1      -3.620  -2.384   2.235  1.00  0.00     0.163 HD
BRANCH  40  43
HETATM   43  C2  UNL     1      -4.184  -4.708   1.105  1.00  0.00     0.272 C 
HETATM   44  C3  UNL     1      -5.546  -4.456   1.718  1.00  0.00     0.050 C 
BRANCH  43  45
HETATM   45  N1  UNL     1      -4.341  -5.788   0.148  1.00  0.00    -0.067 N 
HETATM   46  C1  UNL     1      -4.760  -6.965   0.881  1.00  0.00     0.267 C 
ATOM     47  H12 UNL     1      -3.504  -5.947  -0.413  1.00  0.00     0.277 HD
ATOM     48  H11 UNL     1      -4.972  -5.551  -0.618  1.00  0.00     0.277 HD
ENDBRANCH  43  45
ENDBRANCH  40  43
ENDBRANCH   1  39
TORSDOF 10
