REMARK  12 active torsions:
REMARK  status: ('A' for Active; 'I' for Inactive)
REMARK    1  A    between atoms: O1_2  and  C2_3 
REMARK    2  A    between atoms: C11_12  and  C12_13 
REMARK    3  A    between atoms: C12_13  and  C14_15 
REMARK    4  A    between atoms: C14_15  and  C15_16 
REMARK    5  A    between atoms: C15_16  and  C16_17 
REMARK       I    between atoms: C16_17  and  N1_19 
REMARK    6  A    between atoms: N1_19  and  C17_21 
REMARK    7  A    between atoms: C17_21  and  C18_22 
REMARK    8  A    between atoms: C18_22  and  C19_23 
REMARK    9  A    between atoms: C19_23  and  N2_24 
REMARK   10  A    between atoms: C31_37  and  C33_39 
REMARK   11  A    between atoms: C34_42  and  C35_43 
REMARK   12  A    between atoms: C35_43  and  O6_44 
ROOT
HETATM    1  C2  UNL     1      -5.098   1.135  -2.238  1.00  0.00     0.129 C 
HETATM    2  C3  UNL     1      -3.805   0.859  -1.535  1.00  0.00     0.042 C 
HETATM    3  C4  UNL     1      -3.938   0.516  -0.073  1.00  0.00    -0.033 C 
HETATM    4  C5  UNL     1      -3.868   1.767   0.731  1.00  0.00     0.016 C 
HETATM    5  C6  UNL     1      -2.709  -0.371   0.225  1.00  0.00    -0.001 C 
HETATM    6  C7  UNL     1      -1.430   0.242  -0.213  1.00  0.00     0.006 C 
HETATM    7  C8  UNL     1      -0.343  -0.731   0.111  1.00  0.00     0.010 C 
HETATM    8  C9  UNL     1      -0.228  -1.005   1.621  1.00  0.00    -0.036 C 
HETATM    9  C10 UNL     1       0.147   0.319   2.210  1.00  0.00     0.016 C 
HETATM   10  C11 UNL     1       0.710  -2.120   1.746  1.00  0.00    -0.002 C 
HETATM   11  C24 UNL     1      -0.234  -3.344   1.706  1.00  0.00     0.006 C 
HETATM   12  C25 UNL     1      -1.521  -2.891   2.290  1.00  0.00     0.006 C 
HETATM   13  C26 UNL     1      -1.553  -1.403   2.211  1.00  0.00    -0.002 C 
HETATM   14  C27 UNL     1      -2.770  -0.798   1.637  1.00  0.00    -0.005 C 
HETATM   15  C28 UNL     1      -3.965  -1.761   1.742  1.00  0.00     0.006 C 
HETATM   16  C29 UNL     1      -5.210  -0.869   1.575  1.00  0.00     0.007 C 
HETATM   17  C30 UNL     1      -5.131  -0.350   0.157  1.00  0.00     0.013 C 
HETATM   18  C31 UNL     1      -6.444   0.193  -0.356  1.00  0.00     0.057 C 
HETATM   19  C32 UNL     1      -7.349   0.684   0.775  1.00  0.00     0.028 C 
HETATM   20  C34 UNL     1      -6.252   1.342  -1.294  1.00  0.00     0.057 C 
ENDROOT
BRANCH  10  21
HETATM   21  C12 UNL     1       1.663  -2.304   2.811  1.00  0.00    -0.013 C 
HETATM   22  C13 UNL     1       1.237  -2.428   4.227  1.00  0.00     0.010 C 
BRANCH  21  23
HETATM   23  C14 UNL     1       2.881  -1.412   2.747  1.00  0.00     0.014 C 
BRANCH  23  24
HETATM   24  C15 UNL     1       3.662  -1.649   1.472  1.00  0.00     0.103 C 
BRANCH  24  25
HETATM   25  C16 UNL     1       4.880  -0.763   1.401  1.00  0.00     0.217 C 
HETATM   26  O2  UNL     1       5.030   0.072   2.307  1.00  0.00    -0.274 OA
HETATM   27  N1  UNL     1       5.750  -0.959   0.310  1.00  0.00    -0.361 N 
ATOM     28  H1  UNL     1       5.534  -1.680  -0.378  1.00  0.00     0.162 HD
BRANCH  27  29
HETATM   29  C17 UNL     1       6.940  -0.161   0.146  1.00  0.00     0.124 C 
BRANCH  29  30
HETATM   30  C18 UNL     1       6.573   1.283  -0.020  1.00  0.00     0.050 C 
BRANCH  30  31
HETATM   31  C19 UNL     1       7.896   2.055  -0.202  1.00  0.00     0.274 C 
BRANCH  31  32
HETATM   32  N2  UNL     1       8.617   1.587  -1.328  1.00  0.00     0.092 N 
HETATM   33  C20 UNL     1       8.022   1.870  -2.595  1.00  0.00     0.298 C 
HETATM   34  C21 UNL     1       8.909   1.240  -3.671  1.00  0.00     0.198 C 
HETATM   35  O3  UNL     1      10.212   1.713  -3.602  1.00  0.00    -0.388 OA
HETATM   36  C22 UNL     1      10.789   1.358  -2.408  1.00  0.00     0.198 C 
HETATM   37  C23 UNL     1       9.991   1.998  -1.264  1.00  0.00     0.298 C 
ENDBRANCH  31  32
ENDBRANCH  30  31
ENDBRANCH  29  30
ENDBRANCH  27  29
ENDBRANCH  24  25
ENDBRANCH  23  24
ENDBRANCH  21  23
ENDBRANCH  10  21
BRANCH   1  38
HETATM   38  O1  UNL     1      -4.930   2.300  -2.973  1.00  0.00    -0.390 OA
HETATM   39  C1  UNL     1      -5.141   2.138  -4.331  1.00  0.00     0.202 C 
ENDBRANCH   1  38
BRANCH  18  40
HETATM   40  C33 UNL     1      -7.192  -0.887  -1.032  1.00  0.00     0.182 C 
HETATM   41  O4  UNL     1      -6.592  -2.006  -1.198  1.00  0.00    -0.647 OA
HETATM   42  O5  UNL     1      -8.469  -0.841  -1.513  1.00  0.00    -0.647 OA
ENDBRANCH  18  40
BRANCH  20  43
HETATM   43  C35 UNL     1      -7.455   1.690  -2.116  1.00  0.00     0.172 C 
BRANCH  43  44
HETATM   44  O6  UNL     1      -8.609   1.930  -1.381  1.00  0.00    -0.400 OA
ATOM     45  H6  UNL     1      -9.372   2.151  -1.902  1.00  0.00     0.209 HD
ENDBRANCH  43  44
ENDBRANCH  20  43
TORSDOF 12
