REMARK  13 active torsions:
REMARK  status: ('A' for Active; 'I' for Inactive)
REMARK    1  A    between atoms: C2_2  and  N1_3 
REMARK    2  A    between atoms: N1_3  and  C3_6 
REMARK    3  A    between atoms: C3_6  and  C4_7 
REMARK    4  A    between atoms: C4_7  and  N2_8 
REMARK    5  A    between atoms: N2_8  and  C5_10 
REMARK    6  A    between atoms: C5_10  and  N3_12 
REMARK    7  A    between atoms: N3_12  and  C6_14 
REMARK    8  A    between atoms: C6_14  and  C7_15 
REMARK    9  A    between atoms: C7_15  and  S2_16 
REMARK   10  A    between atoms: S2_16  and  C8_17 
REMARK   11  A    between atoms: C8_17  and  C9_18 
REMARK   12  A    between atoms: C9_18  and  C10_19 
REMARK   13  A    between atoms: C10_19  and  N4_20 
REMARK       I    between atoms: N4_20  and  C11_22 
REMARK       I    between atoms: C11_22  and  N5_24 
ROOT
HETATM    1  C7  UNL     1       1.225  -1.637   0.308  1.00  0.00     0.093 C 
ENDROOT
BRANCH   1   2
HETATM    2  C6  UNL     1       2.531  -2.367   0.082  1.00  0.00     0.132 C 
BRANCH   2   3
HETATM    3  N3  UNL     1       3.356  -1.594  -0.801  1.00  0.00    -0.367 N 
ATOM      4  H3  UNL     1       4.186  -1.167  -0.390  1.00  0.00     0.161 HD
BRANCH   3   5
HETATM    5  C5  UNL     1       3.145  -1.361  -2.172  1.00  0.00     0.167 C 
HETATM    6  S1  UNL     1       1.842  -2.046  -2.917  1.00  0.00    -0.041 SA
BRANCH   5   7
HETATM    7  N2  UNL     1       4.004  -0.567  -2.972  1.00  0.00    -0.366 N 
ATOM      8  H2  UNL     1       3.782  -0.474  -3.963  1.00  0.00     0.161 HD
BRANCH   7   9
HETATM    9  C4  UNL     1       5.176   0.120  -2.472  1.00  0.00     0.149 C 
BRANCH   9  10
HETATM   10  C3  UNL     1       4.808   1.291  -1.624  1.00  0.00     0.251 C 
BRANCH  10  11
HETATM   11  N1  UNL     1       5.975   1.961  -1.096  1.00  0.00    -0.074 N 
ATOM     12  H12 UNL     1       5.728   2.877  -0.721  1.00  0.00     0.277 HD
ATOM     13  H11 UNL     1       6.598   2.250  -1.850  1.00  0.00     0.277 HD
BRANCH  11  14
HETATM   14  C2  UNL     1       6.689   1.179  -0.112  1.00  0.00     0.228 C 
HETATM   15  C1  UNL     1       5.880   1.016   1.163  1.00  0.00     0.034 C 
ENDBRANCH  11  14
ENDBRANCH  10  11
ENDBRANCH   9  10
ENDBRANCH   7   9
ENDBRANCH   5   7
ENDBRANCH   3   5
ENDBRANCH   2   3
ENDBRANCH   1   2
BRANCH   1  16
HETATM   16  S2  UNL     1       1.500  -0.002   1.027  1.00  0.00    -0.164 SA
BRANCH  16  17
HETATM   17  C8  UNL     1      -0.192   0.709   1.362  1.00  0.00     0.102 C 
BRANCH  17  18
HETATM   18  C9  UNL     1      -0.758  -0.123   2.437  1.00  0.00     0.000 C 
BRANCH  18  19
HETATM   19  C10 UNL     1      -2.051   0.134   3.059  1.00  0.00     0.089 C 
BRANCH  19  20
HETATM   20  N4  UNL     1      -3.198   0.120   2.240  1.00  0.00    -0.319 N 
HETATM   21  C11 UNL     1      -3.550   1.013   1.250  1.00  0.00     0.322 C 
HETATM   22  O1  UNL     1      -2.886   2.011   0.928  1.00  0.00    -0.247 OA
HETATM   23  N5  UNL     1      -4.766   0.821   0.506  1.00  0.00    -0.334 N 
HETATM   24  C12 UNL     1      -5.169   1.714  -0.569  1.00  0.00     0.127 C 
HETATM   25  C16 UNL     1      -5.652  -0.270   0.822  1.00  0.00     0.127 C 
HETATM   26  C13 UNL     1      -5.664   0.860  -1.715  1.00  0.00     0.020 C 
HETATM   27  C14 UNL     1      -6.902   0.108  -1.271  1.00  0.00     0.003 C 
HETATM   28  C15 UNL     1      -7.028   0.089   0.233  1.00  0.00     0.020 C 
ATOM     29  H4  UNL     1      -3.850  -0.648   2.400  1.00  0.00     0.169 HD
ENDBRANCH  19  20
ENDBRANCH  18  19
ENDBRANCH  17  18
ENDBRANCH  16  17
ENDBRANCH   1  16
TORSDOF 13
