REMARK  9 active torsions:
REMARK  status: ('A' for Active; 'I' for Inactive)
REMARK    1  A    between atoms: C2_3  and  S1_4 
REMARK    2  A    between atoms: S1_4  and  C3_5 
REMARK    3  A    between atoms: C8_15  and  N4_16 
REMARK    4  A    between atoms: C10_23  and  C11_24 
REMARK    5  A    between atoms: C12_25  and  C13_26 
REMARK    6  A    between atoms: N6_27  and  N7_29 
REMARK    7  A    between atoms: N7_29  and  C14_31 
REMARK    8  A    between atoms: C17_38  and  N10_39 
REMARK    9  A    between atoms: N10_39  and  N11_41 
ROOT
HETATM    1  N1  UNL     1      -6.102   6.276  -2.172  1.00  0.00    -0.197 NA
HETATM    2  C1  UNL     1      -5.719   5.286  -1.714  1.00  0.00     0.069 C 
HETATM    3  C2  UNL     1      -5.234   4.028  -1.139  1.00  0.00     0.206 C 
ENDROOT
BRANCH   3   4
HETATM    4  S1  UNL     1      -3.667   3.529  -1.897  1.00  0.00    -0.080 SA
BRANCH   4   5
HETATM    5  C3  UNL     1      -3.140   1.998  -1.151  1.00  0.00     0.149 C 
HETATM    6  N2  UNL     1      -3.569   0.837  -1.743  1.00  0.00    -0.303 N 
HETATM    7  C4  UNL     1      -3.174  -0.448  -1.498  1.00  0.00     0.259 C 
ATOM      8  H2  UNL     1      -4.281   0.948  -2.465  1.00  0.00     0.171 HD
HETATM    9  O1  UNL     1      -3.826  -1.374  -2.028  1.00  0.00    -0.267 OA
HETATM   10  C5  UNL     1      -2.112  -0.904  -0.716  1.00  0.00     0.063 C 
HETATM   11  C6  UNL     1      -1.762  -2.292  -0.689  1.00  0.00     0.065 A 
HETATM   12  C10 UNL     1      -1.319  -0.047   0.084  1.00  0.00     0.026 C 
HETATM   13  C7  UNL     1      -0.900  -2.924  -1.564  1.00  0.00     0.124 A 
HETATM   14  C9  UNL     1      -2.347  -3.101   0.281  1.00  0.00     0.272 A 
HETATM   15  N3  UNL     1      -0.691  -4.238  -1.426  1.00  0.00    -0.201 N 
HETATM   16  C8  UNL     1      -1.266  -5.012  -0.479  1.00  0.00     0.678 A 
ATOM     17  H3  UNL     1      -0.052  -4.688  -2.082  1.00  0.00     0.183 HD
HETATM   18  N5  UNL     1      -2.107  -4.416   0.381  1.00  0.00    -0.156 N 
ATOM     19  H5  UNL     1      -2.563  -4.964   1.110  1.00  0.00     0.187 HD
HETATM   20  O2  UNL     1      -3.149  -2.569   1.113  1.00  0.00    -0.267 OA
HETATM   21  C17 UNL     1      -1.754   1.136   0.652  1.00  0.00     0.132 C 
HETATM   22  N12 UNL     1      -2.350   2.148  -0.046  1.00  0.00    -0.321 N 
ATOM     23  H12 UNL     1      -2.191   3.099   0.287  1.00  0.00     0.169 HD
BRANCH  16  24
HETATM   24  N4  UNL     1      -1.031  -6.264  -0.391  1.00  0.00    -0.234 N 
ATOM     25  H42 UNL     1      -0.392  -6.717  -1.044  1.00  0.00     0.174 HD
ATOM     26  H41 UNL     1      -1.465  -6.848   0.324  1.00  0.00     0.174 HD
ENDBRANCH  16  24
BRANCH  12  27
HETATM   27  C11 UNL     1      -0.031  -0.520   0.374  1.00  0.00     0.018 C 
HETATM   28  C12 UNL     1       1.058   0.144   0.611  1.00  0.00     0.020 C 
BRANCH  28  29
HETATM   29  C13 UNL     1       1.320   1.562   0.648  1.00  0.00     0.107 C 
HETATM   30  N6  UNL     1       2.515   2.036   0.929  1.00  0.00    -0.309 N 
ATOM     31  H6  UNL     1       2.668   3.044   0.948  1.00  0.00     0.186 HD
BRANCH  30  32
HETATM   32  N7  UNL     1       3.580   1.165   1.203  1.00  0.00    -0.272 N 
ATOM     33  H7  UNL     1       3.473   0.480   1.951  1.00  0.00     0.190 HD
BRANCH  32  34
HETATM   34  C14 UNL     1       4.800   1.200   0.481  1.00  0.00     0.190 C 
HETATM   35  N8  UNL     1       5.375   2.232  -0.055  1.00  0.00    -0.360 N 
HETATM   36  C15 UNL     1       6.604   1.889  -0.709  1.00  0.00     0.142 C 
ATOM     37  H8  UNL     1       4.996   3.178  -0.016  1.00  0.00     0.162 HD
HETATM   38  C16 UNL     1       6.928   0.512  -0.182  1.00  0.00     0.142 C 
HETATM   39  N9  UNL     1       5.601   0.055   0.233  1.00  0.00    -0.360 N 
ATOM     40  H9  UNL     1       5.304  -0.916   0.327  1.00  0.00     0.162 HD
ENDBRANCH  32  34
ENDBRANCH  30  32
ENDBRANCH  28  29
ENDBRANCH  12  27
BRANCH  21  41
HETATM   41  N10 UNL     1      -1.708   1.311   1.904  1.00  0.00    -0.291 N 
ATOM     42  H10 UNL     1      -2.036   2.203   2.274  1.00  0.00     0.188 HD
BRANCH  41  43
HETATM   43  N11 UNL     1      -1.244   0.374   2.800  1.00  0.00    -0.344 N 
ATOM     44 2H11 UNL     1      -0.920  -0.512   2.413  1.00  0.00     0.176 HD
ATOM     45 1H11 UNL     1      -1.207   0.515   3.810  1.00  0.00     0.176 HD
ENDBRANCH  41  43
ENDBRANCH  21  41
ENDBRANCH   4   5
ENDBRANCH   3   4
TORSDOF 9
