REMARK  1 active torsions:
REMARK  status: ('A' for Active; 'I' for Inactive)
REMARK    1  A    between atoms: C2_2  and  C3_4 
REMARK       I    between atoms: C3_4  and  N1_6 
ROOT
HETATM    1  C3  UNL     1       0.462   0.543  -0.532  1.00  0.00     0.293 C 
HETATM    2  O2  UNL     1       0.595   0.357  -1.765  1.00  0.00    -0.264 OA
HETATM    3  N1  UNL     1      -0.740   0.950   0.075  1.00  0.00    -0.297 N 
ATOM      4  H1  UNL     1      -0.841   1.939   0.303  1.00  0.00     0.171 HD
HETATM    5  C4  UNL     1      -1.722   0.170   0.365  1.00  0.00     0.203 C 
HETATM    6  N2  UNL     1      -2.860   0.755   0.976  1.00  0.00    -0.066 NA
HETATM    7  N3  UNL     1      -1.720  -1.223   0.105  1.00  0.00    -0.066 NA
ENDROOT
BRANCH   1   8
HETATM    8  C2  UNL     1       1.627   0.323   0.319  1.00  0.00     0.212 C 
HETATM    9  C1  UNL     1       2.945  -0.111  -0.247  1.00  0.00     0.102 C 
HETATM   10  O1  UNL     1       1.595   0.483   1.568  1.00  0.00    -0.288 OA
ENDBRANCH   1   8
TORSDOF 1
