REMARK  3 active torsions:
REMARK  status: ('A' for Active; 'I' for Inactive)
REMARK    1  A    between atoms: C2_2  and  N1_3 
REMARK    2  A    between atoms: C2_2  and  C3_7 
REMARK    3  A    between atoms: C2_2  and  C4_9 
ROOT
HETATM    1  C1  UNL     1      -1.247   1.230  -0.003  1.00  0.00     0.054 C 
HETATM    2  C2  UNL     1      -0.631  -0.150   0.260  1.00  0.00     0.175 C 
ENDROOT
BRANCH   2   3
HETATM    3  N1  UNL     1      -1.349  -0.747   1.352  1.00  0.00    -0.064 N 
ATOM      4  H13 UNL     1      -1.369  -0.157   2.184  1.00  0.00     0.275 HD
ATOM      5  H12 UNL     1      -2.355  -0.786   1.191  1.00  0.00     0.275 HD
ATOM      6  H11 UNL     1      -0.939  -1.665   1.527  1.00  0.00     0.275 HD
ENDBRANCH   2   3
BRANCH   2   7
HETATM    7  C3  UNL     1      -0.804  -0.976  -0.944  1.00  0.00     0.269 C 
HETATM    8  O1  UNL     1      -1.473  -1.995  -0.925  1.00  0.00    -0.304 OA
ENDBRANCH   2   7
BRANCH   2   9
HETATM    9  C4  UNL     1       0.823   0.100   0.593  1.00  0.00     0.028 A 
HETATM   10  C5  UNL     1       1.580   0.794  -0.540  1.00  0.00     0.008 A 
HETATM   11  C6  UNL     1       1.908  -0.608  -0.113  1.00  0.00     0.008 A 
ENDBRANCH   2   9
TORSDOF 3
