REMARK  15 active torsions:
REMARK  status: ('A' for Active; 'I' for Inactive)
REMARK    1  A    between atoms: C2_2  and  C3_3 
REMARK    2  A    between atoms: C3_3  and  C4_4 
REMARK    3  A    between atoms: C7_10  and  C8_11 
REMARK    4  A    between atoms: C8_11  and  C9_12 
REMARK    5  A    between atoms: C12_17  and  O2_18 
REMARK    6  A    between atoms: C16_26  and  C17_27 
REMARK    7  A    between atoms: C17_27  and  C18_28 
REMARK    8  A    between atoms: C18_28  and  C19_29 
REMARK    9  A    between atoms: C19_29  and  N4_30 
REMARK       I    between atoms: N4_30  and  C20_32 
REMARK   10  A    between atoms: N7_37  and  C21_38 
REMARK   11  A    between atoms: C21_38  and  C22_39 
REMARK   12  A    between atoms: N8_41  and  C23_42 
REMARK   13  A    between atoms: C23_42  and  O4_43 
REMARK   14  A    between atoms: C23_42  and  N9_45 
REMARK   15  A    between atoms: C26_48  and  O5_49 
ROOT
HETATM    1  C4  UNL     1       0.195   1.023   1.740  1.00  0.00     0.100 C 
HETATM    2  C5  UNL     1       1.663   0.698   1.780  1.00  0.00     0.077 C 
HETATM    3  N1  UNL     1       2.574   1.584   1.225  1.00  0.00    -0.338 N 
ATOM      4  H1  UNL     1       2.637   2.516   1.634  1.00  0.00     0.167 HD
HETATM    5  C6  UNL     1       3.413   1.292   0.144  1.00  0.00     0.244 C 
HETATM    6  O1  UNL     1       4.061   2.235  -0.458  1.00  0.00    -0.271 OA
HETATM    7  C7  UNL     1       3.650  -0.045  -0.415  1.00  0.00     0.176 C 
HETATM    8  N2  UNL     1       2.970  -0.122  -1.695  1.00  0.00    -0.359 N 
ATOM      9  H2  UNL     1       2.924   0.762  -2.201  1.00  0.00     0.162 HD
HETATM   10  C12 UNL     1       2.374  -1.184  -2.347  1.00  0.00     0.135 C 
HETATM   11  C13 UNL     1       1.416  -2.182  -1.947  1.00  0.00     0.155 C 
HETATM   12  C14 UNL     1       0.427  -2.493  -3.080  1.00  0.00     0.041 C 
HETATM   13  N3  UNL     1       0.703  -2.084  -0.741  1.00  0.00    -0.345 N 
ATOM     14  H3  UNL     1       1.291  -2.172   0.088  1.00  0.00     0.163 HD
HETATM   15  C15 UNL     1      -0.663  -1.888  -0.444  1.00  0.00     0.261 C 
HETATM   16  O3  UNL     1      -1.101  -2.791   0.367  1.00  0.00    -0.267 OA
HETATM   17  C16 UNL     1      -1.620  -0.894  -0.873  1.00  0.00     0.076 C 
HETATM   18  N7  UNL     1      -1.253   0.324  -1.447  1.00  0.00    -0.181 NA
HETATM   19  N8  UNL     1      -0.533   1.325  -0.826  1.00  0.00    -0.215 N 
HETATM   20  C26 UNL     1      -0.273   1.648   0.510  1.00  0.00     0.146 C 
ENDROOT
BRANCH  17  21
HETATM   21  C17 UNL     1      -2.931  -1.086  -0.185  1.00  0.00     0.060 C 
BRANCH  21  22
HETATM   22  C18 UNL     1      -3.027  -0.999   1.283  1.00  0.00     0.025 C 
BRANCH  22  23
HETATM   23  C19 UNL     1      -4.487  -1.226   1.679  1.00  0.00     0.122 C 
BRANCH  23  24
HETATM   24  N4  UNL     1      -4.990  -2.514   1.302  1.00  0.00    -0.365 N 
HETATM   25  C20 UNL     1      -6.343  -2.800   1.604  1.00  0.00     0.181 C 
HETATM   26  N5  UNL     1      -7.068  -3.271   0.650  1.00  0.00    -0.374 N 
HETATM   27  N6  UNL     1      -6.883  -2.583   2.892  1.00  0.00    -0.064 NA
ATOM     28  H52 UNL     1      -6.678  -3.428  -0.280  1.00  0.00     0.158 HD
ATOM     29  H51 UNL     1      -8.043  -3.477   0.868  1.00  0.00     0.158 HD
ATOM     30  H4  UNL     1      -4.396  -3.198   0.834  1.00  0.00     0.162 HD
ENDBRANCH  23  24
ENDBRANCH  22  23
ENDBRANCH  21  22
ENDBRANCH  17  21
BRANCH  18  31
HETATM   31  C21 UNL     1      -2.485   0.853  -2.027  1.00  0.00     0.151 C 
BRANCH  31  32
HETATM   32  C22 UNL     1      -3.168   0.080  -3.072  1.00  0.00     0.238 C 
HETATM   33  F1  UNL     1      -2.494  -0.246  -4.212  1.00  0.00    -0.254 F 
ENDBRANCH  31  32
ENDBRANCH  18  31
BRANCH  19  34
HETATM   34  C23 UNL     1       0.109   2.231  -1.739  1.00  0.00     0.239 C 
BRANCH  34  35
HETATM   35  O4  UNL     1       0.723   3.294  -1.237  1.00  0.00    -0.331 OA
ATOM     36  H4  UNL     1       1.147   3.893  -1.840  1.00  0.00     0.221 HD
ENDBRANCH  34  35
BRANCH  34  37
HETATM   37  N9  UNL     1       0.226   2.204  -3.132  1.00  0.00    -0.343 N 
HETATM   38  C24 UNL     1       0.129   1.830  -4.569  1.00  0.00     0.146 A 
HETATM   39  C25 UNL     1       0.861   2.960  -4.240  1.00  0.00     0.146 A 
ENDBRANCH  34  37
ENDBRANCH  19  34
BRANCH  20  40
HETATM   40  O5  UNL     1      -0.515   2.915   0.762  1.00  0.00    -0.348 OA
ATOM     41  H5  UNL     1      -0.820   3.323  -0.040  1.00  0.00     0.219 HD
ENDBRANCH  20  40
BRANCH  10  42
HETATM   42  O2  UNL     1       2.765  -1.304  -3.589  1.00  0.00    -0.348 OA
ATOM     43  H2  UNL     1       2.355  -2.034  -4.037  1.00  0.00     0.219 HD
ENDBRANCH  10  42
BRANCH   1  44
HETATM   44  C3  UNL     1      -0.057   1.817   3.007  1.00  0.00     0.018 C 
BRANCH  44  45
HETATM   45  C2  UNL     1      -1.433   2.260   3.280  1.00  0.00    -0.003 C 
HETATM   46  C1  UNL     1      -1.435   3.032   4.595  1.00  0.00     0.005 C 
ENDBRANCH  44  45
ENDBRANCH   1  44
BRANCH   7  47
HETATM   47  C8  UNL     1       5.078  -0.374  -0.672  1.00  0.00     0.038 C 
BRANCH  47  48
HETATM   48  C9  UNL     1       6.042  -0.402   0.431  1.00  0.00    -0.020 C 
HETATM   49  C10 UNL     1       6.278   0.852   1.204  1.00  0.00     0.009 C 
HETATM   50  C11 UNL     1       5.828  -1.553   1.403  1.00  0.00     0.009 C 
ENDBRANCH  47  48
ENDBRANCH   7  47
TORSDOF 15
