REMARK  5 active torsions:
REMARK  status: ('A' for Active; 'I' for Inactive)
REMARK    1  A    between atoms: C2_2  and  C4_5 
REMARK    2  A    between atoms: N1_10  and  C9_11 
REMARK    3  A    between atoms: N2_13  and  C11_14 
REMARK    4  A    between atoms: C11_14  and  C12_15 
REMARK    5  A    between atoms: C21_30  and  C22_31 
ROOT
HETATM    1  C4  UNL     1      -3.992   0.780   1.378  1.00  0.00     0.015 C 
HETATM    2  C5  UNL     1      -3.156   0.255   0.532  1.00  0.00    -0.040 C 
HETATM    3  C6  UNL     1      -2.111  -0.617   1.178  1.00  0.00    -0.059 C 
HETATM    4  C7  UNL     1      -2.650  -1.855   1.801  1.00  0.00     0.046 C 
HETATM    5  C8  UNL     1      -0.815  -0.690   0.496  1.00  0.00     0.160 C 
HETATM    6  N1  UNL     1      -0.636   0.385  -0.429  1.00  0.00    -0.341 N 
HETATM    7  C20 UNL     1      -1.687   0.703  -1.317  1.00  0.00     0.229 C 
HETATM    8  O5  UNL     1      -1.475   1.194  -2.436  1.00  0.00    -0.273 OA
HETATM    9  C21 UNL     1      -3.148   0.442  -0.899  1.00  0.00     0.118 C 
ENDROOT
BRANCH   6  10
HETATM   10  C9  UNL     1       0.599   1.165  -0.492  1.00  0.00     0.117 C 
HETATM   11  C10 UNL     1       1.753   0.349  -0.881  1.00  0.00     0.134 C 
HETATM   12  N2  UNL     1       2.854   0.412  -0.000  1.00  0.00    -0.204 NA
HETATM   13  S1  UNL     1       2.650   1.908   0.816  1.00  0.00     0.213 S 
HETATM   14  O3  UNL     1       3.020   1.886   2.247  1.00  0.00    -0.211 OA
HETATM   15  O4  UNL     1       3.214   3.064   0.063  1.00  0.00    -0.211 OA
HETATM   16  C19 UNL     1       0.847   1.957   0.749  1.00  0.00     0.184 C 
BRANCH  12  17
HETATM   17  C11 UNL     1       4.069   0.284  -0.737  1.00  0.00     0.145 C 
BRANCH  17  18
HETATM   18  C12 UNL     1       5.180  -0.347  -0.044  1.00  0.00    -0.041 A 
HETATM   19  C13 UNL     1       5.068  -0.812   1.237  1.00  0.00     0.011 A 
HETATM   20  C14 UNL     1       6.176  -1.402   1.817  1.00  0.00     0.040 A 
HETATM   21  C15 UNL     1       7.373  -1.537   1.159  1.00  0.00     0.105 A 
HETATM   22  C16 UNL     1       7.493  -1.069  -0.134  1.00  0.00     0.105 A 
HETATM   23  O2  UNL     1       8.611  -2.090   1.537  1.00  0.00    -0.323 OA
HETATM   24  C17 UNL     1       6.382  -0.486  -0.693  1.00  0.00     0.048 A 
HETATM   25  O1  UNL     1       8.783  -1.342  -0.519  1.00  0.00    -0.323 OA
HETATM   26  C18 UNL     1       9.587  -1.633   0.608  1.00  0.00     0.352 C 
ENDBRANCH  17  18
ENDBRANCH  12  17
ENDBRANCH   6  10
BRANCH   9  27
HETATM   27  C22 UNL     1      -3.618  -0.569  -1.856  1.00  0.00    -0.035 C 
HETATM   28  C23 UNL     1      -2.922  -1.883  -1.966  1.00  0.00     0.015 C 
HETATM   29  C24 UNL     1      -3.619  -0.000  -3.299  1.00  0.00     0.015 C 
HETATM   30  C25 UNL     1      -5.107  -0.969  -1.635  1.00  0.00     0.015 C 
ENDBRANCH   9  27
BRANCH   1  31
HETATM   31  C2  UNL     1      -5.111   1.642   1.365  1.00  0.00    -0.051 C 
HETATM   32  C1  UNL     1      -5.627   2.352   0.187  1.00  0.00     0.049 C 
HETATM   33  C3  UNL     1      -5.769   1.945   2.520  1.00  0.00     0.091 C 
HETATM   34 CL1  UNL     1      -5.217   1.146   3.972  1.00  0.00    -0.096 Cl
ENDBRANCH   1  31
TORSDOF 5
