REMARK  3 active torsions:
REMARK  status: ('A' for Active; 'I' for Inactive)
REMARK    1  A    between atoms: C1_2  and  C2_4 
REMARK    2  A    between atoms: C2_4  and  S1_5 
REMARK    3  A    between atoms: S1_5  and  C3_6 
ROOT
HETATM    1  C3  UNL     1      -0.513  -0.539   0.674  1.00  0.00     0.048 C 
HETATM    2  C4  UNL     1      -0.511   0.951   0.711  1.00  0.00     0.015 C 
HETATM    3  C5  UNL     1      -2.023   1.195   0.660  1.00  0.00     0.001 C 
HETATM    4  C6  UNL     1      -2.420   0.274  -0.477  1.00  0.00     0.001 C 
HETATM    5  C7  UNL     1      -1.436  -0.886  -0.472  1.00  0.00     0.015 C 
ENDROOT
BRANCH   1   6
HETATM    6  S1  UNL     1       0.996  -1.388   0.757  1.00  0.00    -0.154 SA
BRANCH   6   7
HETATM    7  C2  UNL     1       2.186  -1.184  -0.550  1.00  0.00     0.187 C 
BRANCH   7   8
HETATM    8  C1  UNL     1       2.814   0.162  -0.517  1.00  0.00     0.182 C 
HETATM    9  O1  UNL     1       2.566   1.053  -1.382  1.00  0.00    -0.647 OA
HETATM   10  O2  UNL     1       3.705   0.462   0.476  1.00  0.00    -0.647 OA
ENDBRANCH   7   8
ENDBRANCH   6   7
ENDBRANCH   1   6
TORSDOF 3
