REMARK  2 active torsions:
REMARK  status: ('A' for Active; 'I' for Inactive)
REMARK    1  A    between atoms: C4_5  and  C5_6 
REMARK    2  A    between atoms: C5_6  and  C6_7 
ROOT
HETATM    1  C6  UNL     1       1.855  -0.483   0.380  1.00  0.00     0.125 C 
HETATM    2  C7  UNL     1       3.313  -0.694   0.551  1.00  0.00     0.059 C 
HETATM    3  N1  UNL     1       4.455  -0.846   0.671  1.00  0.00    -0.197 NA
ENDROOT
BRANCH   1   4
HETATM    4  C5  UNL     1       1.661   0.288  -0.869  1.00  0.00     0.031 C 
BRANCH   4   5
HETATM    5  C4  UNL     1       0.248   0.601  -1.215  1.00  0.00     0.074 C 
HETATM    6  C3  UNL     1      -0.433   1.426  -0.139  1.00  0.00     0.184 C 
HETATM    7  O1  UNL     1      -1.791   1.381  -0.392  1.00  0.00    -0.375 OA
HETATM    8  C2  UNL     1      -2.208   0.065  -0.254  1.00  0.00     0.179 C 
HETATM    9  C1  UNL     1      -2.431  -0.364   1.150  1.00  0.00     0.051 C 
HETATM   10  S1  UNL     1      -0.842  -0.873  -1.054  1.00  0.00    -0.131 SA
ENDBRANCH   4   5
ENDBRANCH   1   4
TORSDOF 2
