REMARK  9 active torsions:
REMARK  status: ('A' for Active; 'I' for Inactive)
REMARK    1  A    between atoms: C1_4  and  C2_6 
REMARK    2  A    between atoms: C4_8  and  N3_9 
REMARK    3  A    between atoms: N3_9  and  C5_11 
REMARK    4  A    between atoms: C5_11  and  C6_12 
REMARK    5  A    between atoms: C6_12  and  C7_13 
REMARK    6  A    between atoms: C7_13  and  N4_14 
REMARK       I    between atoms: N4_14  and  C8_16 
REMARK    7  A    between atoms: N7_22  and  C10_24 
REMARK    8  A    between atoms: C13_27  and  S1_28 
REMARK    9  A    between atoms: S1_28  and  N8_29 
ROOT
HETATM    1  C2  UNL     1      -0.180  -0.798  -1.209  1.00  0.00     0.123 A 
HETATM    2  C3  UNL     1       1.114  -0.909  -0.743  1.00  0.00     0.089 A 
HETATM    3  C4  UNL     1       1.479  -0.580   0.556  1.00  0.00     0.106 A 
HETATM    4  N6  UNL     1       0.502  -0.137   1.366  1.00  0.00    -0.308 N 
ATOM      5  H6  UNL     1       0.714   0.119   2.330  1.00  0.00     0.171 HD
HETATM    6  C9  UNL     1      -0.753  -0.033   0.903  1.00  0.00     0.231 A 
HETATM    7  N7  UNL     1      -1.658   0.399   1.725  1.00  0.00    -0.322 N 
ATOM      8  H7  UNL     1      -1.368   0.635   2.674  1.00  0.00     0.169 HD
HETATM    9  O4  UNL     1      -1.065  -0.350  -0.321  1.00  0.00    -0.276 OA
ENDROOT
BRANCH   7  10
HETATM   10  C10 UNL     1      -3.016   0.563   1.389  1.00  0.00     0.035 A 
HETATM   11  C11 UNL     1      -3.463   1.729   0.825  1.00  0.00     0.031 A 
HETATM   12  C12 UNL     1      -4.788   1.887   0.498  1.00  0.00     0.027 A 
HETATM   13  C13 UNL     1      -5.687   0.859   0.739  1.00  0.00     0.079 A 
HETATM   14  C14 UNL     1      -5.264  -0.333   1.309  1.00  0.00     0.027 A 
HETATM   15  C15 UNL     1      -3.925  -0.449   1.622  1.00  0.00     0.031 A 
BRANCH  13  16
HETATM   16  S1  UNL     1      -7.382   1.030   0.334  1.00  0.00     0.256 S 
HETATM   17  O2  UNL     1      -7.869   2.425   0.482  1.00  0.00    -0.201 OA
HETATM   18  O3  UNL     1      -8.176   0.128   1.250  1.00  0.00    -0.201 OA
BRANCH  16  19
HETATM   19  N8  UNL     1      -7.676   0.488  -1.277  1.00  0.00    -0.324 N 
ATOM     20  H82 UNL     1      -6.952   0.121  -1.895  1.00  0.00     0.169 HD
ATOM     21  H81 UNL     1      -8.663   0.588  -1.513  1.00  0.00     0.169 HD
ENDBRANCH  16  19
ENDBRANCH  13  16
ENDBRANCH   7  10
BRANCH   3  22
HETATM   22  N3  UNL     1       2.690  -0.685   0.990  1.00  0.00    -0.376 N 
ATOM     23  H3  UNL     1       2.914  -0.432   1.952  1.00  0.00     0.161 HD
BRANCH  22  24
HETATM   24  C5  UNL     1       3.731  -1.165   0.100  1.00  0.00     0.123 C 
BRANCH  24  25
HETATM   25  C6  UNL     1       4.988  -1.443   0.867  1.00  0.00     0.039 C 
BRANCH  25  26
HETATM   26  C7  UNL     1       5.540  -0.246   1.569  1.00  0.00     0.125 C 
BRANCH  26  27
HETATM   27  N4  UNL     1       5.884   0.861   0.731  1.00  0.00    -0.345 N 
HETATM   28  C8  UNL     1       6.861   0.763  -0.295  1.00  0.00     0.328 C 
HETATM   29  N5  UNL     1       7.141   1.921  -1.087  1.00  0.00    -0.040 NA
HETATM   30  O1  UNL     1       7.470  -0.328  -0.503  1.00  0.00    -0.251 OA
ATOM     31  H4  UNL     1       5.411   1.753   0.876  1.00  0.00     0.163 HD
ENDBRANCH  26  27
ENDBRANCH  25  26
ENDBRANCH  24  25
ENDBRANCH  22  24
ENDBRANCH   3  22
BRANCH   1  32
HETATM   32  C1  UNL     1      -0.595  -1.131  -2.552  1.00  0.00     0.144 C 
HETATM   33  N1  UNL     1       0.259  -1.559  -3.392  1.00  0.00    -0.385 N 
ATOM     34  H12 UNL     1      -0.034  -1.794  -4.340  1.00  0.00     0.157 HD
ATOM     35  H11 UNL     1       1.236  -1.668  -3.121  1.00  0.00     0.157 HD
HETATM   36  N2  UNL     1      -1.939  -0.981  -2.924  1.00  0.00    -0.080 NA
ENDBRANCH   1  32
TORSDOF 9
