REMARK  10 active torsions:
REMARK  status: ('A' for Active; 'I' for Inactive)
REMARK    1  A    between atoms: C1_4  and  C2_6 
REMARK    2  A    between atoms: C5_9  and  C6_10 
REMARK    3  A    between atoms: C6_10  and  N3_11 
REMARK    4  A    between atoms: C7_13  and  C8_14 
REMARK    5  A    between atoms: C7_13  and  N5_17 
REMARK    6  A    between atoms: C11_20  and  C12_21 
REMARK    7  A    between atoms: C12_21  and  N6_22 
REMARK    8  A    between atoms: C12_21  and  N7_26 
REMARK    9  A    between atoms: N7_26  and  N8_27 
REMARK   10  A    between atoms: C15_32  and  N9_33 
ROOT
HETATM    1  N3  UNL     1      -0.249   0.835   1.269  1.00  0.00    -0.347 N 
ATOM      2  H3  UNL     1       0.072   0.132   1.934  1.00  0.00     0.167 HD
HETATM    3  C7  UNL     1       0.537   1.100   0.319  1.00  0.00     0.177 C 
ENDROOT
BRANCH   3   4
HETATM    4  C8  UNL     1       0.373   2.038  -0.772  1.00  0.00     0.299 C 
HETATM    5  N4  UNL     1      -0.770   2.856  -0.961  1.00  0.00    -0.054 NA
HETATM    6  O1  UNL     1       1.319   2.149  -1.640  1.00  0.00    -0.268 OA
ENDBRANCH   3   4
BRANCH   3   7
HETATM    7  N5  UNL     1       1.818   0.381   0.265  1.00  0.00    -0.315 N 
HETATM    8  C9  UNL     1       2.675   0.406   1.293  1.00  0.00     0.099 A 
HETATM    9  C10 UNL     1       3.892  -0.274   1.248  1.00  0.00     0.028 A 
HETATM   10  C11 UNL     1       4.224  -0.990   0.121  1.00  0.00    -0.008 A 
HETATM   11  C13 UNL     1       3.346  -1.012  -0.922  1.00  0.00     0.028 A 
HETATM   12  C14 UNL     1       2.164  -0.324  -0.822  1.00  0.00     0.099 A 
BRANCH  10  13
HETATM   13  C12 UNL     1       5.518  -1.713   0.074  1.00  0.00     0.328 C 
BRANCH  13  14
HETATM   14  N6  UNL     1       5.269  -3.032  -0.474  1.00  0.00    -0.056 N 
ATOM     15  H63 UNL     1       4.548  -3.543   0.036  1.00  0.00     0.276 HD
ATOM     16  H62 UNL     1       4.799  -3.002  -1.379  1.00  0.00     0.276 HD
ATOM     17  H61 UNL     1       6.159  -3.529  -0.506  1.00  0.00     0.276 HD
ENDBRANCH  13  14
BRANCH  13  18
HETATM   18  N7  UNL     1       6.511  -1.065  -0.717  1.00  0.00    -0.110 NA
BRANCH  18  19
HETATM   19  N8  UNL     1       6.830   0.221  -0.265  1.00  0.00    -0.346 N 
ATOM     20  H82 UNL     1       6.386   0.639   0.552  1.00  0.00     0.172 HD
ATOM     21  H81 UNL     1       7.541   0.685  -0.831  1.00  0.00     0.172 HD
ENDBRANCH  18  19
ENDBRANCH  13  18
ENDBRANCH  10  13
ENDBRANCH   3   7
BRANCH   1  22
HETATM   22  C6  UNL     1      -1.512   1.391   1.521  1.00  0.00     0.103 C 
BRANCH  22  23
HETATM   23  C5  UNL     1      -2.638   0.722   0.855  1.00  0.00     0.012 A 
HETATM   24  C4  UNL     1      -2.380  -0.385   0.037  1.00  0.00     0.016 A 
HETATM   25  C3  UNL     1      -3.398  -1.055  -0.613  1.00  0.00     0.016 A 
HETATM   26  C2  UNL     1      -4.708  -0.664  -0.484  1.00  0.00     0.007 A 
HETATM   27  C16 UNL     1      -4.970   0.406   0.306  1.00  0.00     0.051 A 
HETATM   28  C15 UNL     1      -3.949   1.104   0.977  1.00  0.00     0.115 A 
BRANCH  26  29
HETATM   29  C1  UNL     1      -5.778  -1.376  -1.173  1.00  0.00     0.120 C 
HETATM   30  N1  UNL     1      -5.487  -2.378  -1.909  1.00  0.00    -0.387 N 
ATOM     31  H12 UNL     1      -6.235  -2.876  -2.391  1.00  0.00     0.157 HD
ATOM     32  H11 UNL     1      -4.514  -2.668  -2.004  1.00  0.00     0.157 HD
HETATM   33  N2  UNL     1      -7.121  -0.976  -1.042  1.00  0.00    -0.082 NA
ENDBRANCH  26  29
BRANCH  28  34
HETATM   34  N9  UNL     1      -4.340   2.183   1.788  1.00  0.00    -0.115 N 
HETATM   35  O2  UNL     1      -5.506   2.126   2.299  1.00  0.00    -0.532 OA
HETATM   36  O3  UNL     1      -3.560   3.252   2.050  1.00  0.00    -0.532 OA
ENDBRANCH  28  34
ENDBRANCH  22  23
ENDBRANCH   1  22
TORSDOF 10
