REMARK  9 active torsions:
REMARK  status: ('A' for Active; 'I' for Inactive)
REMARK    1  A    between atoms: C6_6  and  C8_8 
REMARK    2  A    between atoms: C8_8  and  N1_9 
REMARK       I    between atoms: N1_9  and  C9_11 
REMARK    3  A    between atoms: C9_11  and  C10_13 
REMARK    4  A    between atoms: C10_13  and  C11_14 
REMARK    5  A    between atoms: C10_13  and  N5_22 
REMARK    6  A    between atoms: C11_14  and  C12_15 
REMARK    7  A    between atoms: C12_15  and  C13_16 
REMARK    8  A    between atoms: C13_16  and  N2_17 
REMARK       I    between atoms: N5_22  and  C15_24 
REMARK    9  A    between atoms: C15_24  and  C16_26 
ROOT
HETATM    1  C10 UNL     1      -1.608  -0.473   0.680  1.00  0.00     0.177 C 
ENDROOT
BRANCH   1   2
HETATM    2  C9  UNL     1      -0.160  -0.924   0.817  1.00  0.00     0.244 C 
HETATM    3  N1  UNL     1       0.648  -0.440   1.847  1.00  0.00    -0.338 N 
ATOM      4  H1  UNL     1       0.201   0.204   2.499  1.00  0.00     0.167 HD
HETATM    5  O1  UNL     1       0.177  -1.745  -0.073  1.00  0.00    -0.271 OA
BRANCH   3   6
HETATM    6  C8  UNL     1       1.981  -0.724   2.095  1.00  0.00     0.073 C 
BRANCH   6   7
HETATM    7  C6  UNL     1       3.097  -0.284   1.245  1.00  0.00    -0.012 C 
HETATM    8  C5  UNL     1       3.094  -0.709  -0.157  1.00  0.00     0.015 C 
HETATM    9  C4  UNL     1       4.375  -0.333  -0.906  1.00  0.00     0.010 C 
HETATM   10  C2  UNL     1       4.743   1.107  -0.753  1.00  0.00    -0.048 C 
HETATM   11  C1  UNL     1       4.939   1.803  -2.093  1.00  0.00     0.015 C 
HETATM   12  C3  UNL     1       6.001   1.347   0.043  1.00  0.00     0.015 C 
HETATM   13  C22 UNL     1       3.581   1.812  -0.081  1.00  0.00     0.010 C 
HETATM   14  C21 UNL     1       3.280   1.235   1.266  1.00  0.00     0.015 C 
HETATM   15  C7  UNL     1       4.359  -0.917   1.905  1.00  0.00     0.021 C 
ENDBRANCH   6   7
ENDBRANCH   3   6
ENDBRANCH   1   2
BRANCH   1  16
HETATM   16  C11 UNL     1      -1.708   0.911   0.102  1.00  0.00     0.036 C 
BRANCH  16  17
HETATM   17  C12 UNL     1      -1.035   1.992   0.865  1.00  0.00     0.022 C 
BRANCH  17  18
HETATM   18  C13 UNL     1      -1.251   3.336   0.167  1.00  0.00     0.122 C 
BRANCH  18  19
HETATM   19  N2  UNL     1      -2.634   3.673   0.080  1.00  0.00    -0.367 N 
HETATM   20  C14 UNL     1      -3.034   4.711  -0.545  1.00  0.00     0.196 C 
HETATM   21  N3  UNL     1      -4.421   5.042  -0.628  1.00  0.00    -0.067 NA
HETATM   22  N4  UNL     1      -2.087   5.571  -1.184  1.00  0.00    -0.067 NA
ATOM     23  H2  UNL     1      -3.322   3.068   0.529  1.00  0.00     0.161 HD
ENDBRANCH  18  19
ENDBRANCH  17  18
ENDBRANCH  16  17
ENDBRANCH   1  16
BRANCH   1  24
HETATM   24  N5  UNL     1      -2.305  -1.359  -0.269  1.00  0.00    -0.346 N 
HETATM   25  C15 UNL     1      -3.424  -2.110   0.152  1.00  0.00     0.254 C 
HETATM   26  O2  UNL     1      -3.801  -1.988   1.367  1.00  0.00    -0.271 OA
ATOM     27  H5  UNL     1      -1.978  -1.430  -1.233  1.00  0.00     0.163 HD
BRANCH  25  28
HETATM   28  C16 UNL     1      -4.183  -3.021  -0.711  1.00  0.00     0.201 C 
HETATM   29  C17 UNL     1      -4.716  -2.402  -1.969  1.00  0.00     0.057 C 
HETATM   30  C18 UNL     1      -3.250  -4.161  -1.089  1.00  0.00     0.050 C 
HETATM   31  C19 UNL     1      -3.459  -5.088   0.087  1.00  0.00     0.030 C 
HETATM   32  C20 UNL     1      -4.914  -4.960   0.376  1.00  0.00     0.234 C 
HETATM   33  N6  UNL     1      -5.264  -3.625   0.016  1.00  0.00    -0.058 N 
ATOM     34  H62 UNL     1      -5.541  -3.069   0.825  1.00  0.00     0.278 HD
ATOM     35  H61 UNL     1      -6.144  -3.584  -0.499  1.00  0.00     0.278 HD
ENDBRANCH  25  28
ENDBRANCH   1  24
TORSDOF 9
