REMARK  2 active torsions:
REMARK  status: ('A' for Active; 'I' for Inactive)
REMARK    1  A    between atoms: C1_2  and  N1_3 
REMARK    2  A    between atoms: N1_3  and  C2_5 
ROOT
HETATM    1  N1  UNL     1       0.818   0.230   0.659  1.00  0.00    -0.364 N 
ATOM      2  H1  UNL     1       0.450   0.287   1.609  1.00  0.00     0.162 HD
ENDROOT
BRANCH   1   3
HETATM    3  C1  UNL     1       2.198   0.345   0.449  1.00  0.00     0.348 C 
HETATM    4  O1  UNL     1       2.681   0.280  -0.712  1.00  0.00    -0.284 OA
ENDBRANCH   1   3
BRANCH   1   5
HETATM    5  C2  UNL     1      -0.096   0.032  -0.444  1.00  0.00     0.083 A 
HETATM    6  C3  UNL     1      -1.491   0.491  -0.397  1.00  0.00     0.027 A 
HETATM    7  C4  UNL     1      -1.188  -0.977  -0.128  1.00  0.00     0.027 A 
ENDBRANCH   1   5
TORSDOF 2
