REMARK  1 active torsions:
REMARK  status: ('A' for Active; 'I' for Inactive)
REMARK    1  A    between atoms: N2_4  and  N3_6 
ROOT
HETATM    1  N3  UNL     1       1.713  -0.985  -0.133  1.00  0.00    -0.295 N 
ATOM      2  H3  UNL     1       1.745  -2.001  -0.053  1.00  0.00     0.187 HD
HETATM    3  C1  UNL     1       0.560  -0.468  -0.212  1.00  0.00     0.005 C 
HETATM    4  C2  UNL     1      -0.703  -1.251  -0.193  1.00  0.00     0.054 C 
HETATM    5  C3  UNL     1      -1.804  -0.332   0.209  1.00  0.00     0.006 C 
HETATM    6  C4  UNL     1      -1.284   1.048  -0.072  1.00  0.00     0.006 C 
HETATM    7  C5  UNL     1       0.178   0.950  -0.335  1.00  0.00     0.054 C 
ENDROOT
BRANCH   1   8
HETATM    8  N2  UNL     1       2.926  -0.339  -0.142  1.00  0.00    -0.249 N 
HETATM    9  N1  UNL     1       3.098   0.887  -0.423  1.00  0.00    -0.331 N 
ATOM     10  H12 UNL     1       2.260   1.420  -0.658  1.00  0.00     0.178 HD
ATOM     11  H11 UNL     1       3.998   1.366  -0.430  1.00  0.00     0.178 HD
ATOM     12  H2  UNL     1       3.753  -0.887   0.096  1.00  0.00     0.207 HD
ENDBRANCH   1   8
TORSDOF 1
