REMARK  14 active torsions:
REMARK  status: ('A' for Active; 'I' for Inactive)
REMARK    1  A    between atoms: C2_2  and  C3_4 
REMARK    2  A    between atoms: C3_4  and  C4_5 
REMARK    3  A    between atoms: C5_7  and  C7_9 
REMARK    4  A    between atoms: C7_9  and  C9_11 
REMARK    5  A    between atoms: C9_11  and  C10_12 
REMARK    6  A    between atoms: C10_12  and  C11_13 
REMARK    7  A    between atoms: C12_15  and  O4_16 
REMARK    8  A    between atoms: C12_15  and  C13_18 
REMARK    9  A    between atoms: C16_21  and  C17_22 
REMARK   10  A    between atoms: C17_22  and  C19_24 
REMARK   11  A    between atoms: C19_24  and  C20_25 
REMARK   12  A    between atoms: C20_25  and  C21_26 
REMARK   13  A    between atoms: C21_26  and  C22_27 
REMARK   14  A    between atoms: C29_35  and  O6_36 
ROOT
HETATM    1  C11 UNL     1      -0.915  -1.511  -0.717  1.00  0.00     0.154 C 
HETATM    2  O3  UNL     1       0.474  -1.321  -0.339  1.00  0.00    -0.347 OA
HETATM    3  C12 UNL     1       1.295  -2.031  -1.169  1.00  0.00     0.172 C 
HETATM    4  C27 UNL     1       0.631  -2.595  -2.405  1.00  0.00     0.072 C 
HETATM    5  C28 UNL     1      -0.405  -3.572  -1.967  1.00  0.00     0.040 C 
HETATM    6  C29 UNL     1      -1.123  -3.013  -0.759  1.00  0.00     0.147 C 
ENDROOT
BRANCH   3   7
HETATM    7  O4  UNL     1       1.775  -3.129  -0.449  1.00  0.00    -0.365 OA
ATOM      8  H4  UNL     1       2.346  -3.623  -1.026  1.00  0.00     0.213 HD
ENDBRANCH   3   7
BRANCH   3   9
HETATM    9  C13 UNL     1       2.488  -1.237  -1.647  1.00  0.00     0.118 C 
HETATM   10  C14 UNL     1       2.045   0.008  -2.415  1.00  0.00     0.018 C 
HETATM   11  C15 UNL     1       3.345   0.773  -2.491  1.00  0.00     0.013 C 
HETATM   12  C16 UNL     1       4.035   0.489  -1.161  1.00  0.00     0.060 C 
HETATM   13  C26 UNL     1       3.246  -0.604  -0.540  1.00  0.00     0.140 C 
HETATM   14  O5  UNL     1       3.239  -0.900   0.631  1.00  0.00    -0.297 OA
BRANCH  12  15
HETATM   15  C17 UNL     1       5.472   0.150  -1.343  1.00  0.00    -0.007 C 
HETATM   16  C18 UNL     1       5.703  -1.076  -2.193  1.00  0.00     0.011 C 
BRANCH  15  17
HETATM   17  C19 UNL     1       6.134  -0.094  -0.014  1.00  0.00     0.005 C 
BRANCH  17  18
HETATM   18  C20 UNL     1       6.064   1.115   0.850  1.00  0.00     0.004 C 
BRANCH  18  19
HETATM   19  C21 UNL     1       6.736   0.871   2.180  1.00  0.00     0.027 C 
BRANCH  19  20
HETATM   20  C22 UNL     1       8.161   0.540   1.968  1.00  0.00    -0.025 C 
HETATM   21  C23 UNL     1       9.152   1.295   2.452  1.00  0.00    -0.091 C 
HETATM   22  C24 UNL     1       8.925   2.516   3.235  1.00  0.00     0.042 C 
HETATM   23  C25 UNL     1      10.561   0.868   2.179  1.00  0.00     0.042 C 
ENDBRANCH  19  20
ENDBRANCH  18  19
ENDBRANCH  17  18
ENDBRANCH  15  17
ENDBRANCH  12  15
ENDBRANCH   3   9
BRANCH   1  24
HETATM   24  C10 UNL     1      -1.675  -0.778   0.290  1.00  0.00     0.035 C 
BRANCH  24  25
HETATM   25  C9  UNL     1      -3.127  -0.646   0.271  1.00  0.00     0.010 C 
BRANCH  25  26
HETATM   26  C7  UNL     1      -3.768   0.130  -0.842  1.00  0.00     0.016 C 
HETATM   27  C8  UNL     1      -3.369  -0.144  -2.227  1.00  0.00     0.013 C 
BRANCH  26  28
HETATM   28  C5  UNL     1      -5.293   0.102  -0.607  1.00  0.00     0.061 C 
HETATM   29  O2  UNL     1      -5.409   0.363   0.772  1.00  0.00    -0.374 OA
HETATM   30  C4  UNL     1      -6.750   0.467   1.136  1.00  0.00     0.133 C 
HETATM   31  C32 UNL     1      -7.388   1.698   0.581  1.00  0.00     0.011 C 
HETATM   32  C31 UNL     1      -6.545   2.238  -0.528  1.00  0.00     0.010 C 
HETATM   33  C33 UNL     1      -8.820   1.443   0.142  1.00  0.00     0.012 C 
HETATM   34  C30 UNL     1      -6.022   1.114  -1.415  1.00  0.00     0.038 C 
HETATM   35  C6  UNL     1      -5.776  -1.277  -0.977  1.00  0.00     0.046 C 
BRANCH  30  36
HETATM   36  C3  UNL     1      -6.838   0.375   2.631  1.00  0.00     0.110 C 
BRANCH  36  37
HETATM   37  C2  UNL     1      -6.063   1.457   3.284  1.00  0.00     0.125 C 
HETATM   38  C1  UNL     1      -6.054   1.536   4.788  1.00  0.00     0.091 C 
HETATM   39  O1  UNL     1      -5.424   2.301   2.704  1.00  0.00    -0.298 OA
ENDBRANCH  36  37
ENDBRANCH  30  36
ENDBRANCH  26  28
ENDBRANCH  25  26
ENDBRANCH  24  25
ENDBRANCH   1  24
BRANCH   6  40
HETATM   40  O6  UNL     1      -2.447  -3.323  -0.855  1.00  0.00    -0.393 OA
ATOM     41  H6  UNL     1      -2.577  -4.264  -0.881  1.00  0.00     0.210 HD
ENDBRANCH   6  40
TORSDOF 14
