REMARK  7 active torsions:
REMARK  status: ('A' for Active; 'I' for Inactive)
REMARK    1  A    between atoms: C2_2  and  C4_4 
REMARK    2  A    between atoms: C4_4  and  C5_5 
REMARK    3  A    between atoms: C5_5  and  N1_6 
REMARK    4  A    between atoms: N1_6  and  C6_9 
REMARK    5  A    between atoms: C19_25  and  C20_26 
REMARK    6  A    between atoms: C20_26  and  N3_27 
REMARK       I    between atoms: N3_27  and  C21_29 
REMARK    7  A    between atoms: C21_29  and  C22_31 
ROOT
HETATM    1  C6  UNL     1       5.235  -0.893  -0.705  1.00  0.00     0.186 C 
HETATM    2  C7  UNL     1       4.288  -1.448   0.325  1.00  0.00     0.038 C 
HETATM    3  C8  UNL     1       3.530  -0.339   1.034  1.00  0.00     0.074 C 
HETATM    4  C9  UNL     1       2.484   0.179   0.075  1.00  0.00     0.258 C 
HETATM    5  C10 UNL     1       3.002   0.073  -1.342  1.00  0.00     0.074 C 
HETATM    6  C11 UNL     1       4.500   0.298  -1.334  1.00  0.00     0.038 C 
HETATM    7  N2  UNL     1       1.287  -0.635   0.257  1.00  0.00    -0.035 N 
ATOM      8  H21 UNL     1       1.474  -1.564   0.635  1.00  0.00     0.281 HD
ATOM      9  H22 UNL     1       0.864  -0.946  -0.617  1.00  0.00     0.281 HD
HETATM   10  C12 UNL     1       0.390   0.178   1.096  1.00  0.00     0.310 C 
HETATM   11  C13 UNL     1      -0.008   1.360   0.211  1.00  0.00     0.253 C 
HETATM   12  C14 UNL     1      -0.954   2.261   0.938  1.00  0.00     0.079 C 
HETATM   13  C15 UNL     1      -2.277   2.301   0.234  1.00  0.00     0.048 C 
HETATM   14  C16 UNL     1      -2.790   0.905  -0.121  1.00  0.00     0.120 C 
HETATM   15  C17 UNL     1      -3.752   0.486   0.933  1.00  0.00     0.045 C 
HETATM   16  C18 UNL     1      -5.056  -0.053   0.464  1.00  0.00     0.038 C 
HETATM   17  C19 UNL     1      -5.654   0.659  -0.722  1.00  0.00     0.203 C 
HETATM   18  N4  UNL     1      -4.740   1.648  -1.273  1.00  0.00    -0.066 N 
ATOM     19  H41 UNL     1      -4.670   2.490  -0.702  1.00  0.00     0.277 HD
ATOM     20  H42 UNL     1      -5.095   2.093  -2.119  1.00  0.00     0.277 HD
HETATM   21  C25 UNL     1      -3.465   0.986  -1.470  1.00  0.00     0.273 C 
HETATM   22  O2  UNL     1      -1.688   0.063  -0.253  1.00  0.00    -0.225 OA
HETATM   23  O3  UNL     1      -0.737   0.785  -0.852  1.00  0.00    -0.195 OA
HETATM   24  O4  UNL     1       1.156   1.962  -0.211  1.00  0.00    -0.193 OA
HETATM   25  O5  UNL     1       2.234   1.509   0.400  1.00  0.00    -0.197 OA
ENDROOT
BRANCH   1  26
HETATM   26  N1  UNL     1       6.457  -0.398  -0.170  1.00  0.00    -0.071 N 
ATOM     27  H12 UNL     1       6.278   0.386   0.458  1.00  0.00     0.277 HD
ATOM     28  H11 UNL     1       6.995   0.077  -0.895  1.00  0.00     0.277 HD
BRANCH  26  29
HETATM   29  C5  UNL     1       7.266  -1.389   0.485  1.00  0.00     0.233 C 
BRANCH  29  30
HETATM   30  C4  UNL     1       8.531  -0.733   0.999  1.00  0.00     0.031 C 
BRANCH  30  31
HETATM   31  C2  UNL     1       9.296  -0.138  -0.162  1.00  0.00    -0.021 C 
HETATM   32  C1  UNL     1      10.548   0.504   0.397  1.00  0.00     0.009 C 
HETATM   33  C3  UNL     1       9.604  -1.178  -1.219  1.00  0.00     0.009 C 
ENDBRANCH  30  31
ENDBRANCH  29  30
ENDBRANCH  26  29
ENDBRANCH   1  26
BRANCH  17  34
HETATM   34  C20 UNL     1      -6.938   1.347  -0.433  1.00  0.00     0.155 C 
BRANCH  34  35
HETATM   35  N3  UNL     1      -7.957   0.436   0.025  1.00  0.00    -0.359 N 
HETATM   36  C21 UNL     1      -8.459  -0.643  -0.717  1.00  0.00     0.221 C 
HETATM   37  O1  UNL     1      -8.035  -0.886  -1.870  1.00  0.00    -0.273 OA
ATOM     38  H3  UNL     1      -8.341   0.587   0.958  1.00  0.00     0.162 HD
BRANCH  36  39
HETATM   39  C22 UNL     1      -9.514  -1.562  -0.196  1.00  0.00     0.070 C 
HETATM   40  C23 UNL     1      -9.055  -2.231   1.091  1.00  0.00     0.019 C 
HETATM   41  C24 UNL     1     -10.778  -0.779   0.038  1.00  0.00     0.019 C 
ENDBRANCH  36  39
ENDBRANCH  34  35
ENDBRANCH  17  34
TORSDOF 7
