REMARK  12 active torsions:
REMARK  status: ('A' for Active; 'I' for Inactive)
REMARK    1  A    between atoms: C2_2  and  C4_4 
REMARK    2  A    between atoms: C5_5  and  C6_6 
REMARK    3  A    between atoms: C6_6  and  O1_7 
REMARK    4  A    between atoms: C8_10  and  O2_11 
REMARK    5  A    between atoms: C12_17  and  C13_18 
REMARK    6  A    between atoms: C12_17  and  C14_21 
REMARK    7  A    between atoms: C13_18  and  O4_19 
REMARK    8  A    between atoms: C14_21  and  C15_22 
REMARK    9  A    between atoms: C16_23  and  C17_24 
REMARK   10  A    between atoms: C17_24  and  O5_27 
REMARK   11  A    between atoms: O5_27  and  C20_28 
REMARK   12  A    between atoms: C26_35  and  O7_36 
ROOT
HETATM    1  C6  UNL     1      -2.388   0.113   0.390  1.00  0.00     0.094 C 
HETATM    2  C7  UNL     1      -3.457   1.103   0.941  1.00  0.00     0.103 C 
HETATM    3  C8  UNL     1      -3.126   2.528   0.822  1.00  0.00     0.261 C 
HETATM    4  O3  UNL     1      -1.988   2.909   0.075  1.00  0.00    -0.350 OA
HETATM    5  C9  UNL     1      -1.069   1.919   0.302  1.00  0.00     0.075 C 
HETATM    6  C10 UNL     1      -0.929   1.888   1.740  1.00  0.00     0.047 C 
HETATM    7  C11 UNL     1       0.374   2.076  -0.067  1.00  0.00     0.051 C 
HETATM    8  C12 UNL     1       0.768   0.877  -0.937  1.00  0.00    -0.005 C 
HETATM    9  C22 UNL     1      -0.555   0.771  -1.528  1.00  0.00    -0.018 C 
HETATM   10  C23 UNL     1      -0.634   1.932  -2.508  1.00  0.00     0.017 C 
HETATM   11  C24 UNL     1      -0.857  -0.390  -2.416  1.00  0.00     0.013 C 
HETATM   12  C25 UNL     1      -2.262   0.111  -2.750  1.00  0.00     0.033 C 
HETATM   13  C26 UNL     1      -2.663   1.036  -1.618  1.00  0.00     0.133 C 
HETATM   14  C27 UNL     1      -1.642   0.816  -0.550  1.00  0.00     0.059 C 
ENDROOT
BRANCH   8  15
HETATM   15  C13 UNL     1       1.980   1.291  -1.663  1.00  0.00     0.174 C 
BRANCH  15  16
HETATM   16  O4  UNL     1       1.966   2.393  -2.481  1.00  0.00    -0.400 OA
ATOM     17  H4  UNL     1       2.748   2.660  -2.949  1.00  0.00     0.209 HD
ENDBRANCH  15  16
ENDBRANCH   8  15
BRANCH   8  18
HETATM   18  C14 UNL     1       1.150  -0.371  -0.256  1.00  0.00     0.039 C 
BRANCH  18  19
HETATM   19  C15 UNL     1       2.313  -0.300   0.672  1.00  0.00    -0.027 C 
HETATM   20  C16 UNL     1       3.423  -1.009   0.533  1.00  0.00     0.007 C 
BRANCH  20  21
HETATM   21  C17 UNL     1       4.555  -0.920   1.463  1.00  0.00     0.081 C 
HETATM   22  C18 UNL     1       4.229  -1.808   2.669  1.00  0.00     0.051 C 
HETATM   23  C19 UNL     1       4.847   0.498   1.904  1.00  0.00     0.051 C 
BRANCH  21  24
HETATM   24  O5  UNL     1       5.754  -1.439   0.913  1.00  0.00    -0.307 OA
BRANCH  24  25
HETATM   25  C20 UNL     1       6.900  -1.413   1.693  1.00  0.00     0.255 C 
HETATM   26  C21 UNL     1       8.208  -1.945   1.180  1.00  0.00     0.126 C 
HETATM   27  O6  UNL     1       6.924  -0.951   2.863  1.00  0.00    -0.266 OA
ENDBRANCH  24  25
ENDBRANCH  21  24
ENDBRANCH  20  21
ENDBRANCH  18  19
ENDBRANCH   8  18
BRANCH   1  28
HETATM   28  C5  UNL     1      -3.129  -1.139   0.101  1.00  0.00     0.012 C 
HETATM   29  C4  UNL     1      -4.162  -1.542   0.824  1.00  0.00     0.005 C 
BRANCH  29  30
HETATM   30  C2  UNL     1      -4.882  -2.772   0.532  1.00  0.00    -0.072 C 
HETATM   31  C1  UNL     1      -5.903  -3.116   1.291  1.00  0.00     0.018 C 
HETATM   32  C3  UNL     1      -4.479  -3.640  -0.611  1.00  0.00     0.047 C 
ENDBRANCH  29  30
ENDBRANCH   1  28
BRANCH   1  33
HETATM   33  O1  UNL     1      -1.798  -0.373   1.598  1.00  0.00    -0.385 OA
ATOM     34  H1  UNL     1      -1.323   0.429   1.783  1.00  0.00     0.211 HD
ENDBRANCH   1  33
BRANCH  13  35
HETATM   35  O7  UNL     1      -3.961   0.550  -1.480  1.00  0.00    -0.395 OA
ATOM     36  H7  UNL     1      -4.212   1.130  -0.771  1.00  0.00     0.210 HD
ENDBRANCH  13  35
BRANCH   3  37
HETATM   37  O2  UNL     1      -4.190   3.353   0.361  1.00  0.00    -0.371 OA
ATOM     38  H2  UNL     1      -3.976   4.275   0.284  1.00  0.00     0.212 HD
ENDBRANCH   3  37
TORSDOF 12
