REMARK  8 active torsions:
REMARK  status: ('A' for Active; 'I' for Inactive)
REMARK    1  A    between atoms: C2_2  and  C3_3 
REMARK    2  A    between atoms: N2_9  and  C6_10 
REMARK    3  A    between atoms: C7_13  and  N4_14 
REMARK    4  A    between atoms: C10_20  and  C11_21 
REMARK    5  A    between atoms: C13_23  and  O1_24 
REMARK    6  A    between atoms: C15_26  and  O2_27 
REMARK    7  A    between atoms: C17_29  and  O3_30 
REMARK    8  A    between atoms: C20_33  and  O4_34 
ROOT
HETATM    1  C6  UNL     1       1.753   0.507  -0.534  1.00  0.00     0.151 A 
HETATM    2  N3  UNL     1       1.924   1.212  -1.660  1.00  0.00    -0.325 N 
ATOM      3  H3  UNL     1       2.869   1.401  -1.993  1.00  0.00     0.169 HD
HETATM    4  C7  UNL     1       0.864   1.680  -2.366  1.00  0.00     0.122 A 
HETATM    5  C8  UNL     1      -0.416   1.415  -1.895  1.00  0.00     0.102 A 
HETATM    6  C9  UNL     1      -1.565   1.903  -2.629  1.00  0.00     0.104 C 
HETATM    7  N5  UNL     1      -2.489   2.308  -3.222  1.00  0.00    -0.191 NA
HETATM    8  C10 UNL     1      -0.651   0.697  -0.745  1.00  0.00     0.036 A 
HETATM    9  C20 UNL     1       0.474   0.249  -0.073  1.00  0.00     0.123 A 
ENDROOT
BRANCH   4  10
HETATM   10  N4  UNL     1       1.015   2.368  -3.462  1.00  0.00    -0.384 N 
ATOM     11  H42 UNL     1       1.955   2.563  -3.808  1.00  0.00     0.157 HD
ATOM     12  H41 UNL     1       0.218   2.720  -3.993  1.00  0.00     0.157 HD
ENDBRANCH   4  10
BRANCH   8  13
HETATM   13  C11 UNL     1      -1.999   0.421  -0.264  1.00  0.00    -0.016 A 
HETATM   14  C12 UNL     1      -2.791   1.396   0.332  1.00  0.00     0.052 A 
HETATM   15  C13 UNL     1      -4.057   1.118   0.798  1.00  0.00     0.105 A 
HETATM   16  C15 UNL     1      -4.574  -0.177   0.677  1.00  0.00     0.135 A 
HETATM   17  C17 UNL     1      -3.796  -1.157   0.086  1.00  0.00     0.105 A 
HETATM   18  C19 UNL     1      -2.523  -0.847  -0.375  1.00  0.00     0.052 A 
BRANCH  15  19
HETATM   19  O1  UNL     1      -4.888   2.050   1.397  1.00  0.00    -0.353 OA
HETATM   20  C14 UNL     1      -4.445   3.392   1.556  1.00  0.00     0.210 C 
ENDBRANCH  15  19
BRANCH  16  21
HETATM   21  O2  UNL     1      -5.833  -0.467   1.138  1.00  0.00    -0.351 OA
HETATM   22  C16 UNL     1      -7.036  -0.379   0.446  1.00  0.00     0.210 C 
ENDBRANCH  16  21
BRANCH  17  23
HETATM   23  O3  UNL     1      -4.340  -2.425  -0.018  1.00  0.00    -0.353 OA
HETATM   24  C18 UNL     1      -3.625  -3.473  -0.600  1.00  0.00     0.210 C 
ENDBRANCH  17  23
ENDBRANCH   8  13
BRANCH   9  25
HETATM   25  O4  UNL     1       0.312  -0.473   1.081  1.00  0.00    -0.356 OA
ATOM     26  H4  UNL     1      -0.566  -0.650   1.397  1.00  0.00     0.218 HD
ENDBRANCH   9  25
BRANCH   1  27
HETATM   27  N2  UNL     1       2.890   0.029   0.173  1.00  0.00    -0.263 N 
HETATM   28  C5  UNL     1       3.597   0.684   1.228  1.00  0.00     0.181 C 
HETATM   29  N1  UNL     1       4.669  -0.136   1.659  1.00  0.00    -0.351 N 
HETATM   30  S1  UNL     1       3.273   2.144   1.879  1.00  0.00    -0.040 SA
HETATM   31  C3  UNL     1       4.850  -1.154   0.650  1.00  0.00     0.082 C 
ATOM     32  H1  UNL     1       5.209  -0.028   2.517  1.00  0.00     0.163 HD
HETATM   33  C4  UNL     1       5.040  -2.521   1.306  1.00  0.00     0.046 C 
HETATM   34  C21 UNL     1       3.543  -1.208  -0.039  1.00  0.00     0.116 C 
HETATM   35  S2  UNL     1       3.011  -2.502  -0.874  1.00  0.00    -0.062 SA
BRANCH  31  36
HETATM   36  C2  UNL     1       6.010  -0.901  -0.257  1.00  0.00     0.033 C 
HETATM   37  C1  UNL     1       5.971   0.399  -0.973  1.00  0.00     0.008 C 
ENDBRANCH  31  36
ENDBRANCH   1  27
TORSDOF 8
