REMARK  13 active torsions:
REMARK  status: ('A' for Active; 'I' for Inactive)
REMARK    1  A    between atoms: O1_2  and  C2_3 
REMARK    2  A    between atoms: C4_5  and  C5_6 
REMARK    3  A    between atoms: C5_6  and  C6_7 
REMARK    4  A    between atoms: C6_7  and  N1_8 
REMARK    5  A    between atoms: C6_7  and  C19_26 
REMARK       I    between atoms: N1_8  and  C7_10 
REMARK    6  A    between atoms: C7_10  and  C8_12 
REMARK       I    between atoms: C8_12  and  N2_14 
REMARK    7  A    between atoms: N2_14  and  C9_16 
REMARK    8  A    between atoms: C9_16  and  C11_18 
REMARK    9  A    between atoms: C11_18  and  C13_20 
REMARK   10  A    between atoms: C27_34  and  O4_35 
REMARK   11  A    between atoms: O4_35  and  C28_36 
REMARK   12  A    between atoms: C28_36  and  C29_37 
REMARK   13  A    between atoms: C29_37  and  C30_38 
ROOT
HETATM    1  C6  UNL     1      -0.309  -3.346  -0.688  1.00  0.00     0.122 C 
ENDROOT
BRANCH   1   2
HETATM    2  C5  UNL     1       0.944  -3.288  -1.495  1.00  0.00     0.068 C 
BRANCH   2   3
HETATM    3  C4  UNL     1       1.826  -2.156  -1.259  1.00  0.00    -0.053 A 
HETATM    4  C3  UNL     1       2.918  -2.364  -0.386  1.00  0.00     0.046 A 
HETATM    5  C2  UNL     1       3.791  -1.367  -0.061  1.00  0.00     0.102 A 
HETATM    6  C27 UNL     1       3.633  -0.073  -0.590  1.00  0.00     0.102 A 
HETATM    7  C26 UNL     1       2.574   0.136  -1.441  1.00  0.00     0.040 A 
HETATM    8  C25 UNL     1       1.699  -0.907  -1.754  1.00  0.00     0.010 A 
BRANCH   5   9
HETATM    9  O1  UNL     1       4.876  -1.593   0.809  1.00  0.00    -0.353 OA
HETATM   10  C1  UNL     1       5.083  -2.886   1.359  1.00  0.00     0.210 C 
ENDBRANCH   5   9
BRANCH   6  11
HETATM   11  O4  UNL     1       4.516   0.893  -0.238  1.00  0.00    -0.348 OA
BRANCH  11  12
HETATM   12  C28 UNL     1       4.571   2.240  -0.561  1.00  0.00     0.180 C 
BRANCH  12  13
HETATM   13  C29 UNL     1       5.848   2.833   0.088  1.00  0.00     0.065 C 
BRANCH  13  14
HETATM   14  C30 UNL     1       5.950   4.284  -0.149  1.00  0.00    -0.056 A 
HETATM   15  C31 UNL     1       5.425   5.143   0.788  1.00  0.00     0.007 A 
HETATM   16  C32 UNL     1       5.482   6.521   0.616  1.00  0.00     0.001 A 
HETATM   17  C33 UNL     1       6.072   7.029  -0.507  1.00  0.00     0.000 A 
HETATM   18  C34 UNL     1       6.599   6.169  -1.445  1.00  0.00     0.001 A 
HETATM   19  C35 UNL     1       6.538   4.798  -1.267  1.00  0.00     0.007 A 
ENDBRANCH  13  14
ENDBRANCH  12  13
ENDBRANCH  11  12
ENDBRANCH   6  11
ENDBRANCH   2   3
ENDBRANCH   1   2
BRANCH   1  20
HETATM   20  N1  UNL     1      -1.211  -2.256  -0.963  1.00  0.00    -0.344 N 
HETATM   21  C7  UNL     1      -2.642  -2.530  -0.945  1.00  0.00     0.309 C 
HETATM   22  O2  UNL     1      -3.053  -3.653  -0.661  1.00  0.00    -0.262 OA
ATOM     23  H1  UNL     1      -0.858  -1.320  -1.164  1.00  0.00     0.163 HD
BRANCH  21  24
HETATM   24  C8  UNL     1      -3.582  -1.469  -1.268  1.00  0.00     0.309 C 
HETATM   25  O3  UNL     1      -3.116  -0.379  -1.657  1.00  0.00    -0.262 OA
HETATM   26  N2  UNL     1      -5.016  -1.633  -1.157  1.00  0.00    -0.348 N 
ATOM     27  H2  UNL     1      -5.422  -2.507  -0.824  1.00  0.00     0.163 HD
BRANCH  26  28
HETATM   28  C9  UNL     1      -5.837  -0.538  -1.527  1.00  0.00     0.088 C 
HETATM   29  C10 UNL     1      -6.944  -1.031  -2.428  1.00  0.00     0.033 C 
BRANCH  28  30
HETATM   30  C11 UNL     1      -6.460   0.261  -0.404  1.00  0.00     0.037 C 
HETATM   31  C12 UNL     1      -7.354  -0.498   0.501  1.00  0.00     0.017 C 
BRANCH  30  32
HETATM   32  C13 UNL     1      -5.434   1.088   0.296  1.00  0.00    -0.052 A 
HETATM   33  C14 UNL     1      -5.137   2.362  -0.124  1.00  0.00     0.007 A 
HETATM   34  C15 UNL     1      -4.183   3.139   0.502  1.00  0.00     0.001 A 
HETATM   35  C16 UNL     1      -3.483   2.676   1.576  1.00  0.00     0.000 A 
HETATM   36  C17 UNL     1      -3.769   1.380   2.026  1.00  0.00     0.001 A 
HETATM   37  C18 UNL     1      -4.712   0.632   1.395  1.00  0.00     0.007 A 
ENDBRANCH  30  32
ENDBRANCH  28  30
ENDBRANCH  26  28
ENDBRANCH  21  24
ENDBRANCH   1  20
BRANCH   1  38
HETATM   38  C19 UNL     1      -0.001  -3.398   0.784  1.00  0.00    -0.035 A 
HETATM   39  C20 UNL     1       0.017  -4.620   1.396  1.00  0.00     0.009 A 
HETATM   40  C21 UNL     1       0.291  -4.782   2.765  1.00  0.00     0.001 A 
HETATM   41  C22 UNL     1       0.550  -3.657   3.511  1.00  0.00     0.000 A 
HETATM   42  C23 UNL     1       0.526  -2.426   2.873  1.00  0.00     0.001 A 
HETATM   43  C24 UNL     1       0.257  -2.275   1.528  1.00  0.00     0.009 A 
ENDBRANCH   1  38
TORSDOF 13
