REMARK  11 active torsions:
REMARK  status: ('A' for Active; 'I' for Inactive)
REMARK    1  A    between atoms: C2_2  and  C3_3 
REMARK    2  A    between atoms: C3_3  and  C4_4 
REMARK    3  A    between atoms: C5_7  and  O1_8 
REMARK    4  A    between atoms: C9_13  and  C10_14 
REMARK    5  A    between atoms: C14_23  and  C15_24 
REMARK    6  A    between atoms: C15_24  and  C16_25 
REMARK    7  A    between atoms: C16_25  and  N4_26 
REMARK    8  A    between atoms: N4_26  and  C18_28 
REMARK    9  A    between atoms: N4_26  and  C20_30 
REMARK   10  A    between atoms: C23_36  and  C24_37 
REMARK   11  A    between atoms: C24_37  and  C25_38 
ROOT
HETATM    1  C4  UNL     1       4.379   0.097   0.699  1.00  0.00     0.175 C 
HETATM    2  N1  UNL     1       3.044  -0.377   0.428  1.00  0.00    -0.360 N 
ATOM      3  H1  UNL     1       2.342  -0.051   1.092  1.00  0.00     0.162 HD
HETATM    4  C5  UNL     1       2.545  -1.194  -0.571  1.00  0.00     0.126 C 
HETATM    5  C6  UNL     1       2.640  -2.683  -0.752  1.00  0.00     0.057 C 
HETATM    6  C7  UNL     1       3.549  -2.806  -2.016  1.00  0.00     0.030 C 
HETATM    7  C8  UNL     1       3.381  -3.387   0.304  1.00  0.00     0.030 C 
HETATM    8  C9  UNL     1       1.293  -3.146  -1.145  1.00  0.00     0.023 C 
HETATM    9  N2  UNL     1       0.200  -2.317  -0.651  1.00  0.00    -0.305 N 
ATOM     10  H2  UNL     1      -0.510  -1.944  -1.282  1.00  0.00     0.186 HD
HETATM   11  N3  UNL     1       0.165  -2.062   0.679  1.00  0.00    -0.268 N 
ATOM     12  H3  UNL     1       0.717  -2.625   1.326  1.00  0.00     0.190 HD
HETATM   13  C13 UNL     1      -0.650  -1.001   1.163  1.00  0.00     0.259 C 
HETATM   14  O2  UNL     1      -0.947  -0.990   2.411  1.00  0.00    -0.269 OA
HETATM   15  C14 UNL     1      -1.196   0.108   0.347  1.00  0.00     0.180 C 
HETATM   16  N5  UNL     1      -1.188   1.281   1.195  1.00  0.00    -0.346 N 
ATOM     17  H5  UNL     1      -1.619   1.190   2.115  1.00  0.00     0.163 HD
HETATM   18  C22 UNL     1      -0.637   2.543   0.865  1.00  0.00     0.241 C 
HETATM   19  O3  UNL     1      -0.080   3.230   1.801  1.00  0.00    -0.271 OA
HETATM   20  C23 UNL     1      -0.640   3.164  -0.476  1.00  0.00     0.177 C 
HETATM   21  N6  UNL     1       0.340   2.669  -1.385  1.00  0.00    -0.346 N 
ATOM     22  H6  UNL     1      -0.015   2.041  -2.106  1.00  0.00     0.163 HD
HETATM   23  C28 UNL     1       1.723   2.918  -1.436  1.00  0.00     0.240 C 
HETATM   24  O4  UNL     1       2.248   3.321  -2.535  1.00  0.00    -0.271 OA
HETATM   25  C29 UNL     1       2.708   2.767  -0.337  1.00  0.00     0.172 C 
HETATM   26  C30 UNL     1       3.221   4.136   0.117  1.00  0.00     0.042 C 
HETATM   27  N7  UNL     1       3.865   2.079  -0.876  1.00  0.00    -0.346 N 
ATOM     28  H7  UNL     1       4.043   2.216  -1.871  1.00  0.00     0.163 HD
HETATM   29  C31 UNL     1       4.763   1.255  -0.205  1.00  0.00     0.241 C 
HETATM   30  O5  UNL     1       6.008   1.438  -0.321  1.00  0.00    -0.271 OA
ENDROOT
BRANCH  15  31
HETATM   31  C15 UNL     1      -2.579  -0.268  -0.105  1.00  0.00     0.063 C 
BRANCH  31  32
HETATM   32  C16 UNL     1      -3.558  -0.527   0.986  1.00  0.00     0.239 C 
BRANCH  32  33
HETATM   33  N4  UNL     1      -4.870  -0.883   0.505  1.00  0.00    -0.071 N 
HETATM   34  C17 UNL     1      -4.932  -2.253   0.036  1.00  0.00     0.272 C 
BRANCH  33  35
HETATM   35  C18 UNL     1      -5.761  -0.820   1.675  1.00  0.00     0.232 C 
HETATM   36  C19 UNL     1      -5.650  -2.070   2.519  1.00  0.00     0.035 C 
ENDBRANCH  33  35
BRANCH  33  37
HETATM   37  C20 UNL     1      -5.416   0.001  -0.476  1.00  0.00     0.232 C 
HETATM   38  C21 UNL     1      -5.366  -0.575  -1.879  1.00  0.00     0.035 C 
ENDBRANCH  33  37
ENDBRANCH  32  33
ENDBRANCH  31  32
ENDBRANCH  15  31
BRANCH  20  39
HETATM   39  C24 UNL     1      -0.621   4.675  -0.294  1.00  0.00     0.038 C 
BRANCH  39  40
HETATM   40  C25 UNL     1      -0.638   5.437  -1.571  1.00  0.00    -0.020 C 
HETATM   41  C26 UNL     1      -0.619   6.928  -1.202  1.00  0.00     0.009 C 
HETATM   42  C27 UNL     1      -1.914   5.228  -2.356  1.00  0.00     0.009 C 
ENDBRANCH  39  40
ENDBRANCH  20  39
BRANCH   8  43
HETATM   43  C10 UNL     1       0.973  -4.591  -1.155  1.00  0.00     0.026 C 
HETATM   44  C11 UNL     1       1.053  -5.356   0.103  1.00  0.00     0.016 C 
HETATM   45  C12 UNL     1      -0.448  -4.825  -1.733  1.00  0.00     0.016 C 
ENDBRANCH   8  43
BRANCH   4  46
HETATM   46  O1  UNL     1       1.869  -0.668  -1.549  1.00  0.00    -0.349 OA
ATOM     47  H1  UNL     1       1.526  -1.229  -2.235  1.00  0.00     0.219 HD
ENDBRANCH   4  46
BRANCH   1  48
HETATM   48  C3  UNL     1       4.483   0.704   2.097  1.00  0.00     0.034 C 
BRANCH  48  49
HETATM   49  C2  UNL     1       4.154  -0.331   3.120  1.00  0.00    -0.002 C 
HETATM   50  C1  UNL     1       5.064  -1.512   3.157  1.00  0.00     0.005 C 
ENDBRANCH  48  49
ENDBRANCH   1  48
TORSDOF 11
