REMARK  6 active torsions:
REMARK  status: ('A' for Active; 'I' for Inactive)
REMARK    1  A    between atoms: C6_6  and  N1_7 
REMARK       I    between atoms: N1_7  and  C7_9 
REMARK    2  A    between atoms: C7_9  and  C8_11 
REMARK    3  A    between atoms: C12_15  and  N2_16 
REMARK       I    between atoms: N2_16  and  C13_18 
REMARK    4  A    between atoms: C13_18  and  C14_20 
REMARK    5  A    between atoms: C17_23  and  N3_24 
REMARK    6  A    between atoms: N3_24  and  C18_26 
ROOT
HETATM    1  N2  UNL     1       0.408   0.331  -1.135  1.00  0.00    -0.323 N 
ATOM      2  H2  UNL     1       0.510   1.228  -0.659  1.00  0.00     0.169 HD
HETATM    3  C13 UNL     1       1.561  -0.417  -1.357  1.00  0.00     0.256 C 
HETATM    4  O2  UNL     1       1.478  -1.546  -1.937  1.00  0.00    -0.267 OA
ENDROOT
BRANCH   1   5
HETATM    5  C12 UNL     1      -0.885  -0.059  -1.518  1.00  0.00     0.035 A 
HETATM    6  C11 UNL     1      -1.122  -0.890  -2.566  1.00  0.00     0.029 A 
HETATM    7  C10 UNL     1      -2.421  -1.264  -2.882  1.00  0.00     0.003 A 
HETATM    8  C9  UNL     1      -3.454  -0.782  -2.123  1.00  0.00     0.017 A 
HETATM    9  C8  UNL     1      -3.233   0.056  -1.065  1.00  0.00     0.034 A 
HETATM   10  C26 UNL     1      -1.970   0.428  -0.748  1.00  0.00     0.046 A 
BRANCH   9  11
HETATM   11  C7  UNL     1      -4.375   0.560  -0.246  1.00  0.00     0.256 C 
HETATM   12  N1  UNL     1      -5.595  -0.137  -0.205  1.00  0.00    -0.323 N 
ATOM     13  H1  UNL     1      -5.654  -0.996  -0.752  1.00  0.00     0.169 HD
HETATM   14  O1  UNL     1      -4.136   1.623   0.372  1.00  0.00    -0.267 OA
BRANCH  12  15
HETATM   15  C6  UNL     1      -6.743   0.235   0.518  1.00  0.00     0.035 A 
HETATM   16  C5  UNL     1      -6.903   1.473   1.059  1.00  0.00     0.029 A 
HETATM   17  C4  UNL     1      -8.070   1.751   1.777  1.00  0.00     0.003 A 
HETATM   18  C3  UNL     1      -9.052   0.808   1.947  1.00  0.00     0.007 A 
HETATM   19  C2  UNL     1      -8.854  -0.439   1.381  1.00  0.00    -0.060 A 
HETATM   20  C1  UNL     1      -9.930  -1.457   1.573  1.00  0.00     0.048 C 
HETATM   21  C27 UNL     1      -7.733  -0.756   0.674  1.00  0.00     0.036 A 
ENDBRANCH  12  15
ENDBRANCH   9  11
ENDBRANCH   1   5
BRANCH   3  22
HETATM   22  C14 UNL     1       2.905   0.055  -0.940  1.00  0.00     0.032 A 
HETATM   23  C15 UNL     1       3.999  -0.752  -1.165  1.00  0.00     0.019 A 
HETATM   24  C16 UNL     1       5.294  -0.384  -0.805  1.00  0.00     0.030 A 
HETATM   25  C17 UNL     1       5.536   0.822  -0.199  1.00  0.00     0.032 A 
HETATM   26  C24 UNL     1       4.417   1.637   0.026  1.00  0.00     0.030 A 
HETATM   27  C25 UNL     1       3.137   1.260  -0.337  1.00  0.00     0.019 A 
BRANCH  25  28
HETATM   28  N3  UNL     1       6.804   1.288   0.234  1.00  0.00    -0.356 N 
ATOM     29  H3  UNL     1       6.908   2.300   0.306  1.00  0.00     0.166 HD
BRANCH  28  30
HETATM   30  C18 UNL     1       7.931   0.528   0.575  1.00  0.00     0.032 A 
HETATM   31  C19 UNL     1       7.820  -0.765   1.007  1.00  0.00     0.029 A 
HETATM   32  C20 UNL     1       8.980  -1.489   1.313  1.00  0.00     0.002 A 
HETATM   33  C21 UNL     1      10.242  -0.948   1.196  1.00  0.00     0.000 A 
HETATM   34  C22 UNL     1      10.342   0.355   0.760  1.00  0.00     0.002 A 
HETATM   35  C23 UNL     1       9.211   1.068   0.460  1.00  0.00     0.029 A 
ENDBRANCH  28  30
ENDBRANCH  25  28
ENDBRANCH   3  22
TORSDOF 6
