REMARK  6 active torsions:
REMARK  status: ('A' for Active; 'I' for Inactive)
REMARK       I    between atoms: C1_4  and  N3_6 
REMARK       I    between atoms: N3_6  and  C2_8 
REMARK    1  A    between atoms: C2_8  and  C3_10 
REMARK    2  A    between atoms: C5_14  and  S1_15 
REMARK    3  A    between atoms: S1_15  and  C6_16 
REMARK    4  A    between atoms: C6_16  and  C7_17 
REMARK    5  A    between atoms: C8_24  and  N8_25 
REMARK    6  A    between atoms: N9_28  and  N10_29 
ROOT
HETATM    1  C3  UNL     1      -1.163  -0.673   0.015  1.00  0.00     0.215 A 
HETATM    2  N4  UNL     1       0.065  -0.321  -0.434  1.00  0.00    -0.318 N 
ATOM      3  H4  UNL     1       0.310   0.668  -0.473  1.00  0.00     0.169 HD
HETATM    4  C4  UNL     1       0.978  -1.236  -0.832  1.00  0.00     0.180 A 
HETATM    5  C5  UNL     1       2.269  -1.158  -1.320  1.00  0.00     0.130 A 
HETATM    6  N5  UNL     1       2.723  -2.397  -1.560  1.00  0.00    -0.274 N 
ATOM      7  H5  UNL     1       3.643  -2.647  -1.924  1.00  0.00     0.185 HD
HETATM    8  N6  UNL     1       1.751  -3.234  -1.235  1.00  0.00     0.003 NA
HETATM    9  N7  UNL     1       0.686  -2.548  -0.792  1.00  0.00    -0.050 N 
HETATM   10  C8  UNL     1      -0.529  -2.911  -0.349  1.00  0.00     0.720 A 
HETATM   11  N9  UNL     1      -1.432  -1.991   0.045  1.00  0.00    -0.069 N 
ENDROOT
BRANCH   1  12
HETATM   12  C2  UNL     1      -2.147   0.303   0.443  1.00  0.00     0.294 C 
HETATM   13  N3  UNL     1      -1.893   1.696   0.422  1.00  0.00    -0.295 N 
HETATM   14  C1  UNL     1      -2.868   2.628   0.844  1.00  0.00     0.188 C 
ATOM     15  H3  UNL     1      -0.988   2.034   0.096  1.00  0.00     0.171 HD
HETATM   16  N1  UNL     1      -2.574   3.880   0.800  1.00  0.00    -0.373 N 
HETATM   17  N2  UNL     1      -4.132   2.179   1.301  1.00  0.00    -0.064 NA
ATOM     18  H12 UNL     1      -3.278   4.553   1.105  1.00  0.00     0.158 HD
ATOM     19  H11 UNL     1      -1.664   4.203   0.471  1.00  0.00     0.158 HD
HETATM   20  O1  UNL     1      -3.260  -0.101   0.845  1.00  0.00    -0.264 OA
ENDBRANCH   1  12
BRANCH  11  21
HETATM   21  N10 UNL     1      -2.703  -2.403   0.507  1.00  0.00    -0.322 N 
ATOM     22 2H10 UNL     1      -3.386  -1.707   0.805  1.00  0.00     0.178 HD
ATOM     23 1H10 UNL     1      -2.907  -3.402   0.530  1.00  0.00     0.178 HD
ENDBRANCH  11  21
BRANCH  10  24
HETATM   24  N8  UNL     1      -0.801  -4.159  -0.313  1.00  0.00    -0.231 N 
ATOM     25  H82 UNL     1      -0.118  -4.855  -0.611  1.00  0.00     0.174 HD
ATOM     26  H81 UNL     1      -1.724  -4.435   0.023  1.00  0.00     0.174 HD
ENDBRANCH  10  24
BRANCH   5  27
HETATM   27  S1  UNL     1       3.143   0.373  -1.570  1.00  0.00    -0.097 SA
BRANCH  27  28
HETATM   28  C6  UNL     1       4.022   0.755  -0.011  1.00  0.00     0.194 C 
BRANCH  28  29
HETATM   29  C7  UNL     1       4.768   2.015  -0.149  1.00  0.00     0.182 C 
HETATM   30  O2  UNL     1       4.270   3.136   0.132  1.00  0.00    -0.647 OA
HETATM   31  O3  UNL     1       6.072   1.987  -0.606  1.00  0.00    -0.647 OA
ENDBRANCH  28  29
ENDBRANCH  27  28
ENDBRANCH   5  27
TORSDOF 6
