REMARK  8 active torsions:
REMARK  status: ('A' for Active; 'I' for Inactive)
REMARK    1  A    between atoms: N1_2  and  C2_5 
REMARK    2  A    between atoms: C2_5  and  O1_6 
REMARK    3  A    between atoms: C2_5  and  C3_8 
REMARK    4  A    between atoms: C3_8  and  O2_9 
REMARK    5  A    between atoms: C3_8  and  C5_13 
REMARK    6  A    between atoms: C6_14  and  C7_15 
REMARK    7  A    between atoms: C9_19  and  C10_20 
REMARK       I    between atoms: C10_20  and  N4_22 
REMARK       I    between atoms: N4_22  and  C11_24 
REMARK       I    between atoms: C11_24  and  N5_25 
REMARK       I    between atoms: C11_24  and  N6_29 
REMARK    8  A    between atoms: C12_33  and  O4_34 
ROOT
HETATM    1  C3  UNL     1      -4.250  -1.296  -0.163  1.00  0.00     0.263 C 
HETATM    2  C4  UNL     1      -4.498  -2.474   0.663  1.00  0.00     0.116 C 
HETATM    3  N2  UNL     1      -4.697  -3.388   1.325  1.00  0.00    -0.193 NA
ENDROOT
BRANCH   1   4
HETATM    4  C2  UNL     1      -5.057  -0.124   0.327  1.00  0.00     0.381 C 
BRANCH   4   5
HETATM    5  N1  UNL     1      -6.477  -0.340   0.261  1.00  0.00    -0.048 N 
HETATM    6  C1  UNL     1      -7.111   0.875   0.766  1.00  0.00     0.270 C 
ATOM      7  H12 UNL     1      -6.779  -1.184   0.748  1.00  0.00     0.279 HD
ATOM      8  H11 UNL     1      -6.801  -0.606  -0.669  1.00  0.00     0.279 HD
ENDBRANCH   4   5
BRANCH   4   9
HETATM    9  O1  UNL     1      -4.701   0.981  -0.456  1.00  0.00    -0.366 OA
ATOM     10  H1  UNL     1      -3.763   1.124  -0.412  1.00  0.00     0.212 HD
ENDBRANCH   4   9
ENDBRANCH   1   4
BRANCH   1  11
HETATM   11  O2  UNL     1      -4.551  -1.573  -1.476  1.00  0.00    -0.362 OA
ATOM     12  H2  UNL     1      -4.042  -2.313  -1.785  1.00  0.00     0.213 HD
ENDBRANCH   1  11
BRANCH   1  13
HETATM   13  C5  UNL     1      -2.836  -0.924  -0.075  1.00  0.00    -0.040 C 
HETATM   14  C6  UNL     1      -1.675  -0.618   0.018  1.00  0.00    -0.026 C 
BRANCH  14  15
HETATM   15  C7  UNL     1      -0.262  -0.272   0.122  1.00  0.00     0.163 A 
HETATM   16  N3  UNL     1       0.123   0.872   0.701  1.00  0.00    -0.344 N 
HETATM   17  C8  UNL     1       1.374   1.252   0.832  1.00  0.00     0.111 A 
ATOM     18  H3  UNL     1      -0.603   1.490   1.065  1.00  0.00     0.167 HD
HETATM   19  C9  UNL     1       2.416   0.429   0.344  1.00  0.00     0.098 A 
HETATM   20  C12 UNL     1       1.991  -0.731  -0.241  1.00  0.00     0.159 A 
HETATM   21  N7  UNL     1       0.676  -1.088  -0.357  1.00  0.00    -0.315 N 
ATOM     22  H7  UNL     1       0.417  -1.967  -0.804  1.00  0.00     0.170 HD
BRANCH  19  23
HETATM   23  C10 UNL     1       3.788   0.849   0.490  1.00  0.00     0.260 C 
HETATM   24  O3  UNL     1       3.962   1.991   1.078  1.00  0.00    -0.267 OA
HETATM   25  N4  UNL     1       4.935   0.179   0.076  1.00  0.00    -0.307 N 
HETATM   26  C11 UNL     1       6.264   0.768   0.312  1.00  0.00     0.483 C 
ATOM     27  H4  UNL     1       4.855  -0.723  -0.393  1.00  0.00     0.166 HD
HETATM   28  N5  UNL     1       6.819   1.069  -1.005  1.00  0.00    -0.033 N 
HETATM   29  N6  UNL     1       7.104  -0.120   1.064  1.00  0.00    -0.033 N 
ATOM     30  H53 UNL     1       6.838   0.263  -1.630  1.00  0.00     0.278 HD
ATOM     31  H52 UNL     1       6.211   1.656  -1.576  1.00  0.00     0.278 HD
ATOM     32  H51 UNL     1       7.739   1.477  -0.842  1.00  0.00     0.278 HD
ATOM     33  H63 UNL     1       6.660  -0.404   1.938  1.00  0.00     0.278 HD
ATOM     34  H62 UNL     1       7.174  -1.035   0.619  1.00  0.00     0.278 HD
ATOM     35  H61 UNL     1       8.024   0.288   1.227  1.00  0.00     0.278 HD
ENDBRANCH  19  23
BRANCH  20  36
HETATM   36  O4  UNL     1       2.946  -1.615  -0.756  1.00  0.00    -0.345 OA
ATOM     37  H4  UNL     1       2.651  -2.421  -1.163  1.00  0.00     0.219 HD
ENDBRANCH  20  36
ENDBRANCH  14  15
ENDBRANCH   1  13
TORSDOF 8
