REMARK  5 active torsions:
REMARK  status: ('A' for Active; 'I' for Inactive)
REMARK    1  A    between atoms: N1_1  and  C1_4 
REMARK    2  A    between atoms: C2_9  and  S1_10 
REMARK    3  A    between atoms: S1_10  and  C3_13 
REMARK    4  A    between atoms: C3_13  and  N4_14 
REMARK    5  A    between atoms: C3_13  and  N5_18 
ROOT
HETATM    1  S1  UNL     1       0.914   0.315  -0.783  1.00  0.00     0.264 S 
HETATM    2  O1  UNL     1       1.155   1.574  -1.577  1.00  0.00    -0.216 OA
HETATM    3  O2  UNL     1       1.447  -0.829  -1.596  1.00  0.00    -0.216 OA
ENDROOT
BRANCH   1   4
HETATM    4  C2  UNL     1      -0.769   0.052  -0.494  1.00  0.00     0.236 A 
HETATM    5  N3  UNL     1      -1.683  -0.067  -1.474  1.00  0.00    -0.261 N 
HETATM    6  N2  UNL     1      -2.878  -0.260  -0.943  1.00  0.00    -0.130 N 
ATOM      7  H3  UNL     1      -1.484  -0.016  -2.473  1.00  0.00     0.190 HD
HETATM    8  C1  UNL     1      -2.728  -0.265   0.385  1.00  0.00     0.692 A 
ATOM      9  H2  UNL     1      -3.753  -0.382  -1.453  1.00  0.00     0.205 HD
HETATM   10  N6  UNL     1      -1.427  -0.073   0.661  1.00  0.00    -0.163 N 
ATOM     11  H6  UNL     1      -1.013  -0.030   1.592  1.00  0.00     0.186 HD
BRANCH   8  12
HETATM   12  N1  UNL     1      -3.647  -0.424   1.255  1.00  0.00    -0.233 N 
ATOM     13  H12 UNL     1      -4.635  -0.570   1.045  1.00  0.00     0.174 HD
ATOM     14  H11 UNL     1      -3.533  -0.428   2.269  1.00  0.00     0.174 HD
ENDBRANCH   8  12
ENDBRANCH   1   4
BRANCH   1  15
HETATM   15  C3  UNL     1       1.849   0.422   0.721  1.00  0.00     0.505 C 
BRANCH  15  16
HETATM   16  N4  UNL     1       1.769  -0.832   1.443  1.00  0.00    -0.036 N 
ATOM     17  H43 UNL     1       0.804  -1.115   1.612  1.00  0.00     0.278 HD
ATOM     18  H42 UNL     1       2.058  -1.624   0.868  1.00  0.00     0.278 HD
ATOM     19  H41 UNL     1       2.307  -0.770   2.308  1.00  0.00     0.278 HD
ENDBRANCH  15  16
BRANCH  15  20
HETATM   20  N5  UNL     1       3.248   0.637   0.400  1.00  0.00    -0.036 N 
ATOM     21  H53 UNL     1       3.614  -0.074  -0.233  1.00  0.00     0.278 HD
ATOM     22  H52 UNL     1       3.387   1.450  -0.201  1.00  0.00     0.278 HD
ATOM     23  H51 UNL     1       3.786   0.699   1.265  1.00  0.00     0.278 HD
ENDBRANCH  15  20
ENDBRANCH   1  15
TORSDOF 5
