REMARK  4 active torsions:
REMARK  status: ('A' for Active; 'I' for Inactive)
REMARK    1  A    between atoms: C3_3  and  C4_4 
REMARK    2  A    between atoms: C5_5  and  C6_6 
REMARK    3  A    between atoms: C6_6  and  N1_7 
REMARK    4  A    between atoms: N1_7  and  C7_9 
ROOT
HETATM    1  C1  UNL     1       4.651  -0.336   0.381  1.00  0.00     0.113 C 
HETATM    2  C2  UNL     1       3.206  -0.344   0.077  1.00  0.00    -0.097 C 
HETATM    3  C3  UNL     1       2.020  -0.330  -0.168  1.00  0.00    -0.015 C 
ENDROOT
BRANCH   3   4
HETATM    4  C4  UNL     1       0.629  -0.292  -0.453  1.00  0.00    -0.013 C 
HETATM    5  C5  UNL     1      -0.564  -0.241  -0.688  1.00  0.00    -0.073 C 
BRANCH   5   6
HETATM    6  C6  UNL     1      -2.000  -0.155  -0.970  1.00  0.00     0.217 C 
BRANCH   6   7
HETATM    7  N1  UNL     1      -2.725   0.479   0.105  1.00  0.00    -0.358 N 
ATOM      8  H1  UNL     1      -2.198   0.792   0.920  1.00  0.00     0.162 HD
BRANCH   7   9
HETATM    9  C7  UNL     1      -4.110   0.690   0.096  1.00  0.00     0.349 C 
HETATM   10  O1  UNL     1      -4.784   0.310  -0.904  1.00  0.00    -0.284 OA
ENDBRANCH   7   9
ENDBRANCH   6   7
ENDBRANCH   5   6
ENDBRANCH   3   4
TORSDOF 4
