REMARK  7 active torsions:
REMARK  status: ('A' for Active; 'I' for Inactive)
REMARK    1  A    between atoms: C5_6  and  C6_7 
REMARK       I    between atoms: C6_7  and  N1_9 
REMARK    2  A    between atoms: N1_9  and  C7_11 
REMARK    3  A    between atoms: C7_11  and  N2_13 
REMARK    4  A    between atoms: N2_13  and  C8_15 
REMARK    5  A    between atoms: C8_15  and  C10_17 
REMARK    6  A    between atoms: C11_20  and  S2_21 
REMARK    7  A    between atoms: S2_21  and  C12_22 
ROOT
HETATM    1  N2  UNL     1       0.191   0.606   1.779  1.00  0.00    -0.357 N 
ATOM      2  H2  UNL     1      -0.240   0.105   2.556  1.00  0.00     0.162 HD
ENDROOT
BRANCH   1   3
HETATM    3  C7  UNL     1      -0.528   0.776   0.565  1.00  0.00     0.175 C 
HETATM    4  S1  UNL     1       0.184   1.596  -0.662  1.00  0.00    -0.041 SA
BRANCH   3   5
HETATM    5  N1  UNL     1      -1.852   0.249   0.414  1.00  0.00    -0.300 N 
HETATM    6  C6  UNL     1      -2.588   0.405  -0.764  1.00  0.00     0.260 C 
HETATM    7  O2  UNL     1      -2.035   1.053  -1.714  1.00  0.00    -0.267 OA
ATOM      8  H1  UNL     1      -2.272  -0.258   1.193  1.00  0.00     0.171 HD
BRANCH   6   9
HETATM    9  C5  UNL     1      -3.925  -0.087  -1.038  1.00  0.00     0.063 A 
HETATM   10  C2  UNL     1      -4.635  -1.044  -0.411  1.00  0.00     0.064 A 
HETATM   11  C1  UNL     1      -4.228  -1.908   0.727  1.00  0.00     0.077 C 
HETATM   12  O1  UNL     1      -5.843  -1.137  -0.978  1.00  0.00    -0.326 OA
HETATM   13  C3  UNL     1      -5.940  -0.260  -1.965  1.00  0.00     0.143 A 
HETATM   14  C4  UNL     1      -4.760   0.429  -2.049  1.00  0.00     0.044 A 
ENDBRANCH   6   9
ENDBRANCH   3   5
ENDBRANCH   1   3
BRANCH   1  15
HETATM   15  C8  UNL     1       1.496   1.125   1.919  1.00  0.00     0.131 C 
HETATM   16  C9  UNL     1       1.639   2.597   1.778  1.00  0.00     0.039 C 
BRANCH  15  17
HETATM   17  C10 UNL     1       2.445   0.456   0.921  1.00  0.00     0.046 A 
HETATM   18  N3  UNL     1       3.293   1.130   0.209  1.00  0.00    -0.346 N 
HETATM   19  C11 UNL     1       4.093   0.505  -0.632  1.00  0.00     0.117 A 
ATOM     20  H3  UNL     1       3.341   2.145   0.300  1.00  0.00     0.167 HD
HETATM   21  S3  UNL     1       3.647  -1.129  -0.431  1.00  0.00    -0.068 SA
HETATM   22  C13 UNL     1       2.434  -0.916   0.747  1.00  0.00     0.006 A 
HETATM   23  C14 UNL     1       1.558  -1.915   1.443  1.00  0.00     0.058 C 
BRANCH  19  24
HETATM   24  S2  UNL     1       5.349   1.223  -1.725  1.00  0.00    -0.035 SA
BRANCH  24  25
HETATM   25  C12 UNL     1       6.130  -0.138  -2.636  1.00  0.00     0.422 C 
HETATM   26  F1  UNL     1       5.202  -0.709  -3.481  1.00  0.00    -0.202 F 
HETATM   27  F2  UNL     1       7.198   0.374  -3.342  1.00  0.00    -0.202 F 
ENDBRANCH  24  25
ENDBRANCH  19  24
ENDBRANCH  15  17
ENDBRANCH   1  15
TORSDOF 7
