REMARK  2 active torsions:
REMARK  status: ('A' for Active; 'I' for Inactive)
REMARK    1  A    between atoms: C2_2  and  O1_3 
REMARK    2  A    between atoms: C8_11  and  O3_12 
ROOT
HETATM    1  C1  UNL     1      -2.233   0.602   0.865  1.00  0.00     0.045 C 
HETATM    2  C2  UNL     1      -1.277   0.130  -0.236  1.00  0.00     0.057 C 
HETATM    3  C3  UNL     1      -0.835  -1.249   0.133  1.00  0.00     0.040 C 
HETATM    4  C4  UNL     1       0.595  -1.275   0.660  1.00  0.00     0.037 C 
HETATM    5  C5  UNL     1       1.531  -1.006  -0.483  1.00  0.00     0.153 C 
HETATM    6  O2  UNL     1       0.895  -0.567  -1.629  1.00  0.00    -0.375 OA
HETATM    7  C6  UNL     1       0.985   0.734  -1.152  1.00  0.00     0.156 C 
HETATM    8  C7  UNL     1      -0.148   1.132  -0.271  1.00  0.00     0.072 C 
HETATM    9  C8  UNL     1       2.172   0.344  -0.324  1.00  0.00     0.176 C 
ENDROOT
BRANCH   2  10
HETATM   10  O1  UNL     1      -1.891   0.156  -1.481  1.00  0.00    -0.390 OA
ATOM     11  H1  UNL     1      -1.298  -0.137  -2.163  1.00  0.00     0.210 HD
ENDBRANCH   2  10
BRANCH   9  12
HETATM   12  O3  UNL     1       2.183   0.846   0.966  1.00  0.00    -0.390 OA
ATOM     13  H3  UNL     1       2.588   1.699   1.067  1.00  0.00     0.210 HD
ENDBRANCH   9  12
TORSDOF 2
