REMARK  11 active torsions:
REMARK  status: ('A' for Active; 'I' for Inactive)
REMARK    1  A    between atoms: C3_3  and  N1_4 
REMARK    2  A    between atoms: N1_4  and  N2_6 
REMARK    3  A    between atoms: N2_6  and  N3_8 
REMARK    4  A    between atoms: N3_8  and  C4_10 
REMARK    5  A    between atoms: C5_13  and  N5_14 
REMARK    6  A    between atoms: N5_14  and  N6_15 
REMARK    7  A    between atoms: N5_14  and  O1_18 
REMARK    8  A    between atoms: C6_20  and  C7_21 
REMARK    9  A    between atoms: N7_22  and  N8_24 
REMARK   10  A    between atoms: N8_24  and  C8_26 
REMARK   11  A    between atoms: N13_40  and  O4_41 
ROOT
HETATM    1  C4  UNL     1       1.755  -1.503  -0.219  1.00  0.00     0.702 A 
HETATM    2  N4  UNL     1       0.891  -2.459   0.143  1.00  0.00    -0.170 N 
ATOM      3  H4  UNL     1       1.256  -3.404   0.263  1.00  0.00     0.186 HD
HETATM    4  C5  UNL     1      -0.429  -2.267   0.362  1.00  0.00     0.183 A 
HETATM    5  C6  UNL     1      -0.952  -1.009   0.211  1.00  0.00     0.098 A 
HETATM    6  C11 UNL     1      -0.032  -0.024  -0.167  1.00  0.00     0.275 A 
HETATM    7  O2  UNL     1      -0.459   1.140  -0.317  1.00  0.00    -0.267 OA
HETATM    8  N11 UNL     1       1.264  -0.265  -0.372  1.00  0.00    -0.154 N 
ATOM      9  H11 UNL     1       1.884   0.497  -0.647  1.00  0.00     0.187 HD
ENDROOT
BRANCH   1  10
HETATM   10  N3  UNL     1       3.019  -1.771  -0.411  1.00  0.00    -0.117 N 
ATOM     11  H3  UNL     1       3.319  -2.736  -0.275  1.00  0.00     0.207 HD
BRANCH  10  12
HETATM   12  N2  UNL     1       3.976  -0.860  -0.781  1.00  0.00    -0.227 N 
ATOM     13  H2  UNL     1       3.740  -0.172  -1.496  1.00  0.00     0.209 HD
BRANCH  12  14
HETATM   14  N1  UNL     1       5.156  -0.831  -0.270  1.00  0.00    -0.267 N 
ATOM     15  H1  UNL     1       5.428  -1.502   0.449  1.00  0.00     0.190 HD
BRANCH  14  16
HETATM   16  C3  UNL     1       6.071   0.151  -0.725  1.00  0.00     0.170 A 
HETATM   17  C2  UNL     1       6.167   1.482  -0.394  1.00  0.00     0.111 A 
HETATM   18  C1  UNL     1       5.266   2.169   0.560  1.00  0.00     0.077 C 
HETATM   19  N13 UNL     1       7.211   1.973  -1.105  1.00  0.00    -0.103 N 
HETATM   20  O3  UNL     1       7.707   1.008  -1.812  1.00  0.00    -0.127 OA
HETATM   21  N12 UNL     1       7.064  -0.096  -1.621  1.00  0.00    -0.220 N 
ATOM     22  H12 UNL     1       7.265  -0.993  -2.063  1.00  0.00     0.198 HD
BRANCH  19  23
HETATM   23  O4  UNL     1       7.605   3.288  -1.026  1.00  0.00    -0.261 OA
ATOM     24  H4  UNL     1       8.337   3.632  -1.524  1.00  0.00     0.247 HD
ENDBRANCH  19  23
ENDBRANCH  14  16
ENDBRANCH  12  14
ENDBRANCH  10  12
ENDBRANCH   1  10
BRANCH   4  25
HETATM   25  N5  UNL     1      -1.261  -3.352   0.743  1.00  0.00    -0.151 N 
BRANCH  25  26
HETATM   26  N6  UNL     1      -1.761  -4.093  -0.180  1.00  0.00    -0.317 N 
ATOM     27  H62 UNL     1      -1.538  -3.840  -1.143  1.00  0.00     0.179 HD
ATOM     28  H61 UNL     1      -2.359  -4.873   0.094  1.00  0.00     0.179 HD
ENDBRANCH  25  26
BRANCH  25  29
HETATM   29  O1  UNL     1      -1.560  -3.692   2.035  1.00  0.00    -0.267 OA
ATOM     30  H1  UNL     1      -2.117  -4.418   2.290  1.00  0.00     0.247 HD
ENDBRANCH  25  29
ENDBRANCH   4  25
BRANCH   5  31
HETATM   31  C7  UNL     1      -2.343  -0.675   0.423  1.00  0.00     0.128 C 
HETATM   32  N7  UNL     1      -3.189  -1.560   0.775  1.00  0.00    -0.308 N 
ATOM     33  H7  UNL     1      -2.889  -2.525   0.912  1.00  0.00     0.186 HD
BRANCH  32  34
HETATM   34  N8  UNL     1      -4.521  -1.211   0.972  1.00  0.00    -0.272 N 
ATOM     35  H8  UNL     1      -5.186  -1.907   1.310  1.00  0.00     0.190 HD
BRANCH  34  36
HETATM   36  C8  UNL     1      -4.957   0.115   0.703  1.00  0.00     0.190 C 
HETATM   37  N9  UNL     1      -5.164   1.073   1.524  1.00  0.00    -0.360 N 
HETATM   38  C9  UNL     1      -5.606   2.281   0.858  1.00  0.00     0.142 C 
ATOM     39  H9  UNL     1      -5.033   0.996   2.533  1.00  0.00     0.162 HD
HETATM   40  C10 UNL     1      -5.916   1.820  -0.528  1.00  0.00     0.142 C 
HETATM   41  N10 UNL     1      -5.236   0.558  -0.633  1.00  0.00    -0.360 N 
ATOM     42  H10 UNL     1      -4.997   0.069  -1.496  1.00  0.00     0.162 HD
ENDBRANCH  34  36
ENDBRANCH  32  34
ENDBRANCH   5  31
TORSDOF 11
