REMARK  19 active torsions:
REMARK  status: ('A' for Active; 'I' for Inactive)
REMARK    1  A    between atoms: C3_5  and  C4_6 
REMARK    2  A    between atoms: C4_6  and  C5_7 
REMARK    3  A    between atoms: C5_7  and  C6_8 
REMARK    4  A    between atoms: C6_8  and  C7_9 
REMARK    5  A    between atoms: C7_9  and  N2_10 
REMARK    6  A    between atoms: C9_18  and  C10_19 
REMARK    7  A    between atoms: C10_19  and  C11_20 
REMARK    8  A    between atoms: C11_20  and  C12_21 
REMARK    9  A    between atoms: C12_21  and  C13_22 
REMARK   10  A    between atoms: C13_22  and  N4_23 
REMARK   11  A    between atoms: C15_31  and  C16_32 
REMARK   12  A    between atoms: C16_32  and  C17_33 
REMARK   13  A    between atoms: C22_38  and  C23_39 
REMARK   14  A    between atoms: C23_39  and  O4_40 
REMARK   15  A    between atoms: C25_46  and  C26_47 
REMARK   16  A    between atoms: C26_47  and  C27_48 
REMARK   17  A    between atoms: C27_48  and  C28_49 
REMARK   18  A    between atoms: C28_49  and  C29_50 
REMARK   19  A    between atoms: C29_50  and  N7_51 
ROOT
HETATM    1  C1  UNL     1       3.656  -0.845  -1.602  1.00  0.00     0.153 C 
HETATM    2  N1  UNL     1       2.580  -0.381  -0.717  1.00  0.00    -0.341 N 
HETATM    3  C2  UNL     1       2.727   0.927  -0.196  1.00  0.00     0.243 C 
HETATM    4  O1  UNL     1       3.435   1.797  -0.837  1.00  0.00    -0.271 OA
HETATM    5  C3  UNL     1       2.154   1.471   1.049  1.00  0.00     0.176 C 
HETATM    6  N3  UNL     1       1.447   2.728   0.881  1.00  0.00    -0.346 N 
ATOM      7  H3  UNL     1       1.744   3.469   1.516  1.00  0.00     0.163 HD
HETATM    8  C8  UNL     1       0.445   3.089   0.012  1.00  0.00     0.241 C 
HETATM    9  O2  UNL     1       0.672   4.052  -0.818  1.00  0.00    -0.271 OA
HETATM   10  C9  UNL     1      -0.947   2.532  -0.154  1.00  0.00     0.176 C 
HETATM   11  N5  UNL     1      -1.360   1.758   0.965  1.00  0.00    -0.346 N 
ATOM     12  H5  UNL     1      -1.585   2.288   1.807  1.00  0.00     0.163 HD
HETATM   13  C14 UNL     1      -1.502   0.350   1.072  1.00  0.00     0.241 C 
HETATM   14  O3  UNL     1      -1.129  -0.116   2.215  1.00  0.00    -0.271 OA
HETATM   15  C15 UNL     1      -1.994  -0.587   0.092  1.00  0.00     0.180 C 
HETATM   16  N6  UNL     1      -1.082  -0.950  -0.984  1.00  0.00    -0.346 N 
ATOM     17  H6  UNL     1      -1.527  -1.476  -1.736  1.00  0.00     0.163 HD
HETATM   18  C24 UNL     1       0.257  -0.725  -1.188  1.00  0.00     0.241 C 
HETATM   19  O5  UNL     1       0.562  -0.028  -2.236  1.00  0.00    -0.271 OA
HETATM   20  C25 UNL     1       1.425  -1.166  -0.380  1.00  0.00     0.178 C 
ENDROOT
BRANCH  15  21
HETATM   21  C16 UNL     1      -2.596  -1.859   0.568  1.00  0.00     0.074 C 
BRANCH  21  22
HETATM   22  C17 UNL     1      -3.761  -1.854   1.424  1.00  0.00    -0.047 A 
HETATM   23  C18 UNL     1      -3.612  -2.071   2.783  1.00  0.00     0.008 A 
HETATM   24  C19 UNL     1      -4.663  -2.095   3.680  1.00  0.00     0.001 A 
HETATM   25  C20 UNL     1      -5.930  -1.898   3.231  1.00  0.00     0.001 A 
HETATM   26  C21 UNL     1      -6.117  -1.680   1.884  1.00  0.00     0.010 A 
HETATM   27  C22 UNL     1      -5.046  -1.657   0.979  1.00  0.00    -0.028 A 
BRANCH  27  28
HETATM   28  C23 UNL     1      -5.410  -1.429  -0.436  1.00  0.00     0.203 C 
BRANCH  28  29
HETATM   29  O4  UNL     1      -6.803  -1.297  -0.584  1.00  0.00    -0.396 OA
ATOM     30  H4  UNL     1      -7.037  -1.151  -1.493  1.00  0.00     0.209 HD
ENDBRANCH  28  29
ENDBRANCH  27  28
ENDBRANCH  21  22
ENDBRANCH  15  21
BRANCH  10  31
HETATM   31  C10 UNL     1      -1.852   3.789  -0.132  1.00  0.00     0.035 C 
BRANCH  31  32
HETATM   32  C11 UNL     1      -3.284   3.509  -0.310  1.00  0.00     0.004 C 
BRANCH  32  33
HETATM   33  C12 UNL     1      -3.742   2.893  -1.578  1.00  0.00     0.027 C 
BRANCH  33  34
HETATM   34  C13 UNL     1      -3.532   3.661  -2.831  1.00  0.00     0.229 C 
BRANCH  34  35
HETATM   35  N4  UNL     1      -2.200   3.982  -3.199  1.00  0.00    -0.079 N 
ATOM     36  H43 UNL     1      -1.748   4.472  -2.427  1.00  0.00     0.274 HD
ATOM     37  H42 UNL     1      -1.647   3.126  -3.235  1.00  0.00     0.274 HD
ATOM     38  H41 UNL     1      -2.056   4.510  -4.060  1.00  0.00     0.274 HD
ENDBRANCH  34  35
ENDBRANCH  33  34
ENDBRANCH  32  33
ENDBRANCH  31  32
ENDBRANCH  10  31
BRANCH  20  39
HETATM   39  C26 UNL     1       1.582  -2.611  -0.233  1.00  0.00     0.035 C 
BRANCH  39  40
HETATM   40  C27 UNL     1       2.033  -3.505  -1.280  1.00  0.00     0.004 C 
BRANCH  40  41
HETATM   41  C28 UNL     1       1.198  -3.584  -2.537  1.00  0.00     0.027 C 
BRANCH  41  42
HETATM   42  C29 UNL     1       1.937  -4.605  -3.423  1.00  0.00     0.229 C 
BRANCH  42  43
HETATM   43  N7  UNL     1       1.263  -4.799  -4.670  1.00  0.00    -0.079 N 
ATOM     44  H73 UNL     1       0.287  -5.062  -4.531  1.00  0.00     0.274 HD
ATOM     45  H72 UNL     1       1.119  -3.915  -5.159  1.00  0.00     0.274 HD
ATOM     46  H71 UNL     1       1.752  -5.475  -5.257  1.00  0.00     0.274 HD
ENDBRANCH  42  43
ENDBRANCH  41  42
ENDBRANCH  40  41
ENDBRANCH  39  40
ENDBRANCH  20  39
BRANCH   5  47
HETATM   47  C4  UNL     1       3.392   1.701   1.951  1.00  0.00     0.035 C 
BRANCH  47  48
HETATM   48  C5  UNL     1       4.114   0.427   2.199  1.00  0.00     0.004 C 
BRANCH  48  49
HETATM   49  C6  UNL     1       5.333   0.612   3.088  1.00  0.00     0.027 C 
BRANCH  49  50
HETATM   50  C7  UNL     1       6.339   1.563   2.478  1.00  0.00     0.229 C 
BRANCH  50  51
HETATM   51  N2  UNL     1       7.448   1.655   3.408  1.00  0.00    -0.079 N 
ATOM     52  H23 UNL     1       7.161   1.923   4.350  1.00  0.00     0.274 HD
ATOM     53  H22 UNL     1       7.847   0.748   3.648  1.00  0.00     0.274 HD
ATOM     54  H21 UNL     1       8.126   2.296   2.997  1.00  0.00     0.274 HD
ENDBRANCH  50  51
ENDBRANCH  49  50
ENDBRANCH  48  49
ENDBRANCH  47  48
ENDBRANCH   5  47
TORSDOF 19
