REMARK  11 active torsions:
REMARK  status: ('A' for Active; 'I' for Inactive)
REMARK    1  A    between atoms: O1_2  and  C2_3 
REMARK       I    between atoms: C2_3  and  N1_5 
REMARK    2  A    between atoms: N1_5  and  C3_7 
REMARK    3  A    between atoms: C3_7  and  C6_10 
REMARK    4  A    between atoms: C6_10  and  C7_11 
REMARK    5  A    between atoms: C6_10  and  O7_42 
REMARK    6  A    between atoms: C7_11  and  N2_12 
REMARK    7  A    between atoms: C9_14  and  C10_15 
REMARK       I    between atoms: N3_21  and  C13_23 
REMARK    8  A    between atoms: C13_23  and  C14_25 
REMARK    9  A    between atoms: C14_25  and  N4_26 
REMARK   10  A    between atoms: C14_25  and  C15_30 
REMARK   11  A    between atoms: O7_42  and  C22_43 
ROOT
HETATM    1  N2  UNL     1      -0.177  -1.068   0.449  1.00  0.00    -0.364 N 
HETATM    2  C8  UNL     1      -0.721  -2.282   0.974  1.00  0.00     0.161 C 
HETATM    3  C9  UNL     1      -0.776  -3.301  -0.141  1.00  0.00     0.204 C 
HETATM    4  O3  UNL     1       0.493  -3.658  -0.581  1.00  0.00    -0.371 OA
HETATM    5  C11 UNL     1       1.472  -2.706  -0.357  1.00  0.00     0.245 C 
HETATM    6  C12 UNL     1       0.950  -1.328  -0.459  1.00  0.00     0.106 C 
HETATM    7  N3  UNL     1       1.329  -0.387  -1.193  1.00  0.00    -0.313 N 
ATOM      8  H3  UNL     1       0.832   0.500  -1.112  1.00  0.00     0.170 HD
HETATM    9  C13 UNL     1       2.390  -0.455  -2.124  1.00  0.00     0.258 C 
HETATM   10  O4  UNL     1       2.572  -1.458  -2.877  1.00  0.00    -0.270 OA
ENDROOT
BRANCH   1  11
HETATM   11  C7  UNL     1      -0.550   0.289   0.656  1.00  0.00     0.159 C 
BRANCH  11  12
HETATM   12  C6  UNL     1      -1.778   0.848   0.068  1.00  0.00     0.176 C 
BRANCH  12  13
HETATM   13  C3  UNL     1      -3.108   0.591   0.656  1.00  0.00     0.056 C 
HETATM   14  C4  UNL     1      -3.769  -0.661   0.022  1.00  0.00     0.041 C 
HETATM   15  C5  UNL     1      -3.180   0.419   2.134  1.00  0.00     0.041 C 
BRANCH  13  16
HETATM   16  N1  UNL     1      -4.039   1.661   0.221  1.00  0.00    -0.326 N 
HETATM   17  C2  UNL     1      -5.397   1.665   0.590  1.00  0.00     0.360 C 
HETATM   18  O2  UNL     1      -5.892   0.768   1.303  1.00  0.00    -0.239 OA
ATOM     19  H1  UNL     1      -3.684   2.417  -0.364  1.00  0.00     0.165 HD
BRANCH  17  20
HETATM   20  O1  UNL     1      -6.206   2.689   0.150  1.00  0.00    -0.309 OA
HETATM   21  C1  UNL     1      -7.577   2.796   0.454  1.00  0.00     0.215 C 
ENDBRANCH  17  20
ENDBRANCH  13  16
ENDBRANCH  12  13
BRANCH  12  22
HETATM   22  O7  UNL     1      -1.810   0.778  -1.346  1.00  0.00    -0.319 OA
BRANCH  22  23
HETATM   23  C22 UNL     1      -1.582   1.825  -2.208  1.00  0.00     0.398 C 
HETATM   24  O8  UNL     1      -1.309   2.962  -1.751  1.00  0.00    -0.276 OA
ENDBRANCH  22  23
ENDBRANCH  12  22
ENDBRANCH  11  12
ENDBRANCH   1  11
BRANCH   9  25
HETATM   25  C14 UNL     1       3.372   0.665  -2.277  1.00  0.00     0.311 C 
BRANCH  25  26
HETATM   26  N4  UNL     1       4.351   0.369  -3.311  1.00  0.00    -0.062 N 
ATOM     27  H43 UNL     1       4.820  -0.520  -3.139  1.00  0.00     0.275 HD
ATOM     28  H42 UNL     1       3.902   0.140  -4.198  1.00  0.00     0.275 HD
ATOM     29  H41 UNL     1       5.020   1.132  -3.415  1.00  0.00     0.275 HD
ENDBRANCH  25  26
BRANCH  25  30
HETATM   30  C15 UNL     1       4.113   0.948  -1.027  1.00  0.00     0.023 A 
HETATM   31  C16 UNL     1       4.663  -0.052  -0.245  1.00  0.00     0.052 A 
HETATM   32  C17 UNL     1       5.361   0.250   0.927  1.00  0.00     0.112 A 
HETATM   33  C18 UNL     1       5.519   1.553   1.335  1.00  0.00     0.114 A 
HETATM   34  O6  UNL     1       6.007  -0.530   1.889  1.00  0.00    -0.256 OA
HETATM   35  C19 UNL     1       4.978   2.559   0.568  1.00  0.00     0.082 A 
HETATM   36  O5  UNL     1       6.242   1.559   2.516  1.00  0.00    -0.256 OA
HETATM   37  C20 UNL     1       4.286   2.248  -0.596  1.00  0.00     0.128 A 
HETATM   38  F3  UNL     1       3.753   3.224  -1.355  1.00  0.00    -0.205 F 
HETATM   39  C21 UNL     1       6.915   0.300   2.599  1.00  0.00     0.498 C 
HETATM   40  F4  UNL     1       8.144   0.343   1.967  1.00  0.00    -0.147 F 
HETATM   41  F5  UNL     1       7.033  -0.021   3.918  1.00  0.00    -0.147 F 
ENDBRANCH  25  30
ENDBRANCH   9  25
BRANCH   3  42
HETATM   42  C10 UNL     1      -1.572  -4.537   0.250  1.00  0.00     0.383 C 
HETATM   43  F1  UNL     1      -2.854  -4.147   0.552  1.00  0.00    -0.212 F 
HETATM   44  F2  UNL     1      -1.672  -5.319  -0.904  1.00  0.00    -0.212 F 
ENDBRANCH   3  42
TORSDOF 11
