REMARK  13 active torsions:
REMARK  status: ('A' for Active; 'I' for Inactive)
REMARK    1  A    between atoms: O1_2  and  C2_3 
REMARK    2  A    between atoms: C4_5  and  C5_6 
REMARK    3  A    between atoms: C4_5  and  C12_21 
REMARK    4  A    between atoms: C6_7  and  C7_8 
REMARK    5  A    between atoms: C9_12  and  C10_13 
REMARK    6  A    between atoms: C10_13  and  C11_16 
REMARK    7  A    between atoms: C12_21  and  O2_22 
REMARK    8  A    between atoms: C14_25  and  C16_27 
REMARK    9  A    between atoms: C16_27  and  C17_28 
REMARK   10  A    between atoms: C17_28  and  O3_29 
REMARK   11  A    between atoms: N2_31  and  O4_33 
REMARK   12  A    between atoms: O4_33  and  C18_34 
REMARK   13  A    between atoms: C18_34  and  C19_35 
REMARK       I    between atoms: C19_35  and  N3_37 
ROOT
HETATM    1  C2  UNL     1       1.070   0.066   1.721  1.00  0.00     0.136 C 
HETATM    2  C3  UNL     1       2.020   1.249   2.094  1.00  0.00     0.057 C 
HETATM    3  C4  UNL     1       2.209   1.863   0.704  1.00  0.00     0.048 C 
HETATM    4  C13 UNL     1       0.929   1.605   0.003  1.00  0.00     0.042 C 
HETATM    5  C14 UNL     1       0.015   0.905   1.004  1.00  0.00     0.026 C 
HETATM    6  C15 UNL     1      -0.603   1.824   2.022  1.00  0.00     0.024 C 
ENDROOT
BRANCH   3   7
HETATM    7  C5  UNL     1       3.294   1.075   0.041  1.00  0.00    -0.088 C 
HETATM    8  C6  UNL     1       4.211   0.454  -0.440  1.00  0.00    -0.057 C 
BRANCH   8   9
HETATM    9  C7  UNL     1       5.329  -0.284  -0.961  1.00  0.00     0.075 A 
HETATM   10  C8  UNL     1       5.524  -0.870  -2.167  1.00  0.00     0.117 A 
HETATM   11  N1  UNL     1       6.641  -1.502  -2.381  1.00  0.00    -0.357 N 
HETATM   12  C9  UNL     1       7.557  -1.563  -1.427  1.00  0.00     0.134 A 
ATOM     13  H1  UNL     1       6.811  -1.949  -3.282  1.00  0.00     0.165 HD
HETATM   14  S1  UNL     1       6.820  -0.689  -0.162  1.00  0.00    -0.060 SA
BRANCH  12  15
HETATM   15  C10 UNL     1       8.898  -2.222  -1.393  1.00  0.00     0.387 C 
HETATM   16  F1  UNL     1       9.525  -2.202  -2.594  1.00  0.00    -0.188 F 
HETATM   17  F2  UNL     1       8.645  -3.529  -0.967  1.00  0.00    -0.188 F 
BRANCH  15  18
HETATM   18  C11 UNL     1       9.696  -1.545  -0.274  1.00  0.00     0.461 C 
HETATM   19  F3  UNL     1      10.942  -2.097  -0.170  1.00  0.00    -0.165 F 
HETATM   20  F4  UNL     1       9.766  -0.179  -0.585  1.00  0.00    -0.165 F 
HETATM   21  F5  UNL     1       8.981  -1.671   0.898  1.00  0.00    -0.165 F 
ENDBRANCH  15  18
ENDBRANCH  12  15
ENDBRANCH   8   9
ENDBRANCH   3   7
BRANCH   3  22
HETATM   22  C12 UNL     1       2.677   3.293   0.732  1.00  0.00     0.186 C 
BRANCH  22  23
HETATM   23  O2  UNL     1       1.916   4.230   1.314  1.00  0.00    -0.399 OA
ATOM     24  H2  UNL     1       2.211   5.133   1.332  1.00  0.00     0.209 HD
ENDBRANCH  22  23
ENDBRANCH   3  22
BRANCH   1  25
HETATM   25  O1  UNL     1       1.704  -0.746   0.837  1.00  0.00    -0.390 OA
HETATM   26  C1  UNL     1       1.853  -2.074   1.188  1.00  0.00     0.202 C 
ENDBRANCH   1  25
BRANCH   5  27
HETATM   27  C16 UNL     1      -1.086   0.141   0.411  1.00  0.00     0.044 C 
HETATM   28  N2  UNL     1      -1.420   0.277  -0.794  1.00  0.00    -0.272 N 
ATOM     29  H2  UNL     1      -0.889   0.941  -1.358  1.00  0.00     0.193 HD
BRANCH  27  30
HETATM   30  C17 UNL     1      -1.822  -0.781   1.303  1.00  0.00     0.219 C 
BRANCH  30  31
HETATM   31  O3  UNL     1      -2.498  -0.151   2.336  1.00  0.00    -0.395 OA
ATOM     32  H3  UNL     1      -2.971  -0.743   2.909  1.00  0.00     0.209 HD
ENDBRANCH  30  31
ENDBRANCH  27  30
BRANCH  28  33
HETATM   33  O4  UNL     1      -2.460  -0.410  -1.418  1.00  0.00    -0.271 OA
BRANCH  33  34
HETATM   34  C18 UNL     1      -3.782   0.073  -1.120  1.00  0.00     0.304 C 
BRANCH  34  35
HETATM   35  C19 UNL     1      -4.774  -0.710  -1.848  1.00  0.00     0.246 C 
HETATM   36  O5  UNL     1      -4.469  -1.541  -2.712  1.00  0.00    -0.271 OA
HETATM   37  N3  UNL     1      -6.180  -0.511  -1.556  1.00  0.00    -0.346 N 
HETATM   38  C20 UNL     1      -6.483   0.380  -0.480  1.00  0.00     0.152 C 
HETATM   39  C23 UNL     1      -7.196  -1.147  -2.327  1.00  0.00     0.152 C 
HETATM   40  C21 UNL     1      -7.919   0.420  -0.104  1.00  0.00     0.187 C 
HETATM   41  O6  UNL     1      -8.822  -0.059  -1.021  1.00  0.00    -0.388 OA
HETATM   42  C22 UNL     1      -8.435  -1.323  -1.495  1.00  0.00     0.187 C 
ENDBRANCH  34  35
ENDBRANCH  33  34
ENDBRANCH  28  33
ENDBRANCH   5  27
TORSDOF 13
