REMARK  7 active torsions:
REMARK  status: ('A' for Active; 'I' for Inactive)
REMARK    1  A    between atoms: O1_2  and  C2_3 
REMARK    2  A    between atoms: C2_3  and  C3_5 
REMARK    3  A    between atoms: C5_7  and  C6_8 
REMARK    4  A    between atoms: C12_14  and  C13_15 
REMARK       I    between atoms: C13_15  and  N1_17 
REMARK    5  A    between atoms: N1_17  and  C14_19 
REMARK    6  A    between atoms: C17_22  and  C18_23 
REMARK       I    between atoms: C18_23  and  N2_25 
REMARK    7  A    between atoms: C21_28  and  C22_29 
ROOT
HETATM    1  C14 UNL     1       0.783   0.897   0.081  1.00  0.00     0.042 A 
HETATM    2  C15 UNL     1       1.293   0.123  -0.912  1.00  0.00     0.031 A 
HETATM    3  C16 UNL     1       2.558   0.320  -1.406  1.00  0.00     0.021 A 
HETATM    4  C17 UNL     1       3.321   1.330  -0.877  1.00  0.00     0.054 A 
HETATM    5  C25 UNL     1       2.833   2.129   0.127  1.00  0.00     0.058 A 
HETATM    6 CL1  UNL     1       3.827   3.429   0.803  1.00  0.00    -0.083 Cl
HETATM    7  C26 UNL     1       1.569   1.921   0.611  1.00  0.00    -0.013 A 
HETATM    8  C27 UNL     1       1.052   2.809   1.714  1.00  0.00     0.052 C 
ENDROOT
BRANCH   1   9
HETATM    9  N1  UNL     1      -0.520   0.729   0.625  1.00  0.00    -0.326 N 
HETATM   10  C13 UNL     1      -1.492  -0.215   0.266  1.00  0.00     0.227 C 
HETATM   11  O3  UNL     1      -1.325  -1.063  -0.615  1.00  0.00    -0.273 OA
ATOM     12  H1  UNL     1      -0.780   1.376   1.369  1.00  0.00     0.169 HD
BRANCH  10  13
HETATM   13  C12 UNL     1      -2.795  -0.151   1.026  1.00  0.00     0.091 C 
HETATM   14  C3  UNL     1      -3.755  -1.204   0.598  1.00  0.00     0.099 C 
HETATM   15  C4  UNL     1      -4.543  -0.829  -0.633  1.00  0.00     0.020 C 
HETATM   16  C5  UNL     1      -5.217   0.516  -0.484  1.00  0.00    -0.006 C 
HETATM   17  C10 UNL     1      -4.822   1.196   0.811  1.00  0.00     0.006 C 
HETATM   18  C11 UNL     1      -3.311   1.246   0.846  1.00  0.00     0.015 C 
BRANCH  14  19
HETATM   19  C2  UNL     1      -3.142  -2.534   0.361  1.00  0.00     0.263 C 
HETATM   20  O2  UNL     1      -3.320  -3.162  -0.736  1.00  0.00    -0.265 OA
BRANCH  19  21
HETATM   21  O1  UNL     1      -2.347  -3.170   1.305  1.00  0.00    -0.326 OA
HETATM   22  C1  UNL     1      -1.790  -4.438   1.021  1.00  0.00     0.213 C 
ENDBRANCH  19  21
ENDBRANCH  14  19
BRANCH  16  23
HETATM   23  C6  UNL     1      -6.709   0.426  -0.552  1.00  0.00    -0.048 C 
HETATM   24  C7  UNL     1      -7.253   1.842  -0.389  1.00  0.00     0.015 C 
HETATM   25  C8  UNL     1      -7.323  -0.419   0.518  1.00  0.00     0.015 C 
HETATM   26  C9  UNL     1      -7.200  -0.075  -1.886  1.00  0.00     0.015 C 
ENDBRANCH  16  23
ENDBRANCH  10  13
ENDBRANCH   1   9
BRANCH   4  27
HETATM   27  C18 UNL     1       4.663   1.542  -1.400  1.00  0.00     0.255 C 
HETATM   28  O4  UNL     1       4.786   2.334  -2.369  1.00  0.00    -0.267 OA
HETATM   29  N2  UNL     1       5.748   0.871  -0.817  1.00  0.00    -0.348 N 
HETATM   30  C19 UNL     1       5.559  -0.023   0.287  1.00  0.00     0.127 C 
HETATM   31  C24 UNL     1       7.079   1.065  -1.317  1.00  0.00     0.127 C 
HETATM   32  C20 UNL     1       6.119  -1.357  -0.041  1.00  0.00     0.034 C 
HETATM   33  C21 UNL     1       7.465  -1.349  -0.697  1.00  0.00     0.078 C 
HETATM   34  C23 UNL     1       7.664  -0.246  -1.692  1.00  0.00     0.034 C 
BRANCH  33  35
HETATM   35  C22 UNL     1       8.539  -1.337   0.316  1.00  0.00     0.235 C 
HETATM   36  N3  UNL     1       8.638  -0.286   1.251  1.00  0.00    -0.062 NA
HETATM   37  O5  UNL     1       9.372  -2.270   0.348  1.00  0.00    -0.277 OA
ENDBRANCH  33  35
ENDBRANCH   4  27
TORSDOF 7
