REMARK  5 active torsions:
REMARK  status: ('A' for Active; 'I' for Inactive)
REMARK    1  A    between atoms: C5_6  and  C6_7 
REMARK    2  A    between atoms: C8_11  and  N2_12 
REMARK    3  A    between atoms: C18_25  and  N4_26 
REMARK    4  A    between atoms: N4_26  and  C19_28 
REMARK    5  A    between atoms: C19_28  and  C20_29 
ROOT
HETATM    1  C1  UNL     1      -2.157  -1.778   1.035  1.00  0.00     0.023 C 
HETATM    2  C2  UNL     1      -1.932  -0.729  -0.067  1.00  0.00     0.007 C 
HETATM    3  C3  UNL     1      -2.178  -1.421  -1.362  1.00  0.00     0.023 C 
HETATM    4  C4  UNL     1      -0.488  -0.325  -0.045  1.00  0.00    -0.001 A 
HETATM    5  S1  UNL     1       0.949  -1.253  -0.210  1.00  0.00    -0.093 SA
HETATM    6  C5  UNL     1       2.105  -0.005  -0.084  1.00  0.00     0.018 A 
HETATM    7  C14 UNL     1       1.329   1.113   0.087  1.00  0.00     0.028 A 
HETATM    8  C15 UNL     1      -0.016   0.940   0.106  1.00  0.00    -0.043 A 
HETATM    9  C16 UNL     1      -1.016   2.090   0.278  1.00  0.00     0.042 C 
HETATM   10  C17 UNL     1      -2.260   1.647  -0.476  1.00  0.00     0.030 C 
HETATM   11  C18 UNL     1      -2.787   0.426   0.265  1.00  0.00     0.089 C 
ENDROOT
BRANCH   6  12
HETATM   12  C6  UNL     1       3.567  -0.080  -0.152  1.00  0.00     0.013 A 
HETATM   13  C7  UNL     1       4.187  -1.275  -0.345  1.00  0.00     0.120 A 
HETATM   14  N1  UNL     1       5.551  -1.353  -0.418  1.00  0.00    -0.201 N 
HETATM   15  C8  UNL     1       6.308  -0.226  -0.299  1.00  0.00     0.680 A 
ATOM     16  H1  UNL     1       6.002  -2.256  -0.562  1.00  0.00     0.183 HD
HETATM   17  N3  UNL     1       5.704   0.967  -0.108  1.00  0.00    -0.201 N 
HETATM   18  C13 UNL     1       4.339   1.041  -0.034  1.00  0.00     0.120 A 
ATOM     19  H3  UNL     1       6.266   1.814  -0.019  1.00  0.00     0.183 HD
BRANCH  15  20
HETATM   20  N2  UNL     1       7.715  -0.261  -0.375  1.00  0.00    -0.214 N 
HETATM   21  C9  UNL     1       8.417  -1.508  -0.577  1.00  0.00     0.167 C 
HETATM   22  C10 UNL     1       9.631  -1.530   0.305  1.00  0.00     0.188 C 
HETATM   23  O1  UNL     1      10.320  -0.338   0.350  1.00  0.00    -0.388 OA
HETATM   24  C11 UNL     1       9.531   0.699   0.826  1.00  0.00     0.188 C 
HETATM   25  C12 UNL     1       8.473   0.953  -0.250  1.00  0.00     0.167 C 
ENDBRANCH  15  20
ENDBRANCH   6  12
BRANCH  11  26
HETATM   26  N4  UNL     1      -4.181   0.300   0.214  1.00  0.00    -0.416 N 
ATOM     27  H4  UNL     1      -4.713   0.419   1.076  1.00  0.00     0.153 HD
BRANCH  26  28
HETATM   28  C19 UNL     1      -4.871   0.020  -0.960  1.00  0.00     0.118 C 
BRANCH  28  29
HETATM   29  C20 UNL     1      -6.385   0.113  -0.686  1.00  0.00     0.007 C 
HETATM   30  C21 UNL     1      -6.806   1.470  -0.232  1.00  0.00     0.032 C 
HETATM   31  C22 UNL     1      -7.954   1.366   0.753  1.00  0.00     0.168 C 
HETATM   32  O2  UNL     1      -8.804   0.364   0.303  1.00  0.00    -0.391 OA
HETATM   33  C23 UNL     1      -8.226  -0.855   0.645  1.00  0.00     0.168 C 
HETATM   34  C24 UNL     1      -6.739  -0.874   0.406  1.00  0.00     0.032 C 
ENDBRANCH  28  29
ENDBRANCH  26  28
ENDBRANCH  11  26
TORSDOF 5
