REMARK  6 active torsions:
REMARK  status: ('A' for Active; 'I' for Inactive)
REMARK    1  A    between atoms: C3_3  and  C4_4 
REMARK    2  A    between atoms: C3_3  and  O3_17 
REMARK    3  A    between atoms: C4_4  and  C5_5 
REMARK    4  A    between atoms: O3_17  and  C15_18 
REMARK    5  A    between atoms: C15_18  and  C16_19 
REMARK    6  A    between atoms: C19_22  and  N1_23 
ROOT
HETATM    1  C1  UNL     1       0.149   2.230  -2.187  1.00  0.00     0.015 C 
HETATM    2  C2  UNL     1      -0.040   1.727  -1.110  1.00  0.00    -0.085 C 
HETATM    3  C3  UNL     1      -0.267   1.089   0.201  1.00  0.00     0.200 C 
ENDROOT
BRANCH   3   4
HETATM    4  C4  UNL     1      -1.678   1.448   0.602  1.00  0.00     0.063 C 
BRANCH   4   5
HETATM    5  C5  UNL     1      -2.731   0.960  -0.410  1.00  0.00     0.111 C 
HETATM    6  C6  UNL     1      -2.635  -0.504  -0.497  1.00  0.00    -0.012 C 
HETATM    7  C7  UNL     1      -3.602  -1.313  -1.239  1.00  0.00    -0.007 C 
HETATM    8  C8  UNL     1      -4.698  -0.724  -2.004  1.00  0.00    -0.027 C 
HETATM    9  C9  UNL     1      -6.081  -0.729  -1.522  1.00  0.00     0.027 C 
HETATM   10  C10 UNL     1      -6.468  -1.557  -0.355  1.00  0.00     0.006 C 
HETATM   11  C11 UNL     1      -6.628  -0.795   0.946  1.00  0.00     0.032 C 
HETATM   12  C12 UNL     1      -5.362  -0.134   1.436  1.00  0.00     0.128 C 
HETATM   13  C13 UNL     1      -5.765   0.528   2.769  1.00  0.00     0.040 C 
HETATM   14  O1  UNL     1      -5.070   0.881   0.563  1.00  0.00    -0.316 OA
HETATM   15  C14 UNL     1      -3.994   1.520   0.120  1.00  0.00     0.267 C 
HETATM   16  O2  UNL     1      -4.038   2.804   0.149  1.00  0.00    -0.265 OA
ENDBRANCH   4   5
ENDBRANCH   3   4
BRANCH   3  17
HETATM   17  O3  UNL     1       0.626   1.649   1.080  1.00  0.00    -0.371 OA
BRANCH  17  18
HETATM   18  C15 UNL     1       1.533   0.907   1.724  1.00  0.00     0.201 C 
BRANCH  18  19
HETATM   19  C16 UNL     1       2.635   0.235   1.015  1.00  0.00     0.148 C 
HETATM   20  C17 UNL     1       2.367  -0.946   0.163  1.00  0.00     0.038 C 
HETATM   21  C18 UNL     1       3.839  -1.198  -0.309  1.00  0.00     0.057 C 
HETATM   22  C19 UNL     1       4.246   0.237  -0.528  1.00  0.00     0.232 C 
HETATM   23  O6  UNL     1       3.498   1.061   0.294  1.00  0.00    -0.359 OA
BRANCH  22  24
HETATM   24  N1  UNL     1       5.670   0.338  -0.313  1.00  0.00    -0.282 N 
HETATM   25  C20 UNL     1       6.469  -0.664  -0.715  1.00  0.00     0.110 A 
HETATM   26  C21 UNL     1       7.830  -0.589  -0.521  1.00  0.00     0.022 A 
HETATM   27  C22 UNL     1       8.730  -1.668  -0.949  1.00  0.00     0.056 C 
HETATM   28  C23 UNL     1       8.386   0.518   0.089  1.00  0.00     0.256 A 
HETATM   29  O4  UNL     1       9.617   0.588   0.265  1.00  0.00    -0.267 OA
HETATM   30  N2  UNL     1       7.531   1.487   0.468  1.00  0.00    -0.275 N 
HETATM   31  C24 UNL     1       6.214   1.420   0.284  1.00  0.00     0.331 A 
ATOM     32  H2  UNL     1       7.913   2.317   0.921  1.00  0.00     0.173 HD
HETATM   33  O5  UNL     1       5.438   2.345   0.650  1.00  0.00    -0.246 OA
ENDBRANCH  22  24
ENDBRANCH  18  19
ENDBRANCH  17  18
ENDBRANCH   3  17
TORSDOF 6
