REMARK  3 active torsions:
REMARK  status: ('A' for Active; 'I' for Inactive)
REMARK       I    between atoms: C3_3  and  N1_5 
REMARK    1  A    between atoms: N1_5  and  C4_7 
REMARK    2  A    between atoms: C4_7  and  C5_8 
REMARK       I    between atoms: C5_8  and  N2_10 
REMARK       I    between atoms: N2_10  and  C6_12 
REMARK       I    between atoms: C6_12  and  N3_14 
REMARK    3  A    between atoms: N3_14  and  C7_16 
ROOT
HETATM    1  C1  UNL     1       6.766   2.741   0.454  1.00  0.00     0.022 C 
HETATM    2  C2  UNL     1       5.989   1.975  -0.074  1.00  0.00    -0.017 C 
HETATM    3  C3  UNL     1       5.048   1.057  -0.684  1.00  0.00     0.296 C 
HETATM    4  O1  UNL     1       4.237   1.527  -1.493  1.00  0.00    -0.258 OA
HETATM    5  N1  UNL     1       5.091  -0.319  -0.338  1.00  0.00    -0.342 N 
ATOM      6  H1  UNL     1       5.792  -0.633   0.334  1.00  0.00     0.163 HD
ENDROOT
BRANCH   5   7
HETATM    7  C4  UNL     1       4.188  -1.288  -0.895  1.00  0.00     0.226 C 
BRANCH   7   8
HETATM    8  C5  UNL     1       2.763  -0.980  -0.540  1.00  0.00     0.243 C 
HETATM    9  O2  UNL     1       2.538   0.014   0.171  1.00  0.00    -0.271 OA
HETATM   10  N2  UNL     1       1.735  -1.809  -1.012  1.00  0.00    -0.278 N 
HETATM   11  C6  UNL     1       0.378  -1.653  -0.768  1.00  0.00     0.323 C 
ATOM     12  H2  UNL     1       2.011  -2.603  -1.590  1.00  0.00     0.173 HD
HETATM   13  O3  UNL     1      -0.387  -2.549  -1.313  1.00  0.00    -0.247 OA
HETATM   14  N3  UNL     1      -0.210  -0.637  -0.006  1.00  0.00    -0.338 N 
ATOM     15  H3  UNL     1       0.376   0.076   0.429  1.00  0.00     0.164 HD
BRANCH  14  16
HETATM   16  C7  UNL     1      -1.671  -0.592   0.171  1.00  0.00     0.086 C 
HETATM   17  C8  UNL     1      -1.938  -0.735   1.629  1.00  0.00     0.025 C 
HETATM   18  C9  UNL     1      -3.375  -0.482   2.005  1.00  0.00     0.002 C 
HETATM   19  C10 UNL     1      -3.800   0.936   1.788  1.00  0.00     0.000 C 
HETATM   20  C11 UNL     1      -4.449   1.146   0.437  1.00  0.00     0.000 C 
HETATM   21  C12 UNL     1      -3.608   0.626  -0.694  1.00  0.00     0.002 C 
HETATM   22  C13 UNL     1      -2.135   0.700  -0.420  1.00  0.00     0.025 C 
ENDBRANCH  14  16
ENDBRANCH   7   8
ENDBRANCH   5   7
TORSDOF 3
