REMARK  7 active torsions:
REMARK  status: ('A' for Active; 'I' for Inactive)
REMARK    1  A    between atoms: N1_1  and  S1_4 
REMARK    2  A    between atoms: S1_4  and  C1_7 
REMARK    3  A    between atoms: C4_10  and  N2_11 
REMARK    4  A    between atoms: C5_14  and  C6_15 
REMARK    5  A    between atoms: C13_23  and  C14_24 
REMARK    6  A    between atoms: C18_29  and  C19_30 
REMARK    7  A    between atoms: C20_31  and  C21_32 
ROOT
HETATM    1  N2  UNL     1      -1.368   1.190   0.082  1.00  0.00    -0.255 N 
HETATM    2  N3  UNL     1      -2.484   1.917   0.323  1.00  0.00    -0.292 N 
ATOM      3  H3  UNL     1      -3.377   1.524   0.621  1.00  0.00     0.187 HD
HETATM    4  C5  UNL     1      -2.260   3.217   0.118  1.00  0.00     0.064 A 
HETATM    5  C12 UNL     1      -0.962   3.318  -0.263  1.00  0.00     0.064 A 
HETATM    6  C13 UNL     1      -0.394   2.007  -0.284  1.00  0.00     0.069 A 
ENDROOT
BRANCH   6   7
HETATM    7  C14 UNL     1       0.971   1.746  -0.699  1.00  0.00    -0.004 A 
HETATM    8  C15 UNL     1       1.686   2.767  -1.338  1.00  0.00     0.037 A 
HETATM    9  C16 UNL     1       2.988   2.653  -1.734  1.00  0.00     0.036 A 
HETATM   10 CL1  UNL     1       3.875   3.913  -2.527  1.00  0.00    -0.084 Cl
HETATM   11  C17 UNL     1       3.625   1.451  -1.483  1.00  0.00     0.044 A 
HETATM   12  C18 UNL     1       2.983   0.409  -0.860  1.00  0.00     0.020 A 
HETATM   13  C25 UNL     1       1.643   0.595  -0.478  1.00  0.00     0.034 A 
BRANCH  12  14
HETATM   14  C19 UNL     1       3.613  -0.847  -0.585  1.00  0.00    -0.059 C 
HETATM   15  C20 UNL     1       4.171  -1.915  -0.359  1.00  0.00    -0.025 C 
BRANCH  15  16
HETATM   16  C21 UNL     1       4.845  -3.157  -0.102  1.00  0.00     0.161 A 
HETATM   17  N4  UNL     1       5.310  -3.945  -1.110  1.00  0.00    -0.345 N 
HETATM   18  C22 UNL     1       5.936  -5.099  -0.881  1.00  0.00     0.091 A 
ATOM     19  H4  UNL     1       5.175  -3.642  -2.074  1.00  0.00     0.167 HD
HETATM   20  C23 UNL     1       6.133  -5.531   0.400  1.00  0.00     0.034 A 
HETATM   21  C24 UNL     1       5.665  -4.740   1.448  1.00  0.00     0.091 A 
HETATM   22  N5  UNL     1       5.044  -3.593   1.153  1.00  0.00    -0.345 N 
ATOM     23  H5  UNL     1       4.703  -3.018   1.923  1.00  0.00     0.167 HD
ENDBRANCH  15  16
ENDBRANCH  12  14
ENDBRANCH   6   7
BRANCH   1  24
HETATM   24  C4  UNL     1      -1.371  -0.236   0.195  1.00  0.00     0.057 A 
HETATM   25  C3  UNL     1      -1.478  -1.074  -0.916  1.00  0.00     0.033 A 
HETATM   26  C2  UNL     1      -1.529  -2.442  -0.781  1.00  0.00     0.027 A 
HETATM   27  C1  UNL     1      -1.479  -3.044   0.457  1.00  0.00     0.079 A 
HETATM   28  C27 UNL     1      -1.374  -2.247   1.574  1.00  0.00     0.027 A 
HETATM   29  C26 UNL     1      -1.323  -0.881   1.434  1.00  0.00     0.033 A 
BRANCH  27  30
HETATM   30  S1  UNL     1      -1.543  -4.786   0.651  1.00  0.00     0.256 S 
HETATM   31  O1  UNL     1      -0.931  -5.503  -0.501  1.00  0.00    -0.201 OA
HETATM   32  O2  UNL     1      -0.816  -5.176   1.907  1.00  0.00    -0.201 OA
BRANCH  30  33
HETATM   33  N1  UNL     1      -3.175  -5.318   0.819  1.00  0.00    -0.324 N 
ATOM     34  H12 UNL     1      -3.630  -6.008   0.222  1.00  0.00     0.169 HD
ATOM     35  H11 UNL     1      -3.594  -4.827   1.608  1.00  0.00     0.169 HD
ENDBRANCH  30  33
ENDBRANCH  27  30
ENDBRANCH   1  24
BRANCH   4  36
HETATM   36  C6  UNL     1      -3.227   4.298   0.278  1.00  0.00     0.031 A 
HETATM   37  C7  UNL     1      -4.523   3.956   0.687  1.00  0.00     0.017 A 
HETATM   38  C8  UNL     1      -5.524   4.879   0.874  1.00  0.00     0.001 A 
HETATM   39  C9  UNL     1      -5.264   6.212   0.654  1.00  0.00     0.003 A 
HETATM   40  C10 UNL     1      -4.008   6.578   0.253  1.00  0.00     0.043 A 
HETATM   41  C11 UNL     1      -2.996   5.620   0.067  1.00  0.00     0.129 A 
HETATM   42  F1  UNL     1      -1.767   6.027  -0.330  1.00  0.00    -0.205 F 
ENDBRANCH   4  36
TORSDOF 7
