REMARK  3 active torsions:
REMARK  status: ('A' for Active; 'I' for Inactive)
REMARK    1  A    between atoms: C2_2  and  C3_3 
REMARK    2  A    between atoms: C3_3  and  N1_4 
REMARK    3  A    between atoms: C4_5  and  O1_6 
ROOT
HETATM    1  N1  UNL     1       1.283  -0.863  -0.405  1.00  0.00    -0.304 N 
HETATM    2  C4  UNL     1       0.170  -0.161  -0.345  1.00  0.00     0.158 A 
HETATM    3  C5  UNL     1      -1.059  -0.711   0.081  1.00  0.00     0.055 A 
HETATM    4  C6  UNL     1      -2.203   0.119   0.389  1.00  0.00    -0.062 C 
HETATM    5  C7  UNL     1      -3.420   0.128  -0.474  1.00  0.00     0.035 C 
HETATM    6  C8  UNL     1      -3.273   1.665  -0.462  1.00  0.00     0.009 C 
HETATM    7  C9  UNL     1      -2.248   1.546   0.685  1.00  0.00     0.035 C 
HETATM    8  C10 UNL     1      -1.002  -2.038   0.427  1.00  0.00     0.117 A 
HETATM    9  S1  UNL     1      -2.334  -2.856   0.955  1.00  0.00    -0.059 SA
HETATM   10  N2  UNL     1       0.140  -2.762   0.373  1.00  0.00    -0.323 N 
ATOM     11  H2  UNL     1       0.146  -3.746   0.641  1.00  0.00     0.169 HD
HETATM   12  C11 UNL     1       1.264  -2.158  -0.041  1.00  0.00     0.181 A 
HETATM   13  S2  UNL     1       2.632  -3.064  -0.074  1.00  0.00    -0.040 SA
ENDROOT
BRANCH   2  14
HETATM   14  O1  UNL     1       0.194   1.159  -0.703  1.00  0.00    -0.345 OA
ATOM     15  H1  UNL     1      -0.609   1.665  -0.660  1.00  0.00     0.219 HD
ENDBRANCH   2  14
BRANCH   1  16
HETATM   16  C3  UNL     1       2.495  -0.322  -1.033  1.00  0.00     0.133 C 
BRANCH  16  17
HETATM   17  C2  UNL     1       3.038   0.839  -0.301  1.00  0.00     0.016 C 
HETATM   18  C1  UNL     1       3.291   0.694   1.154  1.00  0.00     0.006 C 
ENDBRANCH  16  17
ENDBRANCH   1  16
TORSDOF 3
