REMARK  7 active torsions:
REMARK  status: ('A' for Active; 'I' for Inactive)
REMARK    1  A    between atoms: C2_2  and  C3_3 
REMARK    2  A    between atoms: C3_3  and  C4_4 
REMARK    3  A    between atoms: C3_3  and  N1_15 
REMARK    4  A    between atoms: C4_4  and  O1_5 
REMARK    5  A    between atoms: C4_4  and  C5_7 
REMARK    6  A    between atoms: C8_10  and  O2_11 
REMARK    7  A    between atoms: N1_15  and  C12_18 
ROOT
HETATM    1  C4  UNL     1       0.380  -0.183  -1.269  1.00  0.00     0.190 C 
ENDROOT
BRANCH   1   2
HETATM    2  C3  UNL     1      -0.963   0.046  -0.697  1.00  0.00     0.287 C 
BRANCH   2   3
HETATM    3  C2  UNL     1      -1.853   0.571  -1.842  1.00  0.00     0.041 C 
HETATM    4  C1  UNL     1      -1.303   1.863  -2.406  1.00  0.00     0.008 C 
ENDBRANCH   2   3
BRANCH   2   5
HETATM    5  N1  UNL     1      -1.592  -0.930   0.085  1.00  0.00     0.016 N 
HETATM    6  C11 UNL     1      -3.057  -0.996  -0.157  1.00  0.00     0.357 C 
HETATM    7  O3  UNL     1      -1.221  -2.227  -0.194  1.00  0.00    -0.064 OA
BRANCH   5   8
HETATM    8  C12 UNL     1      -1.475  -0.825   1.516  1.00  0.00     0.307 C 
HETATM    9  C13 UNL     1      -1.413   0.578   2.036  1.00  0.00     0.044 C 
ENDBRANCH   5   8
ENDBRANCH   2   5
ENDBRANCH   1   2
BRANCH   1  10
HETATM   10  O1  UNL     1       0.550  -1.251  -2.117  1.00  0.00    -0.388 OA
ATOM     11  H1  UNL     1       1.413  -1.398  -2.485  1.00  0.00     0.210 HD
ENDBRANCH   1  10
BRANCH   1  12
HETATM   12  C5  UNL     1       1.505  -0.169  -0.301  1.00  0.00    -0.027 A 
HETATM   13  C6  UNL     1       2.028  -1.299   0.291  1.00  0.00     0.012 A 
HETATM   14  C7  UNL     1       3.076  -1.246   1.192  1.00  0.00     0.037 A 
HETATM   15  C8  UNL     1       3.639  -0.038   1.530  1.00  0.00     0.065 A 
HETATM   16  C9  UNL     1       3.149   1.105   0.965  1.00  0.00     0.037 A 
HETATM   17  C10 UNL     1       2.121   1.028   0.084  1.00  0.00     0.012 A 
BRANCH  15  18
HETATM   18  O2  UNL     1       4.699   0.077   2.434  1.00  0.00    -0.361 OA
ATOM     19  H2  UNL     1       5.088   0.912   2.668  1.00  0.00     0.217 HD
ENDBRANCH  15  18
ENDBRANCH   1  12
TORSDOF 7
