REMARK  4 active torsions:
REMARK  status: ('A' for Active; 'I' for Inactive)
REMARK    1  A    between atoms: C3_10  and  C4_11 
REMARK    2  A    between atoms: C4_11  and  C5_12 
REMARK    3  A    between atoms: C5_12  and  N3_13 
REMARK    4  A    between atoms: N3_13  and  C6_15 
ROOT
HETATM    1  C4  UNL     1       0.257  -0.521   0.317  1.00  0.00     0.068 C 
ENDROOT
BRANCH   1   2
HETATM    2  C3  UNL     1       1.604   0.132   0.128  1.00  0.00     0.300 C 
HETATM    3  S1  UNL     1       2.587  -0.735  -1.116  1.00  0.00     0.141 S 
HETATM    4  O1  UNL     1       2.283  -2.394  -1.111  1.00  0.00    -0.234 OA
HETATM    5  N1  UNL     1       4.273  -0.453  -0.646  1.00  0.00    -0.338 N 
HETATM    6  C1  UNL     1       4.320   0.839  -0.040  1.00  0.00     0.157 C 
ATOM      7  H1  UNL     1       5.058  -1.090  -0.782  1.00  0.00     0.169 HD
HETATM    8  C2  UNL     1       3.528   0.997   1.205  1.00  0.00     0.254 C 
HETATM    9  N2  UNL     1       2.391   0.144   1.333  1.00  0.00    -0.057 N 
ATOM     10  H22 UNL     1       2.661  -0.799   1.612  1.00  0.00     0.278 HD
ATOM     11  H21 UNL     1       1.827   0.393   2.145  1.00  0.00     0.278 HD
ENDBRANCH   1   2
BRANCH   1  12
HETATM   12  C5  UNL     1      -0.468  -0.482  -1.020  1.00  0.00     0.123 C 
BRANCH  12  13
HETATM   13  N3  UNL     1      -1.748  -1.100  -0.855  1.00  0.00    -0.390 N 
ATOM     14  H3  UNL     1      -1.821  -2.083  -1.118  1.00  0.00     0.159 HD
BRANCH  13  15
HETATM   15  C6  UNL     1      -2.801  -0.547  -0.414  1.00  0.00     0.030 A 
HETATM   16  C7  UNL     1      -2.887   0.768  -0.012  1.00  0.00     0.046 A 
HETATM   17  C8  UNL     1      -4.081   1.289   0.459  1.00  0.00     0.089 A 
HETATM   18  N4  UNL     1      -5.197   0.512   0.534  1.00  0.00    -0.375 N 
HETATM   19  C9  UNL     1      -5.148  -0.782   0.148  1.00  0.00     0.089 A 
ATOM     20  H4  UNL     1      -6.071   0.907   0.882  1.00  0.00     0.164 HD
HETATM   21  C10 UNL     1      -3.951  -1.313  -0.326  1.00  0.00     0.046 A 
ENDBRANCH  13  15
ENDBRANCH  12  13
ENDBRANCH   1  12
TORSDOF 4
