REMARK  8 active torsions:
REMARK  status: ('A' for Active; 'I' for Inactive)
REMARK    1  A    between atoms: C4_5  and  O1_6 
REMARK    2  A    between atoms: C5_8  and  O2_9 
REMARK    3  A    between atoms: C5_8  and  C6_11 
REMARK    4  A    between atoms: C7_12  and  C8_13 
REMARK    5  A    between atoms: C8_13  and  O3_14 
REMARK    6  A    between atoms: O3_14  and  C9_15 
REMARK    7  A    between atoms: C9_15  and  C10_16 
REMARK    8  A    between atoms: C10_16  and  O4_17 
ROOT
HETATM    1  C1  UNL     1      -3.886   0.933  -0.259  1.00  0.00     0.272 C 
HETATM    2  N1  UNL     1      -2.557   0.494   0.052  1.00  0.00    -0.068 N 
HETATM    3  C2  UNL     1      -1.760   1.521   0.668  1.00  0.00     0.272 C 
HETATM    4  C3  UNL     1      -2.530  -0.670   0.917  1.00  0.00     0.272 C 
HETATM    5  C4  UNL     1      -1.097  -1.180   0.746  1.00  0.00     0.192 C 
HETATM    6  C5  UNL     1      -0.883  -0.983  -0.726  1.00  0.00     0.172 C 
HETATM    7  C11 UNL     1      -1.961  -0.018  -1.167  1.00  0.00     0.290 C 
ENDROOT
BRANCH   6   8
HETATM    8  O2  UNL     1      -0.975  -2.149  -1.460  1.00  0.00    -0.373 OA
ATOM      9  H2  UNL     1      -0.840  -2.024  -2.392  1.00  0.00     0.212 HD
ENDBRANCH   6   8
BRANCH   6  10
HETATM   10  C6  UNL     1       0.429  -0.330  -0.892  1.00  0.00    -0.061 C 
HETATM   11  C7  UNL     1       1.493   0.220  -1.037  1.00  0.00    -0.077 C 
BRANCH  11  12
HETATM   12  C8  UNL     1       2.788   0.913  -1.223  1.00  0.00     0.261 C 
BRANCH  12  13
HETATM   13  O3  UNL     1       3.132   1.460  -0.011  1.00  0.00    -0.377 OA
BRANCH  13  14
HETATM   14  C9  UNL     1       3.266   0.501   0.984  1.00  0.00     0.194 C 
BRANCH  14  15
HETATM   15  C10 UNL     1       4.326  -0.522   0.672  1.00  0.00     0.190 C 
BRANCH  15  16
HETATM   16  O4  UNL     1       5.582   0.039   0.512  1.00  0.00    -0.399 OA
ATOM     17  H4  UNL     1       6.251  -0.606   0.315  1.00  0.00     0.209 HD
ENDBRANCH  15  16
ENDBRANCH  14  15
ENDBRANCH  13  14
ENDBRANCH  12  13
ENDBRANCH  11  12
ENDBRANCH   6  10
BRANCH   5  18
HETATM   18  O1  UNL     1      -1.134  -2.551   0.989  1.00  0.00    -0.390 OA
ATOM     19  H1  UNL     1      -0.245  -2.868   0.883  1.00  0.00     0.210 HD
ENDBRANCH   5  18
TORSDOF 8
