REMARK  17 active torsions:
REMARK  status: ('A' for Active; 'I' for Inactive)
REMARK    1  A    between atoms: C2_3  and  N2_4 
REMARK    2  A    between atoms: C4_6  and  N3_7 
REMARK    3  A    between atoms: C6_12  and  N4_13 
REMARK    4  A    between atoms: C9_21  and  N6_22 
REMARK    5  A    between atoms: N8_29  and  O1_30 
REMARK    6  A    between atoms: C12_33  and  N9_34 
REMARK    7  A    between atoms: N9_34  and  N10_36 
REMARK    8  A    between atoms: N10_36  and  C13_38 
REMARK    9  A    between atoms: C13_38  and  C14_39 
REMARK   10  A    between atoms: C14_39  and  O2_40 
REMARK   11  A    between atoms: C14_39  and  C15_42 
REMARK   12  A    between atoms: C15_42  and  O3_43 
REMARK   13  A    between atoms: C15_42  and  C16_45 
REMARK   14  A    between atoms: C16_45  and  O4_46 
REMARK   15  A    between atoms: C16_45  and  C17_48 
REMARK   16  A    between atoms: C17_48  and  O5_49 
REMARK   17  A    between atoms: O5_49  and  S2_50 
ROOT
HETATM    1  C1  UNL     1      -1.582  -1.721   0.204  1.00  0.00     0.177 C 
HETATM    2  N1  UNL     1      -1.629  -0.301   0.542  1.00  0.00    -0.169 N 
HETATM    3  C2  UNL     1      -2.788   0.346   0.255  1.00  0.00     0.684 A 
HETATM    4  N5  UNL     1      -2.862   1.664   0.555  1.00  0.00    -0.185 N 
ATOM      5  H5  UNL     1      -3.716   2.185   0.354  1.00  0.00     0.184 HD
HETATM    6  C8  UNL     1      -1.818   2.285   1.115  1.00  0.00     0.126 A 
HETATM    7  C9  UNL     1      -1.901   3.648   1.423  1.00  0.00     0.131 A 
HETATM    8  N7  UNL     1      -0.841   4.239   1.982  1.00  0.00    -0.319 N 
ATOM      9  H7  UNL     1      -0.919   5.232   2.201  1.00  0.00     0.169 HD
HETATM   10  C10 UNL     1       0.317   3.630   2.278  1.00  0.00     0.184 A 
HETATM   11  S1  UNL     1       1.694   4.490   3.028  1.00  0.00    -0.011 SA
HETATM   12  N8  UNL     1       0.401   2.304   1.980  1.00  0.00    -0.195 N 
HETATM   13  C11 UNL     1      -0.635   1.658   1.416  1.00  0.00     0.142 A 
HETATM   14  C12 UNL     1      -0.557   0.283   1.104  1.00  0.00     0.169 A 
ENDROOT
BRANCH  14  15
HETATM   15  N9  UNL     1       0.542  -0.260   1.416  1.00  0.00    -0.287 N 
ATOM     16  H9  UNL     1       1.188   0.413   1.828  1.00  0.00     0.188 HD
BRANCH  15  17
HETATM   17  N10 UNL     1       1.084  -1.485   1.349  1.00  0.00    -0.332 N 
ATOM     18  H10 UNL     1       0.513  -2.319   1.487  1.00  0.00     0.180 HD
BRANCH  17  19
HETATM   19  C13 UNL     1       2.525  -1.594   1.071  1.00  0.00     0.173 C 
BRANCH  19  20
HETATM   20  C14 UNL     1       2.835  -0.866  -0.216  1.00  0.00     0.168 C 
BRANCH  20  21
HETATM   21  O2  UNL     1       2.143  -1.373  -1.288  1.00  0.00    -0.391 OA
ATOM     22  H2  UNL     1       2.338  -0.915  -2.097  1.00  0.00     0.210 HD
ENDBRANCH  20  21
BRANCH  20  23
HETATM   23  C15 UNL     1       4.328  -0.964  -0.469  1.00  0.00     0.179 C 
BRANCH  23  24
HETATM   24  O3  UNL     1       4.712  -2.272  -0.688  1.00  0.00    -0.390 OA
ATOM     25  H3  UNL     1       5.647  -2.333  -0.846  1.00  0.00     0.210 HD
ENDBRANCH  23  24
BRANCH  23  26
HETATM   26  C16 UNL     1       4.759   0.012  -1.511  1.00  0.00     0.174 C 
BRANCH  26  27
HETATM   27  O4  UNL     1       4.297  -0.235  -2.778  1.00  0.00    -0.391 OA
ATOM     28  H4  UNL     1       4.572   0.387  -3.442  1.00  0.00     0.210 HD
ENDBRANCH  26  27
BRANCH  26  29
HETATM   29  C17 UNL     1       6.273   0.083  -1.459  1.00  0.00     0.227 C 
BRANCH  29  30
HETATM   30  O5  UNL     1       6.643   0.330  -0.155  1.00  0.00    -0.254 OA
BRANCH  30  31
HETATM   31  S2  UNL     1       8.281   0.439   0.082  1.00  0.00     0.251 S 
HETATM   32  O6  UNL     1       8.923   1.246  -1.004  1.00  0.00    -0.572 OA
HETATM   33  O7  UNL     1       8.505   1.077   1.447  1.00  0.00    -0.572 OA
HETATM   34  O8  UNL     1       8.960  -1.094   0.168  1.00  0.00    -0.572 OA
ENDBRANCH  30  31
ENDBRANCH  29  30
ENDBRANCH  26  29
ENDBRANCH  23  26
ENDBRANCH  20  23
ENDBRANCH  19  20
ENDBRANCH  17  19
ENDBRANCH  15  17
ENDBRANCH  14  15
BRANCH   3  35
HETATM   35  N2  UNL     1      -3.885  -0.332  -0.342  1.00  0.00    -0.213 N 
HETATM   36  C3  UNL     1      -4.175  -0.238  -1.735  1.00  0.00     0.174 C 
HETATM   37  C4  UNL     1      -5.564  -0.775  -2.017  1.00  0.00     0.204 C 
HETATM   38  C5  UNL     1      -6.553  -0.394  -0.968  1.00  0.00     0.069 C 
HETATM   39  C6  UNL     1      -6.128  -0.583   0.443  1.00  0.00     0.204 C 
HETATM   40  C7  UNL     1      -4.737  -1.144   0.508  1.00  0.00     0.174 C 
BRANCH  37  41
HETATM   41  N3  UNL     1      -5.566  -2.189  -2.267  1.00  0.00    -0.073 N 
ATOM     42  H33 UNL     1      -4.920  -2.430  -3.018  1.00  0.00     0.274 HD
ATOM     43  H32 UNL     1      -5.124  -2.698  -1.501  1.00  0.00     0.274 HD
ATOM     44  H31 UNL     1      -6.501  -2.550  -2.457  1.00  0.00     0.274 HD
ENDBRANCH  37  41
BRANCH  39  45
HETATM   45  N4  UNL     1      -6.228   0.678   1.167  1.00  0.00    -0.073 N 
ATOM     46  H43 UNL     1      -5.707   1.425   0.708  1.00  0.00     0.274 HD
ATOM     47  H42 UNL     1      -7.161   1.084   1.100  1.00  0.00     0.274 HD
ATOM     48  H41 UNL     1      -5.936   0.548   2.136  1.00  0.00     0.274 HD
ENDBRANCH  39  45
ENDBRANCH   3  35
BRANCH  12  49
HETATM   49  O1  UNL     1       1.578   1.669   2.279  1.00  0.00    -0.280 OA
ATOM     50  H1  UNL     1       1.637   0.744   2.071  1.00  0.00     0.245 HD
ENDBRANCH  12  49
BRANCH   7  51
HETATM   51  N6  UNL     1      -3.005   4.234   1.141  1.00  0.00    -0.383 N 
ATOM     52  H62 UNL     1      -3.814   3.783   0.714  1.00  0.00     0.157 HD
ATOM     53  H61 UNL     1      -3.065   5.227   1.365  1.00  0.00     0.157 HD
ENDBRANCH   7  51
TORSDOF 17
