REMARK  16 active torsions:
REMARK  status: ('A' for Active; 'I' for Inactive)
REMARK    1  A    between atoms: C2_2  and  O1_3 
REMARK    2  A    between atoms: C2_2  and  C18_48 
REMARK    3  A    between atoms: O1_3  and  C3_4 
REMARK    4  A    between atoms: C5_6  and  O2_7 
REMARK    5  A    between atoms: C7_10  and  N1_11 
REMARK    6  A    between atoms: C8_14  and  C9_15 
REMARK    7  A    between atoms: C9_15  and  O3_16 
REMARK    8  A    between atoms: C9_15  and  O4_18 
REMARK    9  A    between atoms: C11_21  and  C12_22 
REMARK   10  A    between atoms: C14_31  and  N6_32 
REMARK   11  A    between atoms: C16_40  and  N9_41 
REMARK   12  A    between atoms: C18_48  and  N14_49 
REMARK   13  A    between atoms: C18_48  and  C19_53 
REMARK   14  A    between atoms: C19_53  and  C20_55 
REMARK   15  A    between atoms: C20_55  and  N15_56 
REMARK   16  A    between atoms: C20_55  and  O6_60 
ROOT
HETATM    1  C3  UNL     1      -1.260  -0.051   0.057  1.00  0.00     0.154 A 
HETATM    2  C4  UNL     1      -0.833  -0.109   1.363  1.00  0.00     0.095 A 
HETATM    3  C5  UNL     1       0.495   0.335   1.426  1.00  0.00     0.101 A 
HETATM    4  C6  UNL     1       0.825   0.651   0.124  1.00  0.00     0.122 A 
HETATM    5  C7  UNL     1       2.010   1.132  -0.380  1.00  0.00     0.158 A 
HETATM    6  N8  UNL     1       2.062   1.355  -1.726  1.00  0.00    -0.345 N 
ATOM      7  H8  UNL     1       2.929   1.712  -2.129  1.00  0.00     0.167 HD
HETATM    8  C15 UNL     1       1.037   1.128  -2.530  1.00  0.00     0.140 A 
HETATM    9  C16 UNL     1      -0.174   0.638  -2.022  1.00  0.00     0.151 A 
HETATM   10  N13 UNL     1      -0.253   0.410  -0.701  1.00  0.00    -0.269 N 
ENDROOT
BRANCH   5  11
HETATM   11  N1  UNL     1       3.159   1.448   0.391  1.00  0.00    -0.234 N 
HETATM   12  N2  UNL     1       3.313   2.647   1.020  1.00  0.00    -0.291 N 
HETATM   13  C8  UNL     1       4.473   2.702   1.632  1.00  0.00     0.083 A 
ATOM     14  H2  UNL     1       2.623   3.398   1.016  1.00  0.00     0.187 HD
HETATM   15  C10 UNL     1       5.084   1.504   1.392  1.00  0.00     0.067 A 
HETATM   16  C11 UNL     1       4.240   0.699   0.595  1.00  0.00     0.105 A 
BRANCH  13  17
HETATM   17  C9  UNL     1       4.966   3.877   2.422  1.00  0.00     0.306 C 
BRANCH  17  18
HETATM   18  O3  UNL     1       6.289   4.110   2.028  1.00  0.00    -0.366 OA
ATOM     19  H3  UNL     1       6.601   4.855   2.529  1.00  0.00     0.213 HD
ENDBRANCH  17  18
BRANCH  17  20
HETATM   20  O4  UNL     1       5.022   3.448   3.755  1.00  0.00    -0.366 OA
ATOM     21  H4  UNL     1       5.334   4.193   4.256  1.00  0.00     0.213 HD
ENDBRANCH  17  20
ENDBRANCH  13  17
BRANCH  16  22
HETATM   22  C12 UNL     1       4.629  -0.631   0.151  1.00  0.00     0.165 A 
HETATM   23  N3  UNL     1       5.882  -1.030   0.426  1.00  0.00    -0.173 N 
HETATM   24  C13 UNL     1       6.390  -2.239   0.041  1.00  0.00     0.692 A 
ATOM     25  H3  UNL     1       6.486  -0.397   0.950  1.00  0.00     0.186 HD
HETATM   26  N4  UNL     1       7.541  -2.543   0.318  1.00  0.00    -0.234 N 
HETATM   27  N5  UNL     1       5.591  -3.077  -0.651  1.00  0.00    -0.023 N 
ATOM     28  H42 UNL     1       8.145  -1.909   0.841  1.00  0.00     0.174 HD
ATOM     29  H41 UNL     1       7.920  -3.445   0.031  1.00  0.00     0.174 HD
HETATM   30  C14 UNL     1       4.332  -2.725  -0.948  1.00  0.00     0.692 A 
ATOM     31  H5  UNL     1       5.947  -3.985  -0.950  1.00  0.00     0.203 HD
HETATM   32  N7  UNL     1       3.883  -1.489  -0.530  1.00  0.00    -0.173 N 
ATOM     33  H7  UNL     1       2.925  -1.221  -0.757  1.00  0.00     0.186 HD
BRANCH  30  34
HETATM   34  N6  UNL     1       3.624  -3.501  -1.588  1.00  0.00    -0.234 N 
ATOM     35  H62 UNL     1       3.956  -4.415  -1.897  1.00  0.00     0.174 HD
ATOM     36  H61 UNL     1       2.666  -3.233  -1.814  1.00  0.00     0.174 HD
ENDBRANCH  30  34
ENDBRANCH  16  22
ENDBRANCH   5  11
BRANCH   3  37
HETATM   37  O2  UNL     1       1.196   0.389   2.603  1.00  0.00    -0.358 OA
ATOM     38  H2  UNL     1       2.096   0.690   2.646  1.00  0.00     0.217 HD
ENDBRANCH   3  37
BRANCH   1  39
HETATM   39  O1  UNL     1      -2.515  -0.403  -0.434  1.00  0.00    -0.328 OA
BRANCH  39  40
HETATM   40  C2  UNL     1      -3.540  -0.905   0.392  1.00  0.00     0.164 C 
HETATM   41  C1  UNL     1      -4.087  -2.211  -0.088  1.00  0.00     0.042 C 
BRANCH  40  42
HETATM   42  C18 UNL     1      -4.660   0.108   0.441  1.00  0.00     0.285 C 
BRANCH  42  43
HETATM   43  N14 UNL     1      -5.232   0.374  -0.874  1.00  0.00    -0.066 N 
ATOM     44 3H14 UNL     1      -4.511   0.657  -1.537  1.00  0.00     0.275 HD
ATOM     45 2H14 UNL     1      -5.538  -0.490  -1.322  1.00  0.00     0.275 HD
ATOM     46 1H14 UNL     1      -5.988   1.058  -0.841  1.00  0.00     0.275 HD
ENDBRANCH  42  43
BRANCH  42  47
HETATM   47  C19 UNL     1      -5.757  -0.404   1.303  1.00  0.00     0.215 C 
HETATM   48  O5  UNL     1      -5.498  -0.739   2.467  1.00  0.00    -0.291 OA
BRANCH  47  49
HETATM   49  C20 UNL     1      -7.155  -0.534   0.836  1.00  0.00     0.389 C 
BRANCH  49  50
HETATM   50  N15 UNL     1      -7.719   0.698   0.355  1.00  0.00    -0.046 N 
ATOM     51 3H15 UNL     1      -7.642   1.430   1.061  1.00  0.00     0.277 HD
ATOM     52 2H15 UNL     1      -7.132   1.103  -0.374  1.00  0.00     0.277 HD
ATOM     53 1H15 UNL     1      -8.683   0.608   0.033  1.00  0.00     0.277 HD
ENDBRANCH  49  50
BRANCH  49  54
HETATM   54  O6  UNL     1      -7.979  -1.026   1.875  1.00  0.00    -0.364 OA
ATOM     55  H6  UNL     1      -8.877  -1.109   1.575  1.00  0.00     0.212 HD
ENDBRANCH  49  54
ENDBRANCH  47  49
ENDBRANCH  42  47
ENDBRANCH  40  42
ENDBRANCH  39  40
ENDBRANCH   1  39
BRANCH   9  56
HETATM   56  N9  UNL     1      -1.262   0.381  -2.867  1.00  0.00    -0.218 N 
HETATM   57  C17 UNL     1      -2.113   1.205  -3.496  1.00  0.00     0.220 A 
HETATM   58  N10 UNL     1      -3.003   0.525  -4.233  1.00  0.00    -0.280 N 
HETATM   59  N11 UNL     1      -2.691  -0.757  -4.053  1.00  0.00    -0.007 NA
ATOM     60  H10 UNL     1      -3.755   0.907  -4.807  1.00  0.00     0.184 HD
HETATM   61  N12 UNL     1      -1.651  -0.839  -3.238  1.00  0.00     0.001 NA
ENDBRANCH   9  56
TORSDOF 16
