REMARK  1 active torsions:
REMARK  status: ('A' for Active; 'I' for Inactive)
REMARK    1  A    between atoms: N2_3  and  C2_5 
ROOT
HETATM    1  N1  UNL     1       3.832  -0.145   0.485  1.00  0.00    -0.172 NA
HETATM    2  C1  UNL     1       2.767  -0.311   0.040  1.00  0.00     0.179 C 
HETATM    3  N2  UNL     1       1.492  -0.491  -0.507  1.00  0.00    -0.291 N 
ATOM      4  H2  UNL     1       1.383  -0.921  -1.426  1.00  0.00     0.174 HD
ENDROOT
BRANCH   3   5
HETATM    5  C2  UNL     1       0.357  -0.073   0.223  1.00  0.00     0.368 C 
HETATM    6  N3  UNL     1      -0.876  -0.355  -0.533  1.00  0.00    -0.035 N 
HETATM    7  C3  UNL     1      -1.977  -0.078   0.403  1.00  0.00     0.321 C 
ATOM      8  H32 UNL     1      -0.945   0.157  -1.413  1.00  0.00     0.281 HD
ATOM      9  H31 UNL     1      -0.906  -1.291  -0.937  1.00  0.00     0.281 HD
HETATM   10  S1  UNL     1      -1.888   1.758   0.584  1.00  0.00    -0.066 SA
HETATM   11  S2  UNL     1       0.274   1.764   0.390  1.00  0.00    -0.041 SA
ENDBRANCH   3   5
TORSDOF 1
