REMARK  10 active torsions:
REMARK  status: ('A' for Active; 'I' for Inactive)
REMARK    1  A    between atoms: N1_2  and  S1_4 
REMARK    2  A    between atoms: S1_4  and  N2_7 
REMARK    3  A    between atoms: N2_7  and  C3_9 
REMARK    4  A    between atoms: C3_9  and  C4_10 
REMARK    5  A    between atoms: C7_13  and  C8_14 
REMARK    6  A    between atoms: C8_14  and  N3_15 
REMARK    7  A    between atoms: N3_15  and  S2_17 
REMARK    8  A    between atoms: S2_17  and  N4_20 
REMARK    9  A    between atoms: N4_20  and  C9_22 
REMARK   10  A    between atoms: C9_22  and  C10_23 
ROOT
HETATM    1  C8  UNL     1       1.176  -0.161  -1.673  1.00  0.00     0.172 C 
ENDROOT
BRANCH   1   2
HETATM    2  C7  UNL     1      -0.062   0.148  -0.921  1.00  0.00    -0.040 A 
HETATM    3  C6  UNL     1      -1.210   0.421  -1.614  1.00  0.00     0.009 A 
HETATM    4  C5  UNL     1      -2.390   0.716  -0.933  1.00  0.00     0.009 A 
HETATM    5  C4  UNL     1      -2.452   0.746   0.444  1.00  0.00    -0.040 A 
HETATM    6  C17 UNL     1      -1.275   0.466   1.130  1.00  0.00     0.009 A 
HETATM    7  C16 UNL     1      -0.102   0.173   0.462  1.00  0.00     0.009 A 
BRANCH   5   8
HETATM    8  C3  UNL     1      -3.706   1.060   1.142  1.00  0.00     0.171 C 
BRANCH   8   9
HETATM    9  N2  UNL     1      -4.477  -0.137   1.379  1.00  0.00    -0.302 N 
ATOM     10  H2  UNL     1      -4.204  -1.081   1.106  1.00  0.00     0.173 HD
BRANCH   9  11
HETATM   11  S1  UNL     1      -5.942   0.289   2.202  1.00  0.00     0.298 S 
HETATM   12  O1  UNL     1      -5.724   1.403   3.182  1.00  0.00    -0.188 OA
HETATM   13  O2  UNL     1      -6.333  -0.937   3.014  1.00  0.00    -0.188 OA
BRANCH  11  14
HETATM   14  N1  UNL     1      -7.195   0.647   1.094  1.00  0.00    -0.202 NA
HETATM   15  C1  UNL     1      -7.911  -0.575   0.804  1.00  0.00     0.130 C 
HETATM   16  C2  UNL     1      -8.067   1.665   1.628  1.00  0.00     0.130 C 
ENDBRANCH  11  14
ENDBRANCH   9  11
ENDBRANCH   8   9
ENDBRANCH   5   8
ENDBRANCH   1   2
BRANCH   1  17
HETATM   17  N3  UNL     1       1.943   0.989  -2.004  1.00  0.00    -0.299 N 
ATOM     18  H3  UNL     1       1.648   1.928  -1.736  1.00  0.00     0.174 HD
BRANCH  17  19
HETATM   19  S2  UNL     1       3.377   0.714  -2.869  1.00  0.00     0.315 S 
HETATM   20  O3  UNL     1       3.647   1.780  -3.895  1.00  0.00    -0.183 OA
HETATM   21  O4  UNL     1       3.308  -0.592  -3.646  1.00  0.00    -0.183 OA
BRANCH  19  22
HETATM   22  N4  UNL     1       4.698   0.578  -1.774  1.00  0.00    -0.299 N 
ATOM     23  H4  UNL     1       5.223   1.369  -1.401  1.00  0.00     0.174 HD
BRANCH  22  24
HETATM   24  C9  UNL     1       4.963  -0.803  -1.455  1.00  0.00     0.172 C 
BRANCH  24  25
HETATM   25  C10 UNL     1       6.107  -0.893  -0.511  1.00  0.00    -0.040 A 
HETATM   26  C11 UNL     1       5.900  -0.940   0.849  1.00  0.00     0.010 A 
HETATM   27  C12 UNL     1       6.974  -1.021   1.706  1.00  0.00     0.019 A 
HETATM   28  C13 UNL     1       8.266  -1.058   1.245  1.00  0.00     0.011 A 
HETATM   29 BR1  UNL     1       9.720  -1.172   2.473  1.00  0.00    -0.051 Br
HETATM   30  C14 UNL     1       8.446  -1.010  -0.123  1.00  0.00     0.019 A 
HETATM   31  C15 UNL     1       7.377  -0.929  -0.994  1.00  0.00     0.010 A 
ENDBRANCH  24  25
ENDBRANCH  22  24
ENDBRANCH  19  22
ENDBRANCH  17  19
ENDBRANCH   1  17
TORSDOF 10
