REMARK  11 active torsions:
REMARK  status: ('A' for Active; 'I' for Inactive)
REMARK    1  A    between atoms: O1_2  and  C2_3 
REMARK    2  A    between atoms: C5_6  and  C6_7 
REMARK    3  A    between atoms: C6_7  and  C7_8 
REMARK    4  A    between atoms: C7_8  and  C8_9 
REMARK    5  A    between atoms: C8_9  and  O3_11 
REMARK    6  A    between atoms: O3_11  and  C9_12 
REMARK    7  A    between atoms: C10_13  and  O4_14 
REMARK    8  A    between atoms: C11_16  and  O5_17 
REMARK    9  A    between atoms: C12_19  and  O6_20 
REMARK   10  A    between atoms: C13_22  and  O7_23 
REMARK   11  A    between atoms: C14_25  and  O8_26 
ROOT
HETATM    1  C9  UNL     1      -2.125  -0.108  -0.460  1.00  0.00     0.194 C 
HETATM    2  C10 UNL     1      -2.830  -0.415   0.849  1.00  0.00     0.181 C 
HETATM    3  C11 UNL     1      -4.299  -0.460   0.712  1.00  0.00     0.180 C 
HETATM    4  C12 UNL     1      -4.904   0.583  -0.173  1.00  0.00     0.180 C 
HETATM    5  C13 UNL     1      -4.132   0.828  -1.438  1.00  0.00     0.180 C 
HETATM    6  C14 UNL     1      -2.672   1.138  -1.110  1.00  0.00     0.181 C 
ENDROOT
BRANCH   1   7
HETATM    7  O3  UNL     1      -0.748  -0.142  -0.350  1.00  0.00    -0.307 OA
BRANCH   7   8
HETATM    8  C8  UNL     1       0.093  -1.051  -0.971  1.00  0.00     0.283 C 
HETATM    9  O2  UNL     1      -0.469  -1.909  -1.693  1.00  0.00    -0.260 OA
BRANCH   8  10
HETATM   10  C7  UNL     1       1.522  -1.060  -0.837  1.00  0.00     0.083 C 
BRANCH  10  11
HETATM   11  C6  UNL     1       2.149  -0.178  -0.090  1.00  0.00     0.025 C 
BRANCH  11  12
HETATM   12  C5  UNL     1       3.626  -0.228   0.018  1.00  0.00     0.007 A 
HETATM   13  C4  UNL     1       4.434   0.598   0.739  1.00  0.00     0.022 A 
HETATM   14  C3  UNL     1       5.755   0.372   0.695  1.00  0.00     0.046 A 
HETATM   15  C2  UNL     1       6.183  -0.678  -0.077  1.00  0.00     0.109 A 
HETATM   16  S1  UNL     1       4.731  -1.307  -0.710  1.00  0.00    -0.066 SA
BRANCH  15  17
HETATM   17  O1  UNL     1       7.510  -1.114  -0.284  1.00  0.00    -0.349 OA
HETATM   18  C1  UNL     1       8.559  -0.443   0.341  1.00  0.00     0.211 C 
ENDBRANCH  15  17
ENDBRANCH  11  12
ENDBRANCH  10  11
ENDBRANCH   8  10
ENDBRANCH   7   8
ENDBRANCH   1   7
BRANCH   2  19
HETATM   19  O4  UNL     1      -2.396  -1.715   1.207  1.00  0.00    -0.390 OA
ATOM     20  H4  UNL     1      -2.837  -1.907   2.026  1.00  0.00     0.210 HD
ENDBRANCH   2  19
BRANCH   6  21
HETATM   21  O8  UNL     1      -2.648   2.240  -0.275  1.00  0.00    -0.390 OA
ATOM     22  H8  UNL     1      -2.993   3.025  -0.684  1.00  0.00     0.210 HD
ENDBRANCH   6  21
BRANCH   3  23
HETATM   23  O5  UNL     1      -4.883  -0.340   1.976  1.00  0.00    -0.390 OA
ATOM     24  H5  UNL     1      -5.828  -0.369   1.888  1.00  0.00     0.210 HD
ENDBRANCH   3  23
BRANCH   5  25
HETATM   25  O7  UNL     1      -4.737   1.929  -2.076  1.00  0.00    -0.390 OA
ATOM     26  H7  UNL     1      -4.249   2.084  -2.876  1.00  0.00     0.210 HD
ENDBRANCH   5  25
BRANCH   4  27
HETATM   27  O6  UNL     1      -6.186   0.153  -0.529  1.00  0.00    -0.390 OA
ATOM     28  H6  UNL     1      -6.570   0.815  -1.091  1.00  0.00     0.210 HD
ENDBRANCH   4  27
TORSDOF 11
