REMARK  8 active torsions:
REMARK  status: ('A' for Active; 'I' for Inactive)
REMARK    1  A    between atoms: C7_8  and  S1_9 
REMARK    2  A    between atoms: S1_9  and  C8_10 
REMARK    3  A    between atoms: C9_11  and  O2_12 
REMARK    4  A    between atoms: C10_14  and  O3_15 
REMARK    5  A    between atoms: C11_17  and  O4_18 
REMARK    6  A    between atoms: C12_20  and  O5_21 
REMARK    7  A    between atoms: C12_20  and  C13_23 
REMARK    8  A    between atoms: C15_27  and  O7_28 
ROOT
HETATM    1  C1  UNL     1       4.033  -2.424  -0.517  1.00  0.00     0.210 C 
HETATM    2  O1  UNL     1       3.790  -1.163  -0.463  1.00  0.00    -0.355 OA
HETATM    3  C2  UNL     1       3.559   0.110  -0.414  1.00  0.00     0.085 A 
HETATM    4  C3  UNL     1       4.483   1.067  -0.863  1.00  0.00     0.038 A 
HETATM    5  C4  UNL     1       4.202   2.390  -0.796  1.00  0.00     0.003 A 
HETATM    6  C5  UNL     1       2.982   2.826  -0.277  1.00  0.00     0.002 A 
HETATM    7  C6  UNL     1       2.069   1.898   0.166  1.00  0.00     0.021 A 
HETATM    8  C7  UNL     1       2.329   0.569   0.108  1.00  0.00     0.034 A 
ENDROOT
BRANCH   8   9
HETATM    9  S1  UNL     1       1.141  -0.652   0.610  1.00  0.00    -0.117 SA
BRANCH   9  10
HETATM   10  C8  UNL     1      -0.540   0.032   0.801  1.00  0.00     0.116 C 
HETATM   11  C9  UNL     1      -1.232  -0.836   1.799  1.00  0.00     0.166 C 
HETATM   12  C10 UNL     1      -2.225  -1.743   1.126  1.00  0.00     0.180 C 
HETATM   13  C11 UNL     1      -3.266  -0.867   0.476  1.00  0.00     0.195 C 
HETATM   14  C12 UNL     1      -2.647  -0.037  -0.603  1.00  0.00     0.187 C 
HETATM   15  C15 UNL     1      -1.174   0.070  -0.546  1.00  0.00     0.180 C 
BRANCH  11  16
HETATM   16  O2  UNL     1      -1.824  -0.109   2.847  1.00  0.00    -0.392 OA
ATOM     17  H2  UNL     1      -2.264  -0.661   3.482  1.00  0.00     0.210 HD
ENDBRANCH  11  16
BRANCH  12  18
HETATM   18  O3  UNL     1      -1.540  -2.560   0.260  1.00  0.00    -0.390 OA
ATOM     19  H3  UNL     1      -2.167  -3.133  -0.165  1.00  0.00     0.210 HD
ENDBRANCH  12  18
BRANCH  13  20
HETATM   20  O4  UNL     1      -4.284  -1.698   0.010  1.00  0.00    -0.389 OA
ATOM     21  H4  UNL     1      -4.940  -1.146  -0.400  1.00  0.00     0.210 HD
ENDBRANCH  13  20
BRANCH  14  22
HETATM   22  O5  UNL     1      -2.966  -0.690  -1.822  1.00  0.00    -0.376 OA
ATOM     23  H5  UNL     1      -2.573  -0.163  -2.507  1.00  0.00     0.211 HD
ENDBRANCH  14  22
BRANCH  14  24
HETATM   24  C13 UNL     1      -3.352   1.287  -0.692  1.00  0.00     0.267 C 
HETATM   25  O6  UNL     1      -4.052   1.626  -1.682  1.00  0.00    -0.278 OA
HETATM   26  C14 UNL     1      -3.267   2.263   0.381  1.00  0.00     0.141 C 
HETATM   27  N1  UNL     1      -3.217   3.046   1.225  1.00  0.00    -0.188 NA
ENDBRANCH  14  24
BRANCH  15  28
HETATM   28  O7  UNL     1      -0.777   1.207  -1.231  1.00  0.00    -0.391 OA
ATOM     29  H7  UNL     1      -1.181   1.231  -2.090  1.00  0.00     0.210 HD
ENDBRANCH  15  28
ENDBRANCH   9  10
ENDBRANCH   8   9
TORSDOF 8
