REMARK  2 active torsions:
REMARK  status: ('A' for Active; 'I' for Inactive)
REMARK       I    between atoms: C1_4  and  N3_6 
REMARK    1  A    between atoms: N3_6  and  N4_8 
REMARK       I    between atoms: N4_8  and  C2_10 
REMARK    2  A    between atoms: C2_10  and  C3_12 
ROOT
HETATM    1  N4  UNL     1      -0.075  -1.010  -0.147  1.00  0.00    -0.261 N 
ATOM      2  H4  UNL     1       0.471  -1.663   0.415  1.00  0.00     0.190 HD
HETATM    3  C2  UNL     1       0.550   0.131  -0.666  1.00  0.00     0.306 C 
HETATM    4  O1  UNL     1      -0.123   0.958  -1.379  1.00  0.00    -0.262 OA
ENDROOT
BRANCH   3   5
HETATM    5  C3  UNL     1       1.955   0.453  -0.450  1.00  0.00     0.208 A 
HETATM    6  N5  UNL     1       2.834  -0.197   0.348  1.00  0.00    -0.264 N 
HETATM    7  N6  UNL     1       4.018   0.401   0.253  1.00  0.00    -0.226 N 
ATOM      8  H5  UNL     1       2.623  -1.010   0.926  1.00  0.00     0.190 HD
HETATM    9  N7  UNL     1       3.915   1.412  -0.582  1.00  0.00    -0.226 N 
ATOM     10  H6  UNL     1       4.866   0.122   0.746  1.00  0.00     0.210 HD
HETATM   11  N8  UNL     1       2.667   1.453  -1.014  1.00  0.00    -0.264 N 
ATOM     12  H7  UNL     1       4.665   2.050  -0.848  1.00  0.00     0.210 HD
ATOM     13  H8  UNL     1       2.297   2.137  -1.674  1.00  0.00     0.190 HD
ENDBRANCH   3   5
BRANCH   1  14
HETATM   14  N3  UNL     1      -1.413  -1.276  -0.376  1.00  0.00    -0.271 N 
HETATM   15  C1  UNL     1      -2.480  -0.541   0.195  1.00  0.00     0.200 C 
HETATM   16  N1  UNL     1      -2.899  -0.797   1.390  1.00  0.00    -0.372 N 
HETATM   17  N2  UNL     1      -3.147   0.503  -0.506  1.00  0.00    -0.062 NA
ATOM     18  H12 UNL     1      -3.668  -0.268   1.801  1.00  0.00     0.158 HD
ATOM     19  H11 UNL     1      -2.421  -1.545   1.892  1.00  0.00     0.158 HD
ATOM     20  H3  UNL     1      -1.646  -2.052  -0.996  1.00  0.00     0.189 HD
ENDBRANCH   1  14
TORSDOF 2
