REMARK  13 active torsions:
REMARK  status: ('A' for Active; 'I' for Inactive)
REMARK    1  A    between atoms: C1_4  and  C2_6 
REMARK    2  A    between atoms: C5_9  and  C6_10 
REMARK    3  A    between atoms: C6_10  and  C7_11 
REMARK    4  A    between atoms: C8_14  and  C9_15 
REMARK    5  A    between atoms: C9_15  and  C10_16 
REMARK    6  A    between atoms: C10_16  and  C11_17 
REMARK    7  A    between atoms: C11_17  and  C12_18 
REMARK    8  A    between atoms: C12_18  and  N4_19 
REMARK       I    between atoms: N4_19  and  C13_21 
REMARK    9  A    between atoms: C13_21  and  C14_23 
REMARK   10  A    between atoms: C14_23  and  S1_24 
REMARK   11  A    between atoms: S1_24  and  C15_25 
REMARK   12  A    between atoms: C17_31  and  N7_32 
REMARK   13  A    between atoms: C22_45  and  N10_46 
ROOT
HETATM    1  C11 UNL     1      -0.770   0.671  -1.480  1.00  0.00     0.020 C 
ENDROOT
BRANCH   1   2
HETATM    2  C10 UNL     1       0.306   1.148  -0.500  1.00  0.00     0.007 C 
BRANCH   2   3
HETATM    3  C9  UNL     1       1.647   1.005  -1.186  1.00  0.00     0.057 C 
BRANCH   3   4
HETATM    4  C8  UNL     1       2.688   1.474  -0.207  1.00  0.00     0.014 A 
HETATM    5  N3  UNL     1       3.249   0.570   0.635  1.00  0.00    -0.349 N 
HETATM    6  C7  UNL     1       4.170   0.905   1.538  1.00  0.00     0.087 A 
ATOM      7  H3  UNL     1       2.954  -0.405   0.574  1.00  0.00     0.167 HD
HETATM    8  N11 UNL     1       4.553   2.197   1.609  1.00  0.00    -0.332 N 
HETATM    9  C22 UNL     1       4.028   3.133   0.796  1.00  0.00     0.101 A 
ATOM     10  H11 UNL     1       5.257   2.471   2.295  1.00  0.00     0.168 HD
HETATM   11  C21 UNL     1       3.075   2.795  -0.140  1.00  0.00     0.073 A 
BRANCH   6  12
HETATM   12  C6  UNL     1       4.787  -0.093   2.453  1.00  0.00     0.115 C 
BRANCH  12  13
HETATM   13  C5  UNL     1       6.074  -0.597   1.933  1.00  0.00    -0.051 A 
HETATM   14  C4  UNL     1       6.174  -1.696   1.114  1.00  0.00     0.008 A 
HETATM   15  C3  UNL     1       7.372  -2.160   0.631  1.00  0.00     0.015 A 
HETATM   16  C2  UNL     1       8.545  -1.528   0.955  1.00  0.00     0.004 A 
HETATM   17  C24 UNL     1       8.479  -0.405   1.788  1.00  0.00     0.015 A 
HETATM   18  C23 UNL     1       7.258   0.032   2.253  1.00  0.00     0.008 A 
BRANCH  16  19
HETATM   19  C1  UNL     1       9.845  -1.984   0.463  1.00  0.00     0.120 C 
HETATM   20  N1  UNL     1      10.900  -1.357   0.802  1.00  0.00    -0.387 N 
ATOM     21  H12 UNL     1      11.806  -1.675   0.459  1.00  0.00     0.157 HD
ATOM     22  H11 UNL     1      10.849  -0.543   1.414  1.00  0.00     0.157 HD
HETATM   23  N2  UNL     1       9.915  -3.105  -0.380  1.00  0.00    -0.082 NA
ENDBRANCH  16  19
ENDBRANCH  12  13
ENDBRANCH   6  12
BRANCH   9  24
HETATM   24  N10 UNL     1       4.409   4.377   0.877  1.00  0.00    -0.385 N 
ATOM     25 2H10 UNL     1       4.011   5.086   0.261  1.00  0.00     0.157 HD
ATOM     26 1H10 UNL     1       5.114   4.627   1.570  1.00  0.00     0.157 HD
ENDBRANCH   9  24
ENDBRANCH   3   4
ENDBRANCH   2   3
ENDBRANCH   1   2
BRANCH   1  27
HETATM   27  C12 UNL     1      -2.087   0.832  -0.785  1.00  0.00     0.122 C 
BRANCH  27  28
HETATM   28  N4  UNL     1      -3.165   0.405  -1.635  1.00  0.00    -0.360 N 
HETATM   29  C13 UNL     1      -3.349  -0.894  -2.143  1.00  0.00     0.227 C 
HETATM   30  O1  UNL     1      -2.474  -1.778  -1.824  1.00  0.00    -0.273 OA
ATOM     31  H4  UNL     1      -3.859   1.107  -1.893  1.00  0.00     0.162 HD
BRANCH  29  32
HETATM   32  C14 UNL     1      -4.442  -1.335  -3.004  1.00  0.00     0.185 C 
BRANCH  32  33
HETATM   33  S1  UNL     1      -5.802  -0.222  -3.249  1.00  0.00    -0.084 SA
BRANCH  33  34
HETATM   34  C15 UNL     1      -6.855   0.031  -1.863  1.00  0.00     0.149 A 
HETATM   35  N5  UNL     1      -7.842  -0.858  -1.649  1.00  0.00    -0.321 N 
HETATM   36  C16 UNL     1      -8.690  -0.760  -0.610  1.00  0.00     0.144 A 
ATOM     37  H5  UNL     1      -7.951  -1.636  -2.300  1.00  0.00     0.169 HD
HETATM   38  N6  UNL     1      -9.689  -1.652  -0.383  1.00  0.00    -0.176 N 
HETATM   39  C19 UNL     1      -8.557   0.283   0.278  1.00  0.00     0.145 A 
HETATM   40  C17 UNL     1     -10.535  -1.544   0.664  1.00  0.00     0.680 A 
ATOM     41  H6  UNL     1      -9.805  -2.433  -1.028  1.00  0.00     0.186 HD
HETATM   42  N8  UNL     1     -10.427  -0.533   1.546  1.00  0.00    -0.155 N 
HETATM   43  C18 UNL     1      -9.445   0.355   1.336  1.00  0.00     0.279 A 
ATOM     44  H8  UNL     1     -11.064  -0.446   2.338  1.00  0.00     0.187 HD
HETATM   45  O2  UNL     1      -9.307   1.316   2.136  1.00  0.00    -0.266 OA
HETATM   46  C20 UNL     1      -7.563   1.184   0.067  1.00  0.00     0.267 A 
HETATM   47  O3  UNL     1      -7.400   2.143   0.836  1.00  0.00    -0.267 OA
HETATM   48  N9  UNL     1      -6.726   1.039  -1.007  1.00  0.00    -0.303 N 
ATOM     49  H9  UNL     1      -5.984   1.723  -1.154  1.00  0.00     0.171 HD
BRANCH  40  50
HETATM   50  N7  UNL     1     -11.459  -2.450   0.793  1.00  0.00    -0.234 N 
ATOM     51  H72 UNL     1     -11.541  -3.216   0.125  1.00  0.00     0.174 HD
ATOM     52  H71 UNL     1     -12.098  -2.368   1.584  1.00  0.00     0.174 HD
ENDBRANCH  40  50
ENDBRANCH  33  34
ENDBRANCH  32  33
ENDBRANCH  29  32
ENDBRANCH  27  28
ENDBRANCH   1  27
TORSDOF 13
