REMARK  18 active torsions:
REMARK  status: ('A' for Active; 'I' for Inactive)
REMARK    1  A    between atoms: C2_2  and  C3_3 
REMARK    2  A    between atoms: C3_3  and  C4_4 
REMARK    3  A    between atoms: C4_4  and  C5_5 
REMARK    4  A    between atoms: C5_5  and  C6_6 
REMARK    5  A    between atoms: C6_6  and  C7_7 
REMARK    6  A    between atoms: C10_13  and  N2_14 
REMARK    7  A    between atoms: C13_19  and  N4_20 
REMARK    8  A    between atoms: C14_25  and  C15_26 
REMARK    9  A    between atoms: C15_26  and  N6_27 
REMARK   10  A    between atoms: C15_26  and  N7_31 
REMARK   11  A    between atoms: N7_31  and  C16_33 
REMARK   12  A    between atoms: C16_33  and  C17_34 
REMARK   13  A    between atoms: C17_34  and  C18_35 
REMARK   14  A    between atoms: C21_38  and  O2_39 
REMARK   15  A    between atoms: C23_41  and  N8_42 
REMARK   16  A    between atoms: N8_42  and  N9_43 
REMARK   17  A    between atoms: N8_42  and  N10_46 
REMARK   18  A    between atoms: C25_50  and  O3_51 
ROOT
HETATM    1  N2  UNL     1       1.964  -2.660  -0.066  1.00  0.00    -0.311 N 
HETATM    2  C11 UNL     1       1.984  -3.820   0.626  1.00  0.00     0.189 A 
HETATM    3  N3  UNL     1       0.866  -3.945   1.347  1.00  0.00    -0.347 N 
ATOM      4  H3  UNL     1       0.637  -4.731   1.956  1.00  0.00     0.167 HD
HETATM    5  C12 UNL     1       0.087  -2.856   1.136  1.00  0.00     0.107 A 
HETATM    6  C13 UNL     1      -1.136  -2.465   1.629  1.00  0.00     0.129 A 
HETATM    7  N5  UNL     1      -1.681  -1.300   1.260  1.00  0.00    -0.339 N 
ATOM      8  H5  UNL     1      -2.589  -1.033   1.641  1.00  0.00     0.167 HD
HETATM    9  C14 UNL     1      -1.069  -0.482   0.409  1.00  0.00     0.097 A 
HETATM   10  C25 UNL     1       0.188  -0.872  -0.108  1.00  0.00     0.122 A 
HETATM   11  C26 UNL     1       0.798  -2.059   0.239  1.00  0.00     0.106 A 
ENDROOT
BRANCH   9  12
HETATM   12  C15 UNL     1      -1.644   0.821   0.069  1.00  0.00     0.334 C 
BRANCH  12  13
HETATM   13  N6  UNL     1      -0.589   1.859   0.151  1.00  0.00    -0.053 N 
ATOM     14  H63 UNL     1      -0.124   1.867   1.059  1.00  0.00     0.277 HD
ATOM     15  H62 UNL     1       0.222   1.632  -0.425  1.00  0.00     0.277 HD
ATOM     16  H61 UNL     1      -0.990   2.767  -0.086  1.00  0.00     0.277 HD
ENDBRANCH  12  13
BRANCH  12  17
HETATM   17  N7  UNL     1      -2.379   1.045  -1.087  1.00  0.00    -0.371 N 
ATOM     18  H7  UNL     1      -1.882   1.279  -1.946  1.00  0.00     0.161 HD
BRANCH  17  19
HETATM   19  C16 UNL     1      -3.773   0.963  -1.119  1.00  0.00     0.062 C 
BRANCH  19  20
HETATM   20  C17 UNL     1      -4.387  -0.396  -1.068  1.00  0.00     0.082 C 
BRANCH  20  21
HETATM   21  C18 UNL     1      -5.883  -0.186  -1.010  1.00  0.00    -0.051 A 
HETATM   22  C19 UNL     1      -6.632   0.084  -2.112  1.00  0.00     0.010 A 
HETATM   23  C20 UNL     1      -8.012   0.267  -1.967  1.00  0.00     0.040 A 
HETATM   24  C21 UNL     1      -8.623   0.178  -0.735  1.00  0.00     0.098 A 
HETATM   25  C23 UNL     1      -7.874  -0.097   0.382  1.00  0.00     0.107 A 
HETATM   26  C24 UNL     1      -6.492  -0.276   0.221  1.00  0.00     0.043 A 
BRANCH  24  27
HETATM   27  O2  UNL     1      -9.986   0.374  -0.658  1.00  0.00    -0.354 OA
HETATM   28  C22 UNL     1     -10.752   0.667  -1.818  1.00  0.00     0.210 C 
ENDBRANCH  24  27
BRANCH  25  29
HETATM   29  N8  UNL     1      -8.474  -0.232   1.652  1.00  0.00    -0.207 N 
BRANCH  29  30
HETATM   30  N9  UNL     1      -7.875   0.471   2.723  1.00  0.00    -0.324 N 
ATOM     31  H92 UNL     1      -7.061   1.040   2.490  1.00  0.00     0.178 HD
ATOM     32  H91 UNL     1      -8.309   0.373   3.641  1.00  0.00     0.178 HD
ENDBRANCH  29  30
BRANCH  29  33
HETATM   33  N10 UNL     1      -9.580  -1.005   1.969  1.00  0.00    -0.324 N 
ATOM     34 2H10 UNL     1     -10.012  -1.512   1.197  1.00  0.00     0.178 HD
ATOM     35 1H10 UNL     1     -10.014  -1.103   2.887  1.00  0.00     0.178 HD
ENDBRANCH  29  33
ENDBRANCH  25  29
ENDBRANCH  20  21
ENDBRANCH  19  20
ENDBRANCH  17  19
ENDBRANCH  12  17
ENDBRANCH   9  12
BRANCH  10  36
HETATM   36  O3  UNL     1       0.793  -0.018  -0.987  1.00  0.00    -0.356 OA
ATOM     37  H3  UNL     1       1.638  -0.280  -1.334  1.00  0.00     0.218 HD
ENDBRANCH  10  36
BRANCH   6  38
HETATM   38  N4  UNL     1      -1.750  -3.229   2.453  1.00  0.00    -0.384 N 
ATOM     39  H42 UNL     1      -1.335  -4.117   2.734  1.00  0.00     0.157 HD
ATOM     40  H41 UNL     1      -2.657  -2.939   2.819  1.00  0.00     0.157 HD
ENDBRANCH   6  38
BRANCH   1  41
HETATM   41  C10 UNL     1       3.001  -2.154  -0.915  1.00  0.00     0.133 C 
HETATM   42  C9  UNL     1       4.037  -1.500  -0.398  1.00  0.00     0.118 A 
HETATM   43  C8  UNL     1       4.263  -1.228   0.922  1.00  0.00     0.275 A 
HETATM   44  N11 UNL     1       5.058  -0.957  -1.065  1.00  0.00    -0.337 N 
HETATM   45  N1  UNL     1       5.422  -0.518   1.058  1.00  0.00    -0.308 N 
HETATM   46  O1  UNL     1       3.567  -1.543   1.914  1.00  0.00    -0.266 OA
HETATM   47  C7  UNL     1       5.908  -0.354  -0.181  1.00  0.00     0.104 A 
ATOM     48  H1  UNL     1       5.835  -0.180   1.927  1.00  0.00     0.170 HD
ATOM     49  H11 UNL     1       5.184  -0.987  -2.077  1.00  0.00     0.167 HD
BRANCH  47  50
HETATM   50  C6  UNL     1       7.014   0.296  -0.473  1.00  0.00     0.022 C 
BRANCH  50  51
HETATM   51  C5  UNL     1       7.834   0.916   0.562  1.00  0.00     0.031 C 
BRANCH  51  52
HETATM   52  C4  UNL     1       8.224   2.351   0.286  1.00  0.00     0.004 C 
BRANCH  52  53
HETATM   53  C3  UNL     1       9.019   2.550  -0.959  1.00  0.00    -0.000 C 
BRANCH  53  54
HETATM   54  C2  UNL     1      10.325   1.788  -0.969  1.00  0.00    -0.005 C 
HETATM   55  C1  UNL     1      11.249   2.159   0.142  1.00  0.00     0.005 C 
ENDBRANCH  53  54
ENDBRANCH  52  53
ENDBRANCH  51  52
ENDBRANCH  50  51
ENDBRANCH  47  50
ENDBRANCH   1  41
TORSDOF 18
