REMARK  1 active torsions:
REMARK  status: ('A' for Active; 'I' for Inactive)
REMARK    1  A    between atoms: N1_3  and  C4_5 
ROOT
HETATM    1  C1  UNL     1      -2.316   1.510  -1.378  1.00  0.00     0.031 C 
HETATM    2  C2  UNL     1      -1.738   0.545  -0.939  1.00  0.00    -0.024 C 
HETATM    3  N1  UNL     1      -1.053  -0.581  -0.428  1.00  0.00    -0.213 NA
HETATM    4  C3  UNL     1      -1.699  -0.972   0.811  1.00  0.00     0.133 C 
ENDROOT
BRANCH   3   5
HETATM    5  C4  UNL     1       0.305  -0.281  -0.215  1.00  0.00     0.038 A 
HETATM    6  C5  UNL     1       0.962  -0.339   0.987  1.00  0.00     0.043 A 
HETATM    7  C6  UNL     1       2.301   0.031   0.798  1.00  0.00     0.089 A 
HETATM    8  N2  UNL     1       2.429   0.307  -0.522  1.00  0.00    -0.373 N 
HETATM    9  C7  UNL     1       1.226   0.122  -1.146  1.00  0.00     0.112 A 
ATOM     10  H2  UNL     1       3.290   0.607  -0.980  1.00  0.00     0.164 HD
ENDBRANCH   3   5
TORSDOF 1
