REMARK  3 active torsions:
REMARK  status: ('A' for Active; 'I' for Inactive)
REMARK    1  A    between atoms: C2_2  and  N1_3 
REMARK    2  A    between atoms: N1_3  and  C5_6 
REMARK    3  A    between atoms: C6_7  and  C8_9 
ROOT
HETATM    1  C5  UNL     1      -0.499  -0.162  -0.668  1.00  0.00     0.215 C 
HETATM    2  C6  UNL     1      -1.685  -0.062  -0.181  1.00  0.00     0.038 C 
HETATM    3  C7  UNL     1      -2.811   0.213  -1.170  1.00  0.00     0.057 C 
ENDROOT
BRANCH   1   4
HETATM    4  N1  UNL     1       0.758  -0.403  -0.098  1.00  0.00    -0.054 N 
HETATM    5  C3  UNL     1       1.724  -0.487  -1.221  1.00  0.00     0.277 C 
HETATM    6  C4  UNL     1       0.893  -1.622   0.635  1.00  0.00     0.277 C 
BRANCH   4   7
HETATM    7  C2  UNL     1       1.121   0.704   0.759  1.00  0.00     0.237 C 
HETATM    8  C1  UNL     1       2.355   1.446   0.300  1.00  0.00     0.035 C 
ENDBRANCH   4   7
ENDBRANCH   1   4
BRANCH   2   9
HETATM    9  C8  UNL     1      -2.066  -0.176   1.173  1.00  0.00     0.206 C 
HETATM   10  O1  UNL     1      -1.367  -0.393   2.184  1.00  0.00    -0.644 OA
HETATM   11  O2  UNL     1      -3.452  -0.029   1.493  1.00  0.00    -0.644 OA
ENDBRANCH   2   9
TORSDOF 3
