REMARK  3 active torsions:
REMARK  status: ('A' for Active; 'I' for Inactive)
REMARK    1  A    between atoms: C3_3  and  C4_4 
REMARK    2  A    between atoms: C5_5  and  C6_6 
REMARK    3  A    between atoms: C7_7  and  C8_8 
ROOT
HETATM    1  C6  UNL     1       0.663  -0.373  -1.038  1.00  0.00    -0.002 C 
HETATM    2  C7  UNL     1       1.857  -0.616  -0.532  1.00  0.00     0.008 C 
ENDROOT
BRANCH   2   3
HETATM    3  C8  UNL     1       2.128  -0.788   0.903  1.00  0.00     0.239 A 
HETATM    4  N1  UNL     1       2.294   0.345   1.767  1.00  0.00    -0.059 N 
HETATM    5  C9  UNL     1       3.462  -0.420   1.389  1.00  0.00     0.216 A 
ATOM      6  H12 UNL     1       2.038   1.330   1.707  1.00  0.00     0.278 HD
ATOM      7  H11 UNL     1       1.885   0.628   2.658  1.00  0.00     0.278 HD
HETATM    8  C10 UNL     1       4.452   0.319   0.544  1.00  0.00     0.042 C 
ENDBRANCH   2   3
BRANCH   1   9
HETATM    9  C5  UNL     1      -0.491  -0.257  -0.171  1.00  0.00    -0.000 C 
HETATM   10  C4  UNL     1      -1.676  -0.014  -0.687  1.00  0.00    -0.000 C 
BRANCH  10  11
HETATM   11  C3  UNL     1      -2.855   0.105   0.176  1.00  0.00    -0.004 C 
HETATM   12  C2  UNL     1      -4.033   0.348  -0.349  1.00  0.00    -0.031 C 
HETATM   13  C1  UNL     1      -5.229   0.469   0.525  1.00  0.00     0.036 C 
ENDBRANCH  10  11
ENDBRANCH   1   9
TORSDOF 3
