REMARK  4 active torsions:
REMARK  status: ('A' for Active; 'I' for Inactive)
REMARK    1  A    between atoms: C4_4  and  C5_5 
REMARK    2  A    between atoms: C5_5  and  C6_6 
REMARK    3  A    between atoms: C6_6  and  C7_7 
REMARK    4  A    between atoms: C7_7  and  N1_8 
ROOT
HETATM    1  C5  UNL     1      -0.909  -0.782   0.134  1.00  0.00    -0.018 C 
HETATM    2  C13 UNL     1      -0.534  -1.674  -0.989  1.00  0.00     0.014 C 
HETATM    3  C14 UNL     1      -1.468  -2.723  -0.355  1.00  0.00     0.002 C 
HETATM    4  C15 UNL     1      -1.159  -2.020   0.956  1.00  0.00     0.014 C 
ENDROOT
BRANCH   1   5
HETATM    5  C4  UNL     1      -2.266  -0.083  -0.063  1.00  0.00    -0.002 C 
HETATM    6  C3  UNL     1      -2.201   1.006  -1.105  1.00  0.00     0.005 C 
HETATM    7  C2  UNL     1      -3.653   1.468  -1.301  1.00  0.00     0.000 C 
HETATM    8  C1  UNL     1      -4.206   2.049  -0.023  1.00  0.00     0.000 C 
HETATM    9  C17 UNL     1      -4.198   0.962   1.020  1.00  0.00     0.000 C 
HETATM   10  C16 UNL     1      -2.737   0.558   1.226  1.00  0.00     0.005 C 
ENDBRANCH   1   5
BRANCH   1  11
HETATM   11  C6  UNL     1       0.089   0.180   0.581  1.00  0.00    -0.005 C 
BRANCH  11  12
HETATM   12  C7  UNL     1       1.472  -0.152   0.863  1.00  0.00     0.056 C 
BRANCH  12  13
HETATM   13  N1  UNL     1       2.317  -0.666  -0.155  1.00  0.00    -0.293 NA
HETATM   14  C8  UNL     1       2.642   0.257  -1.201  1.00  0.00     0.095 C 
HETATM   15  C9  UNL     1       3.585   1.354  -0.788  1.00  0.00     0.015 C 
HETATM   16  C10 UNL     1       4.929   0.737  -0.529  1.00  0.00     0.002 C 
HETATM   17  C11 UNL     1       4.768  -0.751  -0.384  1.00  0.00     0.015 C 
HETATM   18  C12 UNL     1       3.565  -1.072   0.472  1.00  0.00     0.095 C 
ENDBRANCH  12  13
ENDBRANCH  11  12
ENDBRANCH   1  11
TORSDOF 4
