REMARK  5 active torsions:
REMARK  status: ('A' for Active; 'I' for Inactive)
REMARK    1  A    between atoms: N2_3  and  N3_5 
REMARK    2  A    between atoms: N3_5  and  C2_7 
REMARK    3  A    between atoms: C3_12  and  C4_13 
REMARK    4  A    between atoms: C4_13  and  N6_14 
REMARK    5  A    between atoms: C4_13  and  N7_18 
ROOT
HETATM    1  C2  UNL     1      -0.895   0.734   0.130  1.00  0.00     0.713 A 
HETATM    2  N4  UNL     1      -0.891  -0.114   1.156  1.00  0.00    -0.129 N 
ATOM      3  H4  UNL     1      -1.715  -0.423   1.672  1.00  0.00     0.205 HD
HETATM    4  N5  UNL     1       0.368  -0.497   1.403  1.00  0.00    -0.271 N 
ATOM      5  H5  UNL     1       0.664  -1.143   2.135  1.00  0.00     0.189 HD
HETATM    6  C3  UNL     1       1.176   0.117   0.520  1.00  0.00     0.170 A 
HETATM    7  N8  UNL     1       0.386   0.879  -0.266  1.00  0.00    -0.173 N 
ATOM      8  H8  UNL     1       0.706   1.469  -1.034  1.00  0.00     0.185 HD
ENDROOT
BRANCH   6   9
HETATM    9  C4  UNL     1       2.668  -0.001   0.406  1.00  0.00     0.446 C 
BRANCH   9  10
HETATM   10  N6  UNL     1       3.104  -1.367   0.495  1.00  0.00    -0.043 N 
ATOM     11  H63 UNL     1       2.760  -1.812   1.346  1.00  0.00     0.277 HD
ATOM     12  H62 UNL     1       2.632  -1.953  -0.193  1.00  0.00     0.277 HD
ATOM     13  H61 UNL     1       4.118  -1.447   0.418  1.00  0.00     0.277 HD
ENDBRANCH   9  10
BRANCH   9  14
HETATM   14  N7  UNL     1       3.100   0.632  -0.814  1.00  0.00    -0.043 N 
ATOM     15  H73 UNL     1       2.618   0.263  -1.634  1.00  0.00     0.277 HD
ATOM     16  H72 UNL     1       2.781   1.598  -0.883  1.00  0.00     0.277 HD
ATOM     17  H71 UNL     1       4.114   0.552  -0.891  1.00  0.00     0.277 HD
ENDBRANCH   9  14
ENDBRANCH   6   9
BRANCH   1  18
HETATM   18  N3  UNL     1      -1.867   1.356  -0.455  1.00  0.00    -0.130 N 
ATOM     19  H3  UNL     1      -1.644   1.971  -1.237  1.00  0.00     0.205 HD
BRANCH  18  20
HETATM   20  N2  UNL     1      -3.192   1.232  -0.077  1.00  0.00    -0.284 N 
HETATM   21  C1  UNL     1      -3.819   0.155  -0.334  1.00  0.00     0.207 C 
HETATM   22  N1  UNL     1      -3.182  -0.901  -0.992  1.00  0.00    -0.095 NA
ATOM     23  H2  UNL     1      -3.663   1.998   0.404  1.00  0.00     0.187 HD
ENDBRANCH  18  20
ENDBRANCH   1  18
TORSDOF 5
