REMARK  5 active torsions:
REMARK  status: ('A' for Active; 'I' for Inactive)
REMARK    1  A    between atoms: C3_6  and  C4_7 
REMARK    2  A    between atoms: C4_7  and  N2_8 
REMARK    3  A    between atoms: C4_7  and  C5_12 
REMARK    4  A    between atoms: C5_12  and  N3_13 
REMARK    5  A    between atoms: C5_12  and  N4_17 
ROOT
HETATM    1  C4  UNL     1      -0.892  -0.346   0.705  1.00  0.00     0.290 C 
ENDROOT
BRANCH   1   2
HETATM    2  C3  UNL     1       0.512  -0.040   0.513  1.00  0.00     0.048 A 
HETATM    3  C2  UNL     1       1.020   0.549  -0.609  1.00  0.00     0.075 A 
HETATM    4  C1  UNL     1       2.394   0.808  -0.695  1.00  0.00     0.101 A 
HETATM    5  N1  UNL     1       2.904   1.366  -1.746  1.00  0.00    -0.385 N 
HETATM    6  N6  UNL     1       3.224   0.485   0.313  1.00  0.00    -0.339 N 
ATOM      7  H12 UNL     1       2.275   1.611  -2.510  1.00  0.00     0.157 HD
ATOM      8  H11 UNL     1       3.904   1.555  -1.809  1.00  0.00     0.157 HD
HETATM    9  C6  UNL     1       2.697  -0.092   1.404  1.00  0.00     0.182 A 
ATOM     10  H6  UNL     1       4.225   0.673   0.250  1.00  0.00     0.168 HD
HETATM   11  N5  UNL     1       1.387  -0.343   1.492  1.00  0.00    -0.354 N 
ATOM     12  H5  UNL     1       1.033  -0.785   2.340  1.00  0.00     0.166 HD
ENDBRANCH   1   2
BRANCH   1  13
HETATM   13  N2  UNL     1      -0.977  -1.741   1.172  1.00  0.00    -0.066 N 
ATOM     14  H23 UNL     1      -0.507  -2.399   0.550  1.00  0.00     0.275 HD
ATOM     15  H22 UNL     1      -0.413  -1.918   2.003  1.00  0.00     0.275 HD
ATOM     16  H21 UNL     1      -1.965  -1.956   1.307  1.00  0.00     0.275 HD
ENDBRANCH   1  13
BRANCH   1  17
HETATM   17  C5  UNL     1      -1.797  -0.214  -0.465  1.00  0.00     0.413 C 
BRANCH  17  18
HETATM   18  N3  UNL     1      -3.130  -0.610   0.052  1.00  0.00    -0.048 N 
ATOM     19  H33 UNL     1      -3.150  -1.530   0.492  1.00  0.00     0.276 HD
ATOM     20  H32 UNL     1      -3.431  -0.085   0.873  1.00  0.00     0.276 HD
ATOM     21  H31 UNL     1      -3.752  -0.519  -0.752  1.00  0.00     0.276 HD
ENDBRANCH  17  18
BRANCH  17  22
HETATM   22  N4  UNL     1      -1.976   1.175  -0.884  1.00  0.00    -0.048 N 
ATOM     23  H43 UNL     1      -2.295   1.754  -0.107  1.00  0.00     0.276 HD
ATOM     24  H42 UNL     1      -1.077   1.622  -1.064  1.00  0.00     0.276 HD
ATOM     25  H41 UNL     1      -2.598   1.266  -1.688  1.00  0.00     0.276 HD
ENDBRANCH  17  22
ENDBRANCH   1  17
TORSDOF 5
