REMARK  12 active torsions:
REMARK  status: ('A' for Active; 'I' for Inactive)
REMARK    1  A    between atoms: N2_3  and  C2_5 
REMARK    2  A    between atoms: N6_12  and  C3_13 
REMARK    3  A    between atoms: C3_13  and  C4_14 
REMARK    4  A    between atoms: C4_14  and  O1_15 
REMARK    5  A    between atoms: C4_14  and  N7_17 
REMARK    6  A    between atoms: N7_17  and  C5_19 
REMARK    7  A    between atoms: C7_21  and  C8_22 
REMARK    8  A    between atoms: C8_22  and  O2_23 
REMARK    9  A    between atoms: C8_22  and  O3_25 
REMARK   10  A    between atoms: C9_28  and  C10_29 
REMARK   11  A    between atoms: C11_32  and  N9_33 
REMARK   12  A    between atoms: C12_41  and  N13_42 
ROOT
HETATM    1  N1  UNL     1       4.171   2.924   0.381  1.00  0.00    -0.171 NA
HETATM    2  C1  UNL     1       4.815   1.976   0.280  1.00  0.00     0.196 C 
HETATM    3  N2  UNL     1       5.591   0.902   0.156  1.00  0.00    -0.123 N 
ATOM      4  H2  UNL     1       6.554   1.106   0.424  1.00  0.00     0.197 HD
ENDROOT
BRANCH   3   5
HETATM    5  C2  UNL     1       5.458  -0.296  -0.202  1.00  0.00     0.725 A 
HETATM    6  N3  UNL     1       6.530  -1.185  -0.214  1.00  0.00    -0.114 N 
HETATM    7  N4  UNL     1       6.078  -2.311  -0.664  1.00  0.00    -0.213 N 
ATOM      8  H3  UNL     1       7.488  -0.987   0.076  1.00  0.00     0.207 HD
HETATM    9  N5  UNL     1       4.811  -2.198  -0.933  1.00  0.00    -0.211 N 
ATOM     10  H4  UNL     1       6.632  -3.159  -0.789  1.00  0.00     0.210 HD
HETATM   11  N6  UNL     1       4.393  -0.937  -0.649  1.00  0.00    -0.102 N 
ATOM     12  H5  UNL     1       4.220  -2.943  -1.302  1.00  0.00     0.210 HD
BRANCH  11  13
HETATM   13  C3  UNL     1       2.976  -0.562  -0.789  1.00  0.00     0.223 C 
BRANCH  13  14
HETATM   14  C4  UNL     1       2.212  -1.101   0.374  1.00  0.00     0.238 C 
BRANCH  14  15
HETATM   15  O1  UNL     1       2.666  -0.564   1.558  1.00  0.00    -0.375 OA
ATOM     16  H1  UNL     1       2.180  -0.907   2.298  1.00  0.00     0.212 HD
ENDBRANCH  14  15
BRANCH  14  17
HETATM   17  N7  UNL     1       0.791  -1.052   0.294  1.00  0.00    -0.361 N 
ATOM     18  H7  UNL     1       0.296  -1.941   0.220  1.00  0.00     0.162 HD
BRANCH  17  19
HETATM   19  C5  UNL     1      -0.012   0.160   0.309  1.00  0.00     0.051 A 
HETATM   20  C6  UNL     1       0.554   1.359   0.557  1.00  0.00     0.050 A 
HETATM   21  C7  UNL     1      -0.247   2.461   0.586  1.00  0.00     0.040 A 
HETATM   22  S1  UNL     1      -1.786   1.814   0.266  1.00  0.00    -0.085 SA
HETATM   23  C9  UNL     1      -1.357   0.142   0.103  1.00  0.00     0.063 A 
BRANCH  21  24
HETATM   24  C8  UNL     1       0.161   3.896   0.842  1.00  0.00     0.295 C 
BRANCH  24  25
HETATM   25  O2  UNL     1       1.028   3.969   1.918  1.00  0.00    -0.367 OA
ATOM     26  H2  UNL     1       1.284   4.870   2.079  1.00  0.00     0.213 HD
ENDBRANCH  24  25
BRANCH  24  27
HETATM   27  O3  UNL     1      -1.023   4.545   1.220  1.00  0.00    -0.367 OA
ATOM     28  H3  UNL     1      -0.767   5.446   1.381  1.00  0.00     0.213 HD
ENDBRANCH  24  27
ENDBRANCH  21  24
BRANCH  23  29
HETATM   29  C10 UNL     1      -2.342  -0.880  -0.187  1.00  0.00     0.116 A 
HETATM   30  N8  UNL     1      -2.015  -2.156  -0.332  1.00  0.00    -0.185 N 
HETATM   31  C11 UNL     1      -2.923  -3.088  -0.604  1.00  0.00     0.692 A 
ATOM     32  H8  UNL     1      -1.038  -2.431  -0.232  1.00  0.00     0.184 HD
HETATM   33  N10 UNL     1      -4.220  -2.775  -0.744  1.00  0.00    -0.109 N 
HETATM   34  N11 UNL     1      -4.599  -1.521  -0.610  1.00  0.00    -0.148 N 
ATOM     35  H10 UNL     1      -4.906  -3.501  -0.952  1.00  0.00     0.208 HD
HETATM   36  N12 UNL     1      -5.799  -0.987  -0.703  1.00  0.00    -0.109 N 
HETATM   37  C13 UNL     1      -3.687  -0.577  -0.336  1.00  0.00     0.190 A 
HETATM   38  C12 UNL     1      -5.664   0.339  -0.484  1.00  0.00     0.693 A 
ATOM     39  H12 UNL     1      -6.668  -1.482  -0.903  1.00  0.00     0.208 HD
HETATM   40  N14 UNL     1      -4.368   0.568  -0.262  1.00  0.00    -0.170 N 
ATOM     41  H14 UNL     1      -3.959   1.482  -0.065  1.00  0.00     0.186 HD
BRANCH  31  42
HETATM   42  N9  UNL     1      -2.529  -4.307  -0.730  1.00  0.00    -0.233 N 
ATOM     43  H92 UNL     1      -1.543  -4.545  -0.624  1.00  0.00     0.174 HD
ATOM     44  H91 UNL     1      -3.226  -5.022  -0.939  1.00  0.00     0.174 HD
ENDBRANCH  31  42
BRANCH  38  45
HETATM   45  N13 UNL     1      -6.650   1.175  -0.500  1.00  0.00    -0.233 N 
ATOM     46 2H13 UNL     1      -7.640   1.000  -0.670  1.00  0.00     0.174 HD
ATOM     47 1H13 UNL     1      -6.548   2.176  -0.335  1.00  0.00     0.174 HD
ENDBRANCH  38  45
ENDBRANCH  23  29
ENDBRANCH  17  19
ENDBRANCH  14  17
ENDBRANCH  13  14
ENDBRANCH  11  13
ENDBRANCH   3   5
TORSDOF 12
