REMARK  6 active torsions:
REMARK  status: ('A' for Active; 'I' for Inactive)
REMARK    1  A    between atoms: C4_9  and  N4_10 
REMARK    2  A    between atoms: C5_15  and  C6_16 
REMARK    3  A    between atoms: C6_16  and  N6_17 
REMARK    4  A    between atoms: N6_17  and  C7_19 
REMARK    5  A    between atoms: C8_22  and  O1_23 
REMARK    6  A    between atoms: O1_23  and  C9_24 
ROOT
HETATM    1  C9  UNL     1       5.550   1.044   0.608  1.00  0.00     0.302 C 
HETATM    2  C10 UNL     1       6.804   1.612   0.140  1.00  0.00     0.085 C 
HETATM    3  N8  UNL     1       7.811   2.065  -0.230  1.00  0.00    -0.195 NA
ENDROOT
BRANCH   1   4
HETATM    4  O1  UNL     1       4.691   0.928  -0.508  1.00  0.00    -0.306 OA
BRANCH   4   5
HETATM    5  C8  UNL     1       3.404   0.411  -0.377  1.00  0.00     0.254 A 
HETATM    6  N7  UNL     1       2.812  -0.028   0.746  1.00  0.00    -0.152 N 
HETATM    7  C7  UNL     1       1.568  -0.451   0.473  1.00  0.00     0.696 A 
ATOM      8  H7  UNL     1       3.244  -0.038   1.670  1.00  0.00     0.188 HD
HETATM    9  N10 UNL     1       1.403  -0.262  -0.854  1.00  0.00    -0.129 N 
HETATM   10  N9  UNL     1       2.519   0.261  -1.364  1.00  0.00    -0.250 N 
ATOM     11  H10 UNL     1       0.559  -0.484  -1.382  1.00  0.00     0.205 HD
ATOM     12  H9  UNL     1       2.670   0.505  -2.343  1.00  0.00     0.191 HD
BRANCH   7  13
HETATM   13  N6  UNL     1       0.693  -0.942   1.297  1.00  0.00    -0.219 N 
ATOM     14  H6  UNL     1       0.922  -1.043   2.286  1.00  0.00     0.178 HD
BRANCH  13  15
HETATM   15  C6  UNL     1      -0.637  -1.355   0.797  1.00  0.00     0.198 C 
BRANCH  15  16
HETATM   16  C5  UNL     1      -1.473  -0.205   0.495  1.00  0.00     0.075 A 
HETATM   17  N5  UNL     1      -1.009   1.051   0.676  1.00  0.00    -0.192 N 
HETATM   18  C4  UNL     1      -1.716   2.161   0.419  1.00  0.00     0.677 A 
ATOM     19  H5  UNL     1      -0.059   1.162   1.031  1.00  0.00     0.184 HD
HETATM   20  N3  UNL     1      -2.965   2.003  -0.047  1.00  0.00    -0.174 N 
HETATM   21  C3  UNL     1      -3.520   0.798  -0.262  1.00  0.00     0.151 A 
ATOM     22  H3  UNL     1      -3.518   2.836  -0.247  1.00  0.00     0.186 HD
HETATM   23  N2  UNL     1      -4.703   0.355  -0.705  1.00  0.00    -0.336 N 
HETATM   24  C11 UNL     1      -2.749  -0.353   0.018  1.00  0.00     0.105 A 
HETATM   25  C2  UNL     1      -4.681  -0.974  -0.705  1.00  0.00     0.184 A 
ATOM     26  H2  UNL     1      -5.488   0.938  -0.994  1.00  0.00     0.168 HD
HETATM   27  N1  UNL     1      -3.470  -1.440  -0.257  1.00  0.00    -0.343 N 
HETATM   28  C1  UNL     1      -3.099  -2.840  -0.125  1.00  0.00     0.157 C 
BRANCH  18  29
HETATM   29  N4  UNL     1      -1.220   3.355   0.612  1.00  0.00    -0.234 N 
ATOM     30  H42 UNL     1      -1.758   4.199   0.417  1.00  0.00     0.174 HD
ATOM     31  H41 UNL     1      -0.271   3.475   0.966  1.00  0.00     0.174 HD
ENDBRANCH  18  29
ENDBRANCH  15  16
ENDBRANCH  13  15
ENDBRANCH   7  13
ENDBRANCH   4   5
ENDBRANCH   1   4
TORSDOF 6
