REMARK  8 active torsions:
REMARK  status: ('A' for Active; 'I' for Inactive)
REMARK    1  A    between atoms: C1_4  and  C2_5 
REMARK    2  A    between atoms: C5_10  and  C6_11 
REMARK    3  A    between atoms: C7_12  and  C8_13 
REMARK    4  A    between atoms: C9_14  and  C10_15 
REMARK    5  A    between atoms: C10_15  and  O1_16 
REMARK    6  A    between atoms: O1_16  and  C11_17 
REMARK    7  A    between atoms: C11_17  and  C12_18 
REMARK    8  A    between atoms: C12_18  and  N3_19 
ROOT
HETATM    1  C6  UNL     1      -2.420  -0.484   0.354  1.00  0.00    -0.051 C 
HETATM    2  C7  UNL     1      -1.226  -0.625   0.299  1.00  0.00    -0.009 C 
ENDROOT
BRANCH   1   3
HETATM    3  C5  UNL     1      -3.848  -0.346   0.438  1.00  0.00     0.048 A 
HETATM    4  C2  UNL     1      -4.634   0.648  -0.054  1.00  0.00     0.066 A 
HETATM    5  N2  UNL     1      -5.934   0.367   0.261  1.00  0.00    -0.364 N 
HETATM    6  C3  UNL     1      -5.950  -0.790   0.941  1.00  0.00     0.090 A 
ATOM      7  H2  UNL     1      -6.747   0.935   0.022  1.00  0.00     0.165 HD
HETATM    8  C4  UNL     1      -4.667  -1.254   1.065  1.00  0.00     0.040 A 
BRANCH   4   9
HETATM    9  C1  UNL     1      -4.271   1.832  -0.791  1.00  0.00     0.111 C 
HETATM   10  N1  UNL     1      -3.108   2.148  -1.110  1.00  0.00    -0.406 N 
ATOM     11  H12 UNL     1      -2.368   1.508  -0.819  1.00  0.00     0.155 HD
ATOM     12  H11 UNL     1      -2.851   2.986  -1.632  1.00  0.00     0.155 HD
ENDBRANCH   4   9
ENDBRANCH   1   3
BRANCH   2  13
HETATM   13  C8  UNL     1       0.180  -0.788   0.221  1.00  0.00    -0.013 C 
HETATM   14  C9  UNL     1       1.378  -0.918   0.136  1.00  0.00    -0.066 C 
BRANCH  14  15
HETATM   15  C10 UNL     1       2.853  -1.068   0.006  1.00  0.00     0.262 C 
BRANCH  15  16
HETATM   16  O1  UNL     1       3.324  -0.281  -1.018  1.00  0.00    -0.378 OA
BRANCH  16  17
HETATM   17  C11 UNL     1       4.681  -0.388  -1.197  1.00  0.00     0.196 C 
BRANCH  17  18
HETATM   18  C12 UNL     1       5.500   0.010   0.006  1.00  0.00     0.255 C 
BRANCH  18  19
HETATM   19  N3  UNL     1       5.262   1.388   0.390  1.00  0.00    -0.077 N 
ATOM     20  H33 UNL     1       5.419   2.023  -0.392  1.00  0.00     0.274 HD
ATOM     21  H32 UNL     1       4.269   1.564   0.543  1.00  0.00     0.274 HD
ATOM     22  H31 UNL     1       5.816   1.657   1.203  1.00  0.00     0.274 HD
ENDBRANCH  18  19
ENDBRANCH  17  18
ENDBRANCH  16  17
ENDBRANCH  15  16
ENDBRANCH  14  15
ENDBRANCH   2  13
TORSDOF 8
