REMARK  7 active torsions:
REMARK  status: ('A' for Active; 'I' for Inactive)
REMARK    1  A    between atoms: C2_2  and  N1_3 
REMARK    2  A    between atoms: N1_3  and  C3_5 
REMARK    3  A    between atoms: C3_5  and  C4_6 
REMARK    4  A    between atoms: C4_6  and  N2_7 
REMARK    5  A    between atoms: N2_7  and  C5_10 
REMARK    6  A    between atoms: C5_10  and  C6_11 
REMARK    7  A    between atoms: C6_11  and  C7_12 
ROOT
HETATM    1  N2  UNL     1      -0.955  -0.903   0.639  1.00  0.00    -0.071 N 
ATOM      2  H21 UNL     1      -0.974  -1.921   0.581  1.00  0.00     0.277 HD
ATOM      3  H22 UNL     1      -1.560  -0.776   1.451  1.00  0.00     0.277 HD
ENDROOT
BRANCH   1   4
HETATM    4  C4  UNL     1      -1.525  -0.308  -0.528  1.00  0.00     0.276 C 
BRANCH   4   5
HETATM    5  C3  UNL     1      -2.874  -0.898  -0.859  1.00  0.00     0.087 C 
BRANCH   5   6
HETATM    6  N1  UNL     1      -3.871  -0.804   0.124  1.00  0.00    -0.381 N 
ATOM      7  H1  UNL     1      -4.189  -1.648   0.600  1.00  0.00     0.164 HD
BRANCH   6   8
HETATM    8  C2  UNL     1      -4.439   0.440   0.463  1.00  0.00     0.056 C 
HETATM    9  C1  UNL     1      -5.319   1.037  -0.601  1.00  0.00     0.054 C 
ENDBRANCH   6   8
ENDBRANCH   5   6
ENDBRANCH   4   5
ENDBRANCH   1   4
BRANCH   1  10
HETATM   10  C5  UNL     1       0.360  -0.426   0.897  1.00  0.00     0.233 C 
BRANCH  10  11
HETATM   11  C6  UNL     1       1.409  -0.909  -0.063  1.00  0.00     0.032 C 
BRANCH  11  12
HETATM   12  C7  UNL     1       2.739  -0.330   0.328  1.00  0.00    -0.013 C 
HETATM   13  C8  UNL     1       2.792   1.164   0.271  1.00  0.00     0.005 C 
HETATM   14  C9  UNL     1       3.908   1.464  -0.756  1.00  0.00     0.000 C 
HETATM   15  C10 UNL     1       4.864   0.327  -0.462  1.00  0.00     0.000 C 
HETATM   16  C11 UNL     1       3.872  -0.852  -0.529  1.00  0.00     0.005 C 
ENDBRANCH  11  12
ENDBRANCH  10  11
ENDBRANCH   1  10
TORSDOF 7
