REMARK  5 active torsions:
REMARK  status: ('A' for Active; 'I' for Inactive)
REMARK    1  A    between atoms: N1_1  and  N2_4 
REMARK    2  A    between atoms: N2_4  and  C1_5 
REMARK    3  A    between atoms: C1_5  and  C2_6 
REMARK    4  A    between atoms: C2_6  and  N3_7 
REMARK       I    between atoms: N3_7  and  C3_9 
REMARK       I    between atoms: C3_9  and  N5_13 
REMARK    5  A    between atoms: N5_13  and  C4_15 
ROOT
HETATM    1  N3  UNL     1       1.850  -1.253  -0.537  1.00  0.00    -0.221 N 
ATOM      2  H3  UNL     1       1.490  -1.841  -1.289  1.00  0.00     0.178 HD
HETATM    3  C3  UNL     1       0.903  -0.489   0.254  1.00  0.00     0.668 C 
HETATM    4  N4  UNL     1       1.420   0.359   1.032  1.00  0.00    -0.235 N 
ATOM      5  H41 UNL     1       0.754   0.896   1.588  1.00  0.00     0.174 HD
ATOM      6  H42 UNL     1       2.413   0.553   1.160  1.00  0.00     0.174 HD
HETATM    7  N5  UNL     1      -0.461  -0.755   0.078  1.00  0.00    -0.213 N 
ATOM      8  H5  UNL     1      -0.755  -1.732   0.076  1.00  0.00     0.178 HD
ENDROOT
BRANCH   1   9
HETATM    9  C2  UNL     1       3.256  -1.223  -0.316  1.00  0.00     0.199 C 
BRANCH   9  10
HETATM   10  C1  UNL     1       3.898   0.087  -0.645  1.00  0.00     0.201 C 
BRANCH  10  11
HETATM   11  N2  UNL     1       4.761   0.591   0.123  1.00  0.00    -0.348 NA
BRANCH  11  12
HETATM   12  N1  UNL     1       5.417   1.108   1.020  1.00  0.00    -0.281 N 
ATOM     13  H12 UNL     1       4.574   1.180   1.590  1.00  0.00     0.191 HD
ATOM     14  H11 UNL     1       6.115   1.516   1.642  1.00  0.00     0.191 HD
ENDBRANCH  11  12
ENDBRANCH  10  11
ENDBRANCH   9  10
ENDBRANCH   1   9
BRANCH   7  15
HETATM   15  C4  UNL     1      -1.457   0.225  -0.096  1.00  0.00     0.193 C 
HETATM   16  C5  UNL     1      -2.773  -0.371  -0.632  1.00  0.00     0.055 C 
HETATM   17  C6  UNL     1      -3.693   0.834  -0.449  1.00  0.00     0.125 C 
HETATM   18  N6  UNL     1      -3.183   1.476   0.756  1.00  0.00    -0.359 N 
HETATM   19  C7  UNL     1      -2.024   0.736   1.210  1.00  0.00     0.241 C 
ATOM     20  H6  UNL     1      -3.575   2.305   1.203  1.00  0.00     0.162 HD
HETATM   21  O1  UNL     1      -1.662   0.600   2.377  1.00  0.00    -0.271 OA
ENDBRANCH   7  15
TORSDOF 5
