REMARK  2 active torsions:
REMARK  status: ('A' for Active; 'I' for Inactive)
REMARK    1  A    between atoms: C3_3  and  N1_4 
REMARK    2  A    between atoms: N2_7  and  N3_8 
REMARK       I    between atoms: N3_8  and  C6_10 
REMARK       I    between atoms: C6_10  and  N5_14 
ROOT
HETATM    1  C1  UNL     1      -3.451   1.900   2.179  1.00  0.00     0.014 C 
HETATM    2  C2  UNL     1      -3.361   1.416   1.079  1.00  0.00    -0.098 C 
HETATM    3  C3  UNL     1      -3.238   0.841  -0.287  1.00  0.00     0.221 C 
ENDROOT
BRANCH   3   4
HETATM    4  N1  UNL     1      -2.009   0.091  -0.406  1.00  0.00    -0.321 N 
HETATM    5  C4  UNL     1      -1.927  -1.323  -0.109  1.00  0.00     0.150 C 
HETATM    6  C5  UNL     1      -0.567  -1.782  -0.585  1.00  0.00     0.174 C 
HETATM    7  N2  UNL     1       0.190  -0.589  -0.888  1.00  0.00    -0.227 N 
HETATM    8  C9  UNL     1      -0.703   0.529  -0.814  1.00  0.00     0.340 C 
HETATM    9  O1  UNL     1      -0.419   1.729  -1.063  1.00  0.00    -0.245 OA
BRANCH   7  10
HETATM   10  N3  UNL     1       1.542  -0.584  -1.198  1.00  0.00    -0.126 N 
HETATM   11  C6  UNL     1       2.610  -0.567  -0.286  1.00  0.00     0.698 C 
HETATM   12  N4  UNL     1       2.773  -1.313   0.727  1.00  0.00    -0.233 N 
HETATM   13  N5  UNL     1       3.645   0.408  -0.523  1.00  0.00    -0.148 N 
ATOM     14  H42 UNL     1       2.041  -2.003   0.895  1.00  0.00     0.174 HD
ATOM     15  H41 UNL     1       3.549  -1.301   1.389  1.00  0.00     0.174 HD
HETATM   16  C7  UNL     1       4.132   1.160   0.550  1.00  0.00     0.015 C 
ATOM     17  H5  UNL     1       4.017   0.547  -1.462  1.00  0.00     0.195 HD
HETATM   18  C8  UNL     1       4.559   1.822   1.476  1.00  0.00     0.037 C 
ATOM     19  H3  UNL     1       1.785  -0.594  -2.189  1.00  0.00     0.206 HD
ENDBRANCH   7  10
ENDBRANCH   3   4
TORSDOF 2
