REMARK  11 active torsions:
REMARK  status: ('A' for Active; 'I' for Inactive)
REMARK    1  A    between atoms: C2_2  and  O1_3 
REMARK    2  A    between atoms: C2_2  and  C16_23 
REMARK    3  A    between atoms: O1_3  and  C3_4 
REMARK    4  A    between atoms: C3_4  and  C4_6 
REMARK    5  A    between atoms: C4_6  and  C5_7 
REMARK    6  A    between atoms: C5_7  and  C6_8 
REMARK    7  A    between atoms: C6_8  and  O4_10 
REMARK    8  A    between atoms: O4_10  and  C7_11 
REMARK    9  A    between atoms: C7_11  and  C8_12 
REMARK       I    between atoms: C8_12  and  N1_14 
REMARK   10  A    between atoms: N1_14  and  C9_16 
REMARK       I    between atoms: C16_23  and  N2_25 
REMARK   11  A    between atoms: N2_25  and  C17_27 
ROOT
HETATM    1  C6  UNL     1       0.120   0.470   1.468  1.00  0.00     0.259 C 
HETATM    2  O3  UNL     1      -0.403   1.489   0.945  1.00  0.00    -0.265 OA
ENDROOT
BRANCH   1   3
HETATM    3  C5  UNL     1       1.585   0.359   1.524  1.00  0.00     0.121 C 
BRANCH   3   4
HETATM    4  C4  UNL     1       2.209   1.125   2.669  1.00  0.00     0.121 C 
BRANCH   4   5
HETATM    5  C3  UNL     1       3.678   0.929   2.598  1.00  0.00     0.260 C 
HETATM    6  O2  UNL     1       4.455   1.453   3.461  1.00  0.00    -0.265 OA
BRANCH   5   7
HETATM    7  O1  UNL     1       4.259   0.181   1.606  1.00  0.00    -0.307 OA
BRANCH   7   8
HETATM    8  C2  UNL     1       5.624  -0.071   1.437  1.00  0.00     0.219 C 
HETATM    9  C1  UNL     1       5.838  -1.575   1.533  1.00  0.00     0.050 C 
BRANCH   8  10
HETATM   10  C16 UNL     1       6.036   0.363   0.092  1.00  0.00     0.247 C 
HETATM   11  O6  UNL     1       5.212   0.861  -0.690  1.00  0.00    -0.271 OA
HETATM   12  N2  UNL     1       7.382   0.210  -0.310  1.00  0.00    -0.354 N 
ATOM     13  H2  UNL     1       8.054  -0.201   0.338  1.00  0.00     0.162 HD
BRANCH  12  14
HETATM   14  C17 UNL     1       7.827   0.626  -1.627  1.00  0.00     0.084 A 
HETATM   15  C18 UNL     1       9.172   1.292  -1.752  1.00  0.00     0.027 A 
HETATM   16  C19 UNL     1       8.969  -0.082  -2.299  1.00  0.00     0.027 A 
ENDBRANCH  12  14
ENDBRANCH   8  10
ENDBRANCH   7   8
ENDBRANCH   5   7
ENDBRANCH   4   5
ENDBRANCH   3   4
ENDBRANCH   1   3
BRANCH   1  17
HETATM   17  O4  UNL     1      -0.718  -0.507   1.970  1.00  0.00    -0.312 OA
BRANCH  17  18
HETATM   18  C7  UNL     1      -2.116  -0.479   1.951  1.00  0.00     0.281 C 
BRANCH  18  19
HETATM   19  C8  UNL     1      -2.715  -0.450   0.602  1.00  0.00     0.242 C 
HETATM   20  O5  UNL     1      -1.962  -0.484  -0.397  1.00  0.00    -0.271 OA
HETATM   21  N1  UNL     1      -4.097  -0.384   0.436  1.00  0.00    -0.345 N 
ATOM     22  H1  UNL     1      -4.672  -0.357   1.278  1.00  0.00     0.163 HD
BRANCH  21  23
HETATM   23  C9  UNL     1      -4.786  -0.351  -0.852  1.00  0.00     0.154 C 
HETATM   24  C10 UNL     1      -5.556  -1.718  -0.930  1.00  0.00     0.064 C 
HETATM   25  C11 UNL     1      -7.058  -1.517  -0.757  1.00  0.00    -0.028 C 
HETATM   26  C12 UNL     1      -7.843  -0.708  -1.645  1.00  0.00    -0.030 C 
HETATM   27  C13 UNL     1      -8.103   0.776  -1.396  1.00  0.00     0.038 C 
HETATM   28  C14 UNL     1      -6.768   1.589  -1.315  1.00  0.00     0.086 C 
HETATM   29  C15 UNL     1      -5.743   0.651  -1.094  1.00  0.00    -0.157 C 
ENDBRANCH  21  23
ENDBRANCH  18  19
ENDBRANCH  17  18
ENDBRANCH   1  17
TORSDOF 11
