REMARK  14 active torsions:
REMARK  status: ('A' for Active; 'I' for Inactive)
REMARK    1  A    between atoms: N3_7  and  C2_8 
REMARK    2  A    between atoms: C5_12  and  O2_13 
REMARK    3  A    between atoms: C9_21  and  O3_22 
REMARK    4  A    between atoms: C11_25  and  O4_26 
REMARK    5  A    between atoms: C12_28  and  O5_29 
REMARK    6  A    between atoms: C13_31  and  C14_32 
REMARK       I    between atoms: C14_32  and  N6_34 
REMARK       I    between atoms: N6_34  and  C15_36 
REMARK    7  A    between atoms: C15_36  and  C16_38 
REMARK    8  A    between atoms: C16_38  and  N7_39 
REMARK    9  A    between atoms: N7_39  and  C17_41 
REMARK   10  A    between atoms: C17_41  and  O8_42 
REMARK   11  A    between atoms: C17_41  and  C18_44 
REMARK   12  A    between atoms: C18_44  and  N8_45 
REMARK   13  A    between atoms: C18_44  and  C19_49 
REMARK   14  A    between atoms: C19_49  and  O9_50 
ROOT
HETATM    1  N1  UNL     1      -6.680   0.934  -0.939  1.00  0.00    -0.382 N 
ATOM      2  H11 UNL     1      -6.842   1.934  -1.054  1.00  0.00     0.157 HD
ATOM      3  H12 UNL     1      -7.569   0.437  -0.994  1.00  0.00     0.157 HD
HETATM    4  C1  UNL     1      -5.474   0.470  -0.754  1.00  0.00     0.145 A 
HETATM    5  N2  UNL     1      -5.265  -0.819  -0.606  1.00  0.00    -0.277 N 
ATOM      6  H2  UNL     1      -5.976  -1.551  -0.617  1.00  0.00     0.189 HD
HETATM    7  N3  UNL     1      -3.980  -0.992  -0.442  1.00  0.00    -0.235 N 
HETATM    8  C6  UNL     1      -3.297   0.190  -0.477  1.00  0.00     0.194 A 
HETATM    9  C7  UNL     1      -4.244   1.157  -0.678  1.00  0.00     0.131 A 
HETATM   10  N4  UNL     1      -4.176   2.539  -0.814  1.00  0.00    -0.346 N 
ATOM     11  H4  UNL     1      -4.974   2.773  -1.405  1.00  0.00     0.167 HD
HETATM   12  C8  UNL     1      -3.650   3.606  -0.587  1.00  0.00     0.181 C 
HETATM   13  N5  UNL     1      -2.545   4.106   0.121  1.00  0.00    -0.337 N 
HETATM   14  C9  UNL     1      -1.901   4.667   1.347  1.00  0.00     0.247 A 
HETATM   15  C10 UNL     1      -1.222   4.440   0.139  1.00  0.00     0.167 A 
HETATM   16  C11 UNL     1      -0.146   3.339  -0.038  1.00  0.00     0.177 C 
HETATM   17  C12 UNL     1      -0.890   2.135  -0.145  1.00  0.00     0.187 C 
HETATM   18  C13 UNL     1      -0.747   0.761  -0.589  1.00  0.00     0.254 C 
HETATM   19  O10 UNL     1      -1.969   0.177  -0.323  1.00  0.00    -0.315 OA
ENDROOT
BRANCH  18  20
HETATM   20  C14 UNL     1       0.262   0.049   0.291  1.00  0.00     0.256 C 
HETATM   21  O6  UNL     1      -0.050  -0.878   1.068  1.00  0.00    -0.270 OA
HETATM   22  N6  UNL     1       1.618   0.457   0.229  1.00  0.00    -0.291 N 
HETATM   23  C15 UNL     1       2.619  -0.152   1.061  1.00  0.00     0.263 C 
ATOM     24  H6  UNL     1       1.889   1.197  -0.419  1.00  0.00     0.172 HD
HETATM   25  O7  UNL     1       2.281  -1.059   1.825  1.00  0.00    -0.267 OA
BRANCH  23  26
HETATM   26  C16 UNL     1       4.010   0.323   0.979  1.00  0.00     0.160 C 
BRANCH  26  27
HETATM   27  N7  UNL     1       4.983  -0.270   1.758  1.00  0.00    -0.367 N 
ATOM     28  H7  UNL     1       5.372   0.249   2.545  1.00  0.00     0.161 HD
BRANCH  27  29
HETATM   29  C17 UNL     1       5.448  -1.554   1.501  1.00  0.00     0.250 C 
BRANCH  29  30
HETATM   30  O8  UNL     1       4.524  -2.558   1.640  1.00  0.00    -0.375 OA
ATOM     31  H8  UNL     1       4.842  -3.436   1.464  1.00  0.00     0.212 HD
ENDBRANCH  29  30
BRANCH  29  32
HETATM   32  C18 UNL     1       6.126  -1.759   0.156  1.00  0.00     0.255 C 
BRANCH  32  33
HETATM   33  N8  UNL     1       5.231  -1.735  -0.950  1.00  0.00    -0.069 N 
ATOM     34  H83 UNL     1       4.481  -2.414  -0.819  1.00  0.00     0.275 HD
ATOM     35  H82 UNL     1       4.685  -0.873  -0.951  1.00  0.00     0.275 HD
ATOM     36  H81 UNL     1       5.686  -1.873  -1.853  1.00  0.00     0.275 HD
ENDBRANCH  32  33
BRANCH  32  37
HETATM   37  C19 UNL     1       7.310  -0.823  -0.020  1.00  0.00     0.201 C 
BRANCH  37  38
HETATM   38  O9  UNL     1       8.159  -0.873   1.081  1.00  0.00    -0.399 OA
ATOM     39  H9  UNL     1       8.899  -0.288   0.971  1.00  0.00     0.209 HD
ENDBRANCH  37  38
ENDBRANCH  32  37
ENDBRANCH  29  32
ENDBRANCH  27  29
ENDBRANCH  26  27
ENDBRANCH  23  26
ENDBRANCH  18  20
BRANCH  17  40
HETATM   40  O5  UNL     1      -1.440   1.953   1.102  1.00  0.00    -0.390 OA
ATOM     41  H5  UNL     1      -1.938   1.147   1.030  1.00  0.00     0.210 HD
ENDBRANCH  17  40
BRANCH  16  42
HETATM   42  O4  UNL     1       0.699   3.370   1.096  1.00  0.00    -0.391 OA
ATOM     43  H4  UNL     1       1.359   2.695   0.987  1.00  0.00     0.210 HD
ENDBRANCH  16  42
BRANCH   7  44
HETATM   44  C2  UNL     1      -3.452  -2.374  -0.251  1.00  0.00     0.275 C 
HETATM   45  O1  UNL     1      -2.357  -2.523  -1.097  1.00  0.00    -0.362 OA
HETATM   46  C3  UNL     1      -2.227  -3.839  -1.443  1.00  0.00     0.173 C 
HETATM   47  C4  UNL     1      -3.463  -4.568  -1.021  1.00  0.00     0.062 C 
HETATM   48  C5  UNL     1      -4.408  -3.388  -0.732  1.00  0.00     0.170 C 
BRANCH  48  49
HETATM   49  O2  UNL     1      -5.339  -3.792   0.226  1.00  0.00    -0.391 OA
ATOM     50  H2  UNL     1      -5.955  -4.445  -0.084  1.00  0.00     0.210 HD
ENDBRANCH  48  49
ENDBRANCH   7  44
BRANCH  14  51
HETATM   51  O3  UNL     1      -2.155   5.981   1.729  1.00  0.00    -0.374 OA
ATOM     52  H3  UNL     1      -1.746   6.338   2.508  1.00  0.00     0.212 HD
ENDBRANCH  14  51
TORSDOF 14
