REMARK  13 active torsions:
REMARK  status: ('A' for Active; 'I' for Inactive)
REMARK    1  A    between atoms: C2_2  and  C3_3 
REMARK    2  A    between atoms: C3_3  and  O1_4 
REMARK    3  A    between atoms: O1_4  and  C4_5 
REMARK    4  A    between atoms: C5_7  and  C6_8 
REMARK    5  A    between atoms: C6_8  and  O3_9 
REMARK    6  A    between atoms: C7_11  and  O4_12 
REMARK    7  A    between atoms: C8_14  and  O5_15 
REMARK    8  A    between atoms: C9_17  and  O6_18 
REMARK    9  A    between atoms: C10_21  and  C11_22 
REMARK   10  A    between atoms: C11_22  and  S1_23 
REMARK   11  A    between atoms: S1_23  and  C12_24 
REMARK   12  A    between atoms: C12_24  and  C13_25 
REMARK   13  A    between atoms: C20_33  and  O9_34 
ROOT
HETATM    1  C1  UNL     1      -0.350  -0.735  -0.211  1.00  0.00     0.051 C 
HETATM    2  C2  UNL     1      -0.800   0.674  -0.011  1.00  0.00     0.109 C 
HETATM    3  O7  UNL     1       0.047   1.398   0.828  1.00  0.00    -0.345 OA
HETATM    4  C10 UNL     1       1.305   1.462   0.233  1.00  0.00     0.270 C 
HETATM    5  O8  UNL     1       1.305   2.164  -0.946  1.00  0.00    -0.358 OA
HETATM    6  C19 UNL     1       0.406   1.703  -1.874  1.00  0.00     0.205 C 
HETATM    7  C20 UNL     1      -0.947   1.469  -1.283  1.00  0.00     0.178 C 
ENDROOT
BRANCH   2   8
HETATM    8  C3  UNL     1      -2.192   0.617   0.629  1.00  0.00     0.211 C 
BRANCH   8   9
HETATM    9  O1  UNL     1      -2.976  -0.112  -0.241  1.00  0.00    -0.355 OA
BRANCH   9  10
HETATM   10  C4  UNL     1      -4.297  -0.260   0.205  1.00  0.00     0.291 C 
HETATM   11  O2  UNL     1      -5.115   0.301  -0.741  1.00  0.00    -0.348 OA
HETATM   12  C5  UNL     1      -6.458   0.058  -0.604  1.00  0.00     0.179 C 
HETATM   13  C7  UNL     1      -6.716  -1.413  -0.583  1.00  0.00     0.180 C 
HETATM   14  C8  UNL     1      -5.971  -2.094   0.520  1.00  0.00     0.183 C 
HETATM   15  C9  UNL     1      -4.504  -1.749   0.387  1.00  0.00     0.204 C 
BRANCH  12  16
HETATM   16  C6  UNL     1      -7.102   0.796   0.542  1.00  0.00     0.198 C 
BRANCH  16  17
HETATM   17  O3  UNL     1      -8.466   0.438   0.541  1.00  0.00    -0.398 OA
ATOM     18  H3  UNL     1      -8.872   0.903   1.263  1.00  0.00     0.209 HD
ENDBRANCH  16  17
ENDBRANCH  12  16
BRANCH  13  19
HETATM   19  O4  UNL     1      -8.086  -1.687  -0.532  1.00  0.00    -0.390 OA
ATOM     20  H4  UNL     1      -8.250  -2.623  -0.519  1.00  0.00     0.210 HD
ENDBRANCH  13  19
BRANCH  14  21
HETATM   21  O5  UNL     1      -6.478  -1.846   1.777  1.00  0.00    -0.390 OA
ATOM     22  H5  UNL     1      -6.005  -2.279   2.478  1.00  0.00     0.210 HD
ENDBRANCH  14  21
BRANCH  15  23
HETATM   23  O6  UNL     1      -4.033  -2.401  -0.753  1.00  0.00    -0.388 OA
ATOM     24  H6  UNL     1      -4.163  -3.335  -0.639  1.00  0.00     0.210 HD
ENDBRANCH  15  23
ENDBRANCH   9  10
ENDBRANCH   8   9
ENDBRANCH   2   8
BRANCH   7  25
HETATM   25  O9  UNL     1      -1.580   2.670  -0.930  1.00  0.00    -0.390 OA
ATOM     26  H9  UNL     1      -1.673   3.171  -1.732  1.00  0.00     0.210 HD
ENDBRANCH   7  25
BRANCH   4  27
HETATM   27  C11 UNL     1       2.301   1.963   1.233  1.00  0.00     0.134 C 
BRANCH  27  28
HETATM   28  S1  UNL     1       3.972   2.074   0.537  1.00  0.00    -0.164 SA
BRANCH  28  29
HETATM   29  C12 UNL     1       4.538   0.390   0.163  1.00  0.00     0.078 C 
BRANCH  29  30
HETATM   30  C13 UNL     1       5.953   0.443  -0.435  1.00  0.00    -0.005 C 
HETATM   31  C14 UNL     1       6.916   1.054   0.488  1.00  0.00     0.005 C 
HETATM   32  C15 UNL     1       8.060   0.237   0.940  1.00  0.00     0.000 C 
HETATM   33  C16 UNL     1       8.451  -0.892   0.045  1.00  0.00     0.000 C 
HETATM   34  C17 UNL     1       7.182  -1.734  -0.144  1.00  0.00     0.000 C 
HETATM   35  C18 UNL     1       6.256  -0.904  -0.965  1.00  0.00     0.005 C 
ENDBRANCH  29  30
ENDBRANCH  28  29
ENDBRANCH  27  28
ENDBRANCH   4  27
TORSDOF 13
