REMARK  14 active torsions:
REMARK  status: ('A' for Active; 'I' for Inactive)
REMARK    1  A    between atoms: C2_2  and  O2_4 
REMARK    2  A    between atoms: O2_4  and  C3_5 
REMARK    3  A    between atoms: C4_6  and  O3_7 
REMARK    4  A    between atoms: O3_7  and  C5_8 
REMARK    5  A    between atoms: C6_9  and  O4_10 
REMARK    6  A    between atoms: C7_12  and  O5_13 
REMARK    7  A    between atoms: C8_15  and  O6_16 
REMARK    8  A    between atoms: C9_18  and  C10_19 
REMARK    9  A    between atoms: C10_19  and  O7_20 
REMARK   10  A    between atoms: C11_22  and  C12_23 
REMARK   11  A    between atoms: C12_23  and  C13_24 
REMARK   12  A    between atoms: C13_24  and  C14_25 
REMARK   13  A    between atoms: C15_26  and  C16_27 
REMARK   14  A    between atoms: C20_33  and  O9_34 
ROOT
HETATM    1  C5  UNL     1       0.194  -0.932  -0.839  1.00  0.00     0.158 C 
HETATM    2  C6  UNL     1       0.497  -2.206  -1.550  1.00  0.00     0.178 C 
HETATM    3  C7  UNL     1       1.590  -3.039  -0.918  1.00  0.00     0.178 C 
HETATM    4  C8  UNL     1       1.392  -2.905   0.564  1.00  0.00     0.156 C 
HETATM    5  C9  UNL     1       1.825  -1.507   0.964  1.00  0.00     0.047 C 
HETATM    6  C11 UNL     1       1.346  -0.447   0.033  1.00  0.00     0.026 C 
ENDROOT
BRANCH   1   7
HETATM    7  O3  UNL     1      -0.963  -1.088  -0.082  1.00  0.00    -0.373 OA
BRANCH   7   8
HETATM    8  C4  UNL     1      -1.991  -0.258  -0.509  1.00  0.00     0.178 C 
HETATM    9  C3  UNL     1      -2.390   0.757   0.546  1.00  0.00     0.194 C 
HETATM   10  C20 UNL     1      -3.444   0.079   1.423  1.00  0.00     0.178 C 
HETATM   11  C18 UNL     1      -4.663  -0.110   0.559  1.00  0.00     0.148 C 
HETATM   12  O8  UNL     1      -4.311  -0.177  -0.783  1.00  0.00    -0.381 OA
HETATM   13  C19 UNL     1      -5.424  -1.368   0.905  1.00  0.00     0.042 C 
HETATM   14  C17 UNL     1      -3.201  -1.008  -0.988  1.00  0.00     0.203 C 
BRANCH   9  15
HETATM   15  O2  UNL     1      -3.003   1.841  -0.158  1.00  0.00    -0.311 OA
BRANCH  15  16
HETATM   16  C2  UNL     1      -2.548   3.137  -0.058  1.00  0.00     0.255 C 
HETATM   17  C1  UNL     1      -3.248   4.205  -0.828  1.00  0.00     0.126 C 
HETATM   18  O1  UNL     1      -1.556   3.384   0.678  1.00  0.00    -0.266 OA
ENDBRANCH  15  16
ENDBRANCH   9  15
BRANCH  10  19
HETATM   19  O9  UNL     1      -2.953  -1.153   1.856  1.00  0.00    -0.390 OA
ATOM     20  H9  UNL     1      -3.608  -1.574   2.401  1.00  0.00     0.210 HD
ENDBRANCH  10  19
ENDBRANCH   7   8
ENDBRANCH   1   7
BRANCH   2  21
HETATM   21  O4  UNL     1       0.824  -2.018  -2.896  1.00  0.00    -0.390 OA
ATOM     22  H4  UNL     1       1.017  -2.830  -3.349  1.00  0.00     0.210 HD
ENDBRANCH   2  21
BRANCH   6  23
HETATM   23  C12 UNL     1       2.370   0.105  -0.917  1.00  0.00     0.011 C 
BRANCH  23  24
HETATM   24  C13 UNL     1       3.616   0.669  -0.340  1.00  0.00     0.027 C 
BRANCH  24  25
HETATM   25  C14 UNL     1       3.457   1.850   0.517  1.00  0.00    -0.030 C 
HETATM   26  C15 UNL     1       3.969   3.051   0.361  1.00  0.00    -0.020 C 
BRANCH  26  27
HETATM   27  C16 UNL     1       4.836   3.461  -0.747  1.00  0.00     0.112 C 
HETATM   28  S1  UNL     1       6.450   4.019  -0.115  1.00  0.00    -0.094 SA
ENDBRANCH  26  27
ENDBRANCH  24  25
ENDBRANCH  23  24
ENDBRANCH   6  23
BRANCH   3  29
HETATM   29  O5  UNL     1       1.379  -4.376  -1.320  1.00  0.00    -0.390 OA
ATOM     30  H5  UNL     1       2.065  -4.899  -0.923  1.00  0.00     0.210 HD
ENDBRANCH   3  29
BRANCH   5  31
HETATM   31  C10 UNL     1       1.333  -1.365   2.391  1.00  0.00     0.172 C 
BRANCH  31  32
HETATM   32  O7  UNL     1       1.587  -0.192   3.012  1.00  0.00    -0.400 OA
ATOM     33  H7  UNL     1       1.279  -0.103   3.906  1.00  0.00     0.209 HD
ENDBRANCH  31  32
ENDBRANCH   5  31
BRANCH   4  34
HETATM   34  O6  UNL     1       2.190  -3.791   1.284  1.00  0.00    -0.392 OA
ATOM     35  H6  UNL     1       2.065  -3.706   2.222  1.00  0.00     0.210 HD
ENDBRANCH   4  34
TORSDOF 14
