REMARK  16 active torsions:
REMARK  status: ('A' for Active; 'I' for Inactive)
REMARK    1  A    between atoms: C2_2  and  C3_3 
REMARK    2  A    between atoms: C3_3  and  O1_4 
REMARK    3  A    between atoms: O1_4  and  S1_5 
REMARK    4  A    between atoms: S1_5  and  O4_8 
REMARK    5  A    between atoms: O4_8  and  C4_9 
REMARK    6  A    between atoms: C8_18  and  C9_19 
REMARK    7  A    between atoms: C9_19  and  O6_21 
REMARK    8  A    between atoms: C11_23  and  C12_24 
REMARK    9  A    between atoms: C17_31  and  O9_32 
REMARK   10  A    between atoms: C19_35  and  C20_36 
REMARK   11  A    between atoms: C20_36  and  O12_38 
REMARK   12  A    between atoms: O12_38  and  C21_39 
REMARK   13  A    between atoms: C21_39  and  C22_40 
REMARK   14  A    between atoms: C23_43  and  N4_44 
REMARK   15  A    between atoms: N5_47  and  N6_48 
REMARK   16  A    between atoms: C24_51  and  N7_52 
ROOT
HETATM    1  C4  UNL     1      -0.215   2.184   0.313  1.00  0.00     0.381 C 
HETATM    2  N1  UNL     1       0.049   2.391   1.698  1.00  0.00     0.011 N 
ATOM      3  H11 UNL     1       0.026   3.320   2.119  1.00  0.00     0.284 HD
ATOM      4  H12 UNL     1       0.983   2.281   2.092  1.00  0.00     0.284 HD
HETATM    5  C5  UNL     1      -0.966   1.449   1.920  1.00  0.00     0.502 C 
HETATM    6  C6  UNL     1      -1.647   2.135   0.751  1.00  0.00     0.258 C 
HETATM    7  O5  UNL     1      -2.743   2.451   0.401  1.00  0.00    -0.288 OA
HETATM    8  N2  UNL     1      -0.553   0.187   1.257  1.00  0.00     0.180 N 
HETATM    9  C7  UNL     1      -1.763  -0.504   1.107  1.00  0.00     0.294 C 
HETATM   10  C8  UNL     1      -1.750  -1.787   0.347  1.00  0.00     0.040 C 
HETATM   11  C11 UNL     1      -3.159  -2.380   0.282  1.00  0.00     0.123 C 
HETATM   12  C13 UNL     1      -3.157  -3.002  -1.074  1.00  0.00    -0.008 C 
HETATM   13  C14 UNL     1      -2.229  -2.450  -1.836  1.00  0.00    -0.077 C 
HETATM   14  C15 UNL     1      -2.071  -2.947  -3.252  1.00  0.00     0.044 C 
HETATM   15  C16 UNL     1      -1.574  -1.434  -1.058  1.00  0.00     0.083 C 
HETATM   16  C17 UNL     1      -0.227  -0.959  -1.474  1.00  0.00     0.272 C 
HETATM   17  O10 UNL     1      -0.129   0.370  -1.106  1.00  0.00    -0.309 OA
HETATM   18  C19 UNL     1       0.179   0.679   0.170  1.00  0.00     0.421 C 
ENDROOT
BRANCH  18  19
HETATM   19  C20 UNL     1       1.662   0.734   0.340  1.00  0.00     0.332 C 
HETATM   20  O11 UNL     1       2.356   0.745  -0.706  1.00  0.00    -0.259 OA
BRANCH  19  21
HETATM   21  O12 UNL     1       2.340   0.770   1.524  1.00  0.00    -0.310 OA
BRANCH  21  22
HETATM   22  C21 UNL     1       3.706   0.814   1.744  1.00  0.00     0.256 C 
BRANCH  22  23
HETATM   23  C22 UNL     1       4.460  -0.328   1.209  1.00  0.00     0.137 A 
HETATM   24  N3  UNL     1       5.042  -0.400   0.002  1.00  0.00    -0.176 N 
HETATM   25  C23 UNL     1       5.718  -1.481  -0.428  1.00  0.00     0.713 A 
ATOM     26  H3  UNL     1       4.968   0.405  -0.620  1.00  0.00     0.185 HD
HETATM   27  N5  UNL     1       5.837  -2.568   0.365  1.00  0.00     0.083 N 
HETATM   28  C24 UNL     1       5.260  -2.514   1.578  1.00  0.00     0.713 A 
HETATM   29  N8  UNL     1       4.588  -1.425   1.993  1.00  0.00    -0.176 N 
ATOM     30  H8  UNL     1       4.164  -1.425   2.921  1.00  0.00     0.185 HD
BRANCH  25  31
HETATM   31  N4  UNL     1       6.274  -1.549  -1.585  1.00  0.00    -0.232 N 
ATOM     32  H42 UNL     1       6.184  -0.728  -2.184  1.00  0.00     0.174 HD
ATOM     33  H41 UNL     1       6.786  -2.368  -1.911  1.00  0.00     0.174 HD
ENDBRANCH  25  31
BRANCH  27  34
HETATM   34  N6  UNL     1       6.540  -3.695  -0.078  1.00  0.00    -0.309 N 
ATOM     35  H62 UNL     1       6.978  -3.736  -0.998  1.00  0.00     0.178 HD
ATOM     36  H61 UNL     1       6.630  -4.516   0.521  1.00  0.00     0.178 HD
ENDBRANCH  27  34
BRANCH  28  37
HETATM   37  N7  UNL     1       5.371  -3.557   2.345  1.00  0.00    -0.232 N 
ATOM     38  H72 UNL     1       5.881  -4.383   2.030  1.00  0.00     0.174 HD
ATOM     39  H71 UNL     1       4.933  -3.516   3.265  1.00  0.00     0.174 HD
ENDBRANCH  28  37
ENDBRANCH  22  23
ENDBRANCH  21  22
ENDBRANCH  19  21
ENDBRANCH  18  19
BRANCH   1  40
HETATM   40  O4  UNL     1       0.188   3.001  -0.637  1.00  0.00    -0.199 OA
BRANCH  40  41
HETATM   41  S1  UNL     1      -0.395   4.543  -0.492  1.00  0.00     0.405 S 
HETATM   42  O2  UNL     1      -0.625   4.861   0.962  1.00  0.00    -0.169 OA
HETATM   43  O3  UNL     1       0.663   5.497  -1.008  1.00  0.00    -0.169 OA
BRANCH  41  44
HETATM   44  O1  UNL     1      -1.825   4.731  -1.371  1.00  0.00    -0.254 OA
BRANCH  44  45
HETATM   45  C3  UNL     1      -2.411   5.933  -1.019  1.00  0.00     0.192 C 
BRANCH  45  46
HETATM   46  C2  UNL     1      -3.704   6.113  -1.805  1.00  0.00     0.023 C 
HETATM   47  C1  UNL     1      -4.304   7.431  -1.388  1.00  0.00     0.007 C 
ENDBRANCH  45  46
ENDBRANCH  44  45
ENDBRANCH  41  44
ENDBRANCH  40  41
ENDBRANCH   1  40
BRANCH  16  48
HETATM   48  O9  UNL     1       0.824  -1.734  -1.154  1.00  0.00    -0.365 OA
HETATM   49  C18 UNL     1       1.547  -2.344  -2.132  1.00  0.00     0.204 C 
ENDBRANCH  16  48
BRANCH  10  50
HETATM   50  C9  UNL     1      -0.924  -2.781   1.038  1.00  0.00     0.126 C 
HETATM   51  C10 UNL     1      -0.776  -4.127   0.435  1.00  0.00     0.040 C 
BRANCH  50  52
HETATM   52  O6  UNL     1       0.287  -2.361   1.565  1.00  0.00    -0.395 OA
ATOM     53  H6  UNL     1       0.822  -3.005   2.013  1.00  0.00     0.210 HD
ENDBRANCH  50  52
ENDBRANCH  10  50
BRANCH  11  54
HETATM   54  C12 UNL     1      -4.213  -1.360   0.407  1.00  0.00     0.181 C 
HETATM   55  O7  UNL     1      -4.870  -0.952  -0.591  1.00  0.00    -0.647 OA
HETATM   56  O8  UNL     1      -4.523  -0.805   1.635  1.00  0.00    -0.647 OA
ENDBRANCH  11  54
TORSDOF 16
