REMARK  10 active torsions:
REMARK  status: ('A' for Active; 'I' for Inactive)
REMARK    1  A    between atoms: C2_2  and  C3_3 
REMARK    2  A    between atoms: C3_3  and  C4_4 
REMARK    3  A    between atoms: C4_4  and  N1_5 
REMARK       I    between atoms: N1_5  and  C5_6 
REMARK    4  A    between atoms: N1_5  and  C14_17 
REMARK    5  A    between atoms: C5_6  and  C6_8 
REMARK    6  A    between atoms: C6_8  and  C7_9 
REMARK    7  A    between atoms: C7_9  and  N2_10 
REMARK    8  A    between atoms: N4_20  and  C16_21 
REMARK    9  A    between atoms: C16_21  and  C17_22 
REMARK   10  A    between atoms: C17_22  and  C18_23 
ROOT
HETATM    1  N1  UNL     1       0.252   1.758   0.869  1.00  0.00    -0.310 N 
HETATM    2  C5  UNL     1      -1.146   1.609   0.558  1.00  0.00     0.226 C 
HETATM    3  O1  UNL     1      -1.854   2.636   0.428  1.00  0.00    -0.273 OA
ENDROOT
BRANCH   1   4
HETATM    4  C4  UNL     1       0.795   3.065   1.091  1.00  0.00     0.132 C 
BRANCH   4   5
HETATM    5  C3  UNL     1       1.322   3.774  -0.104  1.00  0.00     0.020 C 
BRANCH   5   6
HETATM    6  C2  UNL     1       1.832   5.138   0.344  1.00  0.00    -0.003 C 
HETATM    7  C1  UNL     1       2.925   4.990   1.365  1.00  0.00     0.005 C 
ENDBRANCH   5   6
ENDBRANCH   4   5
ENDBRANCH   1   4
BRANCH   1   8
HETATM    8  C14 UNL     1       1.067   0.604   0.979  1.00  0.00     0.147 A 
HETATM    9  C15 UNL     1       1.677  -0.025  -0.072  1.00  0.00     0.155 A 
HETATM   10  N3  UNL     1       1.533   0.460  -1.389  1.00  0.00    -0.080 NA
HETATM   11  N4  UNL     1       2.450  -1.150   0.113  1.00  0.00    -0.285 N 
HETATM   12  C20 UNL     1       2.602  -1.629   1.344  1.00  0.00     0.330 A 
HETATM   13  O2  UNL     1       3.281  -2.656   1.641  1.00  0.00    -0.246 OA
HETATM   14  N5  UNL     1       1.995  -1.002   2.390  1.00  0.00    -0.273 N 
HETATM   15  C21 UNL     1       1.235   0.092   2.266  1.00  0.00     0.279 A 
ATOM     16  H5  UNL     1       2.128  -1.390   3.324  1.00  0.00     0.173 HD
HETATM   17  O3  UNL     1       0.696   0.636   3.261  1.00  0.00    -0.265 OA
BRANCH  11  18
HETATM   18  C16 UNL     1       3.030  -1.787  -1.038  1.00  0.00     0.135 C 
BRANCH  18  19
HETATM   19  C17 UNL     1       4.295  -1.236  -1.554  1.00  0.00     0.020 C 
BRANCH  19  20
HETATM   20  C18 UNL     1       5.519  -1.255  -0.743  1.00  0.00    -0.003 C 
HETATM   21  C19 UNL     1       6.081  -2.594  -0.385  1.00  0.00     0.005 C 
ENDBRANCH  19  20
ENDBRANCH  18  19
ENDBRANCH  11  18
ENDBRANCH   1   8
BRANCH   2  22
HETATM   22  C6  UNL     1      -1.766   0.243   0.389  1.00  0.00     0.131 C 
BRANCH  22  23
HETATM   23  C7  UNL     1      -3.222   0.413   0.125  1.00  0.00     0.246 C 
BRANCH  23  24
HETATM   24  N2  UNL     1      -3.996  -0.752  -0.086  1.00  0.00    -0.070 N 
HETATM   25  C8  UNL     1      -5.342  -0.466   0.455  1.00  0.00     0.272 C 
HETATM   26  C9  UNL     1      -4.220  -0.913  -1.521  1.00  0.00     0.237 C 
HETATM   27  C10 UNL     1      -5.358  -1.856  -1.724  1.00  0.00     0.028 C 
HETATM   28  C11 UNL     1      -5.044  -3.180  -1.101  1.00  0.00     0.003 C 
HETATM   29  C12 UNL     1      -3.737  -3.162  -0.381  1.00  0.00     0.028 C 
HETATM   30  C13 UNL     1      -3.572  -1.961   0.535  1.00  0.00     0.237 C 
ENDBRANCH  23  24
ENDBRANCH  22  23
ENDBRANCH   2  22
TORSDOF 10
