REMARK  17 active torsions:
REMARK  status: ('A' for Active; 'I' for Inactive)
REMARK    1  A    between atoms: S1_2  and  C2_3 
REMARK    2  A    between atoms: C2_3  and  C3_4 
REMARK    3  A    between atoms: C3_4  and  O1_8 
REMARK    4  A    between atoms: O1_8  and  C4_9 
REMARK    5  A    between atoms: C9_14  and  O2_15 
REMARK    6  A    between atoms: O2_15  and  C10_16 
REMARK    7  A    between atoms: C11_17  and  N2_18 
REMARK    8  A    between atoms: C13_23  and  N3_24 
REMARK    9  A    between atoms: C14_28  and  O3_29 
REMARK   10  A    between atoms: O3_29  and  C15_30 
REMARK   11  A    between atoms: C16_31  and  O4_32 
REMARK   12  A    between atoms: C17_34  and  O5_35 
REMARK   13  A    between atoms: C18_37  and  O6_38 
REMARK   14  A    between atoms: C19_40  and  C20_41 
REMARK   15  A    between atoms: C20_41  and  O7_42 
REMARK   16  A    between atoms: C21_44  and  O8_45 
REMARK   17  A    between atoms: C22_47  and  O9_48 
ROOT
HETATM    1  C10 UNL     1       0.866   1.995  -0.014  1.00  0.00     0.183 C 
HETATM    2  C11 UNL     1       0.653   3.401  -0.630  1.00  0.00     0.217 C 
HETATM    3  C12 UNL     1      -0.753   3.661  -1.015  1.00  0.00     0.071 C 
HETATM    4  C13 UNL     1      -1.755   2.696  -0.399  1.00  0.00     0.217 C 
HETATM    5  C14 UNL     1      -1.414   1.260  -0.816  1.00  0.00     0.183 C 
HETATM    6  C22 UNL     1       0.092   1.098  -0.932  1.00  0.00     0.180 C 
ENDROOT
BRANCH   5   7
HETATM    7  O3  UNL     1      -1.918   0.304  -0.011  1.00  0.00    -0.371 OA
BRANCH   7   8
HETATM    8  C15 UNL     1      -2.819  -0.601  -0.505  1.00  0.00     0.182 C 
HETATM    9  C16 UNL     1      -2.457  -2.029  -0.385  1.00  0.00     0.180 C 
HETATM   10  C17 UNL     1      -3.491  -2.926  -1.028  1.00  0.00     0.178 C 
HETATM   11  C18 UNL     1      -4.879  -2.408  -1.018  1.00  0.00     0.158 C 
HETATM   12  C19 UNL     1      -5.165  -1.397   0.034  1.00  0.00     0.072 C 
HETATM   13  C21 UNL     1      -4.114  -0.379   0.253  1.00  0.00     0.158 C 
BRANCH   9  14
HETATM   14  O4  UNL     1      -2.193  -2.402   0.950  1.00  0.00    -0.390 OA
ATOM     15  H4  UNL     1      -1.960  -3.320   1.027  1.00  0.00     0.210 HD
ENDBRANCH   9  14
BRANCH  10  16
HETATM   16  O5  UNL     1      -3.442  -4.220  -0.454  1.00  0.00    -0.390 OA
ATOM     17  H5  UNL     1      -4.092  -4.783  -0.858  1.00  0.00     0.210 HD
ENDBRANCH  10  16
BRANCH  11  18
HETATM   18  O6  UNL     1      -5.281  -1.902  -2.267  1.00  0.00    -0.392 OA
ATOM     19  H6  UNL     1      -6.171  -1.570  -2.261  1.00  0.00     0.210 HD
ENDBRANCH  11  18
BRANCH  12  20
HETATM   20  C20 UNL     1      -5.637  -2.068   1.329  1.00  0.00     0.174 C 
BRANCH  20  21
HETATM   21  O7  UNL     1      -5.902  -1.137   2.311  1.00  0.00    -0.400 OA
ATOM     22  H7  UNL     1      -6.195  -1.553   3.114  1.00  0.00     0.209 HD
ENDBRANCH  20  21
ENDBRANCH  12  20
BRANCH  13  23
HETATM   23  O8  UNL     1      -4.569   0.909  -0.121  1.00  0.00    -0.392 OA
ATOM     24  H8  UNL     1      -5.380   1.048   0.354  1.00  0.00     0.210 HD
ENDBRANCH  13  23
ENDBRANCH   7   8
ENDBRANCH   5   7
BRANCH   4  25
HETATM   25  N3  UNL     1      -1.872   2.863   1.019  1.00  0.00    -0.072 N 
ATOM     26  H33 UNL     1      -0.962   2.789   1.474  1.00  0.00     0.274 HD
ATOM     27  H32 UNL     1      -2.096   3.829   1.258  1.00  0.00     0.274 HD
ATOM     28  H31 UNL     1      -2.544   2.216   1.432  1.00  0.00     0.274 HD
ENDBRANCH   4  25
BRANCH   6  29
HETATM   29  O9  UNL     1       0.397  -0.232  -0.860  1.00  0.00    -0.390 OA
ATOM     30  H9  UNL     1      -0.094  -0.801  -1.442  1.00  0.00     0.210 HD
ENDBRANCH   6  29
BRANCH   1  31
HETATM   31  O2  UNL     1       2.208   1.782  -0.077  1.00  0.00    -0.373 OA
BRANCH  31  32
HETATM   32  C9  UNL     1       2.940   1.707   1.052  1.00  0.00     0.151 C 
HETATM   33  C4  UNL     1       3.650   0.358   1.122  1.00  0.00     0.159 C 
HETATM   34  C5  UNL     1       4.524   0.152  -0.094  1.00  0.00     0.035 C 
HETATM   35  C6  UNL     1       5.639   1.204  -0.075  1.00  0.00     0.003 C 
HETATM   36  C7  UNL     1       4.973   2.559  -0.122  1.00  0.00     0.003 C 
HETATM   37  C8  UNL     1       4.095   2.707   1.105  1.00  0.00     0.034 C 
BRANCH  33  38
HETATM   38  O1  UNL     1       2.841  -0.725   1.354  1.00  0.00    -0.331 OA
BRANCH  38  39
HETATM   39  C3  UNL     1       3.359  -1.981   1.597  1.00  0.00     0.121 C 
HETATM   40  N1  UNL     1       4.482  -2.089   2.198  1.00  0.00    -0.383 N 
ATOM     41  H12 UNL     1       4.865  -3.017   2.378  1.00  0.00     0.158 HD
ATOM     42  H11 UNL     1       4.971  -1.241   2.485  1.00  0.00     0.158 HD
BRANCH  39  43
HETATM   43  C2  UNL     1       2.646  -3.217   1.179  1.00  0.00     0.157 C 
BRANCH  43  44
HETATM   44  S1  UNL     1       2.426  -3.299  -0.597  1.00  0.00    -0.166 SA
HETATM   45  C1  UNL     1       3.981  -3.469  -1.496  1.00  0.00     0.090 C 
ENDBRANCH  43  44
ENDBRANCH  39  43
ENDBRANCH  38  39
ENDBRANCH  33  38
ENDBRANCH  31  32
ENDBRANCH   1  31
BRANCH   2  46
HETATM   46  N2  UNL     1       1.111   4.450   0.215  1.00  0.00    -0.072 N 
ATOM     47  H23 UNL     1       0.683   4.388   1.139  1.00  0.00     0.274 HD
ATOM     48  H22 UNL     1       2.087   4.309   0.475  1.00  0.00     0.274 HD
ATOM     49  H21 UNL     1       0.971   5.375  -0.190  1.00  0.00     0.274 HD
ENDBRANCH   2  46
TORSDOF 17
