REMARK  13 active torsions:
REMARK  status: ('A' for Active; 'I' for Inactive)
REMARK       I    between atoms: C2_2  and  N1_4 
REMARK       I    between atoms: N1_4  and  C3_6 
REMARK       I    between atoms: C3_6  and  N2_8 
REMARK    1  A    between atoms: C5_13  and  C6_14 
REMARK    2  A    between atoms: C6_14  and  N4_15 
REMARK    3  A    between atoms: C6_14  and  C16_34 
REMARK    4  A    between atoms: N4_15  and  C7_17 
REMARK    5  A    between atoms: C7_17  and  O3_18 
REMARK    6  A    between atoms: C7_17  and  C8_20 
REMARK    7  A    between atoms: C8_20  and  O4_21 
REMARK    8  A    between atoms: O4_21  and  C9_22 
REMARK    9  A    between atoms: C9_22  and  C10_24 
REMARK   10  A    between atoms: C13_27  and  O6_28 
REMARK   11  A    between atoms: C14_30  and  O7_31 
REMARK   12  A    between atoms: C16_34  and  C17_36 
REMARK   13  A    between atoms: C17_36  and  C18_40 
ROOT
HETATM    1  C18 UNL     1       2.202   4.316  -2.421  1.00  0.00     0.280 C 
HETATM    2  O9  UNL     1       2.170   4.119  -3.657  1.00  0.00    -0.274 OA
HETATM    3  C19 UNL     1       2.902   5.433  -1.874  1.00  0.00     0.145 C 
HETATM    4  N6  UNL     1       3.471   6.361  -1.442  1.00  0.00    -0.188 NA
ENDROOT
BRANCH   1   5
HETATM    5  C17 UNL     1       1.521   3.401  -1.542  1.00  0.00     0.136 C 
HETATM    6  N5  UNL     1       1.548   3.595  -0.260  1.00  0.00    -0.392 N 
ATOM      7  H52 UNL     1       1.066   2.947   0.363  1.00  0.00     0.156 HD
ATOM      8  H51 UNL     1       2.045   4.390   0.141  1.00  0.00     0.156 HD
BRANCH   5   9
HETATM    9  C16 UNL     1       0.802   2.250  -2.122  1.00  0.00     0.208 C 
HETATM   10  O8  UNL     1       0.808   2.132  -3.388  1.00  0.00    -0.288 OA
BRANCH   9  11
HETATM   11  C6  UNL     1       0.084   1.248  -1.330  1.00  0.00     0.207 C 
BRANCH  11  12
HETATM   12  C5  UNL     1       1.015   0.292  -0.663  1.00  0.00     0.062 A 
HETATM   13  N3  UNL     1       2.344   0.362  -0.718  1.00  0.00    -0.192 N 
HETATM   14  C4  UNL     1       3.148  -0.534  -0.071  1.00  0.00     0.689 A 
ATOM     15  H3  UNL     1       2.776   1.109  -1.261  1.00  0.00     0.184 HD
HETATM   16  N2  UNL     1       4.424  -0.377  -0.185  1.00  0.00    -0.141 N 
HETATM   17  N7  UNL     1       2.569  -1.494   0.626  1.00  0.00    -0.156 N 
HETATM   18  C3  UNL     1       5.365  -1.233   0.433  1.00  0.00     0.341 C 
ATOM     19  H2  UNL     1       4.770   0.401  -0.747  1.00  0.00     0.189 HD
HETATM   20  N1  UNL     1       6.107  -0.777   1.543  1.00  0.00    -0.279 N 
HETATM   21  O2  UNL     1       5.547  -2.390   0.006  1.00  0.00    -0.246 OA
HETATM   22  C2  UNL     1       7.071  -1.569   2.219  1.00  0.00     0.221 C 
ATOM     23  H1  UNL     1       5.942   0.172   1.877  1.00  0.00     0.173 HD
HETATM   24  C1  UNL     1       7.401  -2.964   1.826  1.00  0.00     0.117 C 
HETATM   25  O1  UNL     1       7.692  -1.081   3.210  1.00  0.00    -0.274 OA
HETATM   26  C21 UNL     1       1.238  -1.662   0.751  1.00  0.00     0.261 A 
ATOM     27  H7  UNL     1       3.175  -2.159   1.106  1.00  0.00     0.187 HD
HETATM   28  C20 UNL     1       0.446  -0.746   0.090  1.00  0.00     0.103 A 
HETATM   29  O10 UNL     1       0.741  -2.593   1.426  1.00  0.00    -0.268 OA
ENDBRANCH  11  12
BRANCH  11  30
HETATM   30  N4  UNL     1      -0.775   0.437  -2.145  1.00  0.00    -0.379 N 
ATOM     31  H4  UNL     1      -0.608  -0.563  -2.256  1.00  0.00     0.157 HD
BRANCH  30  32
HETATM   32  C7  UNL     1      -1.857   1.072  -2.787  1.00  0.00     0.238 C 
BRANCH  32  33
HETATM   33  O3  UNL     1      -2.508   0.072  -3.555  1.00  0.00    -0.375 OA
ATOM     34  H3  UNL     1      -3.237   0.500  -3.988  1.00  0.00     0.212 HD
ENDBRANCH  32  33
BRANCH  32  35
HETATM   35  C8  UNL     1      -2.874   1.674  -1.838  1.00  0.00     0.232 C 
BRANCH  35  36
HETATM   36  O4  UNL     1      -3.459   0.707  -1.009  1.00  0.00    -0.313 OA
BRANCH  36  37
HETATM   37  C9  UNL     1      -4.402   0.923  -0.051  1.00  0.00     0.293 C 
HETATM   38  O5  UNL     1      -4.809   2.083   0.139  1.00  0.00    -0.259 OA
BRANCH  37  39
HETATM   39  C10 UNL     1      -4.894  -0.231   0.713  1.00  0.00     0.042 A 
HETATM   40  C11 UNL     1      -4.426  -1.506   0.474  1.00  0.00     0.020 A 
HETATM   41  C12 UNL     1      -4.877  -2.605   1.178  1.00  0.00     0.040 A 
HETATM   42  C13 UNL     1      -5.831  -2.466   2.167  1.00  0.00     0.098 A 
HETATM   43  C14 UNL     1      -6.299  -1.191   2.407  1.00  0.00     0.099 A 
HETATM   44  C15 UNL     1      -5.846  -0.088   1.699  1.00  0.00     0.057 A 
BRANCH  42  45
HETATM   45  O6  UNL     1      -6.295  -3.565   2.885  1.00  0.00    -0.358 OA
ATOM     46  H6  UNL     1      -6.951  -3.469   3.565  1.00  0.00     0.217 HD
ENDBRANCH  42  45
BRANCH  43  47
HETATM   47  O7  UNL     1      -7.253  -1.015   3.388  1.00  0.00    -0.358 OA
ATOM     48  H7  UNL     1      -7.575  -0.137   3.553  1.00  0.00     0.217 HD
ENDBRANCH  43  47
ENDBRANCH  37  39
ENDBRANCH  36  37
ENDBRANCH  35  36
ENDBRANCH  32  35
ENDBRANCH  30  32
ENDBRANCH  11  30
ENDBRANCH   9  11
ENDBRANCH   5   9
ENDBRANCH   1   5
TORSDOF 13
