REMARK  10 active torsions:
REMARK  status: ('A' for Active; 'I' for Inactive)
REMARK    1  A    between atoms: C2_4  and  N3_5 
REMARK    2  A    between atoms: N3_5  and  C3_7 
REMARK    3  A    between atoms: N4_8  and  N5_10 
REMARK    4  A    between atoms: N5_10  and  C4_12 
REMARK    5  A    between atoms: C4_12  and  N6_15 
REMARK    6  A    between atoms: C8_20  and  N9_21 
REMARK    7  A    between atoms: C9_26  and  N11_27 
REMARK    8  A    between atoms: C10_30  and  N12_31 
REMARK    9  A    between atoms: C11_36  and  N15_37 
REMARK   10  A    between atoms: C12_42  and  O1_43 
ROOT
HETATM    1  N6  UNL     1       0.282  -0.804  -0.675  1.00  0.00    -0.228 N 
HETATM    2  N7  UNL     1       1.200  -0.406  -1.538  1.00  0.00    -0.016 NA
HETATM    3  N8  UNL     1       0.618   0.117  -2.603  1.00  0.00    -0.277 N 
ATOM      4  H8  UNL     1       1.108   0.497  -3.413  1.00  0.00     0.184 HD
HETATM    5  C7  UNL     1      -0.700   0.072  -2.458  1.00  0.00     0.135 A 
HETATM    6  C8  UNL     1      -1.658   0.517  -3.344  1.00  0.00     0.132 C 
HETATM    7  N10 UNL     1      -2.979   0.274  -3.321  1.00  0.00    -0.324 N 
ATOM      8  H10 UNL     1      -3.487   0.450  -4.188  1.00  0.00     0.169 HD
HETATM    9  C9  UNL     1      -3.719  -0.182  -2.268  1.00  0.00     0.147 C 
HETATM   10  C10 UNL     1      -3.324  -0.475  -0.979  1.00  0.00     0.176 C 
HETATM   11  N17 UNL     1      -2.058  -0.797  -0.598  1.00  0.00    -0.321 N 
ATOM     12  H17 UNL     1      -1.979  -1.318   0.275  1.00  0.00     0.169 HD
HETATM   13  C13 UNL     1      -0.915  -0.524  -1.209  1.00  0.00     0.157 A 
ENDROOT
BRANCH   1  14
HETATM   14  C4  UNL     1       0.603  -1.419   0.588  1.00  0.00     0.132 C 
HETATM   15  C5  UNL     1       0.581  -2.925   0.508  1.00  0.00     0.066 C 
HETATM   16  C6  UNL     1      -0.368  -1.013   1.671  1.00  0.00     0.066 C 
BRANCH  14  17
HETATM   17  N5  UNL     1       1.917  -1.000   1.022  1.00  0.00    -0.306 N 
ATOM     18  H5  UNL     1       2.623  -1.712   1.210  1.00  0.00     0.183 HD
BRANCH  17  19
HETATM   19  N4  UNL     1       2.255   0.347   1.194  1.00  0.00    -0.298 N 
HETATM   20  C3  UNL     1       3.406   0.825   0.862  1.00  0.00     0.195 C 
ATOM     21  H4  UNL     1       1.562   0.977   1.599  1.00  0.00     0.187 HD
BRANCH  20  22
HETATM   22  N3  UNL     1       4.412   0.017   0.298  1.00  0.00    -0.353 N 
ATOM     23  H3  UNL     1       4.267  -0.991   0.239  1.00  0.00     0.163 HD
BRANCH  22  24
HETATM   24  C2  UNL     1       5.643   0.583  -0.198  1.00  0.00     0.285 A 
HETATM   25  N1  UNL     1       6.487   1.313   0.734  1.00  0.00    -0.197 NA
HETATM   26  C1  UNL     1       7.106   2.519   0.233  1.00  0.00     0.136 C 
HETATM   27  N2  UNL     1       6.893   0.089   0.176  1.00  0.00    -0.120 NA
ENDBRANCH  22  24
ENDBRANCH  20  22
ENDBRANCH  17  19
ENDBRANCH  14  17
ENDBRANCH   1  14
BRANCH   6  28
HETATM   28  N9  UNL     1      -1.214   1.250  -4.298  1.00  0.00    -0.383 N 
ATOM     29  H92 UNL     1      -0.211   1.435  -4.315  1.00  0.00     0.157 HD
ATOM     30  H91 UNL     1      -1.923   1.579  -4.953  1.00  0.00     0.157 HD
ENDBRANCH   6  28
BRANCH  10  31
HETATM   31  N12 UNL     1      -4.308  -0.441   0.034  1.00  0.00    -0.196 N 
HETATM   32  N13 UNL     1      -4.833  -1.501   0.610  1.00  0.00    -0.230 N 
HETATM   33  N14 UNL     1      -5.735  -1.129   1.527  1.00  0.00    -0.266 N 
ATOM     34  H13 UNL     1      -4.588  -2.466   0.390  1.00  0.00     0.209 HD
HETATM   35  C11 UNL     1      -5.805   0.214   1.554  1.00  0.00     0.189 A 
ATOM     36  H14 UNL     1      -6.281  -1.762   2.111  1.00  0.00     0.190 HD
HETATM   37  C12 UNL     1      -4.881   0.635   0.589  1.00  0.00     0.212 A 
BRANCH  35  38
HETATM   38  N15 UNL     1      -6.607   1.074   2.353  1.00  0.00    -0.287 N 
HETATM   39  N16 UNL     1      -6.955   0.778   3.539  1.00  0.00    -0.343 N 
ATOM     40 2H16 UNL     1      -6.638  -0.115   3.917  1.00  0.00     0.176 HD
ATOM     41 1H16 UNL     1      -7.530   1.395   4.112  1.00  0.00     0.176 HD
ATOM     42  H15 UNL     1      -6.915   1.963   1.959  1.00  0.00     0.188 HD
ENDBRANCH  35  38
BRANCH  37  43
HETATM   43  O1  UNL     1      -4.622   1.960   0.278  1.00  0.00    -0.342 OA
ATOM     44  H1  UNL     1      -5.028   2.723   0.672  1.00  0.00     0.219 HD
ENDBRANCH  37  43
ENDBRANCH  10  31
BRANCH   9  45
HETATM   45  N11 UNL     1      -4.966  -0.367  -2.501  1.00  0.00    -0.382 N 
ATOM     46 2H11 UNL     1      -5.258  -0.150  -3.454  1.00  0.00     0.157 HD
ATOM     47 1H11 UNL     1      -5.519  -0.708  -1.714  1.00  0.00     0.157 HD
ENDBRANCH   9  45
TORSDOF 10
