REMARK  3 active torsions:
REMARK  status: ('A' for Active; 'I' for Inactive)
REMARK    1  A    between atoms: C4_4  and  O1_5 
REMARK    2  A    between atoms: C5_7  and  O2_8 
REMARK    3  A    between atoms: C6_10  and  O3_11 
ROOT
HETATM    1  C1  UNL     1       2.381  -2.050  -1.767  1.00  0.00     0.014 C 
HETATM    2  C2  UNL     1       2.045  -1.200  -0.810  1.00  0.00    -0.086 C 
HETATM    3  C3  UNL     1       2.909   0.013  -0.799  1.00  0.00     0.067 C 
HETATM    4  C4  UNL     1       2.521   0.819   0.421  1.00  0.00     0.153 C 
HETATM    5  C5  UNL     1       1.198   1.446   0.149  1.00  0.00     0.182 C 
HETATM    6  C6  UNL     1       0.064   0.659   0.756  1.00  0.00     0.098 C 
HETATM    7  C7  UNL     1      -1.162   1.540   0.670  1.00  0.00     0.023 C 
HETATM    8  C8  UNL     1      -1.411   1.905  -0.748  1.00  0.00     0.008 C 
HETATM    9  C9  UNL     1      -1.432   0.789  -1.717  1.00  0.00     0.001 C 
HETATM   10  C10 UNL     1      -0.617  -0.397  -1.397  1.00  0.00     0.013 C 
HETATM   11  C11 UNL     1      -0.251  -0.611   0.017  1.00  0.00     0.001 C 
HETATM   12  C12 UNL     1       0.914  -1.602   0.042  1.00  0.00     0.046 C 
HETATM   13  C13 UNL     1      -1.335  -1.285   0.852  1.00  0.00    -0.007 C 
HETATM   14  C14 UNL     1      -1.593  -2.693   0.450  1.00  0.00     0.011 C 
HETATM   15  C15 UNL     1      -2.595  -0.502   0.943  1.00  0.00     0.005 C 
HETATM   16  C16 UNL     1      -2.385   0.949   1.265  1.00  0.00     0.008 C 
ENDROOT
BRANCH   4  17
HETATM   17  O1  UNL     1       3.510   1.722   0.781  1.00  0.00    -0.393 OA
ATOM     18  H1  UNL     1       3.266   2.228   1.547  1.00  0.00     0.210 HD
ENDBRANCH   4  17
BRANCH   5  19
HETATM   19  O2  UNL     1       1.185   2.712   0.745  1.00  0.00    -0.390 OA
ATOM     20  H2  UNL     1       0.341   3.112   0.571  1.00  0.00     0.210 HD
ENDBRANCH   5  19
BRANCH   6  21
HETATM   21  O3  UNL     1       0.320   0.399   2.084  1.00  0.00    -0.386 OA
ATOM     22  H3  UNL     1      -0.394  -0.097   2.466  1.00  0.00     0.210 HD
ENDBRANCH   6  21
TORSDOF 3
