REMARK  1 active torsions:
REMARK  status: ('A' for Active; 'I' for Inactive)
REMARK    1  A    between atoms: C2_2  and  N1_4 
ROOT
HETATM    1  N1  UNL     1      -0.358  -0.196  -0.445  1.00  0.00     0.042 N 
HETATM    2  O1  UNL     1      -0.613  -0.651  -1.704  1.00  0.00    -0.059 OA
HETATM    3  C4  UNL     1      -0.763   1.177  -0.222  1.00  0.00     0.321 C 
HETATM    4  C5  UNL     1      -2.053   0.679   0.405  1.00  0.00     0.074 C 
HETATM    5  C6  UNL     1      -1.335  -0.670   0.522  1.00  0.00     0.321 C 
ENDROOT
BRANCH   1   6
HETATM    6  C2  UNL     1       0.994  -0.447  -0.120  1.00  0.00     0.162 C 
HETATM    7  C1  UNL     1       1.294  -1.459   0.654  1.00  0.00     0.055 C 
HETATM    8  C3  UNL     1       2.048   0.429  -0.655  1.00  0.00     0.085 C 
ENDBRANCH   1   6
TORSDOF 1
