REMARK  1 active torsions:
REMARK  status: ('A' for Active; 'I' for Inactive)
REMARK    1  A    between atoms: N1_2  and  C3_4 
ROOT
HETATM    1  C1  UNL     1       1.000  -0.843  -0.430  1.00  0.00     0.151 C 
HETATM    2  N1  UNL     1       0.217   0.230   0.104  1.00  0.00    -0.369 N 
HETATM    3  C2  UNL     1       0.902   1.391   0.637  1.00  0.00     0.151 C 
ENDROOT
BRANCH   2   4
HETATM    4  C3  UNL     1      -1.194   0.144   0.103  1.00  0.00     0.182 C 
HETATM    5  N2  UNL     1      -1.794  -1.014  -0.431  1.00  0.00    -0.070 NA
HETATM    6  S1  UNL     1      -2.044   1.391   0.721  1.00  0.00    -0.044 SA
ENDBRANCH   2   4
TORSDOF 1
