REMARK  1 active torsions:
REMARK  status: ('A' for Active; 'I' for Inactive)
REMARK    1  A    between atoms: C2_2  and  N1_4 
ROOT
HETATM    1  N1  UNL     1      -0.394  -0.108   0.159  1.00  0.00    -0.067 N 
HETATM    2  C4  UNL     1      -0.993  -0.013   1.500  1.00  0.00     0.272 C 
HETATM    3  C5  UNL     1      -0.442   1.177  -0.551  1.00  0.00     0.239 C 
HETATM    4  C6  UNL     1      -1.871   0.818  -0.932  1.00  0.00     0.056 C 
HETATM    5  C7  UNL     1      -1.340  -0.612  -0.752  1.00  0.00     0.239 C 
ENDROOT
BRANCH   1   6
HETATM    6  C2  UNL     1       0.903  -0.652   0.243  1.00  0.00     0.182 C 
HETATM    7  C1  UNL     1       1.786   0.365   0.983  1.00  0.00     0.040 C 
HETATM    8  C3  UNL     1       1.583  -0.997  -1.019  1.00  0.00     0.040 C 
ENDBRANCH   1   6
TORSDOF 1
