REMARK  5 active torsions:
REMARK  status: ('A' for Active; 'I' for Inactive)
REMARK    1  A    between atoms: N1_4  and  C4_5 
REMARK    2  A    between atoms: C4_5  and  C5_6 
REMARK    3  A    between atoms: C5_6  and  C6_7 
REMARK    4  A    between atoms: C8_9  and  C9_10 
REMARK    5  A    between atoms: C14_17  and  O1_18 
ROOT
HETATM    1  C6  UNL     1       1.976  -0.950  -0.231  1.00  0.00    -0.021 A 
HETATM    2  C7  UNL     1       2.995  -0.198   0.391  1.00  0.00     0.019 A 
HETATM    3  C8  UNL     1       4.245  -0.064  -0.152  1.00  0.00    -0.033 A 
HETATM    4  C12 UNL     1       4.475  -0.711  -1.379  1.00  0.00     0.035 A 
HETATM    5  C13 UNL     1       3.494  -1.437  -1.980  1.00  0.00     0.068 A 
HETATM    6 CL2  UNL     1       3.777  -2.245  -3.508  1.00  0.00    -0.081 Cl
HETATM    7  C14 UNL     1       2.232  -1.569  -1.415  1.00  0.00     0.093 A 
ENDROOT
BRANCH   1   8
HETATM    8  C5  UNL     1       0.692  -1.064   0.469  1.00  0.00     0.072 C 
BRANCH   8   9
HETATM    9  C4  UNL     1      -0.434  -0.525  -0.332  1.00  0.00     0.277 C 
BRANCH   9  10
HETATM   10  N1  UNL     1      -1.697  -0.511   0.360  1.00  0.00     0.094 N 
HETATM   11  C3  UNL     1      -1.687   0.614   1.258  1.00  0.00     0.277 C 
HETATM   12  C2  UNL     1      -2.551   1.685   0.620  1.00  0.00     0.011 C 
HETATM   13  C1  UNL     1      -2.323   3.058   1.103  1.00  0.00     0.011 C 
HETATM   14  C20 UNL     1      -3.966   1.167   0.770  1.00  0.00     0.016 C 
HETATM   15  C17 UNL     1      -4.082  -0.077  -0.066  1.00  0.00    -0.017 C 
HETATM   16  C15 UNL     1      -2.770  -0.640  -0.516  1.00  0.00     0.226 C 
HETATM   17  C18 UNL     1      -4.954  -1.102   0.645  1.00  0.00     0.017 C 
HETATM   18  C19 UNL     1      -4.839   0.308  -1.327  1.00  0.00     0.017 C 
HETATM   19  C16 UNL     1      -3.023  -2.162  -0.687  1.00  0.00     0.043 C 
ENDBRANCH   9  10
ENDBRANCH   8   9
ENDBRANCH   1   8
BRANCH   7  20
HETATM   20  O1  UNL     1       1.256  -2.321  -2.055  1.00  0.00    -0.358 OA
ATOM     21  H1  UNL     1       1.435  -2.753  -2.882  1.00  0.00     0.217 HD
ENDBRANCH   7  20
BRANCH   3  22
HETATM   22  C9  UNL     1       5.339   0.641   0.515  1.00  0.00     0.057 C 
HETATM   23  C10 UNL     1       6.587  -0.217   0.456  1.00  0.00     0.037 C 
HETATM   24  C11 UNL     1       5.570   1.998  -0.031  1.00  0.00     0.037 C 
HETATM   25 CL1  UNL     1       4.882   0.837   2.258  1.00  0.00    -0.115 Cl
ENDBRANCH   3  22
TORSDOF 5
