REMARK  5 active torsions:
REMARK  status: ('A' for Active; 'I' for Inactive)
REMARK    1  A    between atoms: C2_2  and  C3_3 
REMARK    2  A    between atoms: C3_3  and  N1_4 
REMARK    3  A    between atoms: C5_6  and  N2_7 
REMARK    4  A    between atoms: N2_7  and  N3_9 
REMARK    5  A    between atoms: N3_9  and  N4_10 
ROOT
HETATM    1  N1  UNL     1       0.027   0.306  -0.003  1.00  0.00     0.096 N 
HETATM    2  C4  UNL     1       1.113   1.070  -0.553  1.00  0.00     0.302 C 
HETATM    3  C5  UNL     1       1.830  -0.232  -0.836  1.00  0.00     0.171 C 
HETATM    4  C6  UNL     1       0.403  -0.798  -0.853  1.00  0.00     0.302 C 
ENDROOT
BRANCH   3   5
HETATM    5  N2  UNL     1       2.533  -0.750   0.292  1.00  0.00    -0.244 N 
ATOM      6  H2  UNL     1       2.317  -1.693   0.617  1.00  0.00     0.197 HD
BRANCH   5   7
HETATM    7  N3  UNL     1       3.380  -0.107   0.879  1.00  0.00    -0.248 NA
BRANCH   7   8
HETATM    8  N4  UNL     1       4.215   0.381   1.619  1.00  0.00    -0.261 N 
ATOM      9  H42 UNL     1       4.072  -0.398   2.261  1.00  0.00     0.193 HD
ATOM     10  H41 UNL     1       4.926   0.921   2.112  1.00  0.00     0.193 HD
ENDBRANCH   7   8
ENDBRANCH   5   7
ENDBRANCH   3   5
BRANCH   1  11
HETATM   11  C3  UNL     1      -1.293   0.825  -0.196  1.00  0.00     0.299 C 
BRANCH  11  12
HETATM   12  C2  UNL     1      -2.240  -0.147   0.465  1.00  0.00    -0.007 C 
HETATM   13  C1  UNL     1      -3.025   0.257   1.448  1.00  0.00     0.008 C 
ENDBRANCH  11  12
ENDBRANCH   1  11
TORSDOF 5
