REMARK  6 active torsions:
REMARK  status: ('A' for Active; 'I' for Inactive)
REMARK       I    between atoms: C1_4  and  N3_6 
REMARK    1  A    between atoms: N3_6  and  N4_8 
REMARK    2  A    between atoms: C2_10  and  C3_11 
REMARK    3  A    between atoms: C5_15  and  C6_16 
REMARK    4  A    between atoms: C6_16  and  C7_17 
REMARK    5  A    between atoms: C7_17  and  N6_18 
REMARK    6  A    between atoms: C7_17  and  C8_22 
ROOT
HETATM    1  C3  UNL     1      -0.990   0.241   0.535  1.00  0.00     0.164 A 
HETATM    2  N5  UNL     1      -0.429  -0.869   0.075  1.00  0.00    -0.343 N 
ATOM      3  H5  UNL     1      -0.903  -1.583  -0.479  1.00  0.00     0.167 HD
HETATM    4  C4  UNL     1       0.858  -0.907   0.451  1.00  0.00     0.123 A 
HETATM    5  C5  UNL     1       1.074   0.242   1.175  1.00  0.00     0.073 A 
HETATM    6  O2  UNL     1      -0.049   0.900   1.203  1.00  0.00    -0.295 OA
ENDROOT
BRANCH   1   7
HETATM    7  C2  UNL     1      -2.350   0.737   0.396  1.00  0.00     0.163 C 
HETATM    8  N4  UNL     1      -3.273   0.175  -0.223  1.00  0.00    -0.305 N 
ATOM      9  H4  UNL     1      -4.166   0.668  -0.216  1.00  0.00     0.186 HD
BRANCH   8  10
HETATM   10  N3  UNL     1      -3.263  -0.986  -0.899  1.00  0.00    -0.274 N 
HETATM   11  C1  UNL     1      -4.499  -1.698  -1.105  1.00  0.00     0.200 C 
HETATM   12  N1  UNL     1      -5.110  -2.324  -0.171  1.00  0.00    -0.372 N 
HETATM   13  N2  UNL     1      -5.006  -1.662  -2.435  1.00  0.00    -0.062 NA
ATOM     14  H12 UNL     1      -5.985  -2.828  -0.317  1.00  0.00     0.158 HD
ATOM     15  H11 UNL     1      -4.747  -2.350   0.782  1.00  0.00     0.158 HD
ATOM     16  H3  UNL     1      -2.387  -1.361  -1.264  1.00  0.00     0.189 HD
ENDBRANCH   8  10
ENDBRANCH   1   7
BRANCH   5  17
HETATM   17  C6  UNL     1       2.376   0.663   1.818  1.00  0.00     0.108 C 
BRANCH  17  18
HETATM   18  C7  UNL     1       3.183   1.504   0.854  1.00  0.00     0.277 C 
BRANCH  18  19
HETATM   19  N6  UNL     1       2.361   2.657   0.540  1.00  0.00    -0.067 N 
ATOM     20  H63 UNL     1       1.435   2.412   0.189  1.00  0.00     0.275 HD
ATOM     21  H62 UNL     1       2.049   3.170   1.364  1.00  0.00     0.275 HD
ATOM     22  H61 UNL     1       2.905   3.224  -0.110  1.00  0.00     0.275 HD
ENDBRANCH  18  19
BRANCH  18  23
HETATM   23  C8  UNL     1       3.451   0.753  -0.395  1.00  0.00     0.262 C 
HETATM   24  N7  UNL     1       4.280  -0.410  -0.392  1.00  0.00    -0.060 NA
HETATM   25  O1  UNL     1       2.958   1.122  -1.481  1.00  0.00    -0.275 OA
ENDBRANCH  18  23
ENDBRANCH  17  18
ENDBRANCH   5  17
TORSDOF 6
