REMARK  1 active torsions:
REMARK  status: ('A' for Active; 'I' for Inactive)
REMARK       I    between atoms: C2_2  and  N1_4 
REMARK    1  A    between atoms: N1_4  and  N2_6 
ROOT
HETATM    1  N2  UNL     1       0.802  -0.795  -0.187  1.00  0.00    -0.284 N 
HETATM    2  C3  UNL     1       0.611  -1.638   0.950  1.00  0.00     0.282 C 
HETATM    3  N3  UNL     1      -0.266  -0.871   1.844  1.00  0.00    -0.122 NA
HETATM    4  N4  UNL     1      -1.455  -0.546   1.268  1.00  0.00    -0.306 N 
ATOM      5  H4  UNL     1      -2.332  -0.646   1.780  1.00  0.00     0.178 HD
HETATM    6  C4  UNL     1      -1.438  -0.064  -0.064  1.00  0.00     0.178 C 
HETATM    7  C5  UNL     1      -2.830  -0.312  -0.638  1.00  0.00     0.189 C 
HETATM    8  N5  UNL     1      -3.565   0.783  -0.043  1.00  0.00    -0.126 NA
HETATM    9  N6  UNL     1      -2.667   1.745   0.367  1.00  0.00    -0.037 NA
HETATM   10  N7  UNL     1      -1.410   1.402  -0.120  1.00  0.00    -0.090 NA
HETATM   11  C6  UNL     1      -0.343  -0.608  -0.954  1.00  0.00     0.137 C 
ENDROOT
BRANCH   1  12
HETATM   12  N1  UNL     1       2.052  -0.669  -0.662  1.00  0.00    -0.268 N 
HETATM   13  C2  UNL     1       2.755   0.564  -0.448  1.00  0.00     0.232 C 
HETATM   14  C1  UNL     1       4.144   0.791  -0.926  1.00  0.00     0.119 C 
HETATM   15  O1  UNL     1       2.213   1.533   0.172  1.00  0.00    -0.272 OA
ATOM     16  H1  UNL     1       2.495  -1.437  -1.167  1.00  0.00     0.190 HD
ENDBRANCH   1  12
TORSDOF 1
