REMARK  3 active torsions:
REMARK  status: ('A' for Active; 'I' for Inactive)
REMARK    1  A    between atoms: C3_3  and  N1_5 
REMARK    2  A    between atoms: C3_3  and  C5_9 
REMARK       I    between atoms: C5_9  and  N2_11 
REMARK       I    between atoms: N2_11  and  C6_13 
REMARK       I    between atoms: C6_13  and  N3_15 
REMARK    3  A    between atoms: N3_15  and  N4_17 
ROOT
HETATM    1  C1  UNL     1      -2.422  -2.341  -0.566  1.00  0.00     0.015 C 
HETATM    2  C2  UNL     1      -2.056  -1.277  -0.142  1.00  0.00    -0.069 C 
HETATM    3  C3  UNL     1      -1.612   0.035   0.392  1.00  0.00     0.261 C 
HETATM    4  C4  UNL     1      -2.169   1.167  -0.400  1.00  0.00     0.071 C 
ENDROOT
BRANCH   3   5
HETATM    5  N1  UNL     1      -2.116   0.103   1.747  1.00  0.00    -0.051 N 
ATOM      6  H13 UNL     1      -3.123  -0.045   1.815  1.00  0.00     0.276 HD
ATOM      7  H12 UNL     1      -1.836  -0.689   2.326  1.00  0.00     0.276 HD
ATOM      8  H11 UNL     1      -1.811   1.004   2.114  1.00  0.00     0.276 HD
ENDBRANCH   3   5
BRANCH   3   9
HETATM    9  C5  UNL     1      -0.121   0.024   0.429  1.00  0.00     0.274 C 
HETATM   10  O1  UNL     1       0.423   0.073   1.548  1.00  0.00    -0.269 OA
HETATM   11  N2  UNL     1       0.663  -0.037  -0.735  1.00  0.00    -0.275 N 
HETATM   12  C6  UNL     1       2.066  -0.054  -0.842  1.00  0.00     0.341 C 
ATOM     13  H2  UNL     1       0.149  -0.074  -1.616  1.00  0.00     0.173 HD
HETATM   14  O2  UNL     1       2.618  -0.114  -2.008  1.00  0.00    -0.245 OA
HETATM   15  N3  UNL     1       2.995  -0.011   0.227  1.00  0.00    -0.258 N 
ATOM     16  H3  UNL     1       2.656   0.038   1.188  1.00  0.00     0.191 HD
BRANCH  15  17
HETATM   17  N4  UNL     1       4.392  -0.035  -0.025  1.00  0.00    -0.341 N 
ATOM     18  H42 UNL     1       4.714  -0.084  -0.992  1.00  0.00     0.177 HD
ATOM     19  H41 UNL     1       5.061  -0.004   0.745  1.00  0.00     0.177 HD
ENDBRANCH  15  17
ENDBRANCH   3   9
TORSDOF 3
