REMARK  3 active torsions:
REMARK  status: ('A' for Active; 'I' for Inactive)
REMARK    1  A    between atoms: C2_5  and  C3_6 
REMARK    2  A    between atoms: C4_11  and  C5_12 
REMARK       I    between atoms: C5_12  and  N5_14 
REMARK    3  A    between atoms: N5_14  and  C6_16 
ROOT
HETATM    1  C1  UNL     1      -2.219   2.839   0.567  1.00  0.00     0.181 C 
HETATM    2  N1  UNL     1      -1.747   1.487   0.264  1.00  0.00    -0.261 N 
HETATM    3  N2  UNL     1      -2.384   0.350   0.417  1.00  0.00    -0.292 N 
ATOM      4  H2  UNL     1      -3.332   0.263   0.784  1.00  0.00     0.187 HD
HETATM    5  C2  UNL     1      -1.605  -0.707   0.018  1.00  0.00     0.110 A 
HETATM    6  C4  UNL     1      -0.430  -0.177  -0.399  1.00  0.00     0.133 A 
HETATM    7  C7  UNL     1      -0.541   1.231  -0.234  1.00  0.00     0.279 A 
HETATM    8  O2  UNL     1       0.356   2.051  -0.516  1.00  0.00    -0.265 OA
ENDROOT
BRANCH   6   9
HETATM    9  C5  UNL     1       0.732  -0.845  -0.915  1.00  0.00     0.278 C 
HETATM   10  O1  UNL     1       0.883  -2.043  -1.078  1.00  0.00    -0.266 OA
HETATM   11  N5  UNL     1       1.857  -0.040  -1.289  1.00  0.00    -0.152 N 
ATOM     12  H5  UNL     1       1.874   0.387  -2.215  1.00  0.00     0.187 HD
BRANCH  11  13
HETATM   13  C6  UNL     1       2.847   0.160  -0.491  1.00  0.00     0.716 A 
HETATM   14  N6  UNL     1       2.946  -0.350   0.760  1.00  0.00    -0.115 N 
HETATM   15  N7  UNL     1       4.087   0.054   1.293  1.00  0.00    -0.213 N 
ATOM     16  H6  UNL     1       2.255  -0.947   1.215  1.00  0.00     0.207 HD
HETATM   17  N8  UNL     1       4.691   0.802   0.396  1.00  0.00    -0.213 N 
ATOM     18  H7  UNL     1       4.434  -0.172   2.225  1.00  0.00     0.210 HD
HETATM   19  N9  UNL     1       3.954   0.887  -0.716  1.00  0.00    -0.115 N 
ATOM     20  H8  UNL     1       5.595   1.254   0.530  1.00  0.00     0.210 HD
ATOM     21  H9  UNL     1       4.186   1.401  -1.566  1.00  0.00     0.207 HD
ENDBRANCH  11  13
ENDBRANCH   6   9
BRANCH   5  22
HETATM   22  C3  UNL     1      -2.093  -2.081   0.092  1.00  0.00     0.139 C 
HETATM   23  N3  UNL     1      -3.315  -2.271   0.558  1.00  0.00    -0.386 N 
ATOM     24  H32 UNL     1      -3.798  -1.412   0.822  1.00  0.00     0.157 HD
ATOM     25  H31 UNL     1      -3.656  -3.231   0.610  1.00  0.00     0.157 HD
HETATM   26  N4  UNL     1      -1.436  -3.248  -0.267  1.00  0.00    -0.081 NA
ENDBRANCH   5  22
TORSDOF 3
