REMARK  5 active torsions:
REMARK  status: ('A' for Active; 'I' for Inactive)
REMARK    1  A    between atoms: C2_2  and  C3_3 
REMARK    2  A    between atoms: N1_14  and  O3_15 
REMARK    3  A    between atoms: C16_21  and  C17_22 
REMARK    4  A    between atoms: C16_21  and  S1_24 
REMARK    5  A    between atoms: S1_24  and  C18_27 
ROOT
HETATM    1  C3  UNL     1      -2.075   0.937  -0.381  1.00  0.00     0.019 C 
HETATM    2  C4  UNL     1      -3.101   0.858   0.808  1.00  0.00     0.026 C 
HETATM    3  C5  UNL     1      -2.896   1.667  -1.385  1.00  0.00    -0.010 C 
HETATM    4  C6  UNL     1      -3.125   1.360  -2.621  1.00  0.00     0.011 C 
HETATM    5  C7  UNL     1      -2.503   0.137  -3.101  1.00  0.00     0.002 C 
HETATM    6  C8  UNL     1      -2.703  -0.233  -4.379  1.00  0.00     0.027 C 
HETATM    7  C9  UNL     1      -1.684  -0.673  -2.229  1.00  0.00     0.182 C 
HETATM    8  O1  UNL     1      -1.097  -1.628  -2.800  1.00  0.00    -0.291 OA
HETATM    9  C10 UNL     1      -1.576  -0.375  -0.789  1.00  0.00     0.149 C 
HETATM   10  C11 UNL     1      -2.606  -1.348  -0.208  1.00  0.00     0.266 C 
HETATM   11  O2  UNL     1      -3.720  -1.674  -0.717  1.00  0.00    -0.269 OA
HETATM   12  N1  UNL     1      -2.097  -1.807   0.973  1.00  0.00    -0.213 N 
HETATM   13  C12 UNL     1      -0.656  -1.840   0.854  1.00  0.00     0.082 C 
HETATM   14  C13 UNL     1      -0.137  -1.593   2.239  1.00  0.00     0.046 C 
HETATM   15  C14 UNL     1      -0.358  -3.277   0.416  1.00  0.00     0.046 C 
HETATM   16  C15 UNL     1      -0.307  -0.864  -0.184  1.00  0.00    -0.004 C 
HETATM   17  C16 UNL     1       0.970  -0.581  -0.529  1.00  0.00     0.058 C 
ENDROOT
BRANCH  17  18
HETATM   18  C17 UNL     1       1.253   0.359  -1.701  1.00  0.00     0.136 C 
HETATM   19 BR1  UNL     1       2.358  -0.504  -3.060  1.00  0.00    -0.091 Br
ENDBRANCH  17  18
BRANCH  17  20
HETATM   20  S1  UNL     1       2.458  -1.153   0.113  1.00  0.00     0.204 S 
HETATM   21  O4  UNL     1       2.474  -2.368   0.932  1.00  0.00    -0.217 OA
HETATM   22  O5  UNL     1       3.474  -1.477  -1.008  1.00  0.00    -0.217 OA
BRANCH  20  23
HETATM   23  C18 UNL     1       3.295   0.096   1.049  1.00  0.00     0.064 A 
HETATM   24  C19 UNL     1       3.259   0.232   2.390  1.00  0.00     0.024 A 
HETATM   25  C20 UNL     1       3.943   1.225   3.048  1.00  0.00     0.002 A 
HETATM   26  C21 UNL     1       4.712   2.148   2.382  1.00  0.00     0.000 A 
HETATM   27  C22 UNL     1       4.758   2.021   1.014  1.00  0.00     0.002 A 
HETATM   28  C23 UNL     1       4.076   1.030   0.352  1.00  0.00     0.024 A 
ENDBRANCH  20  23
ENDBRANCH  17  20
BRANCH   1  29
HETATM   29  C2  UNL     1      -1.041   1.944   0.022  1.00  0.00    -0.022 C 
HETATM   30  C1  UNL     1      -0.620   2.081   1.234  1.00  0.00     0.008 C 
ENDBRANCH   1  29
BRANCH  12  31
HETATM   31  O3  UNL     1      -2.764  -2.216   2.117  1.00  0.00    -0.284 OA
ATOM     32  H3  UNL     1      -2.410  -2.535   2.939  1.00  0.00     0.245 HD
ENDBRANCH  12  31
TORSDOF 5
