REMARK  12 active torsions:
REMARK  status: ('A' for Active; 'I' for Inactive)
REMARK    1  A    between atoms: C1_2  and  C2_4 
REMARK    2  A    between atoms: C4_6  and  C8_13 
REMARK    3  A    between atoms: C9_14  and  C10_15 
REMARK       I    between atoms: C10_15  and  N3_17 
REMARK    4  A    between atoms: N3_17  and  C11_19 
REMARK    5  A    between atoms: C11_19  and  C12_20 
REMARK    6  A    between atoms: C13_21  and  C14_22 
REMARK    7  A    between atoms: C14_22  and  N4_23 
REMARK    8  A    between atoms: N5_26  and  C17_27 
REMARK    9  A    between atoms: C17_27  and  C18_28 
REMARK   10  A    between atoms: C18_28  and  C19_29 
REMARK   11  A    between atoms: C19_29  and  N6_30 
REMARK   12  A    between atoms: N6_30  and  C20_32 
ROOT
HETATM    1  C10 UNL     1      -3.602  -0.586  -1.310  1.00  0.00     0.228 C 
HETATM    2  O2  UNL     1      -3.597  -1.394  -2.275  1.00  0.00    -0.273 OA
HETATM    3  N3  UNL     1      -2.414  -0.367  -0.596  1.00  0.00    -0.350 N 
ATOM      4  H3  UNL     1      -2.418   0.288   0.186  1.00  0.00     0.163 HD
ENDROOT
BRANCH   3   5
HETATM    5  C11 UNL     1      -1.187  -1.043  -0.938  1.00  0.00     0.217 C 
BRANCH   5   6
HETATM    6  C12 UNL     1      -0.087  -0.651  -0.053  1.00  0.00    -0.085 C 
HETATM    7  C13 UNL     1       0.819  -0.309   0.666  1.00  0.00    -0.075 C 
BRANCH   7   8
HETATM    8  C14 UNL     1       1.941   0.131   1.532  1.00  0.00     0.365 C 
BRANCH   8   9
HETATM    9  N4  UNL     1       3.148   0.276   0.741  1.00  0.00     0.102 N 
HETATM   10  C15 UNL     1       3.657  -0.965   0.256  1.00  0.00     0.303 C 
HETATM   11  C16 UNL     1       4.980  -0.662  -0.465  1.00  0.00     0.302 C 
HETATM   12  N5  UNL     1       5.972  -0.308   0.516  1.00  0.00     0.091 N 
HETATM   13  C21 UNL     1       5.338   0.170   1.700  1.00  0.00     0.302 C 
HETATM   14  C22 UNL     1       4.161   1.068   1.361  1.00  0.00     0.303 C 
BRANCH  12  15
HETATM   15  C17 UNL     1       6.880  -1.399   0.708  1.00  0.00     0.274 C 
BRANCH  15  16
HETATM   16  C18 UNL     1       7.758  -1.618  -0.495  1.00  0.00     0.050 C 
BRANCH  16  17
HETATM   17  C19 UNL     1       8.553  -0.353  -0.729  1.00  0.00     0.123 C 
BRANCH  17  18
HETATM   18  N6  UNL     1       9.393   0.014   0.374  1.00  0.00    -0.368 N 
ATOM     19  H6  UNL     1       9.416  -0.562   1.216  1.00  0.00     0.161 HD
BRANCH  18  20
HETATM   20  C20 UNL     1      10.186   1.176   0.286  1.00  0.00     0.348 C 
HETATM   21  O3  UNL     1      10.181   1.913  -0.747  1.00  0.00    -0.284 OA
ENDBRANCH  18  20
ENDBRANCH  17  18
ENDBRANCH  16  17
ENDBRANCH  15  16
ENDBRANCH  12  15
ENDBRANCH   8   9
ENDBRANCH   7   8
ENDBRANCH   5   6
ENDBRANCH   3   5
BRANCH   1  22
HETATM   22  C9  UNL     1      -4.871   0.098  -0.975  1.00  0.00     0.054 A 
HETATM   23  C7  UNL     1      -4.874   1.545  -1.040  1.00  0.00     0.040 A 
HETATM   24  C6  UNL     1      -5.950   2.277  -0.303  1.00  0.00     0.193 C 
HETATM   25  C8  UNL     1      -5.613   0.678  -2.092  1.00  0.00     0.015 A 
HETATM   26  C5  UNL     1      -7.014   2.427  -1.401  1.00  0.00     0.038 C 
HETATM   27  N2  UNL     1      -6.548   1.549   0.767  1.00  0.00    -0.053 N 
HETATM   28  C4  UNL     1      -7.048   0.980  -1.910  1.00  0.00    -0.004 C 
HETATM   29  C3  UNL     1      -7.757   0.175  -0.876  1.00  0.00     0.053 C 
HETATM   30  C2  UNL     1      -6.928   0.222   0.391  1.00  0.00     0.205 C 
HETATM   31  C23 UNL     1      -5.662  -0.554   0.101  1.00  0.00     0.068 C 
ATOM     32  H22 UNL     1      -7.340   2.059   1.158  1.00  0.00     0.279 HD
ATOM     33  H21 UNL     1      -5.939   1.537   1.585  1.00  0.00     0.279 HD
BRANCH  30  34
HETATM   34  C1  UNL     1      -7.625  -0.458   1.497  1.00  0.00     0.267 C 
HETATM   35  N1  UNL     1      -8.112  -1.789   1.411  1.00  0.00    -0.060 NA
HETATM   36  O1  UNL     1      -7.817   0.142   2.597  1.00  0.00    -0.274 OA
ENDBRANCH  30  34
ENDBRANCH   1  22
TORSDOF 12
