REMARK  9 active torsions:
REMARK  status: ('A' for Active; 'I' for Inactive)
REMARK    1  A    between atoms: C2_2  and  C3_3 
REMARK    2  A    between atoms: C3_3  and  C4_4 
REMARK    3  A    between atoms: C4_4  and  N1_5 
REMARK       I    between atoms: N1_5  and  C5_7 
REMARK    4  A    between atoms: C5_7  and  C6_9 
REMARK    5  A    between atoms: C10_14  and  C11_15 
REMARK    6  A    between atoms: C13_20  and  N3_21 
REMARK       I    between atoms: N3_21  and  C14_23 
REMARK       I    between atoms: C14_23  and  N4_25 
REMARK    7  A    between atoms: N4_25  and  C15_27 
REMARK    8  A    between atoms: C15_27  and  C16_28 
REMARK    9  A    between atoms: C16_28  and  N5_29 
ROOT
HETATM    1  N5  UNL     1      -5.903  -1.576  -3.155  1.00  0.00    -0.323 N 
HETATM    2  C17 UNL     1      -7.037  -0.701  -2.947  1.00  0.00     0.162 C 
HETATM    3  C18 UNL     1      -6.077  -2.687  -3.985  1.00  0.00     0.179 C 
HETATM    4  N6  UNL     1      -6.235  -3.596  -4.681  1.00  0.00    -0.172 NA
ENDROOT
BRANCH   1   5
HETATM    5  C16 UNL     1      -4.612  -1.339  -2.538  1.00  0.00     0.153 C 
BRANCH   5   6
HETATM    6  C15 UNL     1      -3.952  -0.098  -3.114  1.00  0.00     0.145 C 
BRANCH   6   7
HETATM    7  N4  UNL     1      -2.669   0.188  -2.541  1.00  0.00    -0.342 N 
HETATM    8  C14 UNL     1      -2.429   0.456  -1.172  1.00  0.00     0.317 C 
HETATM    9  N3  UNL     1      -1.128   0.733  -0.667  1.00  0.00    -0.315 N 
HETATM   10  O3  UNL     1      -3.381   0.457  -0.354  1.00  0.00    -0.247 OA
ATOM     11  H3  UNL     1      -0.343   0.735  -1.318  1.00  0.00     0.166 HD
ATOM     12  H4  UNL     1      -1.866   0.199  -3.170  1.00  0.00     0.164 HD
BRANCH   9  13
HETATM   13  C13 UNL     1      -0.869   1.013   0.737  1.00  0.00     0.293 C 
HETATM   14  N2  UNL     1      -0.086   0.008   1.361  1.00  0.00    -0.042 N 
HETATM   15  C10 UNL     1       0.366   0.342   2.641  1.00  0.00     0.160 C 
ATOM     16  H22 UNL     1       0.698  -0.255   0.764  1.00  0.00     0.280 HD
ATOM     17  H21 UNL     1      -0.593  -0.877   1.382  1.00  0.00     0.280 HD
HETATM   18  C9  UNL     1       1.880   0.374   2.791  1.00  0.00     0.172 C 
HETATM   19  C22 UNL     1      -0.101   1.605   3.266  1.00  0.00     0.059 C 
HETATM   20  C6  UNL     1       2.575   1.445   2.004  1.00  0.00     0.116 C 
HETATM   21  O2  UNL     1       1.924   1.025   4.059  1.00  0.00    -0.376 OA
HETATM   22  C7  UNL     1       1.764   2.630   2.353  1.00  0.00     0.035 C 
HETATM   23  C8  UNL     1       1.222   2.188   3.714  1.00  0.00     0.134 C 
HETATM   24  C20 UNL     1       0.674   3.059   1.490  1.00  0.00     0.006 A 
HETATM   25  C19 UNL     1      -0.450   2.428   0.929  1.00  0.00     0.046 A 
HETATM   26  C21 UNL     1      -0.569   2.690   2.367  1.00  0.00     0.008 A 
BRANCH  15  27
HETATM   27  C11 UNL     1      -0.064  -0.775   3.617  1.00  0.00     0.037 C 
HETATM   28  C12 UNL     1      -1.550  -0.952   3.605  1.00  0.00     0.007 C 
ENDBRANCH  15  27
BRANCH  20  29
HETATM   29  C5  UNL     1       2.890   1.191   0.630  1.00  0.00     0.224 C 
HETATM   30  N1  UNL     1       3.658   0.067   0.258  1.00  0.00    -0.361 N 
ATOM     31  H1  UNL     1       4.002  -0.581   0.967  1.00  0.00     0.162 HD
HETATM   32  O1  UNL     1       2.492   1.957  -0.276  1.00  0.00    -0.273 OA
BRANCH  30  33
HETATM   33  C4  UNL     1       3.951  -0.154  -1.138  1.00  0.00     0.122 C 
BRANCH  33  34
HETATM   34  C3  UNL     1       4.790  -1.409  -1.340  1.00  0.00     0.019 C 
BRANCH  34  35
HETATM   35  C2  UNL     1       5.028  -1.541  -2.825  1.00  0.00    -0.003 C 
HETATM   36  C1  UNL     1       5.860  -2.757  -3.169  1.00  0.00     0.005 C 
ENDBRANCH  34  35
ENDBRANCH  33  34
ENDBRANCH  30  33
ENDBRANCH  20  29
ENDBRANCH   9  13
ENDBRANCH   6   7
ENDBRANCH   5   6
ENDBRANCH   1   5
TORSDOF 9
