REMARK  3 active torsions:
REMARK  status: ('A' for Active; 'I' for Inactive)
REMARK    1  A    between atoms: N1_2  and  C4_5 
REMARK    2  A    between atoms: C4_5  and  C5_6 
REMARK    3  A    between atoms: C6_7  and  N2_8 
ROOT
HETATM    1  C5  UNL     1       1.251   0.757  -0.076  1.00  0.00    -0.054 C 
HETATM    2  C6  UNL     1       2.419   0.452  -0.071  1.00  0.00     0.027 C 
ENDROOT
BRANCH   1   3
HETATM    3  C4  UNL     1      -0.157   1.147  -0.092  1.00  0.00     0.331 C 
BRANCH   3   4
HETATM    4  N1  UNL     1      -1.049   0.046   0.098  1.00  0.00    -0.069 N 
HETATM    5  C1  UNL     1      -2.083   0.484   1.046  1.00  0.00     0.272 C 
HETATM    6  C2  UNL     1      -1.726  -0.230  -1.144  1.00  0.00     0.272 C 
HETATM    7  C3  UNL     1      -0.371  -1.138   0.578  1.00  0.00     0.272 C 
ENDBRANCH   3   4
ENDBRANCH   1   3
BRANCH   2   8
HETATM    8  N2  UNL     1       3.778   0.122  -0.064  1.00  0.00    -0.265 N 
HETATM    9  N3  UNL     1       4.111  -1.007  -0.529  1.00  0.00    -0.338 N 
ATOM     10  H32 UNL     1       3.401  -1.642  -0.892  1.00  0.00     0.177 HD
ATOM     11  H31 UNL     1       5.102  -1.248  -0.524  1.00  0.00     0.177 HD
ATOM     12  H2  UNL     1       4.476   0.769   0.303  1.00  0.00     0.197 HD
ENDBRANCH   2   8
TORSDOF 3
