REMARK  11 active torsions:
REMARK  status: ('A' for Active; 'I' for Inactive)
REMARK    1  A    between atoms: C2_3  and  O1_4 
REMARK    2  A    between atoms: C2_3  and  C3_6 
REMARK    3  A    between atoms: C4_8  and  C5_9 
REMARK    4  A    between atoms: C5_9  and  C6_10 
REMARK    5  A    between atoms: C5_9  and  C13_20 
REMARK    6  A    between atoms: C6_10  and  C7_11 
REMARK    7  A    between atoms: N2_14  and  C10_15 
REMARK    8  A    between atoms: C10_15  and  O3_17 
REMARK       I    between atoms: C13_20  and  N3_22 
REMARK    9  A    between atoms: N3_22  and  C14_24 
REMARK   10  A    between atoms: C14_24  and  C15_25 
REMARK   11  A    between atoms: C15_25  and  N4_26 
REMARK       I    between atoms: N4_26  and  C16_28 
REMARK       I    between atoms: C16_28  and  N6_32 
ROOT
HETATM    1  C1  UNL     1      -4.572   3.604  -2.109  1.00  0.00     0.231 C 
HETATM    2  N1  UNL     1      -3.938   3.901  -1.155  1.00  0.00    -0.406 NA
HETATM    3  C2  UNL     1      -3.229   4.232  -0.090  1.00  0.00     0.220 C 
ENDROOT
BRANCH   3   4
HETATM    4  O1  UNL     1      -2.830   5.501  -0.060  1.00  0.00    -0.337 OA
ATOM      5  H1  UNL     1      -2.320   5.739   0.706  1.00  0.00     0.220 HD
ENDBRANCH   3   4
BRANCH   3   6
HETATM    6  C3  UNL     1      -2.806   3.470   1.064  1.00  0.00     0.240 A 
HETATM    7  O2  UNL     1      -3.755   2.550   1.519  1.00  0.00    -0.365 OA
HETATM    8  C4  UNL     1      -2.439   2.119   1.285  1.00  0.00     0.173 A 
BRANCH   8   9
HETATM    9  C5  UNL     1      -2.073   0.992   0.438  1.00  0.00     0.112 C 
BRANCH   9  10
HETATM   10  C6  UNL     1      -3.025   0.434  -0.577  1.00  0.00     0.050 C 
BRANCH  10  11
HETATM   11  C7  UNL     1      -4.292  -0.083  -0.021  1.00  0.00     0.201 C 
HETATM   12  C8  UNL     1      -5.317  -0.656  -0.940  1.00  0.00     0.069 C 
HETATM   13  C9  UNL     1      -4.485  -1.866  -0.900  1.00  0.00     0.249 C 
HETATM   14  C12 UNL     1      -5.841  -1.216   0.353  1.00  0.00     0.249 C 
HETATM   15  N2  UNL     1      -4.381  -1.428   0.443  1.00  0.00    -0.036 N 
BRANCH  15  16
HETATM   16  C10 UNL     1      -3.784  -2.004   1.460  1.00  0.00     0.319 C 
HETATM   17  C11 UNL     1      -4.692  -3.024   2.165  1.00  0.00     0.071 C 
BRANCH  16  18
HETATM   18  O3  UNL     1      -2.636  -2.745   1.086  1.00  0.00    -0.370 OA
ATOM     19  H3  UNL     1      -2.204  -3.162   1.822  1.00  0.00     0.212 HD
ENDBRANCH  16  18
ENDBRANCH  15  16
ENDBRANCH  10  11
ENDBRANCH   9  10
BRANCH   9  20
HETATM   20  C13 UNL     1      -0.725   1.202  -0.232  1.00  0.00     0.224 C 
HETATM   21  O4  UNL     1      -0.693   1.279  -1.469  1.00  0.00    -0.273 OA
HETATM   22  N3  UNL     1       0.476   1.310   0.505  1.00  0.00    -0.359 N 
ATOM     23  H3  UNL     1       0.411   1.242   1.521  1.00  0.00     0.162 HD
BRANCH  22  24
HETATM   24  C14 UNL     1       1.769   1.506  -0.056  1.00  0.00     0.143 C 
BRANCH  24  25
HETATM   25  C15 UNL     1       2.201   0.410  -0.990  1.00  0.00     0.157 C 
BRANCH  25  26
HETATM   26  N4  UNL     1       3.517   0.646  -1.531  1.00  0.00    -0.225 N 
HETATM   27  C16 UNL     1       4.694   0.596  -0.749  1.00  0.00     0.669 C 
HETATM   28  N5  UNL     1       5.229   1.715  -0.385  1.00  0.00    -0.235 N 
HETATM   29  N6  UNL     1       5.303  -0.625  -0.354  1.00  0.00    -0.218 N 
ATOM     30  H52 UNL     1       4.792   2.592  -0.669  1.00  0.00     0.174 HD
ATOM     31  H51 UNL     1       6.078   1.679   0.179  1.00  0.00     0.174 HD
HETATM   32  C17 UNL     1       5.562  -1.691  -1.292  1.00  0.00     0.141 C 
HETATM   33  C21 UNL     1       5.676  -0.817   1.031  1.00  0.00     0.141 C 
HETATM   34  C18 UNL     1       7.047  -1.890  -1.398  1.00  0.00     0.020 C 
HETATM   35  C19 UNL     1       7.761  -1.331  -0.190  1.00  0.00     0.003 C 
HETATM   36  C20 UNL     1       6.987  -1.568   1.094  1.00  0.00     0.020 C 
ATOM     37  H4  UNL     1       3.603   0.859  -2.525  1.00  0.00     0.177 HD
ENDBRANCH  25  26
ENDBRANCH  24  25
ENDBRANCH  22  24
ENDBRANCH   9  20
ENDBRANCH   8   9
ENDBRANCH   3   6
TORSDOF 11
