REMARK  12 active torsions:
REMARK  status: ('A' for Active; 'I' for Inactive)
REMARK    1  A    between atoms: C3_3  and  C4_4 
REMARK    2  A    between atoms: C4_4  and  N1_5 
REMARK    3  A    between atoms: N1_5  and  C5_6 
REMARK    4  A    between atoms: C5_6  and  C6_7 
REMARK    5  A    between atoms: C6_7  and  N2_8 
REMARK       I    between atoms: N2_8  and  C7_10 
REMARK    6  A    between atoms: C7_10  and  C8_12 
REMARK    7  A    between atoms: C12_16  and  C14_18 
REMARK       I    between atoms: C14_18  and  N3_20 
REMARK    8  A    between atoms: N3_20  and  C15_22 
REMARK    9  A    between atoms: C15_22  and  C16_23 
REMARK   10  A    between atoms: C16_23  and  N4_24 
REMARK   11  A    between atoms: C20_29  and  N5_30 
REMARK   12  A    between atoms: C22_35  and  O4_36 
ROOT
HETATM    1  C1  UNL     1     -10.019  -0.706  -1.972  1.00  0.00     0.112 C 
HETATM    2  C2  UNL     1      -8.822  -0.646  -1.153  1.00  0.00    -0.109 C 
HETATM    3  C3  UNL     1      -7.826  -0.609  -0.481  1.00  0.00    -0.079 C 
ENDROOT
BRANCH   3   4
HETATM    4  C4  UNL     1      -6.653  -0.569   0.341  1.00  0.00     0.336 C 
BRANCH   4   5
HETATM    5  N1  UNL     1      -5.525   0.054  -0.295  1.00  0.00    -0.001 N 
HETATM    6  C20 UNL     1      -5.829   1.422  -0.701  1.00  0.00     0.393 C 
HETATM    7  C21 UNL     1      -5.772   1.086  -2.155  1.00  0.00     0.124 C 
HETATM    8  C22 UNL     1      -5.283  -0.260  -1.661  1.00  0.00     0.330 C 
BRANCH   5   9
HETATM    9  C5  UNL     1      -4.419   0.060   0.620  1.00  0.00     0.263 C 
BRANCH   9  10
HETATM   10  C6  UNL     1      -3.073  -0.075  -0.014  1.00  0.00     0.151 C 
BRANCH  10  11
HETATM   11  N2  UNL     1      -2.035  -0.056   0.994  1.00  0.00    -0.357 N 
HETATM   12  C7  UNL     1      -0.655  -0.167   0.690  1.00  0.00     0.246 C 
HETATM   13  O1  UNL     1      -0.354  -0.286  -0.535  1.00  0.00    -0.271 OA
ATOM     14  H2  UNL     1      -2.310   0.042   1.971  1.00  0.00     0.162 HD
BRANCH  12  15
HETATM   15  C8  UNL     1       0.405  -0.147   1.718  1.00  0.00     0.215 C 
HETATM   16  C9  UNL     1       0.325   1.053   2.628  1.00  0.00     0.042 C 
HETATM   17  C10 UNL     1       1.578   1.867   2.641  1.00  0.00     0.006 C 
HETATM   18  C11 UNL     1       2.840   1.077   2.609  1.00  0.00     0.048 C 
HETATM   19  C12 UNL     1       2.690  -0.278   2.005  1.00  0.00     0.138 C 
HETATM   20  C13 UNL     1       2.584  -1.372   3.037  1.00  0.00     0.056 C 
HETATM   21  O3  UNL     1       1.643  -0.274   1.111  1.00  0.00    -0.356 OA
BRANCH  19  22
HETATM   22  C14 UNL     1       3.942  -0.551   1.213  1.00  0.00     0.252 C 
HETATM   23  O2  UNL     1       4.991  -0.584   1.915  1.00  0.00    -0.270 OA
HETATM   24  N3  UNL     1       3.930  -0.748  -0.169  1.00  0.00    -0.357 N 
ATOM     25  H3  UNL     1       3.044  -0.710  -0.672  1.00  0.00     0.162 HD
BRANCH  24  26
HETATM   26  C15 UNL     1       5.144  -1.004  -0.896  1.00  0.00     0.150 C 
BRANCH  26  27
HETATM   27  C16 UNL     1       6.148   0.108  -0.787  1.00  0.00     0.255 C 
BRANCH  27  28
HETATM   28  N4  UNL     1       7.352  -0.219  -1.550  1.00  0.00    -0.077 N 
HETATM   29  C17 UNL     1       8.517   0.345  -0.914  1.00  0.00     0.271 C 
HETATM   30  C18 UNL     1       7.560  -1.665  -1.601  1.00  0.00     0.271 C 
HETATM   31  C19 UNL     1       7.255   0.281  -2.894  1.00  0.00     0.271 C 
ENDBRANCH  27  28
ENDBRANCH  26  27
ENDBRANCH  24  26
ENDBRANCH  19  22
ENDBRANCH  12  15
ENDBRANCH  10  11
ENDBRANCH   9  10
ENDBRANCH   5   9
BRANCH   6  32
HETATM   32  N5  UNL     1      -7.096   1.930  -0.210  1.00  0.00    -0.050 N 
ATOM     33  H53 UNL     1      -7.856   1.304  -0.476  1.00  0.00     0.276 HD
ATOM     34  H52 UNL     1      -7.144   1.843   0.805  1.00  0.00     0.276 HD
ATOM     35  H51 UNL     1      -7.309   2.886  -0.494  1.00  0.00     0.276 HD
ENDBRANCH   6  32
BRANCH   8  36
HETATM   36  O4  UNL     1      -5.984  -1.347  -2.179  1.00  0.00    -0.369 OA
ATOM     37  H4  UNL     1      -5.822  -1.557  -3.091  1.00  0.00     0.212 HD
ENDBRANCH   8  36
ENDBRANCH   4   5
ENDBRANCH   3   4
TORSDOF 12
