REMARK  2 active torsions:
REMARK  status: ('A' for Active; 'I' for Inactive)
REMARK    1  A    between atoms: C5_5  and  C6_6 
REMARK    2  A    between atoms: C6_6  and  N1_7 
ROOT
HETATM    1  C1  UNL     1       3.776  -0.275   0.103  1.00  0.00     0.014 C 
HETATM    2  C2  UNL     1       2.573  -0.370  -0.045  1.00  0.00    -0.084 C 
HETATM    3  C3  UNL     1       1.120  -0.500  -0.228  1.00  0.00     0.265 C 
HETATM    4  C4  UNL     1       0.390   0.813  -0.358  1.00  0.00     0.081 C 
HETATM    5  C5  UNL     1      -0.488   0.259   0.715  1.00  0.00     0.209 C 
HETATM    6  N3  UNL     1       0.471  -0.784   1.025  1.00  0.00    -0.054 N 
ATOM      7  H31 UNL     1       0.996  -0.767   1.900  1.00  0.00     0.279 HD
ATOM      8  H32 UNL     1       0.159  -1.729   1.248  1.00  0.00     0.279 HD
ENDROOT
BRANCH   5   9
HETATM    9  C6  UNL     1      -1.780  -0.366   0.218  1.00  0.00     0.172 C 
BRANCH   9  10
HETATM   10  N1  UNL     1      -2.530   0.622  -0.468  1.00  0.00    -0.341 N 
HETATM   11  N2  UNL     1      -2.326   1.848  -0.396  1.00  0.00    -0.349 N 
ATOM     12  H22 UNL     1      -1.558   2.147   0.206  1.00  0.00     0.176 HD
ATOM     13  H21 UNL     1      -2.866   2.559  -0.890  1.00  0.00     0.176 HD
ATOM     14  H1  UNL     1      -3.294   0.305  -1.065  1.00  0.00     0.179 HD
ENDBRANCH   9  10
ENDBRANCH   5   9
TORSDOF 2
