REMARK  11 active torsions:
REMARK  status: ('A' for Active; 'I' for Inactive)
REMARK    1  A    between atoms: C1_2  and  C2_3 
REMARK       I    between atoms: C1_2  and  N2_10 
REMARK    2  A    between atoms: C2_3  and  O2_4 
REMARK    3  A    between atoms: N1_6  and  O3_8 
REMARK    4  A    between atoms: N2_10  and  O4_11 
REMARK    5  A    between atoms: N2_10  and  C3_13 
REMARK    6  A    between atoms: C4_14  and  C5_15 
REMARK    7  A    between atoms: C4_14  and  C6_20 
REMARK    8  A    between atoms: C5_15  and  O5_16 
REMARK    9  A    between atoms: C5_15  and  O6_18 
REMARK   10  A    between atoms: C9_23  and  S1_24 
REMARK   11  A    between atoms: S1_24  and  C10_25 
ROOT
HETATM    1  C3  UNL     1       0.989   1.710  -1.382  1.00  0.00     0.135 C 
HETATM    2  C4  UNL     1      -0.057   0.816  -1.827  1.00  0.00    -0.004 C 
ENDROOT
BRANCH   2   3
HETATM    3  C5  UNL     1       0.460  -0.358  -2.686  1.00  0.00     0.286 C 
BRANCH   3   4
HETATM    4  O5  UNL     1       1.351  -1.154  -2.018  1.00  0.00    -0.367 OA
ATOM      5  H5  UNL     1       1.669  -1.876  -2.547  1.00  0.00     0.213 HD
ENDBRANCH   3   4
BRANCH   3   6
HETATM    6  O6  UNL     1      -0.665  -1.115  -2.991  1.00  0.00    -0.367 OA
ATOM      7  H6  UNL     1      -0.347  -1.837  -3.520  1.00  0.00     0.213 HD
ENDBRANCH   3   6
ENDBRANCH   2   3
BRANCH   2   8
HETATM    8  C6  UNL     1      -1.106   0.265  -0.980  1.00  0.00     0.022 C 
HETATM    9  C7  UNL     1      -2.006   1.260  -0.270  1.00  0.00     0.010 C 
HETATM   10  C8  UNL     1      -2.975   0.316   0.444  1.00  0.00     0.016 C 
HETATM   11  C9  UNL     1      -2.250  -0.995   0.625  1.00  0.00     0.053 C 
HETATM   12  C11 UNL     1      -0.840  -0.771   0.027  1.00  0.00     0.024 C 
BRANCH  11  13
HETATM   13  S1  UNL     1      -2.106  -1.415   2.376  1.00  0.00    -0.096 SA
BRANCH  13  14
HETATM   14  C10 UNL     1      -3.686  -1.772   3.128  1.00  0.00     0.416 C 
HETATM   15  F1  UNL     1      -3.465  -2.087   4.460  1.00  0.00    -0.203 F 
HETATM   16  F2  UNL     1      -4.486  -0.655   3.057  1.00  0.00    -0.203 F 
ENDBRANCH  13  14
ENDBRANCH  11  13
ENDBRANCH   2   8
BRANCH   1  17
HETATM   17  N2  UNL     1       2.087   1.322  -0.595  1.00  0.00    -0.195 N 
HETATM   18  C1  UNL     1       2.141   1.380   0.818  1.00  0.00     0.323 C 
HETATM   19  O1  UNL     1       1.189   1.846   1.504  1.00  0.00    -0.261 OA
BRANCH  18  20
HETATM   20  C2  UNL     1       3.294   0.907   1.590  1.00  0.00     0.232 C 
HETATM   21  N1  UNL     1       4.330   0.409   1.000  1.00  0.00    -0.243 N 
ATOM     22  H1  UNL     1       4.333   0.350  -0.018  1.00  0.00     0.196 HD
BRANCH  20  23
HETATM   23  O2  UNL     1       3.309   0.980   2.969  1.00  0.00    -0.341 OA
ATOM     24  H2  UNL     1       4.056   0.673   3.469  1.00  0.00     0.219 HD
ENDBRANCH  20  23
BRANCH  21  25
HETATM   25  O3  UNL     1       5.411  -0.037   1.681  1.00  0.00    -0.288 OA
ATOM     26  H3  UNL     1       6.173  -0.403   1.247  1.00  0.00     0.244 HD
ENDBRANCH  21  25
ENDBRANCH  18  20
BRANCH  17  27
HETATM   27  O4  UNL     1       3.241   0.817  -1.179  1.00  0.00    -0.280 OA
ATOM     28  H4  UNL     1       3.205   0.778  -2.128  1.00  0.00     0.245 HD
ENDBRANCH  17  27
ENDBRANCH   1  17
TORSDOF 11
