REMARK  4 active torsions:
REMARK  status: ('A' for Active; 'I' for Inactive)
REMARK    1  A    between atoms: N1_5  and  C4_6 
REMARK    2  A    between atoms: N2_9  and  C7_10 
REMARK    3  A    between atoms: N3_11  and  C8_13 
REMARK    4  A    between atoms: C12_19  and  O2_20 
ROOT
HETATM    1  C4  UNL     1      -0.418  -0.425  -0.319  1.00  0.00     0.092 C 
HETATM    2  C5  UNL     1      -0.446   0.664   0.735  1.00  0.00     0.045 C 
HETATM    3  C6  UNL     1       0.949   0.830   1.343  1.00  0.00     0.125 C 
HETATM    4  N2  UNL     1       1.975   0.641   0.313  1.00  0.00    -0.377 N 
HETATM    5  C9  UNL     1       2.005  -0.629  -0.380  1.00  0.00     0.125 C 
HETATM    6  C10 UNL     1       0.740  -1.380  -0.018  1.00  0.00     0.045 C 
ENDROOT
BRANCH   1   7
HETATM    7  N1  UNL     1      -1.666  -1.104  -0.459  1.00  0.00    -0.359 N 
HETATM    8  C3  UNL     1      -1.927  -2.247   0.213  1.00  0.00     0.095 A 
HETATM    9  C2  UNL     1      -3.148  -2.903   0.070  1.00  0.00     0.075 A 
HETATM   10  C1  UNL     1      -4.111  -2.378  -0.773  1.00  0.00     0.207 A 
HETATM   11  O1  UNL     1      -5.237  -2.936  -0.938  1.00  0.00    -0.285 OA
HETATM   12  C12 UNL     1      -3.844  -1.216  -1.455  1.00  0.00     0.131 A 
HETATM   13  C11 UNL     1      -2.624  -0.602  -1.283  1.00  0.00     0.131 A 
BRANCH  12  14
HETATM   14  O2  UNL     1      -4.813  -0.686  -2.304  1.00  0.00    -0.356 OA
ATOM     15  H2  UNL     1      -4.628   0.118  -2.776  1.00  0.00     0.218 HD
ENDBRANCH  12  14
ENDBRANCH   1   7
BRANCH   4  16
HETATM   16  C7  UNL     1       2.884   1.692   0.040  1.00  0.00     0.179 C 
HETATM   17  N3  UNL     1       3.452   2.352   0.959  1.00  0.00    -0.337 N 
ATOM     18  H3  UNL     1       3.225   2.091   1.919  1.00  0.00     0.168 HD
BRANCH  17  19
HETATM   19  C8  UNL     1       4.360   3.403   0.790  1.00  0.00     0.150 C 
HETATM   20  S1  UNL     1       5.616   3.182  -0.246  1.00  0.00    -0.052 SA
HETATM   21  S2  UNL     1       4.243   4.977   1.630  1.00  0.00    -0.020 SA
ENDBRANCH  17  19
ENDBRANCH   4  16
TORSDOF 4
