REMARK  3 active torsions:
REMARK  status: ('A' for Active; 'I' for Inactive)
REMARK    1  A    between atoms: C2_2  and  O1_3 
REMARK    2  A    between atoms: O1_3  and  C3_4 
REMARK       I    between atoms: C3_4  and  N1_6 
REMARK    3  A    between atoms: N1_6  and  C4_8 
ROOT
HETATM    1  C4  UNL     1       1.764  -1.139  -0.300  1.00  0.00     0.081 A 
HETATM    2  C5  UNL     1       1.019  -2.081  -0.948  1.00  0.00     0.075 A 
HETATM    3  C6  UNL     1      -0.314  -1.880  -0.991  1.00  0.00     0.085 A 
HETATM    4  C7  UNL     1      -0.799  -0.754  -0.386  1.00  0.00     0.027 A 
HETATM    5  S1  UNL     1       0.600  -0.009   0.226  1.00  0.00    -0.073 SA
HETATM    6  C8  UNL     1      -2.241  -0.368  -0.334  1.00  0.00     0.001 C 
HETATM    7  C9  UNL     1      -2.794  -0.549   1.063  1.00  0.00     0.042 C 
HETATM    8  C10 UNL     1      -3.964   0.390   1.269  1.00  0.00     0.233 C 
HETATM    9  N2  UNL     1      -3.459   1.742   1.407  1.00  0.00    -0.075 N 
ATOM     10  H21 UNL     1      -3.285   1.983   2.383  1.00  0.00     0.277 HD
ATOM     11  H22 UNL     1      -4.178   2.437   1.203  1.00  0.00     0.277 HD
HETATM   12  C11 UNL     1      -2.286   1.933   0.593  1.00  0.00     0.233 C 
HETATM   13  C12 UNL     1      -2.398   1.110  -0.671  1.00  0.00     0.042 C 
HETATM   14  C13 UNL     1      -3.000  -1.153  -1.350  1.00  0.00     0.042 C 
HETATM   15  C14 UNL     1      -2.620  -2.610  -1.231  1.00  0.00     0.176 C 
HETATM   16  O3  UNL     1      -1.267  -2.743  -1.617  1.00  0.00    -0.350 OA
ENDROOT
BRANCH   1  17
HETATM   17  N1  UNL     1       3.201  -1.113  -0.109  1.00  0.00    -0.296 N 
HETATM   18  C3  UNL     1       3.805  -0.046   0.596  1.00  0.00     0.365 C 
HETATM   19  O2  UNL     1       3.122   0.891   1.067  1.00  0.00    -0.238 OA
ATOM     20  H1  UNL     1       3.778  -1.866  -0.484  1.00  0.00     0.171 HD
BRANCH  18  21
HETATM   21  O1  UNL     1       5.163  -0.044   0.764  1.00  0.00    -0.304 OA
BRANCH  21  22
HETATM   22  C2  UNL     1       5.876   0.968   1.450  1.00  0.00     0.176 C 
HETATM   23  C1  UNL     1       5.684   2.323   0.806  1.00  0.00     0.034 C 
ENDBRANCH  21  22
ENDBRANCH  18  21
ENDBRANCH   1  17
TORSDOF 3
