REMARK  4 active torsions:
REMARK  status: ('A' for Active; 'I' for Inactive)
REMARK    1  A    between atoms: C5_5  and  O1_6 
REMARK    2  A    between atoms: C5_5  and  C6_8 
REMARK    3  A    between atoms: C8_10  and  C9_11 
REMARK    4  A    between atoms: C14_16  and  N1_17 
ROOT
HETATM    1  C6  UNL     1      -0.669  -0.341   0.011  1.00  0.00     0.069 A 
HETATM    2  C7  UNL     1       0.462  -0.752  -0.650  1.00  0.00     0.065 A 
HETATM    3  C8  UNL     1       1.535  -0.493   0.170  1.00  0.00     0.084 A 
HETATM    4  O2  UNL     1       1.049   0.045   1.258  1.00  0.00    -0.242 OA
HETATM    5  N2  UNL     1      -0.255   0.145   1.182  1.00  0.00    -0.262 N 
ATOM      6  H2  UNL     1      -0.860   0.534   1.906  1.00  0.00     0.194 HD
ENDROOT
BRANCH   1   7
HETATM    7  C5  UNL     1      -2.045  -0.394  -0.470  1.00  0.00     0.106 C 
HETATM    8  C4  UNL     1      -2.757   0.948  -0.355  1.00  0.00     0.081 C 
HETATM    9  C2  UNL     1      -4.233   0.752  -0.058  1.00  0.00     0.057 C 
HETATM   10  C1  UNL     1      -4.967   1.889  -0.755  1.00  0.00     0.045 C 
HETATM   11  C3  UNL     1      -4.522   0.907   1.422  1.00  0.00     0.045 C 
HETATM   12  O3  UNL     1      -4.738  -0.418  -0.556  1.00  0.00    -0.381 OA
HETATM   13  C16 UNL     1      -4.149  -1.570  -0.132  1.00  0.00     0.172 C 
HETATM   14  C15 UNL     1      -2.765  -1.427   0.391  1.00  0.00     0.071 C 
BRANCH   7  15
HETATM   15  O1  UNL     1      -2.170  -0.763  -1.796  1.00  0.00    -0.383 OA
ATOM     16  H1  UNL     1      -1.726  -1.600  -1.868  1.00  0.00     0.211 HD
ENDBRANCH   7  15
ENDBRANCH   1   7
BRANCH   3  17
HETATM   17  C9  UNL     1       2.950  -0.790  -0.173  1.00  0.00     0.075 C 
HETATM   18  C10 UNL     1       3.795  -1.273   0.930  1.00  0.00     0.013 C 
HETATM   19  C11 UNL     1       4.594  -0.248   1.653  1.00  0.00     0.001 C 
HETATM   20  C12 UNL     1       5.363   0.581   0.605  1.00  0.00     0.002 C 
HETATM   21  C13 UNL     1       4.298   1.335  -0.137  1.00  0.00     0.033 C 
HETATM   22  C14 UNL     1       3.493   0.385  -0.961  1.00  0.00     0.194 C 
BRANCH  22  23
HETATM   23  N1  UNL     1       4.128  -0.021  -2.190  1.00  0.00    -0.074 N 
ATOM     24  H13 UNL     1       4.856  -0.714  -2.016  1.00  0.00     0.274 HD
ATOM     25  H12 UNL     1       3.498  -0.585  -2.760  1.00  0.00     0.274 HD
ATOM     26  H11 UNL     1       4.493   0.770  -2.720  1.00  0.00     0.274 HD
ENDBRANCH  22  23
ENDBRANCH   3  17
TORSDOF 4
