REMARK  0 active torsions:
REMARK  status: ('A' for Active; 'I' for Inactive)
ROOT
HETATM    1  O1  UNL     1      -2.919   1.816   1.516  1.00  0.00    -0.285 OA
HETATM    2  C1  UNL     1      -2.271   1.130   0.755  1.00  0.00     0.210 C 
HETATM    3  C2  UNL     1      -1.233   1.771   0.076  1.00  0.00     0.028 A 
HETATM    4  C3  UNL     1      -1.519   3.055  -0.258  1.00  0.00     0.016 A 
HETATM    5  C4  UNL     1      -0.661   3.761  -1.069  1.00  0.00     0.001 A 
HETATM    6  C5  UNL     1       0.484   3.150  -1.537  1.00  0.00     0.001 A 
HETATM    7  C6  UNL     1       0.815   1.829  -1.215  1.00  0.00     0.013 A 
HETATM    8  C7  UNL     1      -0.061   1.175  -0.403  1.00  0.00    -0.007 A 
HETATM    9  C8  UNL     1       0.384  -0.094  -0.062  1.00  0.00     0.032 A 
HETATM   10  C9  UNL     1       1.702  -0.406   0.045  1.00  0.00     0.005 A 
HETATM   11  C10 UNL     1       2.880   0.271   0.003  1.00  0.00     0.014 A 
HETATM   12  C11 UNL     1       4.047  -0.436   0.221  1.00  0.00     0.001 A 
HETATM   13  C12 UNL     1       4.044  -1.789   0.479  1.00  0.00     0.002 A 
HETATM   14  C13 UNL     1       2.858  -2.499   0.531  1.00  0.00     0.030 A 
HETATM   15  C14 UNL     1       1.706  -1.782   0.312  1.00  0.00     0.044 A 
HETATM   16  N1  UNL     1       0.433  -2.248   0.369  1.00  0.00    -0.341 N 
ATOM     17  H1  UNL     1       0.162  -3.215   0.551  1.00  0.00     0.167 HD
HETATM   18  C15 UNL     1      -0.401  -1.242   0.150  1.00  0.00     0.124 A 
HETATM   19  N2  UNL     1      -1.745  -1.266   0.256  1.00  0.00    -0.304 N 
HETATM   20  C16 UNL     1      -2.440  -2.398   0.131  1.00  0.00     0.099 A 
HETATM   21  C17 UNL     1      -3.770  -2.091   0.372  1.00  0.00     0.020 A 
HETATM   22  C18 UNL     1      -3.826  -0.742   0.641  1.00  0.00     0.035 A 
HETATM   23  C19 UNL     1      -2.556  -0.224   0.566  1.00  0.00     0.091 A 
ENDROOT
TORSDOF 0
