REMARK  9 active torsions:
REMARK  status: ('A' for Active; 'I' for Inactive)
REMARK    1  A    between atoms: C2_2  and  N1_3 
REMARK    2  A    between atoms: C2_2  and  C10_18 
REMARK    3  A    between atoms: N1_3  and  C3_5 
REMARK    4  A    between atoms: C3_5  and  N2_7 
REMARK       I    between atoms: N3_10  and  C6_11 
REMARK    5  A    between atoms: C6_11  and  C7_13 
REMARK       I    between atoms: C10_18  and  N5_20 
REMARK    6  A    between atoms: C14_24  and  C15_25 
REMARK    7  A    between atoms: C15_25  and  N8_31 
REMARK    8  A    between atoms: N6_26  and  N7_28 
REMARK    9  A    between atoms: N8_31  and  C16_33 
ROOT
HETATM    1  C10 UNL     1      -0.776  -1.036   0.165  1.00  0.00     0.242 C 
HETATM    2  O3  UNL     1      -0.722  -0.463   1.278  1.00  0.00    -0.271 OA
HETATM    3  N5  UNL     1      -2.033  -1.439  -0.349  1.00  0.00    -0.350 N 
HETATM    4  C11 UNL     1      -2.233  -2.081  -1.622  1.00  0.00     0.126 C 
HETATM    5  C12 UNL     1      -3.207  -1.231  -2.441  1.00  0.00     0.021 C 
HETATM    6  C13 UNL     1      -4.528  -1.341  -1.646  1.00  0.00     0.015 C 
HETATM    7  C14 UNL     1      -4.265  -0.510  -0.397  1.00  0.00     0.072 C 
HETATM    8  C19 UNL     1      -3.239  -1.222   0.479  1.00  0.00     0.138 C 
ENDROOT
BRANCH   1   9
HETATM    9  C2  UNL     1       0.462  -1.272  -0.565  1.00  0.00     0.172 C 
HETATM   10  C1  UNL     1       0.743  -2.769  -0.686  1.00  0.00     0.042 C 
BRANCH   9  11
HETATM   11  N1  UNL     1       1.620  -0.750   0.160  1.00  0.00    -0.354 N 
ATOM     12  H1  UNL     1       1.508  -0.345   1.089  1.00  0.00     0.162 HD
BRANCH  11  13
HETATM   13  C3  UNL     1       2.884  -0.814  -0.438  1.00  0.00     0.170 C 
HETATM   14  S1  UNL     1       3.026  -1.446  -1.937  1.00  0.00    -0.041 SA
BRANCH  13  15
HETATM   15  N2  UNL     1       4.105  -0.348   0.178  1.00  0.00    -0.355 N 
HETATM   16  C4  UNL     1       5.360  -0.465  -0.542  1.00  0.00     0.145 C 
HETATM   17  C5  UNL     1       6.565  -0.292   0.359  1.00  0.00     0.146 C 
HETATM   18  N3  UNL     1       6.393   0.915   1.162  1.00  0.00    -0.341 N 
HETATM   19  C6  UNL     1       7.524   1.731   1.395  1.00  0.00     0.308 C 
HETATM   20  C8  UNL     1       5.109   1.265   1.692  1.00  0.00     0.146 C 
HETATM   21  O1  UNL     1       8.671   1.390   0.915  1.00  0.00    -0.263 OA
HETATM   22  C9  UNL     1       4.079   0.201   1.487  1.00  0.00     0.145 C 
BRANCH  19  23
HETATM   23  C7  UNL     1       7.509   2.972   2.157  1.00  0.00     0.322 C 
HETATM   24  N4  UNL     1       8.750   3.682   2.293  1.00  0.00    -0.053 NA
HETATM   25  O2  UNL     1       6.462   3.439   2.696  1.00  0.00    -0.266 OA
ENDBRANCH  19  23
ENDBRANCH  13  15
ENDBRANCH  11  13
ENDBRANCH   9  11
ENDBRANCH   1   9
BRANCH   7  26
HETATM   26  C15 UNL     1      -5.509  -0.206   0.300  1.00  0.00     0.097 C 
HETATM   27  N6  UNL     1      -6.538  -0.941   0.316  1.00  0.00    -0.295 N 
ATOM     28  H6  UNL     1      -7.312  -0.554   0.856  1.00  0.00     0.187 HD
BRANCH  27  29
HETATM   29  N7  UNL     1      -6.811  -2.147  -0.247  1.00  0.00    -0.344 N 
ATOM     30  H72 UNL     1      -6.024  -2.516  -0.781  1.00  0.00     0.176 HD
ATOM     31  H71 UNL     1      -7.641  -2.740  -0.234  1.00  0.00     0.176 HD
ENDBRANCH  27  29
BRANCH  26  32
HETATM   32  N8  UNL     1      -5.574   0.998   1.046  1.00  0.00    -0.374 N 
ATOM     33  H8  UNL     1      -5.028   1.115   1.899  1.00  0.00     0.161 HD
BRANCH  32  34
HETATM   34  C16 UNL     1      -6.430   2.048   0.568  1.00  0.00     0.083 A 
HETATM   35  C17 UNL     1      -6.183   2.555  -0.825  1.00  0.00     0.027 A 
HETATM   36  C18 UNL     1      -5.778   3.379   0.375  1.00  0.00     0.027 A 
ENDBRANCH  32  34
ENDBRANCH  26  32
ENDBRANCH   7  26
TORSDOF 9
