REMARK  6 active torsions:
REMARK  status: ('A' for Active; 'I' for Inactive)
REMARK       I    between atoms: N1_2  and  C2_4 
REMARK    1  A    between atoms: C2_4  and  C3_6 
REMARK    2  A    between atoms: C3_6  and  N2_7 
REMARK       I    between atoms: N3_13  and  C6_14 
REMARK    3  A    between atoms: C6_14  and  C7_16 
REMARK       I    between atoms: N4_20  and  C11_21 
REMARK    4  A    between atoms: C11_21  and  C12_23 
REMARK    5  A    between atoms: C12_23  and  C13_24 
REMARK    6  A    between atoms: C13_24  and  N5_25 
ROOT
HETATM    1  C7  UNL     1       2.036  -0.042  -1.561  1.00  0.00     0.258 C 
HETATM    2  C8  UNL     1       2.353   1.262  -1.134  1.00  0.00    -0.149 C 
HETATM    3  C9  UNL     1       2.525   2.594  -0.713  1.00  0.00     0.104 C 
HETATM    4  C10 UNL     1       1.096   3.254  -0.783  1.00  0.00     0.164 C 
HETATM    5  N4  UNL     1       0.100   2.183  -1.076  1.00  0.00    -0.249 N 
HETATM    6  C11 UNL     1      -1.026   2.326  -0.214  1.00  0.00     0.240 C 
HETATM    7  O3  UNL     1      -1.077   3.252   0.630  1.00  0.00    -0.272 OA
HETATM    8  N7  UNL     1      -0.014   1.141  -1.924  1.00  0.00    -0.240 N 
ATOM      9  H7  UNL     1      -0.599   1.291  -2.746  1.00  0.00     0.204 HD
HETATM   10  N8  UNL     1       0.557  -0.081  -1.813  1.00  0.00    -0.099 NA
ENDROOT
BRANCH   1  11
HETATM   11  C6  UNL     1       2.339  -1.154  -0.614  1.00  0.00     0.252 C 
HETATM   12  N3  UNL     1       3.652  -1.414  -0.160  1.00  0.00    -0.347 N 
HETATM   13  C5  UNL     1       4.042  -2.462   0.753  1.00  0.00     0.129 C 
HETATM   14  C21 UNL     1       4.823  -0.658  -0.546  1.00  0.00     0.174 C 
HETATM   15  C4  UNL     1       5.482  -2.139   1.140  1.00  0.00     0.070 C 
HETATM   16  C3  UNL     1       6.011  -1.498  -0.112  1.00  0.00     0.220 C 
HETATM   17  O2  UNL     1       1.390  -1.873  -0.217  1.00  0.00    -0.270 OA
BRANCH  16  18
HETATM   18  C2  UNL     1       7.224  -0.676   0.121  1.00  0.00     0.255 C 
HETATM   19  N1  UNL     1       7.216   0.396   1.048  1.00  0.00    -0.363 N 
HETATM   20  C1  UNL     1       8.403   1.172   1.250  1.00  0.00     0.149 C 
ATOM     21  H1  UNL     1       6.367   0.614   1.570  1.00  0.00     0.161 HD
HETATM   22  O1  UNL     1       8.275  -0.933  -0.515  1.00  0.00    -0.271 OA
ENDBRANCH  16  18
BRANCH  16  23
HETATM   23  N2  UNL     1       6.276  -2.517  -1.093  1.00  0.00    -0.060 N 
ATOM     24  H23 UNL     1       6.640  -2.123  -1.961  1.00  0.00     0.275 HD
ATOM     25  H22 UNL     1       7.080  -3.090  -0.837  1.00  0.00     0.275 HD
ATOM     26  H21 UNL     1       5.442  -3.082  -1.253  1.00  0.00     0.275 HD
ENDBRANCH  16  23
ENDBRANCH   1  11
BRANCH   6  27
HETATM   27  C12 UNL     1      -2.189   1.367  -0.294  1.00  0.00     0.132 C 
BRANCH  27  28
HETATM   28  C13 UNL     1      -3.220   1.762   0.687  1.00  0.00     0.246 C 
BRANCH  28  29
HETATM   29  N5  UNL     1      -4.386   0.949   0.738  1.00  0.00    -0.067 N 
HETATM   30  C14 UNL     1      -5.319   1.612   1.668  1.00  0.00     0.272 C 
HETATM   31  C15 UNL     1      -4.157  -0.366   1.300  1.00  0.00     0.265 C 
HETATM   32  C16 UNL     1      -5.490  -1.084   1.360  1.00  0.00     0.264 C 
HETATM   33  N6  UNL     1      -5.782  -1.516  -0.004  1.00  0.00    -0.071 N 
HETATM   34  C17 UNL     1      -5.265  -2.858  -0.216  1.00  0.00     0.272 C 
HETATM   35  C18 UNL     1      -7.219  -1.581  -0.215  1.00  0.00     0.272 C 
HETATM   36  C19 UNL     1      -5.140  -0.649  -0.975  1.00  0.00     0.264 C 
HETATM   37  C20 UNL     1      -5.089   0.787  -0.496  1.00  0.00     0.265 C 
ENDBRANCH  28  29
ENDBRANCH  27  28
ENDBRANCH   6  27
TORSDOF 6
