REMARK  10 active torsions:
REMARK  status: ('A' for Active; 'I' for Inactive)
REMARK    1  A    between atoms: C2_2  and  C3_3 
REMARK    2  A    between atoms: C3_3  and  C4_4 
REMARK       I    between atoms: C4_4  and  N1_6 
REMARK       I    between atoms: N1_6  and  C5_8 
REMARK       I    between atoms: C5_8  and  N2_9 
REMARK       I    between atoms: C5_8  and  N8_32 
REMARK       I    between atoms: N2_9  and  C6_11 
REMARK    3  A    between atoms: N4_13  and  C7_15 
REMARK    4  A    between atoms: C7_15  and  C8_16 
REMARK    5  A    between atoms: C8_16  and  C9_17 
REMARK    6  A    between atoms: C9_17  and  C10_18 
REMARK    7  A    between atoms: C10_18  and  C11_19 
REMARK    8  A    between atoms: C11_19  and  C12_20 
REMARK    9  A    between atoms: C12_20  and  C13_21 
REMARK       I    between atoms: C13_21  and  N5_23 
REMARK       I    between atoms: N6_26  and  C16_27 
REMARK   10  A    between atoms: N8_32  and  N9_34 
REMARK       I    between atoms: N9_34  and  C19_35 
ROOT
HETATM    1  C4  UNL     1      -6.564  -2.376  -1.361  1.00  0.00     0.239 C 
HETATM    2  O1  UNL     1      -6.765  -1.471  -2.189  1.00  0.00    -0.272 OA
HETATM    3  N1  UNL     1      -5.564  -2.113  -0.316  1.00  0.00    -0.157 N 
ATOM      4  H1  UNL     1      -5.358  -2.802   0.407  1.00  0.00     0.187 HD
HETATM    5  C5  UNL     1      -4.908  -0.882  -0.354  1.00  0.00     0.712 C 
HETATM    6  N2  UNL     1      -4.361   0.136  -0.381  1.00  0.00    -0.161 N 
ATOM      7  H2  UNL     1      -4.733   0.635  -1.189  1.00  0.00     0.187 HD
HETATM    8  C6  UNL     1      -3.450   0.958   0.179  1.00  0.00     0.202 C 
HETATM    9  N3  UNL     1      -3.780   2.192   0.870  1.00  0.00    -0.063 NA
HETATM   10  N4  UNL     1      -2.172   0.683   0.128  1.00  0.00    -0.364 N 
ATOM     11  H4  UNL     1      -1.865  -0.168  -0.343  1.00  0.00     0.162 HD
HETATM   12  N8  UNL     1      -3.962  -1.294   1.094  1.00  0.00    -0.062 N 
ATOM     13  H8  UNL     1      -3.024  -1.693   1.133  1.00  0.00     0.221 HD
ENDROOT
BRANCH  10  14
HETATM   14  C7  UNL     1      -1.182   1.558   0.725  1.00  0.00     0.122 C 
BRANCH  14  15
HETATM   15  C8  UNL     1      -0.270   2.043  -0.395  1.00  0.00     0.020 C 
BRANCH  15  16
HETATM   16  C9  UNL     1       0.748   2.966   0.228  1.00  0.00     0.002 C 
BRANCH  16  17
HETATM   17  C10 UNL     1       1.722   3.547  -0.731  1.00  0.00     0.001 C 
BRANCH  17  18
HETATM   18  C11 UNL     1       2.582   2.580  -1.473  1.00  0.00     0.009 C 
BRANCH  18  19
HETATM   19  C12 UNL     1       3.457   1.756  -0.558  1.00  0.00     0.103 C 
BRANCH  19  20
HETATM   20  C13 UNL     1       4.293   0.812  -1.335  1.00  0.00     0.219 C 
HETATM   21  O2  UNL     1       4.075   0.785  -2.599  1.00  0.00    -0.273 OA
HETATM   22  N5  UNL     1       5.277  -0.024  -0.777  1.00  0.00    -0.349 N 
HETATM   23  C14 UNL     1       6.024  -0.919  -1.628  1.00  0.00     0.145 C 
HETATM   24  C18 UNL     1       5.596  -0.040   0.628  1.00  0.00     0.145 C 
HETATM   25  C15 UNL     1       7.509  -0.819  -1.391  1.00  0.00     0.147 C 
HETATM   26  N6  UNL     1       7.876  -0.178  -0.184  1.00  0.00    -0.333 N 
HETATM   27  C16 UNL     1       9.272  -0.123   0.155  1.00  0.00     0.330 C 
HETATM   28  C17 UNL     1       6.995   0.450   0.776  1.00  0.00     0.147 C 
HETATM   29  N7  UNL     1      10.187  -0.716  -0.751  1.00  0.00    -0.040 NA
HETATM   30  O3  UNL     1       9.695   0.419   1.204  1.00  0.00    -0.251 OA
ENDBRANCH  19  20
ENDBRANCH  18  19
ENDBRANCH  17  18
ENDBRANCH  16  17
ENDBRANCH  15  16
ENDBRANCH  14  15
ENDBRANCH  10  14
BRANCH  12  31
HETATM   31  N9  UNL     1      -4.711  -0.983   2.067  1.00  0.00    -0.280 NA
HETATM   32  C19 UNL     1      -5.371  -0.678   3.009  1.00  0.00     0.299 C 
HETATM   33  N10 UNL     1      -4.865  -0.188   4.260  1.00  0.00    -0.051 NA
HETATM   34  N11 UNL     1      -6.817  -0.765   2.964  1.00  0.00    -0.051 NA
ENDBRANCH  12  31
BRANCH   1  35
HETATM   35  C3  UNL     1      -7.247  -3.676  -1.347  1.00  0.00     0.130 C 
BRANCH  35  36
HETATM   36  C2  UNL     1      -8.425  -3.662  -2.230  1.00  0.00    -0.028 C 
HETATM   37  C1  UNL     1      -9.603  -3.960  -1.715  1.00  0.00     0.007 C 
ENDBRANCH  35  36
ENDBRANCH   1  35
TORSDOF 10
