REMARK  12 active torsions:
REMARK  status: ('A' for Active; 'I' for Inactive)
REMARK    1  A    between atoms: C1_4  and  C2_5 
REMARK    2  A    between atoms: C1_4  and  N7_37 
REMARK    3  A    between atoms: C2_5  and  C3_6 
REMARK    4  A    between atoms: C3_6  and  S1_7 
REMARK    5  A    between atoms: S1_7  and  C4_8 
REMARK    6  A    between atoms: C4_8  and  C5_9 
REMARK    7  A    between atoms: C10_15  and  N3_16 
REMARK       I    between atoms: N3_16  and  C11_18 
REMARK    8  A    between atoms: C11_18  and  C12_20 
REMARK    9  A    between atoms: C12_20  and  C13_21 
REMARK   10  A    between atoms: C13_21  and  N4_22 
REMARK   11  A    between atoms: C19_31  and  C20_32 
REMARK   12  A    between atoms: C20_32  and  N6_33 
ROOT
HETATM    1  C5  UNL     1       2.590   0.233  -0.730  1.00  0.00     0.022 C 
HETATM    2  C6  UNL     1       2.291  -1.232  -0.545  1.00  0.00     0.035 C 
HETATM    3  C7  UNL     1       1.439  -1.522  -1.763  1.00  0.00     0.238 C 
HETATM    4  N2  UNL     1       0.597  -0.349  -1.826  1.00  0.00    -0.059 N 
HETATM    5  C8  UNL     1       1.433   0.770  -1.540  1.00  0.00     0.243 C 
HETATM    6  C9  UNL     1      -0.487  -0.451  -0.879  1.00  0.00     0.263 C 
HETATM    7  C10 UNL     1      -1.436   0.628  -1.354  1.00  0.00     0.112 C 
HETATM    8  C18 UNL     1      -1.126   0.824  -2.811  1.00  0.00     0.062 C 
HETATM    9  C19 UNL     1      -0.043  -0.186  -3.099  1.00  0.00     0.218 C 
ENDROOT
BRANCH   9  10
HETATM   10  C20 UNL     1      -0.663  -1.460  -3.583  1.00  0.00     0.263 C 
BRANCH  10  11
HETATM   11  N6  UNL     1      -1.312  -1.307  -4.869  1.00  0.00    -0.077 N 
ATOM     12  H63 UNL     1      -1.996  -0.551  -4.847  1.00  0.00     0.274 HD
ATOM     13  H62 UNL     1      -0.668  -0.926  -5.562  1.00  0.00     0.274 HD
ATOM     14  H61 UNL     1      -1.734  -2.175  -5.199  1.00  0.00     0.274 HD
ENDBRANCH  10  11
ENDBRANCH   9  10
BRANCH   1  15
HETATM   15  C4  UNL     1       3.904   0.468  -1.434  1.00  0.00     0.080 C 
BRANCH  15  16
HETATM   16  S1  UNL     1       5.324  -0.201  -0.588  1.00  0.00    -0.168 SA
BRANCH  16  17
HETATM   17  C3  UNL     1       5.621   0.632   0.982  1.00  0.00     0.081 C 
BRANCH  17  18
HETATM   18  C2  UNL     1       6.837   0.075   1.692  1.00  0.00     0.086 C 
BRANCH  18  19
HETATM   19  C1  UNL     1       8.087   0.215   0.957  1.00  0.00     0.077 C 
HETATM   20  N1  UNL     1       8.188   0.937  -0.100  1.00  0.00    -0.389 N 
ATOM     21  H12 UNL     1       7.344   1.410  -0.423  1.00  0.00     0.157 HD
ATOM     22  H11 UNL     1       9.063   1.035  -0.615  1.00  0.00     0.157 HD
BRANCH  19  23
HETATM   23  N7  UNL     1       9.256  -0.440   1.404  1.00  0.00    -0.323 N 
HETATM   24  C21 UNL     1       9.805  -0.343   2.543  1.00  0.00     0.202 C 
HETATM   25  N8  UNL     1       9.325   0.471   3.607  1.00  0.00    -0.066 NA
HETATM   26  N9  UNL     1      11.006  -1.097   2.814  1.00  0.00    -0.066 NA
ATOM     27  H7  UNL     1       9.710  -1.061   0.735  1.00  0.00     0.169 HD
ENDBRANCH  19  23
ENDBRANCH  18  19
ENDBRANCH  17  18
ENDBRANCH  16  17
ENDBRANCH  15  16
ENDBRANCH   1  15
BRANCH   7  28
HETATM   28  N3  UNL     1      -2.783   0.185  -1.122  1.00  0.00    -0.355 N 
HETATM   29  C11 UNL     1      -3.723   0.869  -0.317  1.00  0.00     0.219 C 
HETATM   30  O1  UNL     1      -3.406   1.938   0.254  1.00  0.00    -0.274 OA
ATOM     31  H3  UNL     1      -3.082  -0.682  -1.568  1.00  0.00     0.162 HD
BRANCH  29  32
HETATM   32  C12 UNL     1      -5.078   0.320  -0.152  1.00  0.00     0.133 C 
BRANCH  32  33
HETATM   33  C13 UNL     1      -5.872   1.230   0.759  1.00  0.00     0.281 C 
BRANCH  33  34
HETATM   34  N4  UNL     1      -7.192   0.667   0.899  1.00  0.00     0.092 N 
HETATM   35  C14 UNL     1      -8.070   1.410   1.759  1.00  0.00     0.300 C 
HETATM   36  C15 UNL     1      -8.188   0.867   3.146  1.00  0.00     0.262 C 
HETATM   37  N5  UNL     1      -8.430  -0.537   3.246  1.00  0.00    -0.072 N 
HETATM   38  C16 UNL     1      -8.402  -1.177   1.961  1.00  0.00     0.262 C 
ATOM     39  H52 UNL     1      -7.780  -0.980   3.895  1.00  0.00     0.277 HD
ATOM     40  H51 UNL     1      -9.303  -0.729   3.737  1.00  0.00     0.277 HD
HETATM   41  C17 UNL     1      -7.179  -0.745   1.180  1.00  0.00     0.300 C 
ENDBRANCH  33  34
ENDBRANCH  32  33
ENDBRANCH  29  32
ENDBRANCH   7  28
TORSDOF 12
