REMARK  11 active torsions:
REMARK  status: ('A' for Active; 'I' for Inactive)
REMARK    1  A    between atoms: C2_2  and  N1_3 
REMARK    2  A    between atoms: C3_4  and  C4_5 
REMARK    3  A    between atoms: C4_5  and  C5_6 
REMARK    4  A    between atoms: C5_6  and  C6_7 
REMARK    5  A    between atoms: C6_7  and  N2_8 
REMARK    6  A    between atoms: C9_17  and  C10_18 
REMARK    7  A    between atoms: C10_18  and  C11_19 
REMARK    8  A    between atoms: C11_19  and  C12_20 
REMARK    9  A    between atoms: C12_20  and  N6_21 
REMARK       I    between atoms: N6_21  and  C13_23 
REMARK   10  A    between atoms: N10_38  and  C20_39 
REMARK   11  A    between atoms: C20_39  and  C21_40 
ROOT
HETATM    1  N1  UNL     1      -2.075  -1.458  -0.596  1.00  0.00    -0.286 N 
HETATM    2  C3  UNL     1      -1.640  -0.217  -0.197  1.00  0.00     0.096 C 
HETATM    3  C8  UNL     1      -0.759  -0.056   0.957  1.00  0.00     0.266 C 
HETATM    4  O1  UNL     1      -1.312  -0.005   2.115  1.00  0.00    -0.266 OA
HETATM    5  N5  UNL     1       0.654   0.050   0.912  1.00  0.00    -0.343 N 
ATOM      6  H5  UNL     1       1.091   0.708   1.557  1.00  0.00     0.163 HD
HETATM    7  C9  UNL     1       1.529  -0.689   0.036  1.00  0.00     0.177 C 
HETATM    8  C14 UNL     1       2.421  -1.553   0.834  1.00  0.00     0.240 C 
HETATM    9  O2  UNL     1       2.551  -1.350   2.058  1.00  0.00    -0.271 OA
HETATM   10  N9  UNL     1       3.146  -2.626   0.248  1.00  0.00    -0.359 N 
ATOM     11  H9  UNL     1       4.126  -2.767   0.492  1.00  0.00     0.162 HD
HETATM   12  C15 UNL     1       2.497  -3.531  -0.703  1.00  0.00     0.122 C 
HETATM   13  C16 UNL     1       1.591  -4.474   0.051  1.00  0.00     0.020 C 
HETATM   14  C17 UNL     1       0.156  -4.451  -0.472  1.00  0.00     0.011 C 
HETATM   15  C18 UNL     1      -0.713  -3.958   0.666  1.00  0.00     0.105 C 
HETATM   16  C19 UNL     1      -2.113  -3.711   0.278  1.00  0.00     0.238 C 
HETATM   17  O3  UNL     1      -2.837  -4.768   0.116  1.00  0.00    -0.272 OA
HETATM   18  N10 UNL     1      -2.698  -2.429   0.077  1.00  0.00    -0.254 N 
ENDROOT
BRANCH   7  19
HETATM   19  C10 UNL     1       2.130   0.057  -1.083  1.00  0.00     0.036 C 
BRANCH  19  20
HETATM   20  C11 UNL     1       2.972   1.231  -0.862  1.00  0.00     0.022 C 
BRANCH  20  21
HETATM   21  C12 UNL     1       4.235   1.027  -0.070  1.00  0.00     0.122 C 
BRANCH  21  22
HETATM   22  N6  UNL     1       4.966   2.302   0.029  1.00  0.00    -0.365 N 
HETATM   23  C13 UNL     1       6.181   2.432   0.741  1.00  0.00     0.181 C 
HETATM   24  N7  UNL     1       6.220   2.632   2.009  1.00  0.00    -0.374 N 
HETATM   25  N8  UNL     1       7.386   2.331  -0.029  1.00  0.00    -0.064 NA
ATOM     26  H72 UNL     1       5.363   2.704   2.557  1.00  0.00     0.158 HD
ATOM     27  H71 UNL     1       7.096   2.726   2.523  1.00  0.00     0.158 HD
ATOM     28  H6  UNL     1       4.580   3.124  -0.435  1.00  0.00     0.162 HD
ENDBRANCH  21  22
ENDBRANCH  20  21
ENDBRANCH  19  20
ENDBRANCH   7  19
BRANCH   2  29
HETATM   29  C4  UNL     1      -2.671   0.907  -0.207  1.00  0.00     0.066 C 
BRANCH  29  30
HETATM   30  C5  UNL     1      -2.082   2.229   0.239  1.00  0.00     0.026 C 
BRANCH  30  31
HETATM   31  C6  UNL     1      -3.167   3.282   0.195  1.00  0.00     0.122 C 
BRANCH  31  32
HETATM   32  N2  UNL     1      -2.673   4.580   0.612  1.00  0.00    -0.367 N 
HETATM   33  C7  UNL     1      -3.422   5.596   0.410  1.00  0.00     0.196 C 
HETATM   34  N3  UNL     1      -4.721   5.482  -0.210  1.00  0.00    -0.067 NA
HETATM   35  N4  UNL     1      -2.985   6.893   0.800  1.00  0.00    -0.067 NA
ATOM     36  H2  UNL     1      -1.758   4.679   1.052  1.00  0.00     0.161 HD
ENDBRANCH  31  32
ENDBRANCH  30  31
ENDBRANCH  29  30
ENDBRANCH   2  29
BRANCH   1  37
HETATM   37  C2  UNL     1      -2.462  -1.452  -2.021  1.00  0.00     0.145 C 
HETATM   38  C1  UNL     1      -1.262  -1.276  -2.880  1.00  0.00     0.028 C 
ENDBRANCH   1  37
BRANCH  18  39
HETATM   39  C20 UNL     1      -4.062  -2.285   0.552  1.00  0.00     0.196 C 
BRANCH  39  40
HETATM   40  C21 UNL     1      -4.243  -1.891   1.940  1.00  0.00     0.074 C 
HETATM   41  N11 UNL     1      -5.217  -1.154   2.295  1.00  0.00    -0.410 N 
ATOM     42 2H11 UNL     1      -5.874  -0.842   1.580  1.00  0.00     0.155 HD
ATOM     43 1H11 UNL     1      -5.344  -0.878   3.269  1.00  0.00     0.155 HD
ENDBRANCH  39  40
ENDBRANCH  18  39
TORSDOF 11
