REMARK  3 active torsions:
REMARK  status: ('A' for Active; 'I' for Inactive)
REMARK    1  A    between atoms: C2_2  and  N1_3 
REMARK       I    between atoms: N1_3  and  C3_5 
REMARK    2  A    between atoms: C3_5  and  C4_7 
REMARK    3  A    between atoms: C4_7  and  N2_8 
ROOT
HETATM    1  C4  UNL     1       0.387   0.142  -0.681  1.00  0.00     0.275 C 
HETATM    2  C5  UNL     1       0.016   0.233  -2.142  1.00  0.00     0.179 C 
HETATM    3  N3  UNL     1      -1.136   1.037  -2.324  1.00  0.00    -0.361 N 
ATOM      4  H3  UNL     1      -1.212   1.499  -3.230  1.00  0.00     0.162 HD
HETATM    5  C6  UNL     1      -2.096   1.263  -1.504  1.00  0.00     0.192 C 
HETATM    6  N4  UNL     1      -3.220   2.085  -1.766  1.00  0.00    -0.063 NA
HETATM    7  N5  UNL     1      -1.978   0.614  -0.218  1.00  0.00    -0.309 N 
HETATM    8  C7  UNL     1      -3.044   0.843   0.739  1.00  0.00     0.135 C 
HETATM    9  C8  UNL     1      -2.959  -0.101   1.910  1.00  0.00     0.040 C 
HETATM   10  C9  UNL     1      -2.252  -1.394   1.567  1.00  0.00     0.122 C 
HETATM   11  N6  UNL     1      -0.979  -1.158   0.906  1.00  0.00    -0.377 N 
ATOM     12  H6  UNL     1      -0.181  -1.757   1.119  1.00  0.00     0.160 HD
HETATM   13  C10 UNL     1      -0.848  -0.208   0.061  1.00  0.00     0.130 C 
ENDROOT
BRANCH   1  14
HETATM   14  C3  UNL     1       1.464  -0.864  -0.453  1.00  0.00     0.263 C 
HETATM   15  N1  UNL     1       2.730  -0.509   0.073  1.00  0.00    -0.359 N 
ATOM     16  H1  UNL     1       2.914   0.467   0.305  1.00  0.00     0.162 HD
HETATM   17  O1  UNL     1       1.242  -2.053  -0.735  1.00  0.00    -0.270 OA
BRANCH  15  18
HETATM   18  C2  UNL     1       3.768  -1.488   0.291  1.00  0.00     0.118 C 
HETATM   19  C1  UNL     1       5.021  -0.907   0.851  1.00  0.00     0.026 C 
ENDBRANCH  15  18
ENDBRANCH   1  14
BRANCH   1  20
HETATM   20  N2  UNL     1       0.913   1.425  -0.271  1.00  0.00    -0.053 N 
ATOM     21  H23 UNL     1       1.266   1.426   0.686  1.00  0.00     0.276 HD
ATOM     22  H22 UNL     1       1.790   1.665  -0.734  1.00  0.00     0.276 HD
ATOM     23  H21 UNL     1       0.176   2.113  -0.427  1.00  0.00     0.276 HD
ENDBRANCH   1  20
TORSDOF 3
