REMARK  2 active torsions:
REMARK  status: ('A' for Active; 'I' for Inactive)
REMARK       I    between atoms: C1_2  and  N2_4 
REMARK    1  A    between atoms: N2_4  and  C2_6 
REMARK    2  A    between atoms: N5_13  and  N6_14 
ROOT
HETATM    1  C2  UNL     1       0.064  -0.066   0.008  1.00  0.00     0.726 A 
HETATM    2  N3  UNL     1       0.164   1.271  -0.031  1.00  0.00    -0.126 N 
ATOM      3  H3  UNL     1      -0.617   1.925  -0.083  1.00  0.00     0.206 HD
HETATM    4  N4  UNL     1       1.442   1.598   0.009  1.00  0.00    -0.235 N 
ATOM      5  H4  UNL     1       1.817   2.547  -0.006  1.00  0.00     0.192 HD
HETATM    6  C3  UNL     1       2.164   0.469   0.073  1.00  0.00     0.375 A 
HETATM    7  O2  UNL     1       3.434   0.358   0.127  1.00  0.00    -0.243 OA
HETATM    8  N5  UNL     1       1.308  -0.556   0.073  1.00  0.00    -0.035 N 
ENDROOT
BRANCH   1   9
HETATM    9  N2  UNL     1      -1.166  -0.831  -0.015  1.00  0.00    -0.140 N 
HETATM   10  C1  UNL     1      -2.391  -0.157  -0.085  1.00  0.00     0.347 C 
HETATM   11  N1  UNL     1      -2.471   1.257  -0.133  1.00  0.00    -0.039 NA
HETATM   12  O1  UNL     1      -3.457  -0.844  -0.104  1.00  0.00    -0.250 OA
ATOM     13  H2  UNL     1      -1.140  -1.850   0.019  1.00  0.00     0.189 HD
ENDBRANCH   1   9
BRANCH   8  14
HETATM   14  N6  UNL     1       1.627  -1.942   0.130  1.00  0.00    -0.320 N 
ATOM     15  H62 UNL     1       0.973  -2.725   0.130  1.00  0.00     0.178 HD
ATOM     16  H61 UNL     1       2.575  -2.315   0.180  1.00  0.00     0.178 HD
ENDBRANCH   8  14
TORSDOF 2
