REMARK  2 active torsions:
REMARK  status: ('A' for Active; 'I' for Inactive)
REMARK       I    between atoms: C1_2  and  N2_4 
REMARK    1  A    between atoms: N2_4  and  N3_5 
REMARK       I    between atoms: N3_5  and  C2_7 
REMARK    2  A    between atoms: C2_7  and  C3_9 
REMARK       I    between atoms: C3_9  and  N4_10 
ROOT
HETATM    1  N3  UNL     1       0.043   0.104   0.049  1.00  0.00    -0.190 N 
ATOM      2  H3  UNL     1       0.569   0.844   0.515  1.00  0.00     0.205 HD
HETATM    3  C2  UNL     1       0.900  -0.679  -0.738  1.00  0.00     0.338 C 
HETATM    4  O2  UNL     1       0.504  -1.642  -1.408  1.00  0.00    -0.260 OA
ENDROOT
BRANCH   3   5
HETATM    5  C3  UNL     1       2.343  -0.332  -0.774  1.00  0.00     0.309 C 
HETATM    6  N4  UNL     1       3.296  -0.932  -1.571  1.00  0.00    -0.362 N 
ATOM      7  H42 UNL     1       3.020  -1.682  -2.205  1.00  0.00     0.159 HD
ATOM      8  H41 UNL     1       4.287  -0.694  -1.596  1.00  0.00     0.159 HD
HETATM    9  O3  UNL     1       2.694   0.620   0.031  1.00  0.00    -0.262 OA
ENDBRANCH   3   5
BRANCH   1  10
HETATM   10  N2  UNL     1      -1.203   0.176   0.364  1.00  0.00    -0.265 NA
HETATM   11  C1  UNL     1      -2.529   0.243   0.698  1.00  0.00     0.424 C 
HETATM   12  N1  UNL     1      -3.044   1.620   0.958  1.00  0.00    -0.024 NA
HETATM   13  O1  UNL     1      -3.409  -0.628   0.845  1.00  0.00    -0.232 OA
ENDBRANCH   1  10
TORSDOF 2
