REMARK  6 active torsions:
REMARK  status: ('A' for Active; 'I' for Inactive)
REMARK       I    between atoms: N1_2  and  C2_4 
REMARK    1  A    between atoms: C2_4  and  C3_6 
REMARK    2  A    between atoms: C3_6  and  N2_7 
REMARK    3  A    between atoms: N2_7  and  C4_10 
REMARK       I    between atoms: N3_12  and  C6_13 
REMARK       I    between atoms: C6_13  and  N4_15 
REMARK    4  A    between atoms: N4_15  and  N5_17 
REMARK    5  A    between atoms: N5_17  and  C7_19 
REMARK    6  A    between atoms: C8_22  and  N7_23 
ROOT
HETATM    1  C4  UNL     1       1.919  -2.005  -0.008  1.00  0.00     0.402 C 
HETATM    2  C5  UNL     1       0.733  -1.106   0.193  1.00  0.00     0.192 C 
HETATM    3  N3  UNL     1       0.108  -1.143  -1.095  1.00  0.00    -0.305 N 
HETATM    4  C6  UNL     1      -1.284  -1.090  -1.345  1.00  0.00     0.338 C 
HETATM    5  O2  UNL     1      -1.733  -1.128  -2.546  1.00  0.00    -0.245 OA
HETATM    6  N4  UNL     1      -2.244  -0.996  -0.313  1.00  0.00    -0.250 N 
ATOM      7  H4  UNL     1      -1.935  -0.964   0.659  1.00  0.00     0.192 HD
HETATM    8  C10 UNL     1       1.145  -1.245  -2.070  1.00  0.00     0.363 C 
HETATM    9  N9  UNL     1       2.094  -2.135  -1.447  1.00  0.00    -0.029 N 
ATOM     10  H91 UNL     1       2.015  -3.098  -1.775  1.00  0.00     0.281 HD
ATOM     11  H92 UNL     1       3.054  -1.972  -1.750  1.00  0.00     0.281 HD
ENDROOT
BRANCH   6  12
HETATM   12  N5  UNL     1      -3.591  -0.947  -0.599  1.00  0.00    -0.277 N 
ATOM     13  H5  UNL     1      -4.032  -1.641  -1.203  1.00  0.00     0.189 HD
BRANCH  12  14
HETATM   14  C7  UNL     1      -4.355   0.131  -0.007  1.00  0.00     0.188 A 
HETATM   15  N6  UNL     1      -4.762   0.040   1.194  1.00  0.00    -0.327 N 
HETATM   16  C8  UNL     1      -5.488   1.221   1.550  1.00  0.00     0.390 A 
ATOM     17  H6  UNL     1      -4.596  -0.755   1.811  1.00  0.00     0.165 HD
HETATM   18  N8  UNL     1      -5.493   2.080   0.398  1.00  0.00    -0.311 N 
HETATM   19  C9  UNL     1      -4.762   1.380  -0.596  1.00  0.00     0.289 A 
ATOM     20  H8  UNL     1      -5.929   2.998   0.313  1.00  0.00     0.166 HD
HETATM   21  O3  UNL     1      -4.496   1.746  -1.788  1.00  0.00    -0.264 OA
BRANCH  16  22
HETATM   22  N7  UNL     1      -6.829   0.812   1.931  1.00  0.00    -0.041 N 
ATOM     23  H73 UNL     1      -7.296   0.260   1.211  1.00  0.00     0.279 HD
ATOM     24  H72 UNL     1      -6.835   0.105   2.666  1.00  0.00     0.279 HD
ATOM     25  H71 UNL     1      -7.346   1.654   2.185  1.00  0.00     0.279 HD
ENDBRANCH  16  22
ENDBRANCH  12  14
ENDBRANCH   6  12
BRANCH   1  26
HETATM   26  N2  UNL     1       3.154  -1.460   0.493  1.00  0.00    -0.036 N 
ATOM     27  H22 UNL     1       3.892  -2.164   0.512  1.00  0.00     0.280 HD
ATOM     28  H21 UNL     1       3.097  -1.264   1.492  1.00  0.00     0.280 HD
BRANCH  26  29
HETATM   29  C3  UNL     1       3.556  -0.296  -0.249  1.00  0.00     0.337 C 
BRANCH  29  30
HETATM   30  C2  UNL     1       4.749   0.353   0.366  1.00  0.00     0.243 C 
HETATM   31  N1  UNL     1       5.354   1.491  -0.216  1.00  0.00    -0.364 N 
HETATM   32  C1  UNL     1       6.482   2.121   0.416  1.00  0.00     0.149 C 
ATOM     33  H1  UNL     1       4.988   1.868  -1.090  1.00  0.00     0.161 HD
HETATM   34  O1  UNL     1       5.212  -0.123   1.415  1.00  0.00    -0.272 OA
ENDBRANCH  29  30
ENDBRANCH  26  29
ENDBRANCH   1  26
TORSDOF 6
