REMARK  5 active torsions:
REMARK  status: ('A' for Active; 'I' for Inactive)
REMARK    1  A    between atoms: N1_1  and  N2_4 
REMARK       I    between atoms: N2_4  and  C1_6 
REMARK    2  A    between atoms: C1_6  and  C2_8 
REMARK    3  A    between atoms: N4_12  and  C4_13 
REMARK    4  A    between atoms: C4_13  and  C5_14 
REMARK    5  A    between atoms: C5_14  and  N5_15 
ROOT
HETATM    1  C2  UNL     1       2.023   0.506   0.611  1.00  0.00     0.161 A 
HETATM    2  N3  UNL     1       1.120  -0.395   0.233  1.00  0.00    -0.181 N 
ATOM      3  H3  UNL     1       1.120  -0.860  -0.675  1.00  0.00     0.184 HD
HETATM    4  C3  UNL     1       0.187  -0.621   1.217  1.00  0.00     0.703 A 
HETATM    5  N4  UNL     1      -0.884  -1.370   1.392  1.00  0.00    -0.138 N 
HETATM    6  C7  UNL     1      -1.527  -1.277   2.555  1.00  0.00     0.321 A 
HETATM    7  O2  UNL     1      -2.579  -1.913   2.921  1.00  0.00    -0.257 OA
HETATM    8  S1  UNL     1      -0.596  -0.119   3.393  1.00  0.00     0.074 SA
HETATM    9  N8  UNL     1       0.561   0.179   2.207  1.00  0.00    -0.095 N 
HETATM   10  C8  UNL     1       1.681   0.892   1.887  1.00  0.00     0.179 A 
HETATM   11  N9  UNL     1       2.335   1.822   2.704  1.00  0.00    -0.078 NA
ENDROOT
BRANCH   1  12
HETATM   12  C1  UNL     1       3.168   0.994  -0.187  1.00  0.00     0.290 C 
HETATM   13  N2  UNL     1       3.383   0.493  -1.494  1.00  0.00    -0.271 N 
ATOM     14  H2  UNL     1       2.753  -0.204  -1.892  1.00  0.00     0.189 HD
HETATM   15  O1  UNL     1       3.921   1.848   0.330  1.00  0.00    -0.264 OA
BRANCH  13  16
HETATM   16  N1  UNL     1       4.463   0.964  -2.224  1.00  0.00    -0.342 N 
ATOM     17  H12 UNL     1       5.084   1.661  -1.812  1.00  0.00     0.176 HD
ATOM     18  H11 UNL     1       4.618   0.603  -3.165  1.00  0.00     0.176 HD
ENDBRANCH  13  16
ENDBRANCH   1  12
BRANCH   5  19
HETATM   19  C4  UNL     1      -1.397  -2.304   0.352  1.00  0.00     0.171 C 
BRANCH  19  20
HETATM   20  C5  UNL     1      -2.379  -1.621  -0.536  1.00  0.00     0.143 C 
BRANCH  20  21
HETATM   21  N5  UNL     1      -1.804  -0.483  -1.231  1.00  0.00    -0.365 N 
HETATM   22  C6  UNL     1      -2.582   0.358  -1.827  1.00  0.00     0.197 C 
HETATM   23  N6  UNL     1      -2.019   1.477  -2.510  1.00  0.00    -0.067 NA
HETATM   24  N7  UNL     1      -3.989   0.234  -1.843  1.00  0.00    -0.067 NA
ATOM     25  H5  UNL     1      -0.793  -0.349  -1.248  1.00  0.00     0.161 HD
ENDBRANCH  20  21
ENDBRANCH  19  20
ENDBRANCH   5  19
TORSDOF 5
