REMARK  5 active torsions:
REMARK  status: ('A' for Active; 'I' for Inactive)
REMARK    1  A    between atoms: N1_1  and  N2_4 
REMARK    2  A    between atoms: N3_6  and  C1_8 
REMARK    3  A    between atoms: C1_8  and  C2_9 
REMARK    4  A    between atoms: C3_10  and  C4_11 
REMARK    5  A    between atoms: C4_11  and  O1_12 
ROOT
HETATM    1  N2  UNL     1       2.737   0.274   0.465  1.00  0.00    -0.253 N 
ATOM      2  H2  UNL     1       1.883   0.081   0.988  1.00  0.00     0.207 HD
HETATM    3  N3  UNL     1       2.539  -0.375  -0.577  1.00  0.00    -0.311 N 
ATOM      4  H3  UNL     1       3.174  -0.325  -1.374  1.00  0.00     0.182 HD
ENDROOT
BRANCH   3   5
HETATM    5  C1  UNL     1       1.360  -1.201  -0.592  1.00  0.00     0.234 C 
BRANCH   5   6
HETATM    6  C2  UNL     1       0.196  -0.409  -0.242  1.00  0.00    -0.083 C 
HETATM    7  C3  UNL     1      -0.778   0.255   0.040  1.00  0.00    -0.079 C 
BRANCH   7   8
HETATM    8  C4  UNL     1      -1.968   1.041   0.395  1.00  0.00     0.257 C 
BRANCH   8   9
HETATM    9  O1  UNL     1      -2.993   0.161   0.801  1.00  0.00    -0.389 OA
ATOM     10  H1  UNL     1      -3.762   0.669   1.030  1.00  0.00     0.210 HD
ENDBRANCH   8   9
ENDBRANCH   7   8
ENDBRANCH   5   6
ENDBRANCH   3   5
BRANCH   1  11
HETATM   11  N1  UNL     1       3.338   1.006   1.244  1.00  0.00    -0.331 N 
ATOM     12  H12 UNL     1       4.174   1.171   0.684  1.00  0.00     0.178 HD
ATOM     13  H11 UNL     1       3.500   1.538   2.099  1.00  0.00     0.178 HD
ENDBRANCH   1  11
TORSDOF 5
