REMARK  1 active torsions:
REMARK  status: ('A' for Active; 'I' for Inactive)
REMARK    1  A    between atoms: N3_9  and  O1_10 
ROOT
HETATM    1  C1  UNL     1      -1.598  -0.325   0.633  1.00  0.00     0.180 C 
HETATM    2  N1  UNL     1      -0.550   0.090  -0.165  1.00  0.00    -0.273 N 
HETATM    3  C2  UNL     1      -0.653   1.244  -0.953  1.00  0.00     0.165 C 
HETATM    4  S1  UNL     1       1.036   1.953  -0.709  1.00  0.00    -0.043 SA
HETATM    5  C3  UNL     1       1.744   0.415  -0.050  1.00  0.00     0.189 C 
HETATM    6  N2  UNL     1       2.931   0.266   0.368  1.00  0.00    -0.377 N 
ATOM      7  H21 UNL     1       3.328  -0.597   0.738  1.00  0.00     0.158 HD
ATOM      8  H22 UNL     1       3.712   0.919   0.433  1.00  0.00     0.158 HD
HETATM    9  N3  UNL     1       0.645  -0.503  -0.141  1.00  0.00    -0.138 N 
ENDROOT
BRANCH   9  10
HETATM   10  O1  UNL     1       0.841  -1.866  -0.195  1.00  0.00    -0.266 OA
ATOM     11  H1  UNL     1       1.692  -2.288  -0.178  1.00  0.00     0.247 HD
ENDBRANCH   9  10
TORSDOF 1
