REMARK  8 active torsions:
REMARK  status: ('A' for Active; 'I' for Inactive)
REMARK    1  A    between atoms: N2_8  and  C8_10 
REMARK    2  A    between atoms: C8_10  and  C9_11 
REMARK    3  A    between atoms: C9_11  and  N3_12 
REMARK       I    between atoms: N3_12  and  C10_14 
REMARK       I    between atoms: C10_14  and  N5_16 
REMARK       I    between atoms: N5_16  and  C11_18 
REMARK       I    between atoms: C11_18  and  N7_20 
REMARK       I    between atoms: N7_20  and  C12_21 
REMARK    4  A    between atoms: N9_23  and  C13_25 
REMARK    5  A    between atoms: C13_25  and  C14_26 
REMARK    6  A    between atoms: C14_26  and  N10_27 
REMARK       I    between atoms: N10_27  and  C15_29 
REMARK    7  A    between atoms: N12_31  and  S1_33 
REMARK    8  A    between atoms: S1_33  and  N13_34 
ROOT
HETATM    1  N3  UNL     1      -1.933   0.321  -0.225  1.00  0.00    -0.363 N 
ATOM      2  H3  UNL     1      -2.459  -0.537  -0.058  1.00  0.00     0.162 HD
HETATM    3  C10 UNL     1      -0.534   0.363   0.152  1.00  0.00     0.191 C 
HETATM    4  N4  UNL     1       0.240   1.423  -0.380  1.00  0.00    -0.063 NA
HETATM    5  N5  UNL     1      -0.062  -0.495   0.895  1.00  0.00    -0.293 N 
ATOM      6  H5  UNL     1      -0.809  -1.143   1.143  1.00  0.00     0.172 HD
HETATM    7  C11 UNL     1       1.066  -0.905   1.506  1.00  0.00     0.272 C 
HETATM    8  N6  UNL     1       0.828  -1.647   2.775  1.00  0.00    -0.049 NA
HETATM    9  N7  UNL     1       2.210  -0.763   1.191  1.00  0.00    -0.341 NA
HETATM   10  C12 UNL     1       3.498  -0.753   1.072  1.00  0.00     0.266 C 
HETATM   11  N8  UNL     1       4.184   0.266   0.292  1.00  0.00    -0.049 NA
HETATM   12  N9  UNL     1       4.273  -1.652   1.647  1.00  0.00    -0.351 N 
ATOM     13  H9  UNL     1       3.875  -2.400   2.215  1.00  0.00     0.163 HD
ENDROOT
BRANCH   1  14
HETATM   14  C9  UNL     1      -2.600   1.421  -0.815  1.00  0.00     0.150 C 
BRANCH  14  15
HETATM   15  C8  UNL     1      -4.072   1.293  -1.049  1.00  0.00     0.257 C 
BRANCH  15  16
HETATM   16  N2  UNL     1      -4.929   1.173   0.064  1.00  0.00    -0.062 N 
HETATM   17  C2  UNL     1      -6.315   1.483  -0.243  1.00  0.00     0.214 C 
HETATM   18  C1  UNL     1      -6.515   2.202  -1.554  1.00  0.00     0.042 C 
HETATM   19  C3  UNL     1      -7.197   0.250  -0.323  1.00  0.00     0.304 C 
HETATM   20  N1  UNL     1      -6.483  -0.821  -0.955  1.00  0.00     0.087 N 
HETATM   21  C4  UNL     1      -7.391  -1.953  -1.092  1.00  0.00     0.310 C 
HETATM   22  C5  UNL     1      -5.440  -1.245  -0.042  1.00  0.00     0.300 C 
HETATM   23  C6  UNL     1      -4.959  -0.076   0.773  1.00  0.00     0.267 C 
HETATM   24  C7  UNL     1      -4.531   2.162   1.097  1.00  0.00     0.273 C 
ENDBRANCH  15  16
ENDBRANCH  14  15
ENDBRANCH   1  14
BRANCH  12  25
HETATM   25  C13 UNL     1       5.692  -1.550   1.452  1.00  0.00     0.143 C 
BRANCH  25  26
HETATM   26  C14 UNL     1       6.234  -2.623   0.525  1.00  0.00     0.142 C 
BRANCH  26  27
HETATM   27  N10 UNL     1       7.658  -2.397   0.414  1.00  0.00    -0.362 N 
HETATM   28  C15 UNL     1       8.106  -1.212  -0.273  1.00  0.00     0.199 C 
HETATM   29  N11 UNL     1       7.972  -1.229  -1.677  1.00  0.00    -0.063 NA
HETATM   30  N12 UNL     1       8.597  -0.224   0.372  1.00  0.00    -0.241 N 
ATOM     31  H12 UNL     1       8.676  -0.277   1.388  1.00  0.00     0.183 HD
ATOM     32  H10 UNL     1       8.326  -3.058   0.811  1.00  0.00     0.162 HD
BRANCH  30  33
HETATM   33  S1  UNL     1       9.130   1.201  -0.450  1.00  0.00     0.319 S 
HETATM   34  O1  UNL     1       7.943   2.108  -0.550  1.00  0.00    -0.183 OA
HETATM   35  O2  UNL     1      10.260   1.798   0.328  1.00  0.00    -0.183 OA
BRANCH  33  36
HETATM   36  N13 UNL     1       9.611   0.751  -2.044  1.00  0.00    -0.311 N 
ATOM     37 2H13 UNL     1       9.580  -0.196  -2.422  1.00  0.00     0.170 HD
ATOM     38 1H13 UNL     1       9.925   1.592  -2.529  1.00  0.00     0.170 HD
ENDBRANCH  33  36
ENDBRANCH  30  33
ENDBRANCH  26  27
ENDBRANCH  25  26
ENDBRANCH  12  25
TORSDOF 8
