REMARK  7 active torsions:
REMARK  status: ('A' for Active; 'I' for Inactive)
REMARK    1  A    between atoms: C3_3  and  N1_4 
REMARK    2  A    between atoms: C3_3  and  C11_18 
REMARK    3  A    between atoms: N1_4  and  C4_6 
REMARK    4  A    between atoms: C4_6  and  C5_7 
REMARK       I    between atoms: C5_7  and  N2_9 
REMARK       I    between atoms: C6_11  and  N4_13 
REMARK    5  A    between atoms: C13_20  and  N5_21 
REMARK    6  A    between atoms: C15_26  and  N8_27 
REMARK    7  A    between atoms: C17_32  and  N11_33 
ROOT
HETATM    1  C1  UNL     1       0.287   2.181   1.464  1.00  0.00     0.014 C 
HETATM    2  C2  UNL     1       0.304   1.115   0.892  1.00  0.00    -0.092 C 
HETATM    3  C3  UNL     1       0.270  -0.159   0.244  1.00  0.00     0.164 C 
ENDROOT
BRANCH   3   4
HETATM    4  N1  UNL     1       1.113  -0.447  -0.827  1.00  0.00    -0.379 N 
ATOM      5  H1  UNL     1       0.713  -0.626  -1.748  1.00  0.00     0.160 HD
BRANCH   4   6
HETATM    6  C4  UNL     1       2.483  -0.493  -0.658  1.00  0.00     0.159 C 
BRANCH   6   7
HETATM    7  C5  UNL     1       3.306   0.700  -0.594  1.00  0.00     0.262 C 
HETATM    8  O1  UNL     1       2.773   1.849  -0.776  1.00  0.00    -0.267 OA
HETATM    9  N2  UNL     1       4.672   0.640  -0.338  1.00  0.00    -0.296 N 
HETATM   10  C6  UNL     1       5.482  -0.306  -0.166  1.00  0.00     0.193 C 
ATOM     11  H2  UNL     1       5.110   1.559  -0.277  1.00  0.00     0.171 HD
HETATM   12  N3  UNL     1       5.078  -1.660  -0.213  1.00  0.00    -0.063 NA
HETATM   13  N4  UNL     1       6.878   0.015   0.091  1.00  0.00    -0.355 N 
HETATM   14  C7  UNL     1       7.257   1.053   1.023  1.00  0.00     0.125 C 
HETATM   15  C10 UNL     1       8.060  -0.581  -0.469  1.00  0.00     0.125 C 
HETATM   16  C8  UNL     1       8.743   1.012   1.129  1.00  0.00     0.021 C 
HETATM   17  C9  UNL     1       9.125  -0.352   0.591  1.00  0.00     0.021 C 
ENDBRANCH   6   7
ENDBRANCH   4   6
ENDBRANCH   3   4
BRANCH   3  18
HETATM   18  C11 UNL     1      -1.193  -0.546  -0.063  1.00  0.00     0.024 C 
HETATM   19  C12 UNL     1      -1.867   0.453  -0.953  1.00  0.00     0.035 C 
HETATM   20  C13 UNL     1      -3.200  -0.134  -1.356  1.00  0.00     0.109 C 
HETATM   21  C15 UNL     1      -3.652  -1.241  -0.473  1.00  0.00     0.129 C 
HETATM   22  C17 UNL     1      -3.381  -0.994   1.005  1.00  0.00     0.109 C 
HETATM   23  C19 UNL     1      -1.961  -0.580   1.245  1.00  0.00     0.035 C 
BRANCH  20  24
HETATM   24  N5  UNL     1      -4.244   0.826  -1.518  1.00  0.00    -0.360 N 
HETATM   25  C14 UNL     1      -4.189   1.994  -1.973  1.00  0.00     0.197 C 
HETATM   26  N6  UNL     1      -2.969   2.548  -2.420  1.00  0.00    -0.067 NA
HETATM   27  N7  UNL     1      -5.359   2.783  -2.046  1.00  0.00    -0.067 NA
ATOM     28  H5  UNL     1      -5.170   0.517  -1.221  1.00  0.00     0.162 HD
ENDBRANCH  20  24
BRANCH  21  29
HETATM   29  N8  UNL     1      -5.076  -1.468  -0.611  1.00  0.00    -0.358 N 
HETATM   30  C16 UNL     1      -5.603  -2.640  -0.444  1.00  0.00     0.197 C 
HETATM   31  N9  UNL     1      -6.998  -2.806  -0.590  1.00  0.00    -0.067 NA
HETATM   32  N10 UNL     1      -4.739  -3.720  -0.116  1.00  0.00    -0.067 NA
ATOM     33  H8  UNL     1      -5.682  -0.682  -0.847  1.00  0.00     0.162 HD
ENDBRANCH  21  29
BRANCH  22  34
HETATM   34  N11 UNL     1      -4.390  -0.286   1.660  1.00  0.00    -0.360 N 
HETATM   35  C18 UNL     1      -4.591   0.832   2.140  1.00  0.00     0.197 C 
HETATM   36  N12 UNL     1      -5.893   1.053   2.738  1.00  0.00    -0.067 NA
HETATM   37  N13 UNL     1      -3.737   1.961   2.197  1.00  0.00    -0.067 NA
ATOM     38  H11 UNL     1      -5.215  -0.874   1.778  1.00  0.00     0.162 HD
ENDBRANCH  22  34
ENDBRANCH   3  18
TORSDOF 7
