REMARK  3 active torsions:
REMARK  status: ('A' for Active; 'I' for Inactive)
REMARK    1  A    between atoms: C6_6  and  N1_7 
REMARK    2  A    between atoms: N1_7  and  C7_9 
REMARK    3  A    between atoms: C7_9  and  C8_10 
ROOT
HETATM    1  C1  UNL     1      -4.581  -3.194   0.257  1.00  0.00     0.015 C 
HETATM    2  C2  UNL     1      -3.810  -2.230  -0.157  1.00  0.00    -0.080 C 
HETATM    3  C3  UNL     1      -2.344  -2.324  -0.441  1.00  0.00     0.068 C 
HETATM    4  C4  UNL     1      -1.822  -0.995  -0.069  1.00  0.00    -0.068 C 
HETATM    5  C5  UNL     1      -0.645  -0.363   0.016  1.00  0.00     0.002 C 
HETATM    6  C6  UNL     1      -0.568   1.030   0.459  1.00  0.00     0.105 C 
HETATM    7  C17 UNL     1      -1.687   1.905  -0.098  1.00  0.00     0.039 C 
HETATM    8  C18 UNL     1      -2.900   1.184  -0.473  1.00  0.00     0.029 C 
HETATM    9  C19 UNL     1      -4.192   1.863  -0.181  1.00  0.00    -0.084 C 
HETATM   10  C20 UNL     1      -4.230   3.177  -0.262  1.00  0.00     0.015 C 
HETATM   11  C21 UNL     1      -5.423   1.151   0.194  1.00  0.00     0.034 C 
HETATM   12  C22 UNL     1      -5.421  -0.323   0.073  1.00  0.00     0.014 C 
HETATM   13  C23 UNL     1      -4.146  -0.843  -0.444  1.00  0.00     0.027 C 
HETATM   14  C24 UNL     1      -2.999  -0.132   0.270  1.00  0.00    -0.006 C 
HETATM   15  C25 UNL     1      -3.199  -0.021   1.730  1.00  0.00     0.021 C 
ENDROOT
BRANCH   6  16
HETATM   16  N1  UNL     1       0.636   1.707   0.303  1.00  0.00    -0.391 N 
ATOM     17  H1  UNL     1       0.639   2.505  -0.332  1.00  0.00     0.159 HD
BRANCH  16  18
HETATM   18  C7  UNL     1       1.836   1.398   0.932  1.00  0.00     0.090 C 
BRANCH  18  19
HETATM   19  C8  UNL     1       2.530   0.185   0.441  1.00  0.00    -0.047 C 
HETATM   20  C9  UNL     1       2.792  -0.843   1.251  1.00  0.00    -0.018 C 
HETATM   21  C10 UNL     1       3.482  -2.072   0.792  1.00  0.00     0.028 C 
HETATM   22  C11 UNL     1       4.936  -1.928   0.512  1.00  0.00     0.004 C 
HETATM   23  C12 UNL     1       5.541  -0.683   1.062  1.00  0.00     0.000 C 
HETATM   24  C13 UNL     1       6.178   0.226   0.071  1.00  0.00     0.000 C 
HETATM   25  C14 UNL     1       5.490   0.367  -1.243  1.00  0.00     0.000 C 
HETATM   26  C15 UNL     1       4.176   1.087  -1.184  1.00  0.00     0.005 C 
HETATM   27  C16 UNL     1       2.983   0.159  -1.012  1.00  0.00     0.039 C 
ENDBRANCH  18  19
ENDBRANCH  16  18
ENDBRANCH   6  16
TORSDOF 3
