REMARK  9 active torsions:
REMARK  status: ('A' for Active; 'I' for Inactive)
REMARK    1  A    between atoms: O1_2  and  C2_3 
REMARK    2  A    between atoms: C2_3  and  C3_4 
REMARK    3  A    between atoms: C8_9  and  C9_10 
REMARK    4  A    between atoms: C9_10  and  S1_11 
REMARK    5  A    between atoms: S1_11  and  C10_12 
REMARK    6  A    between atoms: C10_12  and  C11_13 
REMARK    7  A    between atoms: N3_18  and  C12_19 
REMARK    8  A    between atoms: C13_25  and  N6_26 
REMARK    9  A    between atoms: C14_29  and  C15_30 
ROOT
HETATM    1  C11 UNL     1       1.277   0.214  -0.371  1.00  0.00     0.065 A 
HETATM    2  N1  UNL     1       0.629   1.360  -0.318  1.00  0.00    -0.287 N 
ATOM      3  H1  UNL     1      -0.369   1.479  -0.494  1.00  0.00     0.188 HD
HETATM    4  N2  UNL     1       1.452   2.313  -0.008  1.00  0.00    -0.234 N 
ATOM      5  H2  UNL     1       1.201   3.296   0.099  1.00  0.00     0.209 HD
HETATM    6  N3  UNL     1       2.679   1.808   0.149  1.00  0.00    -0.218 N 
HETATM    7  C14 UNL     1       2.610   0.492  -0.070  1.00  0.00     0.087 A 
ENDROOT
BRANCH   1   8
HETATM    8  C10 UNL     1       0.716  -1.097  -0.687  1.00  0.00     0.135 C 
BRANCH   8   9
HETATM    9  S1  UNL     1      -0.994  -1.339  -0.845  1.00  0.00    -0.163 SA
BRANCH   9  10
HETATM   10  C9  UNL     1      -2.179  -0.061  -0.489  1.00  0.00     0.079 C 
BRANCH  10  11
HETATM   11  C8  UNL     1      -3.513  -0.686  -0.083  1.00  0.00     0.001 C 
HETATM   12  C3  UNL     1      -4.598   0.240   0.247  1.00  0.00     0.014 C 
HETATM   13  C4  UNL     1      -5.928  -0.515   0.252  1.00  0.00     0.007 C 
HETATM   14  C5  UNL     1      -5.760  -1.988   0.538  1.00  0.00     0.000 C 
HETATM   15  C6  UNL     1      -4.867  -2.681  -0.459  1.00  0.00     0.000 C 
HETATM   16  C7  UNL     1      -3.926  -1.706  -1.135  1.00  0.00     0.006 C 
BRANCH  12  17
HETATM   17  C2  UNL     1      -4.760   1.417  -0.638  1.00  0.00     0.172 C 
BRANCH  17  18
HETATM   18  O1  UNL     1      -5.743   2.266  -0.197  1.00  0.00    -0.396 OA
HETATM   19  C1  UNL     1      -5.490   2.782   1.044  1.00  0.00     0.201 C 
ENDBRANCH  17  18
ENDBRANCH  12  17
ENDBRANCH  10  11
ENDBRANCH   9  10
ENDBRANCH   8   9
ENDBRANCH   1   8
BRANCH   7  20
HETATM   20  C15 UNL     1       3.650  -0.540  -0.081  1.00  0.00    -0.049 C 
HETATM   21  C16 UNL     1       4.025  -0.962   1.319  1.00  0.00     0.036 C 
HETATM   22  C17 UNL     1       5.355  -1.628   1.339  1.00  0.00     0.004 C 
HETATM   23  C18 UNL     1       5.264  -2.771   0.309  1.00  0.00     0.001 C 
HETATM   24  C19 UNL     1       5.203  -2.122  -1.058  1.00  0.00     0.004 C 
HETATM   25  C20 UNL     1       3.758  -1.532  -1.144  1.00  0.00     0.036 C 
ENDBRANCH   7  20
BRANCH   6  26
HETATM   26  C12 UNL     1       3.829   2.626   0.478  1.00  0.00     0.196 A 
HETATM   27  N4  UNL     1       4.878   2.368   1.283  1.00  0.00    -0.220 N 
HETATM   28  O2  UNL     1       5.691   3.402   1.299  1.00  0.00    -0.153 OA
ATOM     29  H4  UNL     1       5.020   1.501   1.802  1.00  0.00     0.198 HD
HETATM   30  N5  UNL     1       5.232   4.334   0.549  1.00  0.00    -0.222 N 
HETATM   31  C13 UNL     1       4.062   3.897   0.003  1.00  0.00     0.169 A 
ATOM     32  H5  UNL     1       5.666   5.243   0.389  1.00  0.00     0.198 HD
BRANCH  31  33
HETATM   33  N6  UNL     1       3.388   4.626  -0.801  1.00  0.00    -0.381 N 
ATOM     34  H62 UNL     1       2.512   4.299  -1.210  1.00  0.00     0.157 HD
ATOM     35  H61 UNL     1       3.561   5.568  -1.153  1.00  0.00     0.157 HD
ENDBRANCH  31  33
ENDBRANCH   6  26
TORSDOF 9
