REMARK  10 active torsions:
REMARK  status: ('A' for Active; 'I' for Inactive)
REMARK    1  A    between atoms: C2_2  and  C3_3 
REMARK    2  A    between atoms: C3_3  and  C5_5 
REMARK    3  A    between atoms: C12_18  and  C13_19 
REMARK    4  A    between atoms: C16_24  and  O2_25 
REMARK    5  A    between atoms: C17_27  and  C18_28 
REMARK    6  A    between atoms: C18_28  and  C19_29 
REMARK    7  A    between atoms: C19_29  and  C20_30 
REMARK    8  A    between atoms: C20_30  and  C21_31 
REMARK    9  A    between atoms: C21_31  and  N4_32 
REMARK   10  A    between atoms: C26_43  and  O5_44 
ROOT
HETATM    1  C5  UNL     1      -3.196  -2.231   0.436  1.00  0.00     0.163 C 
HETATM    2  N1  UNL     1      -4.224  -1.286   0.767  1.00  0.00    -0.343 N 
ATOM      3  H1  UNL     1      -4.896  -1.661   1.437  1.00  0.00     0.163 HD
HETATM    4  C6  UNL     1      -4.520   0.012   0.394  1.00  0.00     0.269 C 
HETATM    5  O1  UNL     1      -5.783   0.300   0.333  1.00  0.00    -0.266 OA
HETATM    6  C7  UNL     1      -3.595   1.147   0.043  1.00  0.00     0.108 A 
HETATM    7  N2  UNL     1      -2.411   1.454   0.569  1.00  0.00    -0.352 N 
ATOM      8  H2  UNL     1      -2.000   1.013   1.392  1.00  0.00     0.166 HD
HETATM    9  C8  UNL     1      -1.842   2.432  -0.150  1.00  0.00     0.051 A 
HETATM   10  C9  UNL     1      -2.723   2.767  -1.167  1.00  0.00     0.044 A 
HETATM   11 BR1  UNL     1      -2.537   4.092  -2.526  1.00  0.00    -0.048 Br
HETATM   12  C10 UNL     1      -3.825   1.978  -1.066  1.00  0.00    -0.010 A 
HETATM   13  C11 UNL     1      -5.048   2.009  -1.960  1.00  0.00     0.052 C 
HETATM   14  C12 UNL     1      -0.462   2.960  -0.034  1.00  0.00     0.138 C 
HETATM   15  N3  UNL     1       0.518   1.967  -0.525  1.00  0.00    -0.362 N 
ATOM     16  H3  UNL     1       1.475   2.312  -0.601  1.00  0.00     0.162 HD
HETATM   17  C16 UNL     1       0.347   0.643  -0.899  1.00  0.00     0.135 C 
HETATM   18  C17 UNL     1       0.009  -0.586  -0.134  1.00  0.00     0.158 C 
HETATM   19  N6  UNL     1      -0.958  -1.460  -0.750  1.00  0.00    -0.361 N 
ATOM     20  H6  UNL     1      -0.546  -2.030  -1.489  1.00  0.00     0.162 HD
HETATM   21  C26 UNL     1      -2.305  -1.716  -0.586  1.00  0.00     0.135 C 
ENDROOT
BRANCH  18  22
HETATM   22  C18 UNL     1       1.332  -1.426   0.002  1.00  0.00     0.033 C 
BRANCH  22  23
HETATM   23  C19 UNL     1       2.347  -0.584   0.740  1.00  0.00     0.004 C 
BRANCH  23  24
HETATM   24  C20 UNL     1       3.627  -1.292   0.934  1.00  0.00     0.020 C 
BRANCH  24  25
HETATM   25  C21 UNL     1       4.425  -1.671  -0.261  1.00  0.00     0.137 C 
BRANCH  25  26
HETATM   26  N4  UNL     1       4.892  -0.610  -1.081  1.00  0.00    -0.270 N 
HETATM   27  C22 UNL     1       4.199  -0.137  -2.219  1.00  0.00     0.229 C 
HETATM   28  O3  UNL     1       3.538  -0.863  -2.979  1.00  0.00    -0.273 OA
HETATM   29  C23 UNL     1       4.282   1.321  -2.504  1.00  0.00     0.123 C 
HETATM   30  C24 UNL     1       5.674   1.853  -2.560  1.00  0.00     0.133 C 
HETATM   31  N5  UNL     1       6.533   1.164  -1.629  1.00  0.00    -0.342 N 
HETATM   32  C25 UNL     1       6.121   0.092  -0.789  1.00  0.00     0.325 C 
ATOM     33  H5  UNL     1       7.505   1.467  -1.568  1.00  0.00     0.164 HD
HETATM   34  O4  UNL     1       6.841  -0.214   0.183  1.00  0.00    -0.247 OA
ENDBRANCH  25  26
ENDBRANCH  24  25
ENDBRANCH  23  24
ENDBRANCH  22  23
ENDBRANCH  18  22
BRANCH  17  35
HETATM   35  O2  UNL     1       0.515   0.393  -2.165  1.00  0.00    -0.348 OA
ATOM     36  H2  UNL     1       0.398  -0.514  -2.421  1.00  0.00     0.219 HD
ENDBRANCH  17  35
BRANCH  21  37
HETATM   37  O5  UNL     1      -3.019  -1.420  -1.654  1.00  0.00    -0.348 OA
ATOM     38  H5  UNL     1      -2.435  -1.083  -2.323  1.00  0.00     0.219 HD
ENDBRANCH  21  37
BRANCH  14  39
HETATM   39  C13 UNL     1       0.064   3.599   1.141  1.00  0.00     0.006 C 
HETATM   40  C14 UNL     1      -0.653   4.860   1.597  1.00  0.00     0.012 C 
HETATM   41  C15 UNL     1       0.419   2.706   2.318  1.00  0.00     0.012 C 
ENDBRANCH  14  39
BRANCH   1  42
HETATM   42  C3  UNL     1      -2.600  -2.924   1.614  1.00  0.00     0.012 C 
HETATM   43  C4  UNL     1      -3.635  -3.592   2.465  1.00  0.00     0.012 C 
BRANCH  42  44
HETATM   44  C2  UNL     1      -1.582  -3.958   1.219  1.00  0.00     0.002 C 
HETATM   45  C1  UNL     1      -2.332  -5.056   0.451  1.00  0.00     0.005 C 
ENDBRANCH  42  44
ENDBRANCH   1  42
TORSDOF 10
