REMARK  9 active torsions:
REMARK  status: ('A' for Active; 'I' for Inactive)
REMARK    1  A    between atoms: C2_2  and  C4_4 
REMARK    2  A    between atoms: C12_16  and  C13_17 
REMARK    3  A    between atoms: C13_17  and  C14_18 
REMARK    4  A    between atoms: C14_18  and  C15_19 
REMARK    5  A    between atoms: C15_19  and  C16_20 
REMARK    6  A    between atoms: C16_20  and  C17_21 
REMARK    7  A    between atoms: C17_21  and  C18_22 
REMARK    8  A    between atoms: C18_22  and  S1_24 
REMARK    9  A    between atoms: C23_36  and  O6_37 
ROOT
HETATM    1  C4  UNL     1      -4.628   0.030   0.343  1.00  0.00     0.017 C 
HETATM    2  C5  UNL     1      -4.210  -0.242  -0.893  1.00  0.00     0.044 C 
HETATM    3  N1  UNL     1      -4.938  -1.305  -1.576  1.00  0.00    -0.105 NA
HETATM    4  C6  UNL     1      -3.154   0.386  -1.682  1.00  0.00     0.009 C 
HETATM    5  C7  UNL     1      -3.004   1.847  -1.540  1.00  0.00     0.023 C 
HETATM    6  C8  UNL     1      -3.579   0.177  -3.168  1.00  0.00     0.023 C 
HETATM    7  C9  UNL     1      -1.816  -0.316  -1.537  1.00  0.00     0.137 C 
HETATM    8  N2  UNL     1      -0.713   0.380  -2.136  1.00  0.00    -0.360 N 
ATOM      9  H2  UNL     1      -0.547   0.147  -3.115  1.00  0.00     0.162 HD
HETATM   10  C10 UNL     1       0.167   1.317  -1.610  1.00  0.00     0.219 C 
HETATM   11  O1  UNL     1       0.548   2.235  -2.441  1.00  0.00    -0.274 OA
HETATM   12  C11 UNL     1       0.728   1.420  -0.247  1.00  0.00     0.128 C 
HETATM   13  C12 UNL     1       1.021   0.137   0.438  1.00  0.00     0.093 C 
HETATM   14  N3  UNL     1       0.584   0.048   1.813  1.00  0.00    -0.354 N 
ATOM     15  H3  UNL     1       1.236  -0.462   2.409  1.00  0.00     0.162 HD
HETATM   16  C20 UNL     1      -0.523   0.505   2.488  1.00  0.00     0.240 C 
HETATM   17  O5  UNL     1      -0.329   1.387   3.414  1.00  0.00    -0.271 OA
HETATM   18  C21 UNL     1      -1.968   0.214   2.408  1.00  0.00     0.171 C 
HETATM   19  C22 UNL     1      -2.512   0.129   3.846  1.00  0.00     0.042 C 
HETATM   20  N4  UNL     1      -2.761   1.170   1.729  1.00  0.00    -0.358 N 
ATOM     21  H4  UNL     1      -2.319   2.076   1.574  1.00  0.00     0.162 HD
HETATM   22  C23 UNL     1      -4.085   1.043   1.234  1.00  0.00     0.144 C 
ENDROOT
BRANCH  13  23
HETATM   23  C13 UNL     1       2.534  -0.213   0.324  1.00  0.00     0.026 C 
BRANCH  23  24
HETATM   24  C14 UNL     1       2.897  -0.336  -1.103  1.00  0.00     0.002 C 
BRANCH  24  25
HETATM   25  C15 UNL     1       4.367  -0.700  -1.233  1.00  0.00     0.001 C 
BRANCH  25  26
HETATM   26  C16 UNL     1       5.193   0.382  -0.611  1.00  0.00     0.008 C 
BRANCH  26  27
HETATM   27  C17 UNL     1       6.678   0.168  -0.695  1.00  0.00     0.096 C 
BRANCH  27  28
HETATM   28  C18 UNL     1       7.133  -1.026   0.007  1.00  0.00     0.242 C 
HETATM   29  O2  UNL     1       6.381  -1.712   0.649  1.00  0.00    -0.281 OA
BRANCH  28  30
HETATM   30  S1  UNL     1       8.851  -1.439  -0.114  1.00  0.00     0.205 S 
HETATM   31  C19 UNL     1       9.679  -0.618   1.233  1.00  0.00     0.170 C 
HETATM   32  O3  UNL     1       9.047  -2.924  -0.031  1.00  0.00    -0.220 OA
HETATM   33  O4  UNL     1       9.368  -0.925  -1.414  1.00  0.00    -0.220 OA
ENDBRANCH  28  30
ENDBRANCH  27  28
ENDBRANCH  26  27
ENDBRANCH  25  26
ENDBRANCH  24  25
ENDBRANCH  23  24
ENDBRANCH  13  23
BRANCH  22  34
HETATM   34  O6  UNL     1      -4.972   1.936   1.602  1.00  0.00    -0.346 OA
ATOM     35  H6  UNL     1      -4.617   2.598   2.184  1.00  0.00     0.219 HD
ENDBRANCH  22  34
BRANCH   1  36
HETATM   36  C2  UNL     1      -5.802  -0.787   0.878  1.00  0.00     0.016 C 
HETATM   37  C1  UNL     1      -6.941   0.180   1.247  1.00  0.00     0.015 C 
HETATM   38  C3  UNL     1      -5.516  -1.591   2.079  1.00  0.00     0.015 C 
ENDBRANCH   1  36
TORSDOF 9
