REMARK  1 active torsions:
REMARK  status: ('A' for Active; 'I' for Inactive)
REMARK    1  A    between atoms: N1_1  and  C1_4 
ROOT
HETATM    1  C1  UNL     1      -2.339  -0.774  -0.023  1.00  0.00     0.680 A 
HETATM    2  N2  UNL     1      -2.574   0.506   0.283  1.00  0.00    -0.155 N 
ATOM      3  H2  UNL     1      -3.532   0.829   0.419  1.00  0.00     0.187 HD
HETATM    4  C2  UNL     1      -1.533   1.383   0.414  1.00  0.00     0.279 A 
HETATM    5  O1  UNL     1      -1.775   2.586   0.703  1.00  0.00    -0.266 OA
HETATM    6  C3  UNL     1      -0.238   0.959   0.233  1.00  0.00     0.145 A 
HETATM    7  C4  UNL     1       0.804   1.833   0.363  1.00  0.00     0.267 A 
HETATM    8  O2  UNL     1       0.649   3.039   0.647  1.00  0.00    -0.267 OA
HETATM    9  N3  UNL     1       2.066   1.378   0.177  1.00  0.00    -0.296 N 
ATOM     10  H3  UNL     1       2.851   2.022   0.272  1.00  0.00     0.171 HD
HETATM   11  C5  UNL     1       2.300   0.087  -0.132  1.00  0.00     0.196 A 
HETATM   12  N4  UNL     1       3.644  -0.337  -0.316  1.00  0.00    -0.063 NA
HETATM   13  N5  UNL     1       1.279  -0.771  -0.259  1.00  0.00    -0.315 N 
ATOM     14  H5  UNL     1       1.472  -1.745  -0.492  1.00  0.00     0.170 HD
HETATM   15  C6  UNL     1       0.009  -0.377  -0.087  1.00  0.00     0.144 A 
HETATM   16  N6  UNL     1      -1.059  -1.154  -0.193  1.00  0.00    -0.176 N 
ATOM     17  H6  UNL     1      -0.896  -2.134  -0.426  1.00  0.00     0.186 HD
ENDROOT
BRANCH   1  18
HETATM   18  N1  UNL     1      -3.320  -1.635  -0.154  1.00  0.00    -0.234 N 
ATOM     19  H12 UNL     1      -4.290  -1.347  -0.025  1.00  0.00     0.174 HD
ATOM     20  H11 UNL     1      -3.141  -2.612  -0.387  1.00  0.00     0.174 HD
ENDBRANCH   1  18
TORSDOF 1
