REMARK  8 active torsions:
REMARK  status: ('A' for Active; 'I' for Inactive)
REMARK    1  A    between atoms: C2_2  and  C3_3 
REMARK    2  A    between atoms: C3_3  and  C4_4 
REMARK    3  A    between atoms: C4_4  and  N1_5 
REMARK    4  A    between atoms: N1_5  and  C5_6 
REMARK    5  A    between atoms: N1_5  and  C7_9 
REMARK    6  A    between atoms: C5_6  and  C6_7 
REMARK    7  A    between atoms: N3_16  and  C12_18 
REMARK    8  A    between atoms: C14_20  and  C15_21 
ROOT
HETATM    1  C7  UNL     1      -0.749   0.445  -0.544  1.00  0.00     0.120 A 
HETATM    2  C8  UNL     1      -0.278   1.552   0.112  1.00  0.00     0.074 A 
HETATM    3  C9  UNL     1       1.081   1.704   0.405  1.00  0.00     0.026 A 
HETATM    4  C10 UNL     1       1.592   2.917   1.119  1.00  0.00     0.069 C 
HETATM    5  N2  UNL     1       1.891   0.702   0.004  1.00  0.00    -0.196 N 
ATOM      6  H2  UNL     1       2.887   0.789   0.205  1.00  0.00     0.184 HD
HETATM    7  C11 UNL     1       1.477  -0.406  -0.644  1.00  0.00     0.684 A 
HETATM    8  N3  UNL     1       2.259  -1.340  -1.059  1.00  0.00    -0.185 N 
ATOM      9  H3  UNL     1       1.879  -2.157  -1.537  1.00  0.00     0.185 HD
HETATM   10  N4  UNL     1       0.133  -0.508  -0.907  1.00  0.00    -0.176 N 
ATOM     11  H4  UNL     1      -0.211  -1.335  -1.395  1.00  0.00     0.186 HD
ENDROOT
BRANCH   8  12
HETATM   12  C12 UNL     1       3.658  -1.219  -0.844  1.00  0.00     0.091 A 
HETATM   13  C13 UNL     1       4.460  -1.447   0.227  1.00  0.00     0.054 A 
HETATM   14  C14 UNL     1       5.780  -1.224   0.085  1.00  0.00     0.057 A 
HETATM   15  C16 UNL     1       6.223  -0.781  -1.133  1.00  0.00     0.068 A 
HETATM   16  S1  UNL     1       4.788  -0.686  -2.045  1.00  0.00    -0.083 SA
BRANCH  14  17
HETATM   17  C15 UNL     1       6.790  -1.454   1.205  1.00  0.00     0.418 C 
HETATM   18  F1  UNL     1       7.215  -0.248   1.710  1.00  0.00    -0.166 F 
HETATM   19  F2  UNL     1       7.903  -2.097   0.716  1.00  0.00    -0.166 F 
HETATM   20  F3  UNL     1       6.256  -2.256   2.187  1.00  0.00    -0.166 F 
ENDBRANCH  14  17
ENDBRANCH   8  12
BRANCH   1  21
HETATM   21  N1  UNL     1      -2.104   0.302  -0.883  1.00  0.00    -0.366 N 
BRANCH  21  22
HETATM   22  C4  UNL     1      -3.199  -0.051  -0.042  1.00  0.00     0.124 C 
BRANCH  22  23
HETATM   23  C3  UNL     1      -2.948  -0.338   1.388  1.00  0.00     0.019 C 
BRANCH  23  24
HETATM   24  C2  UNL     1      -4.346  -0.664   1.989  1.00  0.00    -0.003 C 
HETATM   25  C1  UNL     1      -4.963  -1.851   1.267  1.00  0.00     0.005 C 
ENDBRANCH  23  24
ENDBRANCH  22  23
ENDBRANCH  21  22
BRANCH  21  26
HETATM   26  C5  UNL     1      -2.502   0.499  -2.293  1.00  0.00     0.139 C 
BRANCH  26  27
HETATM   27  C6  UNL     1      -3.386   1.686  -2.483  1.00  0.00     0.134 C 
HETATM   28 CL1  UNL     1      -2.672   3.212  -2.016  1.00  0.00    -0.129 Cl
ENDBRANCH  26  27
ENDBRANCH  21  26
ENDBRANCH   1  21
TORSDOF 8
