REMARK  4 active torsions:
REMARK  status: ('A' for Active; 'I' for Inactive)
REMARK       I    between atoms: C1_2  and  N1_3 
REMARK    1  A    between atoms: C1_2  and  C11_17 
REMARK    2  A    between atoms: N1_3  and  C2_5 
REMARK    3  A    between atoms: C2_5  and  C3_6 
REMARK    4  A    between atoms: C3_6  and  N2_7 
ROOT
HETATM    1  C2  UNL     1      -0.191   0.507  -1.018  1.00  0.00     0.143 C 
ENDROOT
BRANCH   1   2
HETATM    2  N1  UNL     1       1.217   0.274  -0.976  1.00  0.00    -0.355 N 
HETATM    3  C1  UNL     1       1.872  -0.466   0.040  1.00  0.00     0.251 C 
HETATM    4  O1  UNL     1       1.212  -0.974   0.994  1.00  0.00    -0.268 OA
ATOM      5  H1  UNL     1       1.788   0.665  -1.725  1.00  0.00     0.162 HD
BRANCH   3   6
HETATM    6  C11 UNL     1       3.302  -0.670   0.033  1.00  0.00     0.032 A 
HETATM    7  C12 UNL     1       4.136  -0.173  -0.942  1.00  0.00     0.017 A 
HETATM    8  C13 UNL     1       5.505  -0.388  -0.917  1.00  0.00     0.001 A 
HETATM    9  C14 UNL     1       6.091  -1.112   0.091  1.00  0.00     0.000 A 
HETATM   10  C15 UNL     1       5.280  -1.623   1.082  1.00  0.00     0.001 A 
HETATM   11  C16 UNL     1       3.920  -1.402   1.046  1.00  0.00     0.017 A 
ENDBRANCH   3   6
ENDBRANCH   1   2
BRANCH   1  12
HETATM   12  C3  UNL     1      -0.763   1.248   0.157  1.00  0.00     0.149 C 
BRANCH  12  13
HETATM   13  N2  UNL     1      -2.188   1.381  -0.079  1.00  0.00    -0.340 N 
HETATM   14  C4  UNL     1      -2.745   2.415  -0.730  1.00  0.00     0.183 A 
HETATM   15  N3  UNL     1      -4.079   2.279  -0.805  1.00  0.00    -0.350 N 
HETATM   16  C5  UNL     1      -4.361   1.120  -0.179  1.00  0.00     0.060 A 
ATOM     17  H3  UNL     1      -4.740   2.919  -1.244  1.00  0.00     0.166 HD
HETATM   18  C6  UNL     1      -5.580   0.500   0.034  1.00  0.00     0.032 A 
HETATM   19  C10 UNL     1      -3.181   0.546   0.282  1.00  0.00     0.062 A 
HETATM   20  C7  UNL     1      -5.604  -0.698   0.712  1.00  0.00     0.002 A 
HETATM   21  C8  UNL     1      -4.413  -1.254   1.164  1.00  0.00     0.002 A 
HETATM   22  C9  UNL     1      -3.190  -0.645   0.958  1.00  0.00     0.032 A 
ENDBRANCH  12  13
ENDBRANCH   1  12
TORSDOF 4
