REMARK  8 active torsions:
REMARK  status: ('A' for Active; 'I' for Inactive)
REMARK    1  A    between atoms: C2_2  and  C3_3 
REMARK    2  A    between atoms: C3_3  and  C4_4 
REMARK    3  A    between atoms: C4_4  and  N1_5 
REMARK    4  A    between atoms: C5_6  and  N2_7 
REMARK    5  A    between atoms: N2_7  and  C6_8 
REMARK    6  A    between atoms: C11_17  and  N4_18 
REMARK    7  A    between atoms: N7_28  and  C18_29 
REMARK    8  A    between atoms: C18_29  and  C19_30 
ROOT
HETATM    1  N1  UNL     1      -2.675   0.245  -0.555  1.00  0.00    -0.272 N 
HETATM    2  C5  UNL     1      -2.046  -0.516   0.438  1.00  0.00     0.212 A 
HETATM    3  C9  UNL     1      -0.643  -0.419   0.483  1.00  0.00     0.139 A 
HETATM    4  N3  UNL     1       0.059  -1.097   1.408  1.00  0.00    -0.313 N 
ATOM      5  H3  UNL     1      -0.432  -1.692   2.076  1.00  0.00     0.169 HD
HETATM    6  C10 UNL     1       1.418  -1.000   1.465  1.00  0.00     0.290 A 
HETATM    7  O1  UNL     1       1.975  -1.672   2.363  1.00  0.00    -0.264 OA
HETATM    8  C11 UNL     1       2.132  -0.217   0.598  1.00  0.00     0.174 A 
HETATM    9  N6  UNL     1       1.414   0.450  -0.313  1.00  0.00    -0.322 N 
ATOM     10  H6  UNL     1       1.903   1.047  -0.980  1.00  0.00     0.169 HD
HETATM   11  C17 UNL     1       0.051   0.364  -0.386  1.00  0.00     0.145 A 
HETATM   12  N7  UNL     1      -0.604   1.066  -1.315  1.00  0.00    -0.283 N 
HETATM   13  C21 UNL     1      -1.956   0.975  -1.362  1.00  0.00     0.332 A 
HETATM   14  O2  UNL     1      -2.532   1.668  -2.280  1.00  0.00    -0.246 OA
ENDROOT
BRANCH   8  15
HETATM   15  N4  UNL     1       3.546  -0.130   0.676  1.00  0.00    -0.359 N 
HETATM   16  C12 UNL     1       4.261   0.710  -0.264  1.00  0.00     0.154 C 
HETATM   17  C13 UNL     1       5.341  -0.123  -0.921  1.00  0.00     0.291 C 
HETATM   18  N5  UNL     1       6.216  -0.687   0.061  1.00  0.00     0.087 N 
HETATM   19  C14 UNL     1       7.561  -0.118  -0.093  1.00  0.00     0.310 C 
HETATM   20  C15 UNL     1       5.794  -0.390   1.393  1.00  0.00     0.291 C 
HETATM   21  C16 UNL     1       4.350  -0.834   1.647  1.00  0.00     0.154 C 
ENDBRANCH   8  15
BRANCH  12  22
HETATM   22  C18 UNL     1       0.084   1.891  -2.265  1.00  0.00     0.135 C 
BRANCH  22  23
HETATM   23  C19 UNL     1       0.414   1.239  -3.553  1.00  0.00     0.016 C 
HETATM   24  C20 UNL     1       1.288   0.040  -3.503  1.00  0.00     0.006 C 
ENDBRANCH  22  23
ENDBRANCH  12  22
BRANCH   2  25
HETATM   25  N2  UNL     1      -2.664  -1.226   1.185  1.00  0.00    -0.401 NA
BRANCH  25  26
HETATM   26  C6  UNL     1      -3.133  -2.063   2.103  1.00  0.00     0.163 C 
HETATM   27  C7  UNL     1      -4.702  -2.238   2.148  1.00  0.00     0.072 C 
HETATM   28  C8  UNL     1      -2.709  -3.544   1.989  1.00  0.00     0.072 C 
HETATM   29 CL1  UNL     1      -2.814  -1.632   3.847  1.00  0.00    -0.081 Cl
ENDBRANCH  25  26
ENDBRANCH   2  25
BRANCH   1  30
HETATM   30  C4  UNL     1      -4.121   0.130  -0.595  1.00  0.00     0.136 C 
BRANCH  30  31
HETATM   31  C3  UNL     1      -4.868   1.029   0.322  1.00  0.00     0.020 C 
BRANCH  31  32
HETATM   32  C2  UNL     1      -4.820   2.492   0.138  1.00  0.00    -0.003 C 
HETATM   33  C1  UNL     1      -5.448   2.986  -1.141  1.00  0.00     0.005 C 
ENDBRANCH  31  32
ENDBRANCH  30  31
ENDBRANCH   1  30
TORSDOF 8
