REMARK  7 active torsions:
REMARK  status: ('A' for Active; 'I' for Inactive)
REMARK    1  A    between atoms: N1_2  and  C2_5 
REMARK    2  A    between atoms: C2_5  and  C3_6 
REMARK    3  A    between atoms: C3_6  and  C4_7 
REMARK    4  A    between atoms: C4_7  and  C5_8 
REMARK    5  A    between atoms: C5_8  and  N2_9 
REMARK    6  A    between atoms: N2_9  and  C6_11 
REMARK    7  A    between atoms: C8_17  and  N5_18 
ROOT
HETATM    1  C6  UNL     1      -2.500   0.095  -0.425  1.00  0.00     0.693 A 
HETATM    2  N3  UNL     1      -2.644  -0.776   0.586  1.00  0.00    -0.187 N 
ATOM      3  H3  UNL     1      -1.846  -1.287   0.963  1.00  0.00     0.185 HD
HETATM    4  C7  UNL     1      -3.895  -0.950   1.087  1.00  0.00     0.215 A 
HETATM    5  N4  UNL     1      -4.968  -0.291   0.610  1.00  0.00    -0.187 N 
ATOM      6  H4  UNL     1      -5.897  -0.441   1.004  1.00  0.00     0.185 HD
HETATM    7  C8  UNL     1      -4.776   0.567  -0.398  1.00  0.00     0.691 A 
HETATM    8  N6  UNL     1      -3.567   0.777  -0.929  1.00  0.00    -0.023 N 
ATOM      9  H6  UNL     1      -3.445   1.436  -1.698  1.00  0.00     0.203 HD
ENDROOT
BRANCH   1  10
HETATM   10  N2  UNL     1      -1.361   0.309  -0.940  1.00  0.00    -0.226 N 
ATOM     11  H2  UNL     1      -1.260   0.974  -1.707  1.00  0.00     0.177 HD
BRANCH  10  12
HETATM   12  C5  UNL     1      -0.206  -0.397  -0.431  1.00  0.00     0.138 C 
BRANCH  12  13
HETATM   13  C4  UNL     1       0.961   0.552  -0.219  1.00  0.00     0.022 C 
BRANCH  13  14
HETATM   14  C3  UNL     1       2.134  -0.228   0.304  1.00  0.00     0.029 C 
BRANCH  14  15
HETATM   15  C2  UNL     1       3.333   0.690   0.527  1.00  0.00     0.231 C 
BRANCH  15  16
HETATM   16  N1  UNL     1       4.468  -0.058   1.029  1.00  0.00    -0.079 N 
HETATM   17  C1  UNL     1       4.968  -0.951   0.017  1.00  0.00     0.266 C 
ATOM     18  H12 UNL     1       4.246  -0.551   1.894  1.00  0.00     0.276 HD
ATOM     19  H11 UNL     1       5.199   0.556   1.388  1.00  0.00     0.276 HD
ENDBRANCH  15  16
ENDBRANCH  14  15
ENDBRANCH  13  14
ENDBRANCH  12  13
ENDBRANCH  10  12
ENDBRANCH   1  10
BRANCH   7  20
HETATM   20  N5  UNL     1      -5.802   1.208  -0.866  1.00  0.00    -0.234 N 
ATOM     21  H52 UNL     1      -6.724   1.048  -0.461  1.00  0.00     0.174 HD
ATOM     22  H51 UNL     1      -5.656   1.862  -1.635  1.00  0.00     0.174 HD
ENDBRANCH   7  20
TORSDOF 7
