REMARK  12 active torsions:
REMARK  status: ('A' for Active; 'I' for Inactive)
REMARK    1  A    between atoms: C2_2  and  C3_3 
REMARK    2  A    between atoms: C3_3  and  N1_4 
REMARK    3  A    between atoms: N1_4  and  C4_7 
REMARK    4  A    between atoms: C4_7  and  C5_8 
REMARK    5  A    between atoms: C6_11  and  C8_13 
REMARK    6  A    between atoms: C8_13  and  N3_14 
REMARK    7  A    between atoms: N3_14  and  C9_17 
REMARK    8  A    between atoms: C9_17  and  C10_18 
REMARK    9  A    between atoms: C10_18  and  N4_19 
REMARK   10  A    between atoms: C13_22  and  O1_23 
REMARK   11  A    between atoms: C14_25  and  O2_26 
REMARK   12  A    between atoms: C15_28  and  O3_29 
ROOT
HETATM    1  C5  UNL     1       1.818  -0.396  -0.295  1.00  0.00     0.134 C 
HETATM    2  N2  UNL     1       0.486  -0.472   0.224  1.00  0.00    -0.401 N 
ATOM      3  H2  UNL     1       0.028   0.330   0.658  1.00  0.00     0.154 HD
HETATM    4  C6  UNL     1      -0.157  -1.724   0.099  1.00  0.00     0.075 C 
HETATM    5  C7  UNL     1      -0.449  -1.931  -1.394  1.00  0.00     0.042 C 
HETATM    6  C13 UNL     1       0.615  -2.907   0.570  1.00  0.00     0.178 C 
HETATM    7  C14 UNL     1       2.070  -2.678   0.756  1.00  0.00     0.180 C 
HETATM    8  C15 UNL     1       2.666  -1.579  -0.056  1.00  0.00     0.173 C 
ENDROOT
BRANCH   4   9
HETATM    9  C8  UNL     1      -1.483  -1.681   0.797  1.00  0.00     0.265 C 
BRANCH   9  10
HETATM   10  N3  UNL     1      -2.372  -0.650   0.222  1.00  0.00    -0.071 N 
ATOM     11  H32 UNL     1      -1.949   0.278   0.237  1.00  0.00     0.277 HD
ATOM     12  H31 UNL     1      -2.473  -0.746  -0.788  1.00  0.00     0.277 HD
BRANCH  10  13
HETATM   13  C9  UNL     1      -3.633  -0.684   0.900  1.00  0.00     0.262 C 
BRANCH  13  14
HETATM   14  C10 UNL     1      -4.686   0.155   0.287  1.00  0.00     0.298 C 
BRANCH  14  15
HETATM   15  N4  UNL     1      -4.371   1.543   0.226  1.00  0.00     0.081 N 
HETATM   16  C11 UNL     1      -5.666   2.234  -0.082  1.00  0.00     0.309 C 
HETATM   17  C12 UNL     1      -3.466   1.890  -0.879  1.00  0.00     0.309 C 
ENDBRANCH  14  15
ENDBRANCH  13  14
ENDBRANCH  10  13
ENDBRANCH   9  10
ENDBRANCH   4   9
BRANCH   6  18
HETATM   18  O1  UNL     1       0.435  -3.980  -0.302  1.00  0.00    -0.390 OA
ATOM     19  H1  UNL     1       0.928  -4.735  -0.002  1.00  0.00     0.210 HD
ENDBRANCH   6  18
BRANCH   1  20
HETATM   20  C4  UNL     1       2.412   0.924   0.181  1.00  0.00     0.259 C 
BRANCH  20  21
HETATM   21  N1  UNL     1       3.761   1.103  -0.305  1.00  0.00    -0.070 N 
ATOM     22  H12 UNL     1       3.806   1.044  -1.322  1.00  0.00     0.277 HD
ATOM     23  H11 UNL     1       4.353   0.304  -0.078  1.00  0.00     0.277 HD
BRANCH  21  24
HETATM   24  C3  UNL     1       4.319   2.327   0.178  1.00  0.00     0.259 C 
BRANCH  24  25
HETATM   25  C2  UNL     1       3.621   3.491  -0.412  1.00  0.00    -0.010 C 
HETATM   26  C1  UNL     1       4.306   4.355  -1.133  1.00  0.00     0.008 C 
ENDBRANCH  24  25
ENDBRANCH  21  24
ENDBRANCH  20  21
ENDBRANCH   1  20
BRANCH   7  27
HETATM   27  O2  UNL     1       2.377  -2.464   2.120  1.00  0.00    -0.390 OA
ATOM     28  H2  UNL     1       3.308  -2.317   2.239  1.00  0.00     0.210 HD
ENDBRANCH   7  27
BRANCH   8  29
HETATM   29  O3  UNL     1       3.809  -1.141   0.654  1.00  0.00    -0.391 OA
ATOM     30  H3  UNL     1       4.355  -1.903   0.808  1.00  0.00     0.210 HD
ENDBRANCH   8  29
TORSDOF 12
