REMARK  13 active torsions:
REMARK  status: ('A' for Active; 'I' for Inactive)
REMARK    1  A    between atoms: N3_4  and  C2_6 
REMARK    2  A    between atoms: C2_6  and  C3_7 
REMARK    3  A    between atoms: C3_7  and  C4_8 
REMARK    4  A    between atoms: C4_8  and  C5_9 
REMARK    5  A    between atoms: C5_9  and  C6_10 
REMARK    6  A    between atoms: C6_10  and  C7_11 
REMARK    7  A    between atoms: C7_11  and  C8_12 
REMARK    8  A    between atoms: C8_12  and  C9_13 
REMARK    9  A    between atoms: C10_17  and  C11_18 
REMARK   10  A    between atoms: C11_18  and  O1_19 
REMARK   11  A    between atoms: C12_21  and  O2_22 
REMARK   12  A    between atoms: C13_24  and  O3_25 
REMARK   13  A    between atoms: C14_27  and  O4_28 
ROOT
HETATM    1  C9  UNL     1      -2.740  -0.863   0.308  1.00  0.00     0.217 C 
HETATM    2  N4  UNL     1      -3.136   0.508   0.468  1.00  0.00    -0.060 N 
ATOM      3  H41 UNL     1      -2.392   1.132   0.156  1.00  0.00     0.278 HD
ATOM      4  H42 UNL     1      -3.169   0.756   1.457  1.00  0.00     0.278 HD
HETATM    5  C10 UNL     1      -4.375   0.847  -0.174  1.00  0.00     0.240 C 
HETATM    6  C12 UNL     1      -4.405   0.568  -1.637  1.00  0.00     0.182 C 
HETATM    7  C13 UNL     1      -3.504  -0.558  -2.069  1.00  0.00     0.179 C 
HETATM    8  C14 UNL     1      -3.152  -1.501  -0.959  1.00  0.00     0.180 C 
ENDROOT
BRANCH   1   9
HETATM    9  C8  UNL     1      -1.268  -0.989   0.636  1.00  0.00     0.036 C 
BRANCH   9  10
HETATM   10  C7  UNL     1      -0.400  -0.143  -0.253  1.00  0.00     0.002 C 
BRANCH  10  11
HETATM   11  C6  UNL     1       1.043  -0.281   0.087  1.00  0.00     0.000 C 
BRANCH  11  12
HETATM   12  C5  UNL     1       1.376   0.128   1.495  1.00  0.00     0.000 C 
BRANCH  12  13
HETATM   13  C4  UNL     1       2.851  -0.040   1.773  1.00  0.00     0.002 C 
BRANCH  13  14
HETATM   14  C3  UNL     1       3.703   0.791   0.855  1.00  0.00     0.020 C 
BRANCH  14  15
HETATM   15  C2  UNL     1       5.184   0.611   1.153  1.00  0.00     0.122 C 
BRANCH  15  16
HETATM   16  N3  UNL     1       5.908   1.447   0.219  1.00  0.00    -0.367 N 
HETATM   17  C1  UNL     1       6.709   0.961  -0.687  1.00  0.00     0.196 C 
HETATM   18  N1  UNL     1       6.841  -0.462  -0.716  1.00  0.00    -0.067 NA
HETATM   19  N2  UNL     1       7.398   1.810  -1.579  1.00  0.00    -0.067 NA
ATOM     20  H3  UNL     1       5.786   2.458   0.272  1.00  0.00     0.161 HD
ENDBRANCH  15  16
ENDBRANCH  14  15
ENDBRANCH  13  14
ENDBRANCH  12  13
ENDBRANCH  11  12
ENDBRANCH  10  11
ENDBRANCH   9  10
ENDBRANCH   1   9
BRANCH   8  21
HETATM   21  O4  UNL     1      -2.144  -2.352  -1.426  1.00  0.00    -0.391 OA
ATOM     22  H4  UNL     1      -2.409  -2.762  -2.241  1.00  0.00     0.210 HD
ENDBRANCH   8  21
BRANCH   5  23
HETATM   23  C11 UNL     1      -5.573   0.215   0.519  1.00  0.00     0.199 C 
BRANCH  23  24
HETATM   24  O1  UNL     1      -5.662   0.639   1.844  1.00  0.00    -0.399 OA
ATOM     25  H1  UNL     1      -6.410   0.244   2.277  1.00  0.00     0.209 HD
ENDBRANCH  23  24
ENDBRANCH   5  23
BRANCH   7  26
HETATM   26  O3  UNL     1      -4.174  -1.297  -3.050  1.00  0.00    -0.390 OA
ATOM     27  H3  UNL     1      -3.605  -2.008  -3.323  1.00  0.00     0.210 HD
ENDBRANCH   7  26
BRANCH   6  28
HETATM   28  O2  UNL     1      -4.144   1.740  -2.352  1.00  0.00    -0.391 OA
ATOM     29  H2  UNL     1      -4.163   1.562  -3.285  1.00  0.00     0.210 HD
ENDBRANCH   6  28
TORSDOF 13
