REMARK  6 active torsions:
REMARK  status: ('A' for Active; 'I' for Inactive)
REMARK       I    between atoms: N1_2  and  C2_4 
REMARK    1  A    between atoms: C2_4  and  C3_6 
REMARK       I    between atoms: C3_6  and  N2_8 
REMARK    2  A    between atoms: N2_8  and  C4_10 
REMARK    3  A    between atoms: N3_13  and  C7_14 
REMARK    4  A    between atoms: C7_14  and  C8_15 
REMARK       I    between atoms: C8_15  and  N4_17 
REMARK    5  A    between atoms: N4_17  and  C9_19 
REMARK    6  A    between atoms: C9_19  and  C10_20 
ROOT
HETATM    1  C8  UNL     1       0.096  -1.522  -0.232  1.00  0.00     0.235 C 
HETATM    2  O3  UNL     1       0.079  -2.495  -1.050  1.00  0.00    -0.272 OA
HETATM    3  N4  UNL     1      -1.024  -0.649  -0.087  1.00  0.00    -0.359 N 
ATOM      4  H4  UNL     1      -1.003   0.131   0.570  1.00  0.00     0.162 HD
ENDROOT
BRANCH   1   5
HETATM    5  C7  UNL     1       1.338  -1.342   0.562  1.00  0.00     0.219 C 
BRANCH   5   6
HETATM    6  N3  UNL     1       2.348  -2.288   0.283  1.00  0.00    -0.404 N 
HETATM    7  C6  UNL     1       2.973  -2.196  -0.980  1.00  0.00     0.119 C 
HETATM    8  C5  UNL     1       4.221  -1.347  -0.965  1.00  0.00     0.044 C 
HETATM    9  C4  UNL     1       4.723  -1.158   0.440  1.00  0.00     0.087 C 
HETATM   10  C23 UNL     1       4.585  -2.463   1.219  1.00  0.00     0.044 C 
HETATM   11  C22 UNL     1       3.113  -2.764   1.374  1.00  0.00     0.119 C 
BRANCH   9  12
HETATM   12  N2  UNL     1       6.099  -0.762   0.394  1.00  0.00    -0.348 N 
HETATM   13  C3  UNL     1       6.479   0.482   0.978  1.00  0.00     0.309 C 
HETATM   14  O2  UNL     1       5.642   1.223   1.522  1.00  0.00    -0.262 OA
ATOM     15  H2  UNL     1       6.796  -1.360  -0.049  1.00  0.00     0.163 HD
BRANCH  13  16
HETATM   16  C2  UNL     1       7.887   0.880   0.929  1.00  0.00     0.308 C 
HETATM   17  N1  UNL     1       8.292   2.111   1.504  1.00  0.00    -0.357 N 
HETATM   18  C1  UNL     1       9.679   2.511   1.459  1.00  0.00     0.149 C 
ATOM     19  H1  UNL     1       7.602   2.715   1.950  1.00  0.00     0.162 HD
HETATM   20  O1  UNL     1       8.750   0.148   0.384  1.00  0.00    -0.262 OA
ENDBRANCH  13  16
ENDBRANCH   9  12
ENDBRANCH   5   6
ENDBRANCH   1   5
BRANCH   3  21
HETATM   21  C9  UNL     1      -2.169  -0.904  -0.890  1.00  0.00     0.132 C 
BRANCH  21  22
HETATM   22  C10 UNL     1      -3.321   0.081  -0.657  1.00  0.00    -0.024 C 
HETATM   23  C11 UNL     1      -2.750   1.440  -0.992  1.00  0.00     0.011 C 
HETATM   24  C12 UNL     1      -3.803   2.405  -1.493  1.00  0.00     0.005 C 
HETATM   25  C13 UNL     1      -5.061   2.393  -0.680  1.00  0.00    -0.014 C 
HETATM   26  C14 UNL     1      -4.862   2.213   0.773  1.00  0.00     0.009 C 
HETATM   27  C19 UNL     1      -6.078   1.493  -1.304  1.00  0.00     0.009 C 
HETATM   28  C15 UNL     1      -4.814   0.800   1.266  1.00  0.00    -0.013 C 
HETATM   29  C16 UNL     1      -6.166   0.128   1.154  1.00  0.00     0.005 C 
HETATM   30  C21 UNL     1      -3.675  -0.001   0.772  1.00  0.00     0.015 C 
HETATM   31  C17 UNL     1      -6.257  -0.713  -0.100  1.00  0.00     0.005 C 
HETATM   32  C18 UNL     1      -5.777   0.048  -1.317  1.00  0.00    -0.013 C 
HETATM   33  C20 UNL     1      -4.373  -0.328  -1.627  1.00  0.00     0.015 C 
ENDBRANCH  21  22
ENDBRANCH   3  21
TORSDOF 6
