REMARK  2 active torsions:
REMARK  status: ('A' for Active; 'I' for Inactive)
REMARK    1  A    between atoms: C3_5  and  C4_6 
REMARK    2  A    between atoms: C4_6  and  N2_7 
ROOT
HETATM    1  C1  UNL     1      -2.022  -1.633  -0.350  1.00  0.00     0.089 C 
HETATM    2  C2  UNL     1      -0.938  -0.662  -0.047  1.00  0.00     0.079 A 
HETATM    3  N1  UNL     1       0.323  -1.034   0.179  1.00  0.00    -0.347 N 
ATOM      4  H1  UNL     1       0.666  -1.994   0.168  1.00  0.00     0.167 HD
HETATM    5  C3  UNL     1       1.069   0.056   0.424  1.00  0.00     0.051 A 
HETATM    6  C5  UNL     1       0.222   1.116   0.341  1.00  0.00     0.118 A 
HETATM    7  N3  UNL     1      -1.008   0.667   0.052  1.00  0.00    -0.349 N 
HETATM    8  C6  UNL     1      -2.178   1.490  -0.117  1.00  0.00     0.156 C 
ENDROOT
BRANCH   5   9
HETATM    9  C4  UNL     1       2.534   0.045   0.722  1.00  0.00     0.287 C 
BRANCH   9  10
HETATM   10  N2  UNL     1       3.302   0.156  -0.515  1.00  0.00    -0.074 N 
ATOM     11  H23 UNL     1       3.045  -0.565  -1.189  1.00  0.00     0.274 HD
ATOM     12  H22 UNL     1       3.030   0.974  -1.060  1.00  0.00     0.274 HD
ATOM     13  H21 UNL     1       4.302   0.148  -0.312  1.00  0.00     0.274 HD
ENDBRANCH   9  10
ENDBRANCH   5   9
TORSDOF 2
