REMARK  9 active torsions:
REMARK  status: ('A' for Active; 'I' for Inactive)
REMARK    1  A    between atoms: N1_2  and  C2_4 
REMARK    2  A    between atoms: C3_7  and  N3_8 
REMARK    3  A    between atoms: N3_8  and  N4_10 
REMARK    4  A    between atoms: N4_10  and  C4_12 
REMARK    5  A    between atoms: C4_12  and  O1_13 
REMARK    6  A    between atoms: O1_13  and  C5_14 
REMARK    7  A    between atoms: C5_14  and  C6_16 
REMARK    8  A    between atoms: C6_16  and  N5_17 
REMARK    9  A    between atoms: C10_30  and  N9_31 
ROOT
HETATM    1  C2  UNL     1      -1.276   2.223  -0.415  1.00  0.00     0.681 A 
HETATM    2  N2  UNL     1      -0.347   1.372   0.049  1.00  0.00    -0.173 N 
ATOM      3  H2  UNL     1       0.615   1.700   0.141  1.00  0.00     0.186 HD
HETATM    4  C3  UNL     1      -0.634   0.104   0.397  1.00  0.00     0.167 A 
HETATM    5  C7  UNL     1      -1.931  -0.321   0.266  1.00  0.00     0.152 A 
HETATM    6  C8  UNL     1      -2.917   0.551  -0.216  1.00  0.00     0.168 A 
HETATM    7  N6  UNL     1      -2.538   1.804  -0.540  1.00  0.00    -0.174 N 
ATOM      8  H6  UNL     1      -3.240   2.455  -0.893  1.00  0.00     0.186 HD
HETATM    9  N7  UNL     1      -4.100  -0.086  -0.256  1.00  0.00    -0.172 N 
ATOM     10  H7  UNL     1      -4.995   0.295  -0.563  1.00  0.00     0.186 HD
HETATM   11  C9  UNL     1      -3.858  -1.333   0.193  1.00  0.00     0.709 A 
HETATM   12  N8  UNL     1      -4.702  -2.379   0.354  1.00  0.00    -0.022 N 
ATOM     13  H8  UNL     1      -5.689  -2.280   0.118  1.00  0.00     0.203 HD
HETATM   14  C10 UNL     1      -4.237  -3.545   0.824  1.00  0.00     0.694 A 
HETATM   15  N10 UNL     1      -2.947  -3.696   1.138  1.00  0.00    -0.140 N 
ATOM     16  H10 UNL     1      -2.613  -4.592   1.494  1.00  0.00     0.189 HD
HETATM   17  C11 UNL     1      -2.071  -2.654   0.984  1.00  0.00     0.360 A 
HETATM   18  O3  UNL     1      -0.874  -2.878   1.303  1.00  0.00    -0.245 OA
HETATM   19  N11 UNL     1      -2.559  -1.502   0.515  1.00  0.00    -0.087 N 
ENDROOT
BRANCH   4  20
HETATM   20  N3  UNL     1       0.341  -0.588   0.817  1.00  0.00    -0.285 N 
ATOM     21  H3  UNL     1       0.152  -1.553   1.087  1.00  0.00     0.188 HD
BRANCH  20  22
HETATM   22  N4  UNL     1       1.643  -0.133   0.937  1.00  0.00    -0.311 N 
ATOM     23  H4  UNL     1       1.836   0.619   1.599  1.00  0.00     0.182 HD
BRANCH  22  24
HETATM   24  C4  UNL     1       2.747  -0.675   0.166  1.00  0.00     0.318 C 
BRANCH  24  25
HETATM   25  O1  UNL     1       3.961  -0.044   0.469  1.00  0.00    -0.299 OA
BRANCH  25  26
HETATM   26  C5  UNL     1       5.097  -0.471  -0.202  1.00  0.00     0.286 C 
HETATM   27  O2  UNL     1       5.025  -1.406  -1.062  1.00  0.00    -0.263 OA
BRANCH  26  28
HETATM   28  C6  UNL     1       6.433   0.124   0.039  1.00  0.00     0.340 C 
BRANCH  28  29
HETATM   29  N5  UNL     1       6.333   1.166   1.042  1.00  0.00    -0.070 N 
ATOM     30  H53 UNL     1       5.638   1.871   0.795  1.00  0.00     0.274 HD
ATOM     31  H52 UNL     1       5.902   0.829   1.903  1.00  0.00     0.274 HD
ATOM     32  H51 UNL     1       7.252   1.575   1.208  1.00  0.00     0.274 HD
ENDBRANCH  28  29
ENDBRANCH  26  28
ENDBRANCH  25  26
ENDBRANCH  24  25
ENDBRANCH  22  24
ENDBRANCH  20  22
ENDBRANCH   4  20
BRANCH   1  33
HETATM   33  N1  UNL     1      -0.953   3.451  -0.742  1.00  0.00    -0.230 N 
HETATM   34  C1  UNL     1      -1.900   4.395  -1.239  1.00  0.00     0.165 C 
ATOM     35  H1  UNL     1       0.018   3.744  -0.636  1.00  0.00     0.177 HD
ENDBRANCH   1  33
BRANCH  14  36
HETATM   36  N9  UNL     1      -5.019  -4.582   0.995  1.00  0.00    -0.234 N 
ATOM     37  H92 UNL     1      -6.004  -4.467   0.755  1.00  0.00     0.174 HD
ATOM     38  H91 UNL     1      -4.665  -5.469   1.353  1.00  0.00     0.174 HD
ENDBRANCH  14  36
TORSDOF 9
