REMARK  8 active torsions:
REMARK  status: ('A' for Active; 'I' for Inactive)
REMARK    1  A    between atoms: C2_3  and  O1_4 
REMARK    2  A    between atoms: C3_6  and  O2_7 
REMARK    3  A    between atoms: C4_9  and  N2_10 
REMARK    4  A    between atoms: N2_10  and  S1_12 
REMARK    5  A    between atoms: S1_12  and  O5_15 
REMARK    6  A    between atoms: O5_15  and  N3_16 
REMARK    7  A    between atoms: C7_24  and  N6_25 
REMARK    8  A    between atoms: N6_25  and  N7_26 
ROOT
HETATM    1  S1  UNL     1      -0.423  -0.974   0.051  1.00  0.00     0.384 S 
HETATM    2  O3  UNL     1      -0.619   0.025  -1.081  1.00  0.00    -0.174 OA
HETATM    3  O4  UNL     1      -0.090  -2.340  -0.460  1.00  0.00    -0.174 OA
ENDROOT
BRANCH   1   4
HETATM    4  N2  UNL     1       0.795  -0.327   1.083  1.00  0.00    -0.243 N 
ATOM      5  H2  UNL     1       0.575  -0.081   2.048  1.00  0.00     0.182 HD
BRANCH   4   6
HETATM    6  C4  UNL     1       1.982  -0.157   0.626  1.00  0.00     0.158 A 
HETATM    7  C3  UNL     1       2.925   0.372   1.516  1.00  0.00     0.162 A 
HETATM    8  C2  UNL     1       4.210   0.573   1.075  1.00  0.00     0.183 A 
HETATM    9  N1  UNL     1       4.571   0.274  -0.178  1.00  0.00    -0.282 N 
HETATM   10  C1  UNL     1       5.932   0.479  -0.668  1.00  0.00     0.163 C 
HETATM   11  C8  UNL     1       3.661  -0.231  -1.017  1.00  0.00     0.329 A 
HETATM   12  N8  UNL     1       2.394  -0.437  -0.610  1.00  0.00    -0.291 N 
HETATM   13  O6  UNL     1       3.998  -0.518  -2.214  1.00  0.00    -0.246 OA
ATOM     14  H8  UNL     1       1.723  -0.823  -1.274  1.00  0.00     0.172 HD
BRANCH   7  15
HETATM   15  O2  UNL     1       2.535   0.681   2.825  1.00  0.00    -0.354 OA
ATOM     16  H2  UNL     1       1.646   0.542   3.130  1.00  0.00     0.218 HD
ENDBRANCH   7  15
BRANCH   8  17
HETATM   17  O1  UNL     1       5.142   1.097   1.960  1.00  0.00    -0.344 OA
ATOM     18  H1  UNL     1       4.886   1.309   2.850  1.00  0.00     0.219 HD
ENDBRANCH   8  17
ENDBRANCH   4   6
ENDBRANCH   1   4
BRANCH   1  19
HETATM   19  O5  UNL     1      -1.869  -1.122   0.906  1.00  0.00    -0.127 OA
BRANCH  19  20
HETATM   20  N3  UNL     1      -2.945  -0.928   0.137  1.00  0.00    -0.185 N 
HETATM   21  C5  UNL     1      -3.404  -1.758  -0.922  1.00  0.00     0.198 C 
HETATM   22  N4  UNL     1      -2.953  -2.933  -1.205  1.00  0.00    -0.370 N 
HETATM   23  N5  UNL     1      -4.444  -1.056  -1.602  1.00  0.00    -0.357 N 
ATOM     24  H42 UNL     1      -2.210  -3.435  -0.719  1.00  0.00     0.159 HD
ATOM     25  H41 UNL     1      -3.282  -3.529  -1.965  1.00  0.00     0.159 HD
HETATM   26  C6  UNL     1      -4.350   0.339  -1.179  1.00  0.00     0.169 C 
ATOM     27  H5  UNL     1      -5.120  -1.451  -2.255  1.00  0.00     0.162 HD
HETATM   28  C7  UNL     1      -3.876   0.198   0.239  1.00  0.00     0.249 C 
BRANCH  28  29
HETATM   29  N6  UNL     1      -3.116   1.346   0.694  1.00  0.00    -0.118 NA
BRANCH  29  30
HETATM   30  N7  UNL     1      -3.888   2.481   0.830  1.00  0.00    -0.346 N 
ATOM     31  H72 UNL     1      -4.888   2.495   0.628  1.00  0.00     0.172 HD
ATOM     32  H71 UNL     1      -3.353   3.289   1.150  1.00  0.00     0.172 HD
ENDBRANCH  29  30
ENDBRANCH  28  29
ENDBRANCH  19  20
ENDBRANCH   1  19
TORSDOF 8
