REMARK  7 active torsions:
REMARK  status: ('A' for Active; 'I' for Inactive)
REMARK    1  A    between atoms: C2_2  and  C3_3 
REMARK    2  A    between atoms: C2_2  and  C28_34 
REMARK    3  A    between atoms: C4_4  and  C5_5 
REMARK    4  A    between atoms: C6_6  and  C7_7 
REMARK    5  A    between atoms: C10_10  and  C11_11 
REMARK    6  A    between atoms: C11_11  and  C12_12 
REMARK    7  A    between atoms: C19_21  and  O1_22 
ROOT
HETATM    1  C7  UNL     1      -0.612  -0.322   0.364  1.00  0.00    -0.018 A 
HETATM    2  C8  UNL     1       0.552   0.312   0.792  1.00  0.00    -0.038 A 
HETATM    3  C9  UNL     1       0.471   1.704   1.273  1.00  0.00     0.050 C 
HETATM    4  C10 UNL     1       1.762  -0.288   0.789  1.00  0.00     0.007 A 
HETATM    5  C19 UNL     1       1.819  -1.589   0.336  1.00  0.00     0.086 A 
HETATM    6  C20 UNL     1       0.651  -2.270  -0.101  1.00  0.00    -0.000 A 
HETATM    7  C21 UNL     1       0.865  -3.479  -0.481  1.00  0.00     0.027 C 
HETATM    8  C22 UNL     1      -0.615  -1.616  -0.080  1.00  0.00    -0.009 A 
HETATM    9  C23 UNL     1      -1.670  -2.377  -0.029  1.00  0.00    -0.041 C 
HETATM   10  C24 UNL     1      -3.032  -1.991   0.571  1.00  0.00     0.139 C 
HETATM   11  C25 UNL     1      -3.394  -3.337   1.254  1.00  0.00     0.223 C 
HETATM   12  O2  UNL     1      -4.140  -3.456   2.217  1.00  0.00    -0.273 OA
HETATM   13  N2  UNL     1      -2.700  -4.346   0.545  1.00  0.00    -0.352 N 
HETATM   14  C26 UNL     1      -2.586  -5.741   0.859  1.00  0.00     0.152 C 
HETATM   15  C27 UNL     1      -2.086  -3.684  -0.626  1.00  0.00     0.161 C 
ENDROOT
BRANCH   4  16
HETATM   16  C11 UNL     1       2.970   0.389   1.241  1.00  0.00     0.044 C 
BRANCH  16  17
HETATM   17  C12 UNL     1       3.948   0.735   0.442  1.00  0.00     0.040 A 
HETATM   18  N1  UNL     1       4.043   0.550  -0.900  1.00  0.00    -0.356 N 
HETATM   19  C13 UNL     1       5.213   1.057  -1.320  1.00  0.00     0.029 A 
ATOM     20  H1  UNL     1       3.343   0.101  -1.490  1.00  0.00     0.166 HD
HETATM   21  C14 UNL     1       5.610   1.032  -2.602  1.00  0.00     0.043 C 
HETATM   22  C15 UNL     1       5.913   1.587  -0.261  1.00  0.00    -0.028 A 
HETATM   23  C16 UNL     1       7.248   2.232  -0.355  1.00  0.00     0.051 C 
HETATM   24  C17 UNL     1       5.108   1.378   0.838  1.00  0.00    -0.027 A 
HETATM   25  C18 UNL     1       5.492   1.806   2.210  1.00  0.00     0.051 C 
ENDBRANCH  16  17
ENDBRANCH   4  16
BRANCH   5  26
HETATM   26  O1  UNL     1       3.064  -2.180   0.333  1.00  0.00    -0.359 OA
ATOM     27  H1  UNL     1       3.103  -3.076   0.021  1.00  0.00     0.217 HD
ENDBRANCH   5  26
BRANCH   1  28
HETATM   28  C6  UNL     1      -1.740   0.613   0.241  1.00  0.00     0.013 C 
HETATM   29  C5  UNL     1      -2.633   0.729  -0.664  1.00  0.00     0.001 C 
BRANCH  29  30
HETATM   30  C4  UNL     1      -3.680   1.781  -0.533  1.00  0.00     0.001 C 
HETATM   31  C3  UNL     1      -4.595   1.924  -1.429  1.00  0.00     0.016 C 
BRANCH  31  32
HETATM   32  C2  UNL     1      -5.658   2.859  -1.469  1.00  0.00     0.019 C 
HETATM   33  C1  UNL     1      -6.499   2.805  -2.533  1.00  0.00     0.028 C 
BRANCH  32  34
HETATM   34  C28 UNL     1      -5.988   3.892  -0.517  1.00  0.00     0.264 C 
HETATM   35  N3  UNL     1      -5.252   4.113   0.640  1.00  0.00    -0.057 NA
HETATM   36  O3  UNL     1      -6.999   4.642  -0.736  1.00  0.00    -0.271 OA
ENDBRANCH  32  34
ENDBRANCH  31  32
ENDBRANCH  29  30
ENDBRANCH   1  28
TORSDOF 7
