REMARK  8 active torsions:
REMARK  status: ('A' for Active; 'I' for Inactive)
REMARK    1  A    between atoms: C2_2  and  C3_3 
REMARK    2  A    between atoms: C2_2  and  N8_36 
REMARK    3  A    between atoms: C3_3  and  O1_4 
REMARK    4  A    between atoms: C3_3  and  N1_6 
REMARK    5  A    between atoms: C16_26  and  N6_27 
REMARK    6  A    between atoms: N6_27  and  C17_29 
REMARK    7  A    between atoms: N7_30  and  C18_32 
REMARK    8  A    between atoms: C18_32  and  C20_34 
ROOT
HETATM    1  N1  UNL     1      -0.760  -0.889  -0.120  1.00  0.00    -0.328 N 
HETATM    2  C4  UNL     1      -0.322  -1.897   0.798  1.00  0.00     0.158 C 
HETATM    3  C5  UNL     1       1.131  -2.060   1.042  1.00  0.00     0.050 C 
HETATM    4  C6  UNL     1       1.386  -3.575   1.197  1.00  0.00     0.040 C 
HETATM    5  C7  UNL     1       1.578  -1.475   2.374  1.00  0.00     0.037 C 
HETATM    6  C8  UNL     1       3.061  -1.350   2.530  1.00  0.00     0.042 C 
HETATM    7  C9  UNL     1       3.846  -1.233   1.308  1.00  0.00    -0.021 C 
HETATM    8  C10 UNL     1       4.874  -0.436   1.249  1.00  0.00     0.115 C 
HETATM    9  N2  UNL     1       5.667  -0.303   0.065  1.00  0.00    -0.198 N 
HETATM   10  C11 UNL     1       6.793   0.601   0.044  1.00  0.00     0.174 C 
HETATM   11  C12 UNL     1       5.335  -1.076  -1.105  1.00  0.00     0.677 C 
HETATM   12  N3  UNL     1       6.027  -0.973  -2.192  1.00  0.00    -0.234 N 
ATOM     13  H31 UNL     1       5.792  -1.520  -3.020  1.00  0.00     0.174 HD
ATOM     14  H32 UNL     1       6.829  -0.348  -2.270  1.00  0.00     0.174 HD
HETATM   15  N4  UNL     1       4.218  -1.947  -0.997  1.00  0.00    -0.197 N 
HETATM   16  C13 UNL     1       4.002  -2.844  -2.124  1.00  0.00     0.171 C 
HETATM   17  C14 UNL     1       3.369  -2.017   0.115  1.00  0.00     0.238 C 
HETATM   18  N5  UNL     1       2.005  -1.605  -0.003  1.00  0.00    -0.312 N 
HETATM   19  C15 UNL     1       1.499  -0.768  -1.006  1.00  0.00     0.265 C 
HETATM   20  O2  UNL     1       2.051  -0.613  -2.102  1.00  0.00    -0.269 OA
HETATM   21  C16 UNL     1       0.231  -0.004  -0.779  1.00  0.00     0.281 C 
ENDROOT
BRANCH   1  22
HETATM   22  C3  UNL     1      -2.098  -0.684  -0.445  1.00  0.00     0.174 C 
BRANCH  22  23
HETATM   23  C2  UNL     1      -3.290  -1.340  -0.006  1.00  0.00     0.176 C 
HETATM   24  C1  UNL     1      -3.388  -2.302   0.838  1.00  0.00     0.055 C 
BRANCH  23  25
HETATM   25  N8  UNL     1      -4.573  -0.892  -0.570  1.00  0.00    -0.045 N 
HETATM   26  C22 UNL     1      -4.985   0.338   0.079  1.00  0.00     0.278 C 
HETATM   27  C23 UNL     1      -5.622  -1.857  -0.356  1.00  0.00     0.278 C 
HETATM   28  C24 UNL     1      -4.486  -0.657  -1.980  1.00  0.00     0.278 C 
ENDBRANCH  23  25
ENDBRANCH  22  23
BRANCH  22  29
HETATM   29  O1  UNL     1      -2.249   0.299  -1.317  1.00  0.00    -0.344 OA
ATOM     30  H1  UNL     1      -1.457   0.735  -1.609  1.00  0.00     0.219 HD
ENDBRANCH  22  29
ENDBRANCH   1  22
BRANCH  21  31
HETATM   31  N6  UNL     1       0.487   1.189  -0.028  1.00  0.00    -0.357 N 
ATOM     32  H6  UNL     1       1.453   1.347   0.259  1.00  0.00     0.162 HD
BRANCH  31  33
HETATM   33  C17 UNL     1      -0.448   2.164   0.356  1.00  0.00     0.173 C 
HETATM   34  N7  UNL     1      -0.471   3.361  -0.125  1.00  0.00    -0.382 N 
ATOM     35  H7  UNL     1       0.232   3.604  -0.823  1.00  0.00     0.160 HD
BRANCH  34  36
HETATM   36  C18 UNL     1      -1.409   4.370   0.249  1.00  0.00     0.077 C 
HETATM   37  C19 UNL     1      -1.034   5.653  -0.482  1.00  0.00     0.032 C 
BRANCH  36  38
HETATM   38  C20 UNL     1      -2.827   4.036  -0.175  1.00  0.00     0.020 C 
HETATM   39  C21 UNL     1      -3.783   5.109   0.229  1.00  0.00     0.007 C 
ENDBRANCH  36  38
ENDBRANCH  34  36
ENDBRANCH  31  33
ENDBRANCH  21  31
TORSDOF 8
