REMARK  8 active torsions:
REMARK  status: ('A' for Active; 'I' for Inactive)
REMARK       I    between atoms: N1_8  and  C8_9 
REMARK    1  A    between atoms: C8_9  and  C9_11 
REMARK    2  A    between atoms: C9_11  and  O2_13 
REMARK    3  A    between atoms: C9_11  and  C11_15 
REMARK    4  A    between atoms: C11_15  and  O3_16 
REMARK    5  A    between atoms: C11_15  and  C12_18 
REMARK    6  A    between atoms: C12_18  and  O4_20 
REMARK    7  A    between atoms: C12_18  and  C14_22 
REMARK    8  A    between atoms: C14_22  and  O5_23 
ROOT
HETATM    1  C1  UNL     1      -4.959   3.430  -0.335  1.00  0.00     0.017 C 
HETATM    2  C2  UNL     1      -4.261   2.449  -0.400  1.00  0.00    -0.081 C 
HETATM    3  C3  UNL     1      -3.439   1.259  -0.464  1.00  0.00     0.011 C 
HETATM    4  C4  UNL     1      -3.902   0.061  -0.721  1.00  0.00     0.021 C 
HETATM    5  C5  UNL     1      -2.793  -0.888  -0.706  1.00  0.00     0.047 C 
HETATM    6  C6  UNL     1      -2.546  -1.461  -2.082  1.00  0.00     0.043 C 
HETATM    7  C7  UNL     1      -3.174  -2.033   0.222  1.00  0.00     0.043 C 
HETATM    8  N1  UNL     1      -1.641  -0.165  -0.208  1.00  0.00    -0.333 N 
HETATM    9  C8  UNL     1      -0.427  -0.777   0.234  1.00  0.00     0.258 C 
HETATM   10  O1  UNL     1      -0.331  -2.051   0.231  1.00  0.00    -0.270 OA
HETATM   11  C15 UNL     1      -1.971   1.237  -0.240  1.00  0.00     0.174 C 
ENDROOT
BRANCH   9  12
HETATM   12  C9  UNL     1       0.750  -0.012   0.705  1.00  0.00     0.163 C 
HETATM   13  C10 UNL     1       0.826  -0.301   2.197  1.00  0.00     0.059 C 
BRANCH  12  14
HETATM   14  O2  UNL     1       0.481   1.322   0.463  1.00  0.00    -0.378 OA
ATOM     15  H2  UNL     1       1.236   1.813   0.765  1.00  0.00     0.211 HD
ENDBRANCH  12  14
BRANCH  12  16
HETATM   16  C11 UNL     1       1.922  -0.553  -0.009  1.00  0.00     0.197 C 
BRANCH  16  17
HETATM   17  O3  UNL     1       1.628  -0.366  -1.397  1.00  0.00    -0.389 OA
ATOM     18  H3  UNL     1       2.383  -0.714  -1.857  1.00  0.00     0.210 HD
ENDBRANCH  16  17
BRANCH  16  19
HETATM   19  C12 UNL     1       3.286  -0.157   0.271  1.00  0.00     0.104 C 
HETATM   20  C13 UNL     1       3.796  -0.574   1.650  1.00  0.00     0.051 C 
BRANCH  19  21
HETATM   21  O4  UNL     1       4.099  -0.978  -0.594  1.00  0.00    -0.385 OA
ATOM     22  H4  UNL     1       4.994  -0.718  -0.410  1.00  0.00     0.210 HD
ENDBRANCH  19  21
BRANCH  19  23
HETATM   23  C14 UNL     1       3.773   1.211   0.024  1.00  0.00     0.204 C 
BRANCH  23  24
HETATM   24  O5  UNL     1       3.182   2.226   0.751  1.00  0.00    -0.398 OA
ATOM     25  H5  UNL     1       3.496   3.108   0.592  1.00  0.00     0.209 HD
ENDBRANCH  23  24
ENDBRANCH  19  23
ENDBRANCH  16  19
ENDBRANCH  12  16
ENDBRANCH   9  12
TORSDOF 8
