REMARK  5 active torsions:
REMARK  status: ('A' for Active; 'I' for Inactive)
REMARK    1  A    between atoms: C2_2  and  O1_3 
REMARK    2  A    between atoms: C3_5  and  C4_6 
REMARK       I    between atoms: C4_6  and  N1_8 
REMARK    3  A    between atoms: N1_8  and  N2_10 
REMARK    4  A    between atoms: N3_13  and  C7_14 
REMARK    5  A    between atoms: C10_20  and  N5_21 
ROOT
HETATM    1  N2  UNL     1       1.132   0.191   0.765  1.00  0.00    -0.226 NA
HETATM    2  C5  UNL     1       0.372   1.341   0.268  1.00  0.00     0.133 C 
HETATM    3  C6  UNL     1      -0.790   0.734  -0.534  1.00  0.00     0.141 C 
HETATM    4  N3  UNL     1      -1.721   0.226   0.477  1.00  0.00    -0.364 N 
HETATM    5  C11 UNL     1      -1.089  -0.162   1.725  1.00  0.00     0.141 C 
HETATM    6  C12 UNL     1       0.253  -0.798   1.335  1.00  0.00     0.133 C 
ENDROOT
BRANCH   4   7
HETATM    7  C7  UNL     1      -3.101   0.122   0.234  1.00  0.00     0.124 A 
HETATM    8  C8  UNL     1      -3.611   0.439  -1.006  1.00  0.00     0.123 A 
HETATM    9  C9  UNL     1      -4.986   0.342  -1.239  1.00  0.00     0.263 A 
HETATM   10  O3  UNL     1      -5.386   0.648  -2.393  1.00  0.00    -0.268 OA
HETATM   11  N4  UNL     1      -5.764  -0.058  -0.240  1.00  0.00    -0.156 N 
HETATM   12  C10 UNL     1      -5.278  -0.373   0.981  1.00  0.00     0.680 A 
ATOM     13  H4  UNL     1      -6.769  -0.130  -0.401  1.00  0.00     0.187 HD
HETATM   14  N6  UNL     1      -3.942  -0.278   1.205  1.00  0.00    -0.177 N 
ATOM     15  H6  UNL     1      -3.570  -0.514   2.125  1.00  0.00     0.185 HD
BRANCH  12  16
HETATM   16  N5  UNL     1      -6.074  -0.754   1.894  1.00  0.00    -0.234 N 
ATOM     17  H52 UNL     1      -7.077  -0.825   1.726  1.00  0.00     0.174 HD
ATOM     18  H51 UNL     1      -5.707  -0.992   2.816  1.00  0.00     0.174 HD
ENDBRANCH  12  16
ENDBRANCH   4   7
BRANCH   1  19
HETATM   19  N1  UNL     1       1.890  -0.299  -0.299  1.00  0.00    -0.286 N 
HETATM   20  C4  UNL     1       3.327  -0.090  -0.269  1.00  0.00     0.258 C 
HETATM   21  O2  UNL     1       3.854   0.514   0.686  1.00  0.00    -0.267 OA
ATOM     22  H1  UNL     1       1.448  -0.790  -1.076  1.00  0.00     0.184 HD
BRANCH  20  23
HETATM   23  C3  UNL     1       4.128  -0.593  -1.355  1.00  0.00     0.106 C 
HETATM   24  C2  UNL     1       5.431  -0.444  -1.372  1.00  0.00     0.044 C 
HETATM   25  C1  UNL     1       6.217   0.230  -0.320  1.00  0.00     0.076 C 
BRANCH  24  26
HETATM   26  O1  UNL     1       6.180  -0.956  -2.464  1.00  0.00    -0.365 OA
ATOM     27  H1  UNL     1       5.674  -1.390  -3.141  1.00  0.00     0.217 HD
ENDBRANCH  24  26
ENDBRANCH  20  23
ENDBRANCH   1  19
TORSDOF 5
