REMARK  6 active torsions:
REMARK  status: ('A' for Active; 'I' for Inactive)
REMARK    1  A    between atoms: C5_5  and  N1_6 
REMARK    2  A    between atoms: N1_6  and  C6_8 
REMARK    3  A    between atoms: C6_8  and  O1_9 
REMARK    4  A    between atoms: C6_8  and  C7_11 
REMARK    5  A    between atoms: N2_13  and  C9_14 
REMARK    6  A    between atoms: N4_24  and  C16_25 
ROOT
HETATM    1  C7  UNL     1       0.868   0.022   0.263  1.00  0.00     0.092 A 
HETATM    2  C8  UNL     1       0.201   1.137  -0.176  1.00  0.00     0.148 A 
HETATM    3  N2  UNL     1      -0.874   0.849   0.579  1.00  0.00    -0.258 N 
HETATM    4  N5  UNL     1      -0.236  -0.199   0.986  1.00  0.00    -0.292 N 
ATOM      5  H5  UNL     1      -0.488  -0.942   1.637  1.00  0.00     0.187 HD
ENDROOT
BRANCH   3   6
HETATM    6  C9  UNL     1      -2.069   1.500   0.831  1.00  0.00     0.150 A 
HETATM    7  C10 UNL     1      -3.280   0.885   0.711  1.00  0.00     0.073 A 
HETATM    8  C11 UNL     1      -4.431   1.607   1.053  1.00  0.00    -0.012 A 
HETATM    9  N4  UNL     1      -3.695  -0.403   0.248  1.00  0.00    -0.370 N 
HETATM   10  C12 UNL     1      -4.369   2.902   1.493  1.00  0.00     0.101 A 
HETATM   11  C14 UNL     1      -5.603   0.692   0.879  1.00  0.00     0.062 C 
HETATM   12  N3  UNL     1      -3.195   3.497   1.604  1.00  0.00    -0.331 N 
HETATM   13  C13 UNL     1      -2.075   2.843   1.292  1.00  0.00     0.276 A 
ATOM     14  H3  UNL     1      -3.144   4.462   1.930  1.00  0.00     0.168 HD
HETATM   15  O2  UNL     1      -0.982   3.454   1.417  1.00  0.00    -0.266 OA
HETATM   16  C15 UNL     1      -4.885  -0.654   1.105  1.00  0.00     0.128 C 
BRANCH   9  17
HETATM   17  C16 UNL     1      -3.139  -1.213  -0.786  1.00  0.00     0.022 C 
HETATM   18  C17 UNL     1      -2.571  -2.535  -0.376  1.00  0.00     0.037 C 
HETATM   19  C18 UNL     1      -4.485  -1.707  -1.480  1.00  0.00     0.037 C 
HETATM   20  C19 UNL     1      -2.500  -0.538  -1.942  1.00  0.00     0.037 C 
ENDBRANCH   9  17
ENDBRANCH   3   6
BRANCH   1  21
HETATM   21  C6  UNL     1       2.188  -0.573   0.002  1.00  0.00     0.273 C 
BRANCH  21  22
HETATM   22  N1  UNL     1       3.253   0.398   0.016  1.00  0.00    -0.349 N 
ATOM     23  H1  UNL     1       3.051   1.369   0.256  1.00  0.00     0.163 HD
BRANCH  22  24
HETATM   24  C5  UNL     1       4.587   0.010  -0.303  1.00  0.00     0.075 C 
HETATM   25  C4  UNL     1       5.643  -0.077   0.724  1.00  0.00     0.078 C 
HETATM   26  C3  UNL     1       6.647  -1.029   0.122  1.00  0.00     0.032 C 
HETATM   27  C2  UNL     1       6.489  -0.649  -1.362  1.00  0.00     0.079 C 
HETATM   28  C1  UNL     1       7.378   0.558  -1.576  1.00  0.00     0.032 C 
HETATM   29  N6  UNL     1       5.079  -0.307  -1.428  1.00  0.00    -0.376 N 
ATOM     30  H6  UNL     1       4.538  -0.320  -2.293  1.00  0.00     0.161 HD
ENDBRANCH  22  24
ENDBRANCH  21  22
BRANCH  21  31
HETATM   31  O1  UNL     1       2.504  -1.572   0.937  1.00  0.00    -0.371 OA
ATOM     32  H1  UNL     1       1.802  -2.212   0.928  1.00  0.00     0.212 HD
ENDBRANCH  21  31
ENDBRANCH   1  21
TORSDOF 6
