REMARK  6 active torsions:
REMARK  status: ('A' for Active; 'I' for Inactive)
REMARK    1  A    between atoms: O1_2  and  C2_3 
REMARK    2  A    between atoms: C5_8  and  O4_9 
REMARK    3  A    between atoms: C6_11  and  O5_12 
REMARK    4  A    between atoms: C7_14  and  N1_15 
REMARK    5  A    between atoms: N1_15  and  N2_17 
REMARK    6  A    between atoms: N2_17  and  N3_18 
ROOT
HETATM    1  C2  UNL     1       1.119   0.082  -0.253  1.00  0.00     0.289 C 
HETATM    2  O2  UNL     1       0.590  -1.180  -0.497  1.00  0.00    -0.335 OA
HETATM    3  C3  UNL     1       0.303  -1.756   0.743  1.00  0.00     0.341 C 
HETATM    4  O3  UNL     1      -1.060  -1.546   0.961  1.00  0.00    -0.364 OA
HETATM    5  C4  UNL     1      -1.683  -1.622  -0.276  1.00  0.00     0.204 C 
HETATM    6  C5  UNL     1      -1.766  -0.324  -1.002  1.00  0.00     0.173 C 
HETATM    7  C6  UNL     1      -1.272   0.858  -0.236  1.00  0.00     0.179 C 
HETATM    8  C7  UNL     1       0.173   1.196  -0.519  1.00  0.00     0.200 C 
ENDROOT
BRANCH   8   9
HETATM    9  N1  UNL     1       0.535   2.313   0.333  1.00  0.00    -0.240 N 
ATOM     10  H1  UNL     1       0.781   3.224  -0.053  1.00  0.00     0.197 HD
BRANCH   9  11
HETATM   11  N2  UNL     1       0.530   2.104   1.545  1.00  0.00    -0.248 NA
BRANCH  11  12
HETATM   12  N3  UNL     1       0.601   2.136   2.790  1.00  0.00    -0.261 N 
ATOM     13  H32 UNL     1       0.900   3.111   2.755  1.00  0.00     0.193 HD
ATOM     14  H31 UNL     1       0.597   1.963   3.795  1.00  0.00     0.193 HD
ENDBRANCH  11  12
ENDBRANCH   9  11
ENDBRANCH   8   9
BRANCH   1  15
HETATM   15  O1  UNL     1       2.245   0.261  -1.054  1.00  0.00    -0.364 OA
HETATM   16  C1  UNL     1       3.390   0.481  -0.296  1.00  0.00     0.204 C 
ENDBRANCH   1  15
BRANCH   7  17
HETATM   17  O5  UNL     1      -1.532   0.780   1.135  1.00  0.00    -0.391 OA
ATOM     18  H5  UNL     1      -1.218   1.532   1.623  1.00  0.00     0.210 HD
ENDBRANCH   7  17
BRANCH   6  19
HETATM   19  O4  UNL     1      -3.119  -0.126  -1.359  1.00  0.00    -0.391 OA
ATOM     20  H4  UNL     1      -3.172   0.702  -1.822  1.00  0.00     0.210 HD
ENDBRANCH   6  19
TORSDOF 6
