REMARK  15 active torsions:
REMARK  status: ('A' for Active; 'I' for Inactive)
REMARK    1  A    between atoms: N1_2  and  C2_5 
REMARK    2  A    between atoms: C2_5  and  C3_6 
REMARK    3  A    between atoms: C3_6  and  C4_7 
REMARK    4  A    between atoms: C4_7  and  C5_8 
REMARK    5  A    between atoms: C5_8  and  C6_9 
REMARK    6  A    between atoms: N2_10  and  C7_12 
REMARK    7  A    between atoms: C7_12  and  C8_13 
REMARK    8  A    between atoms: C7_12  and  C17_30 
REMARK    9  A    between atoms: C8_13  and  N3_14 
REMARK   10  A    between atoms: N3_14  and  C9_15 
REMARK   11  A    between atoms: N3_14  and  C11_21 
REMARK   12  A    between atoms: C9_15  and  C10_16 
REMARK   13  A    between atoms: C10_16  and  N4_17 
REMARK   14  A    between atoms: C11_21  and  C12_22 
REMARK   15  A    between atoms: C15_27  and  O1_28 
ROOT
HETATM    1  C7  UNL     1       0.108   0.983   0.916  1.00  0.00     0.049 C 
ENDROOT
BRANCH   1   2
HETATM    2  N2  UNL     1       1.495   0.941   1.045  1.00  0.00    -0.371 N 
HETATM    3  C6  UNL     1       2.516   0.951   0.155  1.00  0.00     0.061 C 
ATOM      4  H2  UNL     1       1.807   0.892   2.015  1.00  0.00     0.164 HD
BRANCH   3   5
HETATM    5  C5  UNL     1       2.780  -0.225  -0.756  1.00  0.00     0.044 C 
BRANCH   5   6
HETATM    6  C4  UNL     1       4.018   0.031  -1.624  1.00  0.00     0.007 C 
BRANCH   6   7
HETATM    7  C3  UNL     1       5.227   0.240  -0.779  1.00  0.00     0.028 C 
BRANCH   7   8
HETATM    8  C2  UNL     1       5.527  -0.959   0.101  1.00  0.00     0.231 C 
BRANCH   8   9
HETATM    9  N1  UNL     1       6.738  -0.617   0.863  1.00  0.00    -0.079 N 
HETATM   10  C1  UNL     1       7.438  -1.860   1.139  1.00  0.00     0.266 C 
ATOM     11  H12 UNL     1       6.541  -0.075   1.704  1.00  0.00     0.276 HD
ATOM     12  H11 UNL     1       7.323   0.075   0.394  1.00  0.00     0.276 HD
ENDBRANCH   8   9
ENDBRANCH   7   8
ENDBRANCH   6   7
ENDBRANCH   5   6
ENDBRANCH   3   5
ENDBRANCH   1   2
BRANCH   1  13
HETATM   13  C8  UNL     1      -0.581  -0.120   0.209  1.00  0.00     0.330 C 
BRANCH  13  14
HETATM   14  N3  UNL     1      -2.018  -0.053   0.088  1.00  0.00     0.101 N 
BRANCH  14  15
HETATM   15  C9  UNL     1      -2.474   0.742  -1.014  1.00  0.00     0.300 C 
BRANCH  15  16
HETATM   16  C10 UNL     1      -2.154   0.069  -2.356  1.00  0.00     0.259 C 
BRANCH  16  17
HETATM   17  N4  UNL     1      -2.680   0.992  -3.371  1.00  0.00    -0.078 N 
ATOM     18  H43 UNL     1      -3.665   1.226  -3.249  1.00  0.00     0.274 HD
ATOM     19  H42 UNL     1      -2.325   1.945  -3.289  1.00  0.00     0.274 HD
ATOM     20  H41 UNL     1      -2.467   0.545  -4.263  1.00  0.00     0.274 HD
ENDBRANCH  16  17
ENDBRANCH  15  16
ENDBRANCH  14  15
BRANCH  14  21
HETATM   21  C11 UNL     1      -2.584  -1.381   0.092  1.00  0.00     0.332 C 
BRANCH  21  22
HETATM   22  C12 UNL     1      -4.026  -1.499   0.318  1.00  0.00     0.071 A 
HETATM   23  N5  UNL     1      -4.921  -0.571   0.641  1.00  0.00    -0.365 N 
HETATM   24  C13 UNL     1      -6.123  -1.147   0.800  1.00  0.00     0.091 A 
ATOM     25  H5  UNL     1      -4.725   0.424   0.751  1.00  0.00     0.165 HD
HETATM   26  C14 UNL     1      -6.001  -2.493   0.572  1.00  0.00     0.055 A 
HETATM   27  C15 UNL     1      -4.689  -2.711   0.271  1.00  0.00     0.093 A 
BRANCH  27  28
HETATM   28  O1  UNL     1      -4.113  -3.963  -0.035  1.00  0.00    -0.354 OA
HETATM   29  C16 UNL     1      -4.951  -5.100  -0.035  1.00  0.00     0.210 C 
ENDBRANCH  27  28
ENDBRANCH  21  22
ENDBRANCH  14  21
ENDBRANCH  13  14
ENDBRANCH   1  13
BRANCH   1  30
HETATM   30  C17 UNL     1      -0.485   2.328   0.946  1.00  0.00     0.004 A 
HETATM   31  C18 UNL     1       0.013   3.418   0.247  1.00  0.00     0.020 A 
HETATM   32  C19 UNL     1      -0.561   4.669   0.342  1.00  0.00     0.075 A 
HETATM   33  C20 UNL     1      -1.665   4.899   1.144  1.00  0.00     0.245 A 
HETATM   34  O2  UNL     1      -2.197   6.039   1.238  1.00  0.00    -0.268 OA
HETATM   35  N6  UNL     1      -2.144   3.850   1.817  1.00  0.00    -0.333 N 
HETATM   36  C21 UNL     1      -1.604   2.630   1.739  1.00  0.00     0.104 A 
ATOM     37  H6  UNL     1      -2.958   3.986   2.417  1.00  0.00     0.168 HD
ENDBRANCH   1  30
TORSDOF 15
