REMARK  2 active torsions:
REMARK  status: ('A' for Active; 'I' for Inactive)
REMARK    1  A    between atoms: C1_2  and  C2_3 
REMARK       I    between atoms: C1_2  and  N1_6 
REMARK       I    between atoms: N2_13  and  C11_14 
REMARK    2  A    between atoms: C11_14  and  C12_16 
ROOT
HETATM    1  O1  UNL     1      -2.921  -1.676   2.147  1.00  0.00    -0.273 OA
HETATM    2  C1  UNL     1      -3.300  -0.725   1.350  1.00  0.00     0.224 C 
HETATM    3  N1  UNL     1      -2.283  -0.270   0.468  1.00  0.00    -0.351 N 
HETATM    4  C5  UNL     1      -2.452   0.782  -0.501  1.00  0.00     0.132 C 
HETATM    5  C6  UNL     1      -1.292   0.779  -1.507  1.00  0.00     0.022 C 
HETATM    6  C7  UNL     1      -1.164  -0.663  -1.943  1.00  0.00     0.016 C 
HETATM    7  C8  UNL     1      -0.489  -1.365  -0.775  1.00  0.00     0.022 C 
HETATM    8  C9  UNL     1      -0.944  -0.876   0.554  1.00  0.00     0.132 C 
HETATM    9  C10 UNL     1       0.989  -0.941  -0.903  1.00  0.00     0.132 C 
HETATM   10  N2  UNL     1       1.037   0.491  -0.708  1.00  0.00    -0.351 N 
HETATM   11  C11 UNL     1       2.224   1.050  -0.190  1.00  0.00     0.225 C 
HETATM   12  O2  UNL     1       2.302   2.304   0.007  1.00  0.00    -0.273 OA
HETATM   13  C16 UNL     1      -0.051   1.397  -1.011  1.00  0.00     0.132 C 
ENDROOT
BRANCH  11  14
HETATM   14  C12 UNL     1       3.390   0.232   0.134  1.00  0.00     0.105 C 
HETATM   15  C13 UNL     1       4.054  -0.428  -1.049  1.00  0.00     0.043 C 
HETATM   16  C14 UNL     1       5.465  -0.678  -0.498  1.00  0.00     0.233 C 
HETATM   17  N3  UNL     1       5.752   0.545   0.180  1.00  0.00    -0.074 N 
HETATM   18  C15 UNL     1       4.530   1.070   0.702  1.00  0.00     0.246 C 
ATOM     19  H32 UNL     1       6.470   0.437   0.897  1.00  0.00     0.277 HD
ATOM     20  H31 UNL     1       6.245   1.214  -0.411  1.00  0.00     0.277 HD
ENDBRANCH  11  14
BRANCH   2  21
HETATM   21  C2  UNL     1      -4.672  -0.296   1.498  1.00  0.00     0.078 A 
HETATM   22  C3  UNL     1      -5.549  -0.478   0.243  1.00  0.00     0.015 A 
HETATM   23  C4  UNL     1      -5.327   0.848   0.886  1.00  0.00     0.015 A 
ENDBRANCH   2  21
TORSDOF 2
