REMARK  2 active torsions:
REMARK  status: ('A' for Active; 'I' for Inactive)
REMARK    1  A    between atoms: C2_2  and  C3_3 
REMARK    2  A    between atoms: C3_3  and  N1_4 
REMARK       I    between atoms: N2_10  and  C9_11 
ROOT
HETATM    1  N1  UNL     1       0.876  -0.438  -0.003  1.00  0.00     0.099 N 
HETATM    2  C4  UNL     1       1.607  -0.926  -1.211  1.00  0.00     0.298 C 
HETATM    3  C5  UNL     1       2.716   0.029  -1.453  1.00  0.00     0.119 C 
HETATM    4  C6  UNL     1       2.190   1.278  -0.724  1.00  0.00     0.064 C 
HETATM    5  C7  UNL     1       1.769   0.494   0.531  1.00  0.00     0.243 C 
HETATM    6  C8  UNL     1       3.100  -0.263   0.777  1.00  0.00     0.163 C 
HETATM    7  N2  UNL     1       3.772  -0.301  -0.504  1.00  0.00    -0.328 N 
HETATM    8  C9  UNL     1       5.101  -0.573  -0.864  1.00  0.00     0.331 C 
HETATM    9  N3  UNL     1       6.048  -0.888   0.173  1.00  0.00    -0.040 NA
HETATM   10  O1  UNL     1       5.457  -0.544  -2.062  1.00  0.00    -0.251 OA
ENDROOT
BRANCH   1  11
HETATM   11  C3  UNL     1      -0.411  -0.122  -0.429  1.00  0.00     0.314 C 
BRANCH  11  12
HETATM   12  C2  UNL     1      -1.476   0.269   0.543  1.00  0.00     0.172 C 
HETATM   13  C1  UNL     1      -1.100   1.526   1.285  1.00  0.00     0.051 C 
HETATM   14  C10 UNL     1      -1.634  -0.803   1.628  1.00  0.00     0.208 C 
HETATM   15  O2  UNL     1      -1.707  -2.016   0.944  1.00  0.00    -0.387 OA
HETATM   16  C11 UNL     1      -2.914  -2.096   0.298  1.00  0.00     0.195 C 
HETATM   17  C12 UNL     1      -3.387  -0.888  -0.408  1.00  0.00     0.263 C 
HETATM   18  N4  UNL     1      -2.772   0.361  -0.114  1.00  0.00    -0.060 N 
HETATM   19  C13 UNL     1      -3.701   1.121   0.690  1.00  0.00     0.273 C 
HETATM   20  C14 UNL     1      -2.627   1.144  -1.359  1.00  0.00     0.273 C 
ENDBRANCH  11  12
ENDBRANCH   1  11
TORSDOF 2
