REMARK  10 active torsions:
REMARK  status: ('A' for Active; 'I' for Inactive)
REMARK       I    between atoms: C2_2  and  N1_4 
REMARK    1  A    between atoms: N1_4  and  C4_6 
REMARK    2  A    between atoms: C10_12  and  N2_13 
REMARK    3  A    between atoms: N2_13  and  C12_15 
REMARK    4  A    between atoms: C12_15  and  O2_16 
REMARK    5  A    between atoms: C12_15  and  C13_18 
REMARK       I    between atoms: C13_18  and  N3_20 
REMARK    6  A    between atoms: C15_25  and  C16_26 
REMARK    7  A    between atoms: C17_27  and  C18_28 
REMARK    8  A    between atoms: C18_28  and  C19_29 
REMARK    9  A    between atoms: C19_29  and  N6_30 
REMARK   10  A    between atoms: N6_30  and  N7_31 
ROOT
HETATM    1  C4  UNL     1      -1.773  -1.190   0.361  1.00  0.00     0.218 C 
HETATM    2  C5  UNL     1      -2.599  -1.789   1.510  1.00  0.00     0.065 C 
HETATM    3  C6  UNL     1      -2.703  -3.238   1.092  1.00  0.00     0.037 C 
HETATM    4  C7  UNL     1      -1.459  -3.394   0.256  1.00  0.00     0.189 C 
HETATM    5  C8  UNL     1      -0.270  -3.611   1.079  1.00  0.00     0.035 C 
HETATM    6  C9  UNL     1       0.940  -2.799   0.825  1.00  0.00     0.029 C 
HETATM    7  C10 UNL     1       0.754  -1.367   0.391  1.00  0.00     0.106 C 
HETATM    8  C15 UNL     1      -0.445  -0.717   0.956  1.00  0.00     0.145 C 
HETATM    9  N8  UNL     1      -1.517  -2.229  -0.542  1.00  0.00    -0.043 N 
ATOM     10  H81 UNL     1      -0.690  -2.081  -1.120  1.00  0.00     0.280 HD
ATOM     11  H82 UNL     1      -2.186  -2.285  -1.310  1.00  0.00     0.280 HD
ENDROOT
BRANCH   7  12
HETATM   12  N2  UNL     1       1.948  -0.673   0.910  1.00  0.00    -0.356 N 
HETATM   13  C11 UNL     1       2.131  -0.559   2.359  1.00  0.00     0.152 C 
BRANCH  12  14
HETATM   14  C12 UNL     1       2.927  -0.108   0.097  1.00  0.00     0.208 C 
BRANCH  14  15
HETATM   15  O2  UNL     1       3.879   0.494   0.777  1.00  0.00    -0.342 OA
ATOM     16  H2  UNL     1       4.547   0.879   0.222  1.00  0.00     0.219 HD
ENDBRANCH  14  15
BRANCH  14  17
HETATM   17  C13 UNL     1       3.106  -0.052  -1.308  1.00  0.00     0.298 C 
HETATM   18  O3  UNL     1       2.339  -0.578  -2.134  1.00  0.00    -0.263 OA
HETATM   19  N3  UNL     1       4.241   0.652  -1.857  1.00  0.00    -0.296 N 
HETATM   20  C14 UNL     1       4.159   1.921  -2.068  1.00  0.00     0.203 C 
ATOM     21  H3  UNL     1       5.101   0.149  -2.076  1.00  0.00     0.171 HD
HETATM   22  N4  UNL     1       5.260   2.647  -2.608  1.00  0.00    -0.066 NA
HETATM   23  N5  UNL     1       2.957   2.607  -1.760  1.00  0.00    -0.066 NA
ENDBRANCH  14  17
ENDBRANCH  12  14
ENDBRANCH   7  12
BRANCH   8  24
HETATM   24  C16 UNL     1      -0.369   0.729   0.786  1.00  0.00    -0.095 C 
HETATM   25  C17 UNL     1      -0.284   1.951   0.671  1.00  0.00    -0.100 C 
BRANCH  25  26
HETATM   26  C18 UNL     1      -0.188   3.405   0.560  1.00  0.00     0.155 C 
BRANCH  26  27
HETATM   27  C19 UNL     1      -1.171   4.039   1.479  1.00  0.00     0.193 C 
BRANCH  27  28
HETATM   28  N6  UNL     1      -1.737   5.087   1.109  1.00  0.00    -0.349 NA
BRANCH  28  29
HETATM   29  N7  UNL     1      -2.481   6.034   0.842  1.00  0.00    -0.281 N 
ATOM     30  H72 UNL     1      -3.245   5.547   1.311  1.00  0.00     0.191 HD
ATOM     31  H71 UNL     1      -2.944   6.891   0.539  1.00  0.00     0.191 HD
ENDBRANCH  28  29
ENDBRANCH  27  28
ENDBRANCH  26  27
ENDBRANCH  25  26
ENDBRANCH   8  24
BRANCH   1  32
HETATM   32  N1  UNL     1      -2.516  -0.072  -0.159  1.00  0.00    -0.323 N 
HETATM   33  C2  UNL     1      -2.384   0.555  -1.409  1.00  0.00     0.217 C 
HETATM   34  C1  UNL     1      -1.520   0.045  -2.471  1.00  0.00     0.117 C 
HETATM   35  O1  UNL     1      -3.049   1.620  -1.647  1.00  0.00    -0.274 OA
HETATM   36  C3  UNL     1      -3.489   0.566   0.748  1.00  0.00     0.155 C 
ENDBRANCH   1  32
TORSDOF 10
