REMARK  6 active torsions:
REMARK  status: ('A' for Active; 'I' for Inactive)
REMARK    1  A    between atoms: C2_2  and  C3_3 
REMARK    2  A    between atoms: C11_13  and  N3_14 
REMARK       I    between atoms: N3_14  and  C12_16 
REMARK    3  A    between atoms: C12_16  and  C13_18 
REMARK    4  A    between atoms: C14_19  and  C15_20 
REMARK    5  A    between atoms: C15_20  and  O2_21 
REMARK    6  A    between atoms: N4_23  and  C16_25 
ROOT
HETATM    1  C13 UNL     1      -2.905   0.274  -0.734  1.00  0.00     0.058 C 
HETATM    2  C14 UNL     1      -3.247   1.132  -1.651  1.00  0.00     0.042 C 
HETATM    3  C19 UNL     1      -4.777   1.186  -1.691  1.00  0.00     0.151 C 
HETATM    4  C20 UNL     1      -5.256   2.629  -1.679  1.00  0.00     0.051 C 
HETATM    5  C21 UNL     1      -5.243   0.586  -3.014  1.00  0.00     0.051 C 
HETATM    6  N5  UNL     1      -5.209   0.454  -0.591  1.00  0.00    -0.050 N 
ATOM      7  H51 UNL     1      -5.994  -0.155  -0.822  1.00  0.00     0.279 HD
ATOM      8  H52 UNL     1      -5.674   1.043   0.100  1.00  0.00     0.279 HD
HETATM    9  C22 UNL     1      -4.127  -0.267  -0.030  1.00  0.00     0.152 C 
HETATM   10  C23 UNL     1      -3.965   0.123   1.448  1.00  0.00     0.052 C 
HETATM   11  C24 UNL     1      -4.274  -1.752  -0.181  1.00  0.00     0.052 C 
ENDROOT
BRANCH   1  12
HETATM   12  C12 UNL     1      -1.542  -0.153  -0.343  1.00  0.00     0.251 C 
HETATM   13  N3  UNL     1      -1.344  -1.124   0.666  1.00  0.00    -0.352 N 
ATOM     14  H3  UNL     1      -2.145  -1.547   1.135  1.00  0.00     0.163 HD
HETATM   15  O1  UNL     1      -0.503   0.283  -0.840  1.00  0.00    -0.268 OA
BRANCH  13  16
HETATM   16  C11 UNL     1       0.023  -1.521   1.036  1.00  0.00     0.090 C 
HETATM   17  C10 UNL     1       0.238  -1.662   2.507  1.00  0.00     0.022 C 
HETATM   18  C9  UNL     1       1.281  -0.727   3.097  1.00  0.00     0.065 C 
HETATM   19  C26 UNL     1       1.032  -2.925   2.213  1.00  0.00     0.030 C 
HETATM   20  C7  UNL     1       2.546  -1.179   2.423  1.00  0.00     0.021 A 
HETATM   21  C6  UNL     1       2.396  -2.443   1.920  1.00  0.00    -0.015 A 
HETATM   22  N2  UNL     1       3.723  -0.551   2.260  1.00  0.00    -0.344 N 
HETATM   23  C5  UNL     1       3.453  -3.005   1.274  1.00  0.00     0.101 A 
HETATM   24  N1  UNL     1       4.639  -2.358   1.114  1.00  0.00    -0.350 N 
HETATM   25  C3  UNL     1       4.763  -1.111   1.620  1.00  0.00     0.084 A 
HETATM   26  C4  UNL     1       5.731  -3.006   0.415  1.00  0.00     0.156 C 
HETATM   27  C8  UNL     1       3.860   0.781   2.802  1.00  0.00     0.157 C 
HETATM   28  C25 UNL     1       0.242  -3.028   0.926  1.00  0.00     0.035 C 
BRANCH  25  29
HETATM   29  C2  UNL     1       6.038  -0.372   1.461  1.00  0.00     0.072 C 
HETATM   30  C1  UNL     1       7.012  -0.600   2.576  1.00  0.00     0.013 C 
ENDBRANCH  25  29
ENDBRANCH  13  16
ENDBRANCH   1  12
BRANCH   2  31
HETATM   31  C15 UNL     1      -2.488   1.953  -2.586  1.00  0.00     0.145 C 
HETATM   32  N4  UNL     1      -1.212   2.213  -2.938  1.00  0.00    -0.367 N 
ATOM     33  H4  UNL     1      -0.444   1.738  -2.464  1.00  0.00     0.162 HD
BRANCH  31  34
HETATM   34  O2  UNL     1      -3.354   2.671  -3.323  1.00  0.00    -0.346 OA
ATOM     35  H2  UNL     1      -2.859   3.206  -3.932  1.00  0.00     0.219 HD
ENDBRANCH  31  34
BRANCH  32  36
HETATM   36  C16 UNL     1      -0.924   3.209  -4.036  1.00  0.00     0.075 C 
HETATM   37  C17 UNL     1       0.042   4.246  -3.581  1.00  0.00     0.032 C 
HETATM   38  C18 UNL     1      -0.318   2.465  -5.200  1.00  0.00     0.032 C 
ENDBRANCH  32  36
ENDBRANCH   2  31
TORSDOF 6
