REMARK  6 active torsions:
REMARK  status: ('A' for Active; 'I' for Inactive)
REMARK    1  A    between atoms: N1_2  and  C2_4 
REMARK    2  A    between atoms: C3_7  and  N3_8 
REMARK    3  A    between atoms: C4_13  and  N5_14 
REMARK    4  A    between atoms: C5_17  and  N6_18 
REMARK    5  A    between atoms: N7_20  and  N8_22 
REMARK       I    between atoms: N8_22  and  C7_24 
REMARK       I    between atoms: C7_24  and  N10_28 
REMARK    6  A    between atoms: N10_28  and  N11_30 
ROOT
HETATM    1  C2  UNL     1      -1.981   0.522   0.036  1.00  0.00     0.148 A 
HETATM    2  N2  UNL     1      -3.291   0.308  -0.257  1.00  0.00    -0.175 N 
ATOM      3  H2  UNL     1      -3.956   1.072  -0.139  1.00  0.00     0.186 HD
HETATM    4  C3  UNL     1      -3.735  -0.883  -0.698  1.00  0.00     0.679 A 
HETATM    5  N4  UNL     1      -2.876  -1.918  -0.864  1.00  0.00    -0.175 N 
ATOM      6  H4  UNL     1      -3.222  -2.818  -1.198  1.00  0.00     0.186 HD
HETATM    7  C4  UNL     1      -1.570  -1.762  -0.590  1.00  0.00     0.146 A 
HETATM    8  C5  UNL     1      -1.109  -0.532  -0.134  1.00  0.00     0.138 A 
ENDROOT
BRANCH   8   9
HETATM    9  N6  UNL     1       0.252  -0.308   0.170  1.00  0.00    -0.279 N 
HETATM   10  N7  UNL     1       1.140  -1.185   0.244  1.00  0.00    -0.226 N 
ATOM     11  H7  UNL     1       0.918  -2.167   0.079  1.00  0.00     0.209 HD
ATOM     12  H6  UNL     1       0.536   0.656   0.345  1.00  0.00     0.189 HD
BRANCH  10  13
HETATM   13  N8  UNL     1       2.436  -0.792   0.556  1.00  0.00    -0.113 N 
HETATM   14  C6  UNL     1       2.694  -0.331   1.899  1.00  0.00     0.199 C 
HETATM   15  C7  UNL     1       3.507  -0.817  -0.361  1.00  0.00     0.712 C 
HETATM   16  N9  UNL     1       3.578  -1.778  -1.206  1.00  0.00    -0.232 N 
HETATM   17  N10 UNL     1       4.528   0.173  -0.405  1.00  0.00    -0.071 N 
ATOM     18  H92 UNL     1       2.846  -2.488  -1.174  1.00  0.00     0.174 HD
ATOM     19  H91 UNL     1       4.353  -1.796  -1.869  1.00  0.00     0.174 HD
ATOM     20  H10 UNL     1       5.495  -0.083  -0.204  1.00  0.00     0.212 HD
BRANCH  17  21
HETATM   21  N11 UNL     1       4.209   1.494  -0.723  1.00  0.00    -0.024 N 
HETATM   22  O1  UNL     1       5.041   2.266  -1.235  1.00  0.00    -0.516 OA
HETATM   23  O2  UNL     1       2.937   1.929  -0.452  1.00  0.00    -0.516 OA
ENDBRANCH  17  21
ENDBRANCH  10  13
ENDBRANCH   8   9
BRANCH   1  24
HETATM   24  N1  UNL     1      -1.561   1.797   0.497  1.00  0.00    -0.378 N 
HETATM   25  C1  UNL     1      -2.475   2.896   0.674  1.00  0.00     0.147 C 
ATOM     26  H1  UNL     1      -0.574   1.940   0.711  1.00  0.00     0.160 HD
ENDBRANCH   1  24
BRANCH   7  27
HETATM   27  N5  UNL     1      -0.708  -2.721  -0.733  1.00  0.00    -0.383 N 
ATOM     28  H52 UNL     1      -1.046  -3.623  -1.068  1.00  0.00     0.157 HD
ATOM     29  H51 UNL     1       0.284  -2.603  -0.525  1.00  0.00     0.157 HD
ENDBRANCH   7  27
BRANCH   4  30
HETATM   30  N3  UNL     1      -4.997  -1.067  -0.974  1.00  0.00    -0.234 N 
ATOM     31  H32 UNL     1      -5.644  -0.288  -0.849  1.00  0.00     0.174 HD
ATOM     32  H31 UNL     1      -5.334  -1.970  -1.308  1.00  0.00     0.174 HD
ENDBRANCH   4  30
TORSDOF 6
