REMARK  5 active torsions:
REMARK  status: ('A' for Active; 'I' for Inactive)
REMARK    1  A    between atoms: C2_2  and  C3_3 
REMARK       I    between atoms: C3_3  and  N1_5 
REMARK    2  A    between atoms: N1_5  and  C4_7 
REMARK    3  A    between atoms: C4_7  and  C5_8 
REMARK    4  A    between atoms: C5_8  and  C6_9 
REMARK    5  A    between atoms: C6_9  and  N2_10 
ROOT
HETATM    1  C1  UNL     1       0.580  -0.106  -3.478  1.00  0.00     0.025 C 
HETATM    2  C2  UNL     1       0.814   0.852  -2.348  1.00  0.00     0.038 C 
HETATM    3  C11 UNL     1       0.319   2.249  -2.651  1.00  0.00     0.019 C 
HETATM    4  C12 UNL     1      -1.131   2.213  -3.002  1.00  0.00     0.006 C 
HETATM    5  C13 UNL     1      -1.916   1.172  -2.233  1.00  0.00    -0.010 C 
HETATM    6  C14 UNL     1      -3.280   1.763  -1.935  1.00  0.00     0.005 C 
HETATM    7  C15 UNL     1      -4.150   0.807  -1.143  1.00  0.00     0.006 C 
HETATM    8  C16 UNL     1      -3.321  -0.291  -0.511  1.00  0.00    -0.001 C 
HETATM    9  C17 UNL     1      -2.044   0.270   0.104  1.00  0.00    -0.005 C 
HETATM   10  C18 UNL     1      -2.436   1.187   1.216  1.00  0.00     0.006 C 
HETATM   11  C19 UNL     1      -3.071   0.382   2.302  1.00  0.00     0.006 C 
HETATM   12  C20 UNL     1      -3.498  -0.978   1.898  1.00  0.00    -0.005 C 
HETATM   13  C21 UNL     1      -4.494  -1.500   2.909  1.00  0.00     0.013 C 
HETATM   14  C22 UNL     1      -5.697  -0.618   3.041  1.00  0.00     0.079 C 
HETATM   15  C23 UNL     1      -6.036  -0.087   1.696  1.00  0.00     0.127 C 
HETATM   16  O3  UNL     1      -6.678   0.943   1.627  1.00  0.00    -0.298 OA
HETATM   17  C24 UNL     1      -5.553  -0.872   0.530  1.00  0.00     0.088 C 
HETATM   18  C25 UNL     1      -4.064  -1.083   0.509  1.00  0.00    -0.030 C 
HETATM   19  C26 UNL     1      -3.861  -2.561   0.107  1.00  0.00     0.016 C 
HETATM   20  C27 UNL     1      -1.221   1.020  -0.887  1.00  0.00    -0.005 C 
HETATM   21  C28 UNL     1       0.083   0.336  -1.129  1.00  0.00     0.024 C 
ENDROOT
BRANCH   2  22
HETATM   22  C3  UNL     1       2.263   0.853  -2.001  1.00  0.00     0.229 C 
HETATM   23  O1  UNL     1       2.996   0.103  -2.679  1.00  0.00    -0.272 OA
HETATM   24  N1  UNL     1       2.807   1.641  -0.976  1.00  0.00    -0.340 N 
ATOM     25  H1  UNL     1       2.129   2.233  -0.496  1.00  0.00     0.167 HD
BRANCH  24  26
HETATM   26  C4  UNL     1       4.122   1.758  -0.494  1.00  0.00     0.065 C 
BRANCH  26  27
HETATM   27  C5  UNL     1       4.799   0.660   0.205  1.00  0.00     0.064 C 
BRANCH  27  28
HETATM   28  C6  UNL     1       4.972  -0.659  -0.453  1.00  0.00     0.127 C 
BRANCH  28  29
HETATM   29  N2  UNL     1       5.749  -1.577   0.390  1.00  0.00    -0.389 N 
HETATM   30  C7  UNL     1       7.098  -1.197   0.536  1.00  0.00     0.084 C 
HETATM   31  C8  UNL     1       7.556  -0.931   1.943  1.00  0.00     0.212 C 
HETATM   32  O2  UNL     1       7.005  -1.845   2.840  1.00  0.00    -0.385 OA
HETATM   33  C9  UNL     1       5.626  -1.583   2.857  1.00  0.00     0.187 C 
HETATM   34  C10 UNL     1       5.061  -1.998   1.548  1.00  0.00     0.148 C 
ENDBRANCH  28  29
ENDBRANCH  27  28
ENDBRANCH  26  27
ENDBRANCH  24  26
ENDBRANCH   2  22
TORSDOF 5
