REMARK  6 active torsions:
REMARK  status: ('A' for Active; 'I' for Inactive)
REMARK    1  A    between atoms: C2_2  and  N1_4 
REMARK    2  A    between atoms: N1_4  and  C5_6 
REMARK    3  A    between atoms: C5_6  and  C6_7 
REMARK       I    between atoms: N2_9  and  C8_10 
REMARK    4  A    between atoms: C8_10  and  C9_12 
REMARK    5  A    between atoms: C20_23  and  O2_24 
REMARK    6  A    between atoms: C22_27  and  C24_29 
ROOT
HETATM    1  C6  UNL     1      -0.357   0.592   0.336  1.00  0.00     0.025 C 
HETATM    2  C7  UNL     1       0.936   0.489  -0.363  1.00  0.00     0.139 C 
HETATM    3  N2  UNL     1       1.831   0.071   0.757  1.00  0.00    -0.350 N 
HETATM    4  C8  UNL     1       3.093  -0.577   0.624  1.00  0.00     0.224 C 
HETATM    5  O1  UNL     1       3.704  -0.878   1.679  1.00  0.00    -0.273 OA
HETATM    6  C15 UNL     1       1.243   0.442   2.028  1.00  0.00     0.140 C 
HETATM    7  C16 UNL     1       0.156   1.369   1.556  1.00  0.00     0.001 C 
HETATM    8  C17 UNL     1       0.881   2.625   1.358  1.00  0.00     0.022 C 
HETATM    9  C18 UNL     1      -0.961   1.582   2.447  1.00  0.00    -0.016 C 
HETATM   10  C19 UNL     1      -2.070   2.073   1.909  1.00  0.00     0.008 C 
HETATM   11  C20 UNL     1      -2.156   2.387   0.451  1.00  0.00     0.085 C 
HETATM   12  C21 UNL     1      -3.619   2.580   0.106  1.00  0.00     0.059 C 
HETATM   13  C22 UNL     1      -4.498   1.412   0.184  1.00  0.00     0.012 C 
HETATM   14  C23 UNL     1      -5.152   1.164   1.530  1.00  0.00     0.023 C 
HETATM   15  C25 UNL     1      -3.755   0.207  -0.303  1.00  0.00     0.017 C 
HETATM   16  C26 UNL     1      -2.529   0.568  -1.041  1.00  0.00     0.014 C 
HETATM   17  C27 UNL     1      -1.454   1.349  -0.378  1.00  0.00     0.003 C 
HETATM   18  C28 UNL     1      -0.777   2.098  -1.541  1.00  0.00     0.019 C 
ENDROOT
BRANCH   4  19
HETATM   19  C9  UNL     1       3.739  -0.921  -0.659  1.00  0.00     0.078 C 
HETATM   20  C10 UNL     1       4.143   0.285  -1.476  1.00  0.00     0.014 C 
HETATM   21  C11 UNL     1       5.634   0.558  -1.403  1.00  0.00     0.001 C 
HETATM   22  C12 UNL     1       6.458  -0.575  -1.975  1.00  0.00     0.000 C 
HETATM   23  C13 UNL     1       5.878  -1.914  -1.556  1.00  0.00     0.001 C 
HETATM   24  C14 UNL     1       4.977  -1.738  -0.364  1.00  0.00     0.014 C 
ENDBRANCH   4  19
BRANCH   1  25
HETATM   25  C5  UNL     1      -0.797  -0.782   0.730  1.00  0.00     0.285 C 
BRANCH  25  26
HETATM   26  N1  UNL     1      -1.097  -1.798  -0.186  1.00  0.00     0.088 N 
HETATM   27  C4  UNL     1      -0.124  -2.437  -1.004  1.00  0.00     0.310 C 
BRANCH  26  28
HETATM   28  C2  UNL     1      -1.671  -2.952   0.570  1.00  0.00     0.214 C 
HETATM   29  C1  UNL     1      -2.358  -3.879  -0.432  1.00  0.00     0.042 C 
HETATM   30  C3  UNL     1      -0.529  -3.671   1.252  1.00  0.00     0.042 C 
ENDBRANCH  26  28
ENDBRANCH  25  26
ENDBRANCH   1  25
BRANCH  11  31
HETATM   31  O2  UNL     1      -1.715   3.706   0.156  1.00  0.00    -0.385 OA
ATOM     32  H2  UNL     1      -1.770   3.906  -0.771  1.00  0.00     0.211 HD
ENDBRANCH  11  31
BRANCH  13  33
HETATM   33  C24 UNL     1      -5.657   1.659  -0.761  1.00  0.00     0.240 C 
HETATM   34  O3  UNL     1      -5.616   2.535  -1.598  1.00  0.00    -0.306 OA
ENDBRANCH  13  33
TORSDOF 6
