REMARK  1 active torsions:
REMARK  status: ('A' for Active; 'I' for Inactive)
REMARK    1  A    between atoms: C2_3  and  N2_4 
ROOT
HETATM    1  N1  UNL     1      -2.941   1.383   0.662  1.00  0.00    -0.105 NA
HETATM    2  C1  UNL     1      -1.882   0.700  -0.048  1.00  0.00     0.053 C 
HETATM    3  C2  UNL     1      -1.889  -0.631  -0.123  1.00  0.00     0.100 C 
HETATM    4  C3  UNL     1      -0.891  -1.457  -0.803  1.00  0.00     0.065 C 
HETATM    5  C4  UNL     1       0.347  -1.722   0.016  1.00  0.00     0.006 C 
HETATM    6  C5  UNL     1       1.606  -1.386  -0.751  1.00  0.00     0.000 C 
HETATM    7  C6  UNL     1       2.671  -0.772   0.107  1.00  0.00     0.000 C 
HETATM    8  C7  UNL     1       2.278   0.514   0.743  1.00  0.00     0.000 C 
HETATM    9  C8  UNL     1       1.676   1.516  -0.193  1.00  0.00     0.000 C 
HETATM   10  C9  UNL     1       0.295   1.855   0.310  1.00  0.00     0.006 C 
HETATM   11  C10 UNL     1      -0.789   1.480  -0.691  1.00  0.00     0.056 C 
ENDROOT
BRANCH   3  12
HETATM   12  N2  UNL     1      -2.995  -1.284   0.537  1.00  0.00    -0.118 N 
HETATM   13  O1  UNL     1      -4.069  -1.499  -0.018  1.00  0.00    -0.532 OA
HETATM   14  O2  UNL     1      -2.755  -1.656   1.853  1.00  0.00    -0.532 OA
ENDBRANCH   3  12
TORSDOF 1
