REMARK  7 active torsions:
REMARK  status: ('A' for Active; 'I' for Inactive)
REMARK    1  A    between atoms: O1_2  and  C2_3 
REMARK    2  A    between atoms: C5_6  and  C6_7 
REMARK    3  A    between atoms: C6_7  and  N1_9 
REMARK    4  A    between atoms: N1_9  and  C8_11 
REMARK    5  A    between atoms: C8_11  and  O2_12 
REMARK    6  A    between atoms: C8_11  and  C9_14 
REMARK    7  A    between atoms: C22_29  and  O3_30 
ROOT
HETATM    1  C8  UNL     1      -0.174  -0.311   0.636  1.00  0.00     0.119 C 
ENDROOT
BRANCH   1   2
HETATM    2  N1  UNL     1       1.078  -0.907   0.454  1.00  0.00    -0.343 N 
ATOM      3  H1  UNL     1       1.277  -1.429  -0.399  1.00  0.00     0.167 HD
BRANCH   2   4
HETATM    4  C6  UNL     1       2.093  -0.780   1.485  1.00  0.00     0.020 C 
HETATM    5  C7  UNL     1       2.016  -1.664   2.664  1.00  0.00     0.069 C 
BRANCH   4   6
HETATM    6  C5  UNL     1       3.339  -0.166   1.077  1.00  0.00     0.028 A 
HETATM    7  C4  UNL     1       3.686   1.141   1.354  1.00  0.00     0.019 A 
HETATM    8  C3  UNL     1       4.817   1.762   0.839  1.00  0.00     0.041 A 
HETATM    9  C2  UNL     1       5.679   1.032  -0.009  1.00  0.00     0.104 A 
HETATM   10  C22 UNL     1       5.331  -0.306  -0.285  1.00  0.00     0.141 A 
HETATM   11  C21 UNL     1       4.210  -0.865   0.234  1.00  0.00     0.164 A 
HETATM   12  F1  UNL     1       3.880  -2.141  -0.054  1.00  0.00    -0.202 F 
BRANCH   9  13
HETATM   13  O1  UNL     1       6.747   1.605  -0.506  1.00  0.00    -0.353 OA
HETATM   14  C1  UNL     1       7.528   2.666  -0.651  1.00  0.00     0.210 C 
ENDBRANCH   9  13
BRANCH  10  15
HETATM   15  O3  UNL     1       6.179  -1.075  -1.112  1.00  0.00    -0.350 OA
HETATM   16  C23 UNL     1       7.208  -1.751  -0.317  1.00  0.00     0.210 C 
ENDBRANCH  10  15
ENDBRANCH   4   6
ENDBRANCH   2   4
ENDBRANCH   1   2
BRANCH   1  17
HETATM   17  O2  UNL     1      -0.291   0.296   1.802  1.00  0.00    -0.349 OA
ATOM     18  H2  UNL     1      -1.141   0.701   1.926  1.00  0.00     0.219 HD
ENDBRANCH   1  17
BRANCH   1  19
HETATM   19  C9  UNL     1      -1.318  -0.262  -0.273  1.00  0.00     0.062 C 
HETATM   20  C10 UNL     1      -1.271   1.073  -0.979  1.00  0.00     0.013 C 
HETATM   21  C11 UNL     1      -2.473   1.931  -0.885  1.00  0.00     0.001 C 
HETATM   22  C12 UNL     1      -3.077   2.246   0.416  1.00  0.00     0.000 C 
HETATM   23  C13 UNL     1      -4.327   1.545   0.816  1.00  0.00     0.000 C 
HETATM   24  C14 UNL     1      -5.434   1.572  -0.188  1.00  0.00     0.000 C 
HETATM   25  C15 UNL     1      -6.314   0.375  -0.216  1.00  0.00     0.000 C 
HETATM   26  C16 UNL     1      -5.668  -0.945   0.059  1.00  0.00     0.000 C 
HETATM   27  C17 UNL     1      -4.664  -1.400  -0.961  1.00  0.00     0.001 C 
HETATM   28  C18 UNL     1      -3.581  -2.196  -0.272  1.00  0.00     0.020 C 
HETATM   29  C19 UNL     1      -2.389  -2.424  -1.097  1.00  0.00     0.083 C 
HETATM   30 CL1  UNL     1      -2.884  -2.881  -2.789  1.00  0.00    -0.125 Cl
HETATM   31  C20 UNL     1      -1.343  -1.403  -1.228  1.00  0.00     0.033 C 
ENDBRANCH   1  19
TORSDOF 7
