REMARK  6 active torsions:
REMARK  status: ('A' for Active; 'I' for Inactive)
REMARK    1  A    between atoms: C5_6  and  N1_7 
REMARK    2  A    between atoms: N1_7  and  C6_8 
REMARK    3  A    between atoms: C11_13  and  C12_14 
REMARK    4  A    between atoms: C12_14  and  N2_15 
REMARK    5  A    between atoms: N2_15  and  C13_18 
REMARK    6  A    between atoms: C18_23  and  C19_24 
ROOT
HETATM    1  N2  UNL     1      -0.581  -0.881  -0.104  1.00  0.00    -0.070 N 
ATOM      2  H21 UNL     1      -0.104  -1.774   0.019  1.00  0.00     0.277 HD
ATOM      3  H22 UNL     1      -0.397  -0.739  -1.097  1.00  0.00     0.277 HD
ENDROOT
BRANCH   1   4
HETATM    4  C12 UNL     1       0.015   0.140   0.686  1.00  0.00     0.240 C 
BRANCH   4   5
HETATM    5  C11 UNL     1       1.484   0.033   0.925  1.00  0.00     0.047 C 
HETATM    6  C6  UNL     1       2.366  -0.016  -0.284  1.00  0.00     0.169 C 
HETATM    7  C7  UNL     1       3.045  -1.375  -0.435  1.00  0.00     0.040 C 
HETATM    8  C8  UNL     1       2.324  -2.512   0.167  1.00  0.00     0.003 C 
HETATM    9  C9  UNL     1       1.893  -2.342   1.596  1.00  0.00     0.001 C 
HETATM   10  C10 UNL     1       1.862  -0.921   2.032  1.00  0.00     0.009 C 
BRANCH   6  11
HETATM   11  N1  UNL     1       3.320   0.954  -0.363  1.00  0.00    -0.443 NA
BRANCH  11  12
HETATM   12  C5  UNL     1       4.214   1.669  -0.653  1.00  0.00     0.123 C 
HETATM   13  C1  UNL     1       4.683   2.864   0.117  1.00  0.00     0.185 C 
HETATM   14  O1  UNL     1       4.015   3.342   1.083  1.00  0.00    -0.290 OA
HETATM   15  C2  UNL     1       5.972   3.338  -0.421  1.00  0.00     0.086 C 
HETATM   16  C3  UNL     1       6.456   2.190  -1.257  1.00  0.00     0.015 C 
HETATM   17  C4  UNL     1       5.161   1.628  -1.834  1.00  0.00     0.076 C 
ENDBRANCH  11  12
ENDBRANCH   6  11
ENDBRANCH   4   5
ENDBRANCH   1   4
BRANCH   1  18
HETATM   18  C13 UNL     1      -1.986  -0.998   0.157  1.00  0.00     0.194 C 
HETATM   19  C14 UNL     1      -2.228  -2.486   0.481  1.00  0.00     0.034 C 
HETATM   20  C15 UNL     1      -3.603  -2.610   1.055  1.00  0.00     0.002 C 
HETATM   21  C16 UNL     1      -4.605  -2.231  -0.019  1.00  0.00     0.001 C 
HETATM   22  C17 UNL     1      -3.925  -1.684  -1.255  1.00  0.00     0.011 C 
HETATM   23  C18 UNL     1      -2.942  -0.565  -0.868  1.00  0.00     0.049 C 
BRANCH  23  24
HETATM   24  C19 UNL     1      -3.735   0.662  -0.519  1.00  0.00    -0.050 A 
HETATM   25  C20 UNL     1      -4.163   1.497  -1.530  1.00  0.00     0.009 A 
HETATM   26  C21 UNL     1      -4.895   2.657  -1.295  1.00  0.00     0.026 A 
HETATM   27  C22 UNL     1      -5.221   3.010  -0.001  1.00  0.00     0.055 A 
HETATM   28 CL1  UNL     1      -6.135   4.456   0.291  1.00  0.00    -0.083 Cl
HETATM   29  C23 UNL     1      -4.790   2.172   1.004  1.00  0.00     0.056 A 
HETATM   30 CL2  UNL     1      -5.188   2.605   2.672  1.00  0.00    -0.083 Cl
HETATM   31  C24 UNL     1      -4.065   1.026   0.753  1.00  0.00     0.033 A 
ENDBRANCH  23  24
ENDBRANCH   1  18
TORSDOF 6
