REMARK  9 active torsions:
REMARK  status: ('A' for Active; 'I' for Inactive)
REMARK    1  A    between atoms: C2_2  and  N1_4 
REMARK    2  A    between atoms: C2_2  and  C4_8 
REMARK    3  A    between atoms: C4_8  and  C5_9 
REMARK       I    between atoms: C5_9  and  N2_11 
REMARK    4  A    between atoms: C7_13  and  O2_14 
REMARK    5  A    between atoms: O2_14  and  C8_15 
REMARK    6  A    between atoms: C11_18  and  S1_19 
REMARK    7  A    between atoms: S1_19  and  N3_22 
REMARK    8  A    between atoms: N3_22  and  C12_24 
REMARK    9  A    between atoms: C18_31  and  C19_32 
ROOT
HETATM    1  C5  UNL     1      -3.662  -0.986  -0.763  1.00  0.00     0.222 C 
HETATM    2  O1  UNL     1      -3.905  -0.671  -1.943  1.00  0.00    -0.273 OA
HETATM    3  N2  UNL     1      -3.004  -0.076   0.094  1.00  0.00    -0.342 N 
HETATM    4  C6  UNL     1      -2.624  -0.261   1.518  1.00  0.00     0.161 C 
HETATM    5  C7  UNL     1      -1.442   0.712   1.261  1.00  0.00     0.170 C 
HETATM    6  C18 UNL     1      -2.429   1.220   0.205  1.00  0.00     0.125 C 
ENDROOT
BRANCH   5   7
HETATM    7  O2  UNL     1      -0.380   0.039   0.841  1.00  0.00    -0.340 OA
BRANCH   7   8
HETATM    8  C8  UNL     1       0.933  -0.041   1.096  1.00  0.00     0.091 A 
HETATM    9  C9  UNL     1       1.695  -1.007   0.354  1.00  0.00     0.040 A 
HETATM   10  C10 UNL     1       3.040  -1.138   0.565  1.00  0.00     0.028 A 
HETATM   11  C11 UNL     1       3.729  -0.382   1.470  1.00  0.00     0.081 A 
HETATM   12  C16 UNL     1       3.007   0.536   2.176  1.00  0.00     0.052 A 
HETATM   13  C17 UNL     1       1.622   0.713   1.998  1.00  0.00     0.068 A 
HETATM   14 CL1  UNL     1       0.812   1.928   2.954  1.00  0.00    -0.081 Cl
BRANCH  11  15
HETATM   15  S1  UNL     1       5.417  -0.569   1.720  1.00  0.00     0.259 S 
HETATM   16  O3  UNL     1       5.763  -1.997   1.340  1.00  0.00    -0.201 OA
HETATM   17  O4  UNL     1       5.655  -0.491   3.216  1.00  0.00    -0.201 OA
BRANCH  15  18
HETATM   18  N3  UNL     1       6.312   0.567   0.867  1.00  0.00    -0.307 N 
ATOM     19  H3  UNL     1       6.896   1.232   1.374  1.00  0.00     0.173 HD
BRANCH  18  20
HETATM   20  C12 UNL     1       6.266   0.613  -0.535  1.00  0.00     0.029 C 
HETATM   21  C13 UNL     1       4.995   0.998  -1.197  1.00  0.00     0.038 C 
HETATM   22  C14 UNL     1       6.737  -0.704  -1.151  1.00  0.00     0.038 C 
HETATM   23  C15 UNL     1       7.335   1.649  -0.962  1.00  0.00     0.038 C 
ENDBRANCH  18  20
ENDBRANCH  15  18
ENDBRANCH  11  15
ENDBRANCH   7   8
ENDBRANCH   5   7
BRANCH   6  24
HETATM   24  C19 UNL     1      -1.871   1.931  -0.957  1.00  0.00    -0.028 C 
HETATM   25  C20 UNL     1      -1.321   3.273  -0.430  1.00  0.00     0.016 C 
HETATM   26  C21 UNL     1      -3.000   2.314  -1.923  1.00  0.00     0.016 C 
HETATM   27  C22 UNL     1      -0.794   1.246  -1.722  1.00  0.00     0.016 C 
ENDBRANCH   6  24
BRANCH   1  28
HETATM   28  C4  UNL     1      -4.081  -2.327  -0.295  1.00  0.00     0.140 C 
BRANCH  28  29
HETATM   29  C2  UNL     1      -5.603  -2.375  -0.155  1.00  0.00     0.124 C 
HETATM   30  C1  UNL     1      -5.968  -3.771   0.325  1.00  0.00     0.046 C 
HETATM   31  C3  UNL     1      -6.074  -1.419   0.919  1.00  0.00     0.046 C 
BRANCH  29  32
HETATM   32  N1  UNL     1      -6.157  -2.095  -1.448  1.00  0.00    -0.071 N 
ATOM     33  H13 UNL     1      -5.887  -2.804  -2.129  1.00  0.00     0.275 HD
ATOM     34  H12 UNL     1      -7.167  -2.239  -1.459  1.00  0.00     0.275 HD
ATOM     35  H11 UNL     1      -5.912  -1.159  -1.770  1.00  0.00     0.275 HD
ENDBRANCH  29  32
ENDBRANCH  28  29
ENDBRANCH   1  28
TORSDOF 9
