REMARK  3 active torsions:
REMARK  status: ('A' for Active; 'I' for Inactive)
REMARK    1  A    between atoms: C2_2  and  N1_3 
REMARK    2  A    between atoms: C2_2  and  C7_15 
REMARK    3  A    between atoms: C7_15  and  C10_18 
ROOT
HETATM    1  N1  UNL     1       1.478   0.262  -0.639  1.00  0.00    -0.246 N 
HETATM    2  N2  UNL     1       2.068   1.415  -0.906  1.00  0.00    -0.303 N 
ATOM      3  H2  UNL     1       1.701   2.091  -1.576  1.00  0.00     0.186 HD
HETATM    4  C3  UNL     1       3.174   1.603  -0.223  1.00  0.00     0.126 A 
HETATM    5  C4  UNL     1       3.328   0.483   0.561  1.00  0.00     0.067 A 
HETATM    6  C5  UNL     1       4.114  -0.144   1.503  1.00  0.00     0.130 A 
HETATM    7  S1  UNL     1       5.486   0.472   2.122  1.00  0.00    -0.058 SA
HETATM    8  N3  UNL     1       3.543  -1.302   1.787  1.00  0.00    -0.288 N 
ATOM      9  H3  UNL     1       3.891  -1.992   2.452  1.00  0.00     0.188 HD
HETATM   10  N4  UNL     1       2.444  -1.413   1.062  1.00  0.00    -0.282 N 
ATOM     11  H4  UNL     1       1.815  -2.216   1.091  1.00  0.00     0.188 HD
HETATM   12  C6  UNL     1       2.259  -0.329   0.278  1.00  0.00     0.156 A 
ENDROOT
BRANCH   1  13
HETATM   13  C2  UNL     1       0.234  -0.256  -1.229  1.00  0.00     0.019 C 
HETATM   14  C1  UNL     1       0.258  -1.732  -1.332  1.00  0.00     0.066 C 
BRANCH  13  15
HETATM   15  C7  UNL     1      -1.003   0.424  -0.813  1.00  0.00    -0.001 C 
HETATM   16  C8  UNL     1      -0.782   1.945  -0.785  1.00  0.00     0.022 C 
HETATM   17  C9  UNL     1      -2.038   0.263  -1.947  1.00  0.00     0.022 C 
BRANCH  15  18
HETATM   18  C10 UNL     1      -1.685   0.036   0.432  1.00  0.00    -0.039 C 
HETATM   19  C11 UNL     1      -2.940   0.906   0.625  1.00  0.00     0.015 C 
HETATM   20  C12 UNL     1      -2.211  -1.390   0.479  1.00  0.00     0.015 C 
HETATM   21  C13 UNL     1      -0.895   0.275   1.697  1.00  0.00     0.015 C 
ENDBRANCH  15  18
ENDBRANCH  13  15
ENDBRANCH   1  13
TORSDOF 3
