REMARK  9 active torsions:
REMARK  status: ('A' for Active; 'I' for Inactive)
REMARK    1  A    between atoms: C2_2  and  O1_3 
REMARK    2  A    between atoms: C2_2  and  C3_5 
REMARK    3  A    between atoms: C3_5  and  O2_6 
REMARK    4  A    between atoms: C3_5  and  C4_8 
REMARK    5  A    between atoms: C4_8  and  C5_9 
REMARK    6  A    between atoms: C5_9  and  O3_10 
REMARK    7  A    between atoms: C5_9  and  O4_12 
REMARK    8  A    between atoms: C6_15  and  O6_16 
REMARK    9  A    between atoms: C7_18  and  N1_19 
ROOT
HETATM    1  C4  UNL     1      -1.412   0.451  -0.692  1.00  0.00     0.248 C 
HETATM    2  O5  UNL     1      -1.011   1.686  -0.182  1.00  0.00    -0.314 OA
HETATM    3  C6  UNL     1       0.378   1.588   0.010  1.00  0.00     0.311 C 
HETATM    4  C7  UNL     1       0.566   0.127   0.340  1.00  0.00     0.309 C 
HETATM    5  O9  UNL     1      -0.409  -0.470  -0.397  1.00  0.00    -0.317 OA
ENDROOT
BRANCH   4   6
HETATM    6  N1  UNL     1       1.879  -0.373   0.312  1.00  0.00    -0.099 N 
HETATM    7  C8  UNL     1       2.471  -0.812   1.565  1.00  0.00     0.699 C 
HETATM    8  N2  UNL     1       1.579  -0.978   2.509  1.00  0.00    -0.233 N 
HETATM    9  N3  UNL     1       3.799  -1.083   1.940  1.00  0.00    -0.128 N 
ATOM     10  H22 UNL     1       0.616  -0.781   2.237  1.00  0.00     0.174 HD
ATOM     11  H21 UNL     1       1.994  -1.286   3.388  1.00  0.00     0.174 HD
HETATM   12  N4  UNL     1       4.951  -0.776   1.211  1.00  0.00    -0.237 N 
ATOM     13  H3  UNL     1       3.935  -1.552   2.836  1.00  0.00     0.205 HD
HETATM   14  C9  UNL     1       5.095  -0.356  -0.147  1.00  0.00     0.343 C 
ATOM     15  H4  UNL     1       5.825  -0.866   1.729  1.00  0.00     0.192 HD
HETATM   16  O7  UNL     1       6.229   0.045  -0.531  1.00  0.00    -0.245 OA
HETATM   17  N5  UNL     1       4.047  -0.356  -1.106  1.00  0.00    -0.259 N 
HETATM   18  C10 UNL     1       2.620  -0.443  -0.914  1.00  0.00     0.347 C 
ATOM     19  H5  UNL     1       4.349  -0.284  -2.077  1.00  0.00     0.175 HD
HETATM   20  O8  UNL     1       1.904  -0.599  -1.911  1.00  0.00    -0.246 OA
ENDBRANCH   4   6
BRANCH   3  21
HETATM   21  O6  UNL     1       1.118   2.039  -1.056  1.00  0.00    -0.367 OA
ATOM     22  H6  UNL     1       2.057   1.973  -0.926  1.00  0.00     0.212 HD
ENDBRANCH   3  21
BRANCH   1  23
HETATM   23  C3  UNL     1      -2.771   0.072  -0.275  1.00  0.00     0.214 C 
BRANCH  23  24
HETATM   24  C2  UNL     1      -3.096  -0.156   1.133  1.00  0.00     0.148 C 
HETATM   25  C1  UNL     1      -4.542  -0.692   1.181  1.00  0.00     0.042 C 
BRANCH  24  26
HETATM   26  O1  UNL     1      -2.327  -1.166   1.710  1.00  0.00    -0.393 OA
ATOM     27  H1  UNL     1      -1.437  -0.836   1.680  1.00  0.00     0.210 HD
ENDBRANCH  24  26
ENDBRANCH  23  24
BRANCH  23  28
HETATM   28  O2  UNL     1      -3.636   1.095  -0.739  1.00  0.00    -0.387 OA
ATOM     29  H2  UNL     1      -3.425   1.243  -1.653  1.00  0.00     0.210 HD
ENDBRANCH  23  28
ENDBRANCH   1  23
BRANCH   1  30
HETATM   30  C5  UNL     1      -1.452   0.646  -2.217  1.00  0.00     0.320 C 
BRANCH  30  31
HETATM   31  O3  UNL     1      -2.333   1.648  -2.604  1.00  0.00    -0.366 OA
ATOM     32  H3  UNL     1      -2.358   1.768  -3.546  1.00  0.00     0.212 HD
ENDBRANCH  30  31
BRANCH  30  33
HETATM   33  O4  UNL     1      -1.916  -0.525  -2.842  1.00  0.00    -0.366 OA
ATOM     34  H4  UNL     1      -1.941  -0.405  -3.784  1.00  0.00     0.212 HD
ENDBRANCH  30  33
ENDBRANCH   1  30
TORSDOF 9
