REMARK  10 active torsions:
REMARK  status: ('A' for Active; 'I' for Inactive)
REMARK    1  A    between atoms: N2_7  and  C3_8 
REMARK    2  A    between atoms: C3_8  and  C4_9 
REMARK    3  A    between atoms: C4_9  and  O3_10 
REMARK    4  A    between atoms: C4_9  and  C5_12 
REMARK    5  A    between atoms: C5_12  and  O4_13 
REMARK    6  A    between atoms: C5_12  and  C6_15 
REMARK    7  A    between atoms: C6_15  and  O5_16 
REMARK    8  A    between atoms: C8_19  and  O6_20 
REMARK    9  A    between atoms: C9_22  and  O7_23 
REMARK   10  A    between atoms: C10_28  and  N4_29 
ROOT
HETATM    1  C4  UNL     1       0.435   0.061  -0.177  1.00  0.00     0.170 C 
ENDROOT
BRANCH   1   2
HETATM    2  C3  UNL     1       1.702  -0.400   0.516  1.00  0.00     0.187 C 
BRANCH   2   3
HETATM    3  N2  UNL     1       2.906   0.042  -0.112  1.00  0.00    -0.129 N 
HETATM    4  C2  UNL     1       3.280   1.308   0.202  1.00  0.00     0.344 A 
HETATM    5  N1  UNL     1       4.390   1.799  -0.340  1.00  0.00    -0.259 N 
HETATM    6  O2  UNL     1       2.618   2.033   0.984  1.00  0.00    -0.246 OA
HETATM    7  C1  UNL     1       5.115   1.026  -1.187  1.00  0.00     0.342 A 
ATOM      8  H1  UNL     1       4.694   2.748  -0.121  1.00  0.00     0.175 HD
HETATM    9  O1  UNL     1       6.173   1.495  -1.705  1.00  0.00    -0.246 OA
HETATM   10  N5  UNL     1       4.743  -0.205  -1.485  1.00  0.00    -0.140 N 
HETATM   11  C10 UNL     1       3.584  -0.759  -0.936  1.00  0.00     0.699 A 
ATOM     12  H5  UNL     1       5.310  -0.760  -2.126  1.00  0.00     0.189 HD
BRANCH  11  13
HETATM   13  N4  UNL     1       3.425  -1.941  -1.273  1.00  0.00    -0.152 N 
HETATM   14  S1  UNL     1       2.365  -3.198  -0.951  1.00  0.00     0.058 SA
ATOM     15  H4  UNL     1       4.145  -2.231  -1.935  1.00  0.00     0.193 HD
ENDBRANCH  11  13
ENDBRANCH   2   3
ENDBRANCH   1   2
BRANCH   1  16
HETATM   16  O3  UNL     1       0.373  -0.361  -1.449  1.00  0.00    -0.391 OA
ATOM     17  H3  UNL     1      -0.421  -0.072  -1.883  1.00  0.00     0.210 HD
ENDBRANCH   1  16
BRANCH   1  18
HETATM   18  C5  UNL     1      -0.750  -0.215   0.688  1.00  0.00     0.211 C 
BRANCH  18  19
HETATM   19  O4  UNL     1      -0.521   0.286   1.972  1.00  0.00    -0.388 OA
ATOM     20  H4  UNL     1      -1.275   0.110   2.522  1.00  0.00     0.210 HD
ENDBRANCH  18  19
BRANCH  18  21
HETATM   21  C6  UNL     1      -2.052   0.304   0.211  1.00  0.00     0.258 C 
HETATM   22  C7  UNL     1      -3.173  -0.186   1.104  1.00  0.00     0.107 C 
HETATM   23  C8  UNL     1      -4.318  -0.569   0.240  1.00  0.00     0.179 C 
HETATM   24  C9  UNL     1      -3.913  -0.061  -1.123  1.00  0.00     0.351 C 
HETATM   25  N3  UNL     1      -2.463  -0.099  -1.090  1.00  0.00    -0.012 N 
ATOM     26  H32 UNL     1      -2.034   0.455  -1.831  1.00  0.00     0.284 HD
ATOM     27  H31 UNL     1      -2.083  -1.005  -1.364  1.00  0.00     0.284 HD
BRANCH  21  28
HETATM   28  O5  UNL     1      -2.079   1.700   0.263  1.00  0.00    -0.363 OA
ATOM     29  H5  UNL     1      -2.914   2.033  -0.043  1.00  0.00     0.212 HD
ENDBRANCH  21  28
BRANCH  23  30
HETATM   30  O6  UNL     1      -4.521  -1.956   0.190  1.00  0.00    -0.391 OA
ATOM     31  H6  UNL     1      -5.254  -2.201  -0.363  1.00  0.00     0.210 HD
ENDBRANCH  23  30
BRANCH  24  32
HETATM   32  O7  UNL     1      -4.345   1.261  -1.226  1.00  0.00    -0.368 OA
ATOM     33  H7  UNL     1      -4.090   1.581  -2.084  1.00  0.00     0.212 HD
ENDBRANCH  24  32
ENDBRANCH  18  21
ENDBRANCH   1  18
TORSDOF 10
