REMARK  9 active torsions:
REMARK  status: ('A' for Active; 'I' for Inactive)
REMARK    1  A    between atoms: C2_2  and  N1_3 
REMARK    2  A    between atoms: N1_3  and  N2_5 
REMARK       I    between atoms: N2_5  and  C3_7 
REMARK    3  A    between atoms: C3_7  and  C4_9 
REMARK    4  A    between atoms: C4_9  and  O2_10 
REMARK    5  A    between atoms: C4_9  and  N3_12 
REMARK    6  A    between atoms: N3_12  and  C5_14 
REMARK    7  A    between atoms: C5_14  and  N4_15 
REMARK    8  A    between atoms: C6_16  and  N5_17 
REMARK    9  A    between atoms: C7_20  and  O3_21 
ROOT
HETATM    1  N4  UNL     1      -1.715  -0.836   0.807  1.00  0.00    -0.266 N 
HETATM    2  C6  UNL     1      -2.082  -1.808  -0.039  1.00  0.00     0.144 A 
HETATM    3  C7  UNL     1      -3.331  -1.680  -0.695  1.00  0.00     0.163 A 
HETATM    4  C8  UNL     1      -4.067  -0.559  -0.401  1.00  0.00     0.199 A 
HETATM    5  O4  UNL     1      -5.255  -0.175  -0.874  1.00  0.00    -0.268 OA
HETATM    6  C9  UNL     1      -5.612   0.971  -0.354  1.00  0.00     0.212 A 
HETATM    7  N6  UNL     1      -6.530   1.920  -0.309  1.00  0.00    -0.262 N 
ATOM      8  H6  UNL     1      -7.400   1.927  -0.841  1.00  0.00     0.190 HD
HETATM    9  N7  UNL     1      -6.137   2.870   0.545  1.00  0.00    -0.239 N 
ATOM     10  H7  UNL     1      -6.661   3.714   0.774  1.00  0.00     0.208 HD
HETATM   11  N8  UNL     1      -4.984   2.546   1.035  1.00  0.00    -0.267 N 
ATOM     12  H8  UNL     1      -4.455   3.099   1.709  1.00  0.00     0.190 HD
HETATM   13  C10 UNL     1      -4.590   1.366   0.519  1.00  0.00     0.188 A 
HETATM   14  N9  UNL     1      -3.665   0.395   0.453  1.00  0.00    -0.220 N 
HETATM   15  C11 UNL     1      -2.461   0.227   1.056  1.00  0.00     0.340 A 
HETATM   16  O5  UNL     1      -2.117   1.146   1.859  1.00  0.00    -0.246 OA
ENDROOT
BRANCH   1  17
HETATM   17  C5  UNL     1      -0.314  -0.921   1.256  1.00  0.00     0.260 C 
BRANCH  17  18
HETATM   18  N3  UNL     1       0.481  -0.026   0.497  1.00  0.00    -0.350 N 
ATOM     19  H3  UNL     1       0.204   0.955   0.471  1.00  0.00     0.163 HD
BRANCH  18  20
HETATM   20  C4  UNL     1       1.621  -0.405  -0.218  1.00  0.00     0.208 C 
BRANCH  20  21
HETATM   21  C3  UNL     1       2.605   0.717  -0.269  1.00  0.00     0.310 C 
HETATM   22  N2  UNL     1       3.996   0.481  -0.580  1.00  0.00    -0.264 N 
ATOM     23  H2  UNL     1       4.315  -0.476  -0.733  1.00  0.00     0.190 HD
HETATM   24  O1  UNL     1       2.289   1.891  -0.062  1.00  0.00    -0.262 OA
BRANCH  22  25
HETATM   25  N1  UNL     1       4.880   1.488  -0.673  1.00  0.00    -0.313 N 
ATOM     26  H1  UNL     1       4.527   2.261  -1.237  1.00  0.00     0.185 HD
BRANCH  25  27
HETATM   27  C2  UNL     1       6.026   1.706  -0.237  1.00  0.00     0.076 C 
HETATM   28  C1  UNL     1       6.666   0.635   0.603  1.00  0.00     0.056 C 
ENDBRANCH  25  27
ENDBRANCH  22  25
ENDBRANCH  20  21
BRANCH  20  29
HETATM   29  O2  UNL     1       2.205  -1.635  -0.062  1.00  0.00    -0.342 OA
ATOM     30  H2  UNL     1       1.579  -2.349  -0.030  1.00  0.00     0.219 HD
ENDBRANCH  20  29
ENDBRANCH  18  20
ENDBRANCH  17  18
ENDBRANCH   1  17
BRANCH   2  31
HETATM   31  N5  UNL     1      -1.451  -2.884  -0.336  1.00  0.00    -0.383 N 
ATOM     32  H52 UNL     1      -0.552  -2.976   0.136  1.00  0.00     0.157 HD
ATOM     33  H51 UNL     1      -1.730  -3.624  -0.980  1.00  0.00     0.157 HD
ENDBRANCH   2  31
BRANCH   3  34
HETATM   34  O3  UNL     1      -3.770  -2.643  -1.567  1.00  0.00    -0.354 OA
ATOM     35  H3  UNL     1      -4.608  -2.557  -2.007  1.00  0.00     0.218 HD
ENDBRANCH   3  34
TORSDOF 9
