REMARK  10 active torsions:
REMARK  status: ('A' for Active; 'I' for Inactive)
REMARK    1  A    between atoms: C6_6  and  N1_7 
REMARK       I    between atoms: N1_7  and  C7_9 
REMARK       I    between atoms: C7_9  and  N2_10 
REMARK       I    between atoms: C7_9  and  N3_17 
REMARK    2  A    between atoms: N2_10  and  C8_12 
REMARK    3  A    between atoms: C8_12  and  C9_13 
REMARK    4  A    between atoms: N3_17  and  C10_19 
REMARK    5  A    between atoms: C10_19  and  C11_20 
REMARK    6  A    between atoms: C11_20  and  C12_21 
REMARK    7  A    between atoms: C12_21  and  C13_22 
REMARK    8  A    between atoms: C13_22  and  C14_23 
REMARK    9  A    between atoms: C14_23  and  N4_24 
REMARK   10  A    between atoms: N4_24  and  C15_26 
ROOT
HETATM    1  N1  UNL     1      -1.441   0.032  -1.044  1.00  0.00    -0.222 N 
ATOM      2  H1  UNL     1      -0.844   0.367  -1.800  1.00  0.00     0.178 HD
HETATM    3  C7  UNL     1      -0.913  -1.000  -0.234  1.00  0.00     0.670 C 
HETATM    4  N2  UNL     1      -1.703  -1.746   0.407  1.00  0.00    -0.218 N 
ATOM      5  H2  UNL     1      -2.696  -1.543   0.289  1.00  0.00     0.178 HD
HETATM    6  N3  UNL     1       0.497  -1.168  -0.158  1.00  0.00    -0.227 N 
ATOM      7  H3  UNL     1       0.898  -1.563   0.693  1.00  0.00     0.177 HD
ENDROOT
BRANCH   1   8
HETATM    8  C6  UNL     1      -2.721   0.656  -0.917  1.00  0.00     0.099 C 
HETATM    9  C5  UNL     1      -3.821  -0.301  -1.170  1.00  0.00     0.026 C 
HETATM   10  C4  UNL     1      -4.922  -0.273  -0.133  1.00  0.00     0.011 C 
HETATM   11  C2  UNL     1      -5.277   1.170   0.150  1.00  0.00    -0.048 C 
HETATM   12  C1  UNL     1      -5.806   1.878  -1.061  1.00  0.00     0.015 C 
HETATM   13  C3  UNL     1      -6.420   1.132   1.173  1.00  0.00     0.015 C 
HETATM   14  C18 UNL     1      -4.129   1.905   0.747  1.00  0.00     0.011 C 
HETATM   15  C17 UNL     1      -2.782   1.323   0.430  1.00  0.00     0.026 C 
ENDBRANCH   1   8
BRANCH   4  16
HETATM   16  C8  UNL     1      -1.395  -2.828   1.269  1.00  0.00     0.255 C 
BRANCH  16  17
HETATM   17  C9  UNL     1      -1.926  -2.675   2.674  1.00  0.00     0.403 C 
HETATM   18  F1  UNL     1      -1.447  -1.572   3.315  1.00  0.00    -0.169 F 
HETATM   19  F2  UNL     1      -1.523  -3.786   3.400  1.00  0.00    -0.169 F 
HETATM   20  F3  UNL     1      -3.298  -2.645   2.695  1.00  0.00    -0.169 F 
ENDBRANCH  16  17
ENDBRANCH   4  16
BRANCH   6  21
HETATM   21  C10 UNL     1       1.388  -0.800  -1.241  1.00  0.00     0.138 C 
BRANCH  21  22
HETATM   22  C11 UNL     1       2.825  -1.071  -0.923  1.00  0.00     0.020 C 
BRANCH  22  23
HETATM   23  C12 UNL     1       3.238  -0.286   0.290  1.00  0.00     0.003 C 
BRANCH  23  24
HETATM   24  C13 UNL     1       4.673  -0.561   0.605  1.00  0.00     0.020 C 
BRANCH  24  25
HETATM   25  C14 UNL     1       5.625  -0.189  -0.508  1.00  0.00     0.121 C 
BRANCH  25  26
HETATM   26  N4  UNL     1       6.975  -0.522  -0.027  1.00  0.00    -0.369 N 
ATOM     27  H4  UNL     1       7.237  -1.471   0.240  1.00  0.00     0.161 HD
BRANCH  26  28
HETATM   28  C15 UNL     1       7.823   0.481   0.037  1.00  0.00     0.161 A 
HETATM   29  N5  UNL     1       9.101   0.443   0.438  1.00  0.00    -0.279 N 
HETATM   30  N6  UNL     1       9.770   1.524   0.430  1.00  0.00    -0.286 N 
ATOM     31  H5  UNL     1       9.527  -0.432   0.742  1.00  0.00     0.189 HD
HETATM   32  C16 UNL     1       9.209   2.654   0.035  1.00  0.00     0.139 A 
ATOM     33  H6  UNL     1      10.745   1.519   0.730  1.00  0.00     0.188 HD
HETATM   34 BR1  UNL     1       9.989   4.413  -0.071  1.00  0.00    -0.021 Br
HETATM   35  S1  UNL     1       7.629   2.133  -0.349  1.00  0.00    -0.026 SA
ENDBRANCH  26  28
ENDBRANCH  25  26
ENDBRANCH  24  25
ENDBRANCH  23  24
ENDBRANCH  22  23
ENDBRANCH  21  22
ENDBRANCH   6  21
TORSDOF 10
