REMARK  8 active torsions:
REMARK  status: ('A' for Active; 'I' for Inactive)
REMARK    1  A    between atoms: C2_2  and  C3_3 
REMARK    2  A    between atoms: C3_3  and  C4_4 
REMARK    3  A    between atoms: C4_4  and  C5_5 
REMARK    4  A    between atoms: C5_5  and  N1_6 
REMARK    5  A    between atoms: C7_11  and  N3_12 
REMARK    6  A    between atoms: N3_12  and  C8_14 
REMARK    7  A    between atoms: C8_14  and  C9_15 
REMARK    8  A    between atoms: C9_15  and  O1_16 
ROOT
HETATM    1  N1  UNL     1      -0.759   0.757  -0.038  1.00  0.00    -0.375 N 
ATOM      2  H1  UNL     1      -0.643   1.761   0.103  1.00  0.00     0.161 HD
HETATM    3  C6  UNL     1       0.343   0.183  -0.061  1.00  0.00     0.124 A 
HETATM    4  N2  UNL     1       1.450   0.984   0.100  1.00  0.00    -0.176 N 
ATOM      5  H2  UNL     1       1.307   1.986   0.227  1.00  0.00     0.186 HD
HETATM    6  C7  UNL     1       2.699   0.521   0.099  1.00  0.00     0.679 A 
HETATM    7  N4  UNL     1       2.870  -0.802  -0.069  1.00  0.00    -0.195 N 
ATOM      8  H4  UNL     1       3.817  -1.182  -0.073  1.00  0.00     0.184 HD
HETATM    9  C10 UNL     1       1.832  -1.639  -0.232  1.00  0.00     0.032 A 
HETATM   10  C11 UNL     1       2.056  -3.105  -0.416  1.00  0.00     0.069 C 
HETATM   11  C12 UNL     1       0.524  -1.165  -0.232  1.00  0.00     0.005 A 
HETATM   12  C13 UNL     1      -0.615  -2.127  -0.417  1.00  0.00     0.054 C 
ENDROOT
BRANCH   1  13
HETATM   13  C5  UNL     1      -2.107   0.424  -0.149  1.00  0.00     0.121 C 
BRANCH  13  14
HETATM   14  C4  UNL     1      -3.011   1.657  -0.318  1.00  0.00     0.020 C 
BRANCH  14  15
HETATM   15  C3  UNL     1      -4.460   1.266  -0.442  1.00  0.00     0.001 C 
BRANCH  15  16
HETATM   16  C2  UNL     1      -4.993   0.519   0.753  1.00  0.00    -0.004 C 
HETATM   17  C1  UNL     1      -6.458   0.159   0.569  1.00  0.00     0.005 C 
ENDBRANCH  15  16
ENDBRANCH  14  15
ENDBRANCH  13  14
ENDBRANCH   1  13
BRANCH   6  18
HETATM   18  N3  UNL     1       3.733   1.290   0.253  1.00  0.00    -0.224 N 
ATOM     19  H3  UNL     1       3.587   2.291   0.380  1.00  0.00     0.177 HD
BRANCH  18  20
HETATM   20  C8  UNL     1       5.082   0.779   0.251  1.00  0.00     0.164 C 
BRANCH  20  21
HETATM   21  C9  UNL     1       6.017   1.891   0.662  1.00  0.00     0.184 C 
BRANCH  21  22
HETATM   22  O1  UNL     1       7.336   1.409   0.665  1.00  0.00    -0.399 OA
ATOM     23  H1  UNL     1       7.924   2.109   0.924  1.00  0.00     0.209 HD
ENDBRANCH  21  22
ENDBRANCH  20  21
ENDBRANCH  18  20
ENDBRANCH   6  18
TORSDOF 8
