REMARK  6 active torsions:
REMARK  status: ('A' for Active; 'I' for Inactive)
REMARK    1  A    between atoms: C2_2  and  C3_3 
REMARK    2  A    between atoms: C3_3  and  N1_4 
REMARK    3  A    between atoms: C4_5  and  S1_6 
REMARK    4  A    between atoms: S1_6  and  C5_7 
REMARK    5  A    between atoms: C5_7  and  C6_8 
REMARK    6  A    between atoms: C7_11  and  N3_12 
ROOT
HETATM    1  S1  UNL     1       0.681   0.409  -0.930  1.00  0.00    -0.086 SA
ENDROOT
BRANCH   1   2
HETATM    2  C4  UNL     1      -0.719   1.303  -0.282  1.00  0.00     0.148 A 
HETATM    3  N1  UNL     1      -1.732   0.720   0.419  1.00  0.00    -0.320 N 
HETATM    4  C10 UNL     1      -2.624   1.668   0.760  1.00  0.00     0.106 A 
HETATM    5  C8  UNL     1      -2.172   2.878   0.268  1.00  0.00     0.042 A 
HETATM    6 BR1  UNL     1      -4.223   1.358   1.751  1.00  0.00    -0.029 Br
HETATM    7  N6  UNL     1      -1.002   2.616  -0.365  1.00  0.00    -0.338 N 
HETATM    8  C9  UNL     1      -2.871   4.177   0.430  1.00  0.00     0.071 C 
ATOM      9  H6  UNL     1      -0.422   3.311  -0.835  1.00  0.00     0.168 HD
BRANCH   3  10
HETATM   10  C3  UNL     1      -1.821  -0.685   0.736  1.00  0.00     0.131 C 
BRANCH  10  11
HETATM   11  C2  UNL     1      -2.563  -1.433  -0.363  1.00  0.00     0.016 C 
HETATM   12  C1  UNL     1      -2.679  -2.893  -0.075  1.00  0.00     0.006 C 
ENDBRANCH  10  11
ENDBRANCH   3  10
ENDBRANCH   1   2
BRANCH   1  13
HETATM   13  C5  UNL     1       2.002   0.383   0.336  1.00  0.00     0.160 C 
BRANCH  13  14
HETATM   14  C6  UNL     1       3.187  -0.340  -0.133  1.00  0.00     0.122 A 
HETATM   15  N2  UNL     1       4.232   0.191  -0.789  1.00  0.00    -0.177 N 
HETATM   16  C7  UNL     1       5.142  -0.754  -1.068  1.00  0.00     0.691 A 
ATOM     17  H2  UNL     1       4.321   1.176  -1.040  1.00  0.00     0.185 HD
HETATM   18  N4  UNL     1       4.637  -1.912  -0.565  1.00  0.00    -0.131 N 
HETATM   19  N5  UNL     1       3.464  -1.650  -0.007  1.00  0.00    -0.274 N 
ATOM     20  H4  UNL     1       5.085  -2.827  -0.610  1.00  0.00     0.205 HD
ATOM     21  H5  UNL     1       2.863  -2.337   0.448  1.00  0.00     0.189 HD
BRANCH  16  22
HETATM   22  N3  UNL     1       6.241  -0.544  -1.685  1.00  0.00    -0.233 N 
ATOM     23  H32 UNL     1       6.620   0.325  -2.062  1.00  0.00     0.174 HD
ATOM     24  H31 UNL     1       6.933  -1.263  -1.897  1.00  0.00     0.174 HD
ENDBRANCH  16  22
ENDBRANCH  13  14
ENDBRANCH   1  13
TORSDOF 6
