REMARK  6 active torsions:
REMARK  status: ('A' for Active; 'I' for Inactive)
REMARK    1  A    between atoms: C2_2  and  O1_3 
REMARK    2  A    between atoms: C3_5  and  C4_6 
REMARK    3  A    between atoms: C4_6  and  O2_7 
REMARK    4  A    between atoms: C4_6  and  N1_9 
REMARK    5  A    between atoms: N1_9  and  C5_11 
REMARK    6  A    between atoms: C9_18  and  C10_19 
ROOT
HETATM    1  C10 UNL     1      -1.923   0.538   0.992  1.00  0.00     0.108 C 
HETATM    2  N3  UNL     1      -3.104   1.329   1.157  1.00  0.00    -0.086 NA
HETATM    3  N4  UNL     1      -1.223   0.274   2.030  1.00  0.00    -0.285 N 
ATOM      4  H4  UNL     1      -0.378  -0.289   1.929  1.00  0.00     0.179 HD
HETATM    5  C11 UNL     1      -1.585   0.737   3.300  1.00  0.00     0.182 C 
HETATM    6  N5  UNL     1      -1.883   1.135   4.354  1.00  0.00    -0.172 NA
ENDROOT
BRANCH   1   7
HETATM    7  C9  UNL     1      -1.626   0.100  -0.377  1.00  0.00     0.076 C 
HETATM    8  C5  UNL     1      -0.359  -0.691  -0.537  1.00  0.00     0.116 C 
HETATM    9  C6  UNL     1      -0.158  -0.845  -2.045  1.00  0.00     0.257 C 
HETATM   10  N2  UNL     1      -1.331  -1.412  -2.665  1.00  0.00    -0.073 N 
HETATM   11  C7  UNL     1      -2.322  -1.863  -1.740  1.00  0.00     0.233 C 
ATOM     12  H22 UNL     1      -1.737  -0.754  -3.330  1.00  0.00     0.277 HD
ATOM     13  H21 UNL     1      -1.070  -2.164  -3.303  1.00  0.00     0.277 HD
HETATM   14  C8  UNL     1      -2.777  -0.847  -0.753  1.00  0.00     0.041 C 
BRANCH   8  15
HETATM   15  N1  UNL     1       0.752  -0.237   0.166  1.00  0.00    -0.387 N 
ATOM     16  H1  UNL     1       1.169  -0.844   0.871  1.00  0.00     0.156 HD
BRANCH  15  17
HETATM   17  C4  UNL     1       1.316   1.017  -0.058  1.00  0.00     0.240 C 
BRANCH  17  18
HETATM   18  C3  UNL     1       2.274   1.336   1.037  1.00  0.00     0.057 C 
HETATM   19  C2  UNL     1       3.458   0.797   1.166  1.00  0.00     0.039 C 
HETATM   20  C1  UNL     1       4.006  -0.215   0.223  1.00  0.00     0.076 C 
BRANCH  19  21
HETATM   21  O1  UNL     1       4.245   1.205   2.257  1.00  0.00    -0.366 OA
ATOM     22  H1  UNL     1       3.895   1.851   2.859  1.00  0.00     0.217 HD
ENDBRANCH  19  21
ENDBRANCH  17  18
BRANCH  17  23
HETATM   23  O2  UNL     1       2.073   1.147  -1.243  1.00  0.00    -0.374 OA
ATOM     24  H2  UNL     1       1.462   0.944  -1.941  1.00  0.00     0.212 HD
ENDBRANCH  17  23
ENDBRANCH  15  17
ENDBRANCH   8  15
ENDBRANCH   1   7
TORSDOF 6
