REMARK  0 active torsions:
REMARK  status: ('A' for Active; 'I' for Inactive)
ROOT
HETATM    1  C1  UNL     1      -0.599  -0.322  -0.004  1.00  0.00     0.104 A 
HETATM    2  C2  UNL     1       0.754  -0.151   0.050  1.00  0.00     0.085 A 
HETATM    3  S1  UNL     1       0.481   1.490  -0.097  1.00  0.00    -0.026 SA
HETATM    4  N1  UNL     1      -1.083   0.947  -0.131  1.00  0.00    -0.337 N 
ATOM      5  H1  UNL     1      -2.005   1.375  -0.212  1.00  0.00     0.173 HD
ENDROOT
TORSDOF 0
