REMARK  1 active torsions:
REMARK  status: ('A' for Active; 'I' for Inactive)
REMARK    1  A    between atoms: O1_1  and  C1_3 
ROOT
HETATM    1  C1  UNL     1       1.082  -0.542   0.030  1.00  0.00     0.182 A 
HETATM    2  C2  UNL     1       0.630   0.751   0.003  1.00  0.00     0.066 A 
HETATM    3  C3  UNL     1      -0.740   0.673  -0.025  1.00  0.00     0.029 A 
HETATM    4  C4  UNL     1      -1.090  -0.674  -0.014  1.00  0.00     0.145 A 
HETATM    5  O2  UNL     1       0.038  -1.346   0.019  1.00  0.00    -0.300 OA
ENDROOT
BRANCH   1   6
HETATM    6  O1  UNL     1       2.431  -0.905   0.064  1.00  0.00    -0.341 OA
ATOM      7  H1  UNL     1       2.744  -1.802   0.083  1.00  0.00     0.220 HD
ENDBRANCH   1   6
TORSDOF 1
