REMARK  2 active torsions:
REMARK  status: ('A' for Active; 'I' for Inactive)
REMARK    1  A    between atoms: S1_2  and  C2_3 
REMARK    2  A    between atoms: C8_13  and  N3_14 
ROOT
HETATM    1  C2  UNL     1       1.178  -0.096  -0.426  1.00  0.00     0.274 C 
HETATM    2  C3  UNL     1       0.753   1.228  -0.985  1.00  0.00     0.346 C 
HETATM    3  N1  UNL     1      -0.656   1.389  -1.005  1.00  0.00     0.100 N 
HETATM    4  C4  UNL     1      -1.084   2.713  -0.584  1.00  0.00     0.275 A 
HETATM    5  C5  UNL     1      -1.837   2.060   0.529  1.00  0.00     0.068 A 
HETATM    6  C6  UNL     1      -1.417   0.710  -0.048  1.00  0.00     0.258 A 
HETATM    7  C7  UNL     1      -0.749  -0.207   0.884  1.00  0.00     0.259 C 
HETATM    8  N2  UNL     1       0.679  -0.138   0.932  1.00  0.00    -0.028 N 
ATOM      9  H21 UNL     1       1.016   0.641   1.498  1.00  0.00     0.281 HD
ATOM     10  H22 UNL     1       1.091  -0.895   1.478  1.00  0.00     0.281 HD
HETATM   11  C8  UNL     1      -1.089  -1.659   0.511  1.00  0.00     0.261 C 
HETATM   12  C9  UNL     1      -0.431  -1.850  -0.825  1.00  0.00     0.013 C 
HETATM   13  C10 UNL     1      -1.005  -2.913  -1.690  1.00  0.00     0.065 C 
HETATM   14  N4  UNL     1       0.561  -1.135  -1.184  1.00  0.00    -0.353 N 
ATOM     15  H4  UNL     1       0.953  -1.325  -2.106  1.00  0.00     0.162 HD
ENDROOT
BRANCH  11  16
HETATM   16  N3  UNL     1      -0.584  -2.576   1.503  1.00  0.00    -0.068 N 
ATOM     17  H33 UNL     1       0.416  -2.451   1.658  1.00  0.00     0.275 HD
ATOM     18  H32 UNL     1      -0.915  -2.340   2.438  1.00  0.00     0.275 HD
ATOM     19  H31 UNL     1      -0.810  -3.539   1.256  1.00  0.00     0.275 HD
ENDBRANCH  11  16
BRANCH   1  20
HETATM   20  S1  UNL     1       2.969  -0.304  -0.493  1.00  0.00    -0.112 SA
HETATM   21  C1  UNL     1       3.837   0.841   0.613  1.00  0.00     0.094 C 
ENDBRANCH   1  20
TORSDOF 2
