REMARK  8 active torsions:
REMARK  status: ('A' for Active; 'I' for Inactive)
REMARK    1  A    between atoms: C2_2  and  C3_3 
REMARK    2  A    between atoms: C4_4  and  S1_5 
REMARK    3  A    between atoms: S1_5  and  C5_6 
REMARK    4  A    between atoms: C9_12  and  S2_13 
REMARK    5  A    between atoms: S2_13  and  C10_14 
REMARK    6  A    between atoms: C10_14  and  C11_15 
REMARK    7  A    between atoms: C11_15  and  N2_16 
REMARK       I    between atoms: N2_16  and  C12_18 
REMARK       I    between atoms: C12_18  and  N4_22 
REMARK    8  A    between atoms: N4_22  and  C13_24 
ROOT
HETATM    1  C3  UNL     1      -2.399   1.053   0.926  1.00  0.00     0.043 A 
HETATM    2  C4  UNL     1      -2.867   0.315  -0.148  1.00  0.00     0.084 A 
HETATM    3  N1  UNL     1      -2.199  -0.731  -0.625  1.00  0.00    -0.331 N 
ATOM      4  H1  UNL     1      -2.582  -1.244  -1.419  1.00  0.00     0.168 HD
HETATM    5  C9  UNL     1      -1.013  -1.137  -0.080  1.00  0.00     0.147 A 
HETATM    6  N5  UNL     1      -0.534  -0.429   0.972  1.00  0.00    -0.303 N 
ATOM      7  H5  UNL     1       0.349  -0.703   1.403  1.00  0.00     0.171 HD
HETATM    8  C17 UNL     1      -1.206   0.626   1.453  1.00  0.00     0.256 A 
HETATM    9  O2  UNL     1      -0.744   1.294   2.452  1.00  0.00    -0.267 OA
ENDROOT
BRANCH   5  10
HETATM   10  S2  UNL     1      -0.207  -2.554  -0.735  1.00  0.00    -0.092 SA
BRANCH  10  11
HETATM   11  C10 UNL     1       1.095  -2.324  -1.903  1.00  0.00     0.102 C 
BRANCH  11  12
HETATM   12  C11 UNL     1       2.435  -1.990  -1.391  1.00  0.00     0.148 C 
BRANCH  12  13
HETATM   13  N2  UNL     1       2.645  -0.798  -0.644  1.00  0.00    -0.226 N 
HETATM   14  C12 UNL     1       3.975  -0.595  -0.035  1.00  0.00     0.667 C 
HETATM   15  N3  UNL     1       4.075  -0.266   1.079  1.00  0.00    -0.235 N 
HETATM   16  N4  UNL     1       5.090  -0.797  -0.900  1.00  0.00    -0.220 N 
ATOM     17  H32 UNL     1       3.277  -0.121   1.698  1.00  0.00     0.174 HD
ATOM     18  H31 UNL     1       4.994  -0.126   1.500  1.00  0.00     0.174 HD
ATOM     19  H4  UNL     1       4.974  -1.462  -1.664  1.00  0.00     0.178 HD
ATOM     20  H2  UNL     1       1.903  -0.107  -0.533  1.00  0.00     0.177 HD
BRANCH  16  21
HETATM   21  C13 UNL     1       6.364  -0.142  -0.786  1.00  0.00     0.125 C 
HETATM   22  C14 UNL     1       6.282   1.325  -0.518  1.00  0.00     0.054 C 
HETATM   23  C15 UNL     1       6.974   1.467   0.828  1.00  0.00     0.169 C 
HETATM   24  O1  UNL     1       6.987   0.192   1.372  1.00  0.00    -0.389 OA
HETATM   25  C16 UNL     1       7.213  -0.679   0.334  1.00  0.00     0.193 C 
ENDBRANCH  16  21
ENDBRANCH  12  13
ENDBRANCH  11  12
ENDBRANCH  10  11
ENDBRANCH   5  10
BRANCH   2  26
HETATM   26  S1  UNL     1      -4.432   0.790  -0.898  1.00  0.00    -0.103 SA
BRANCH  26  27
HETATM   27  C5  UNL     1      -5.758  -0.273  -0.336  1.00  0.00     0.003 C 
HETATM   28  C6  UNL     1      -6.105  -0.156   1.125  1.00  0.00     0.026 C 
HETATM   29  C7  UNL     1      -5.402  -1.755  -0.544  1.00  0.00     0.026 C 
HETATM   30  C8  UNL     1      -7.031   0.003  -1.102  1.00  0.00     0.026 C 
ENDBRANCH  26  27
ENDBRANCH   2  26
BRANCH   1  31
HETATM   31  C2  UNL     1      -3.117   2.241   1.484  1.00  0.00     0.043 C 
HETATM   32  C1  UNL     1      -2.991   3.445   0.551  1.00  0.00     0.010 C 
ENDBRANCH   1  31
TORSDOF 8
