REMARK  15 active torsions:
REMARK  status: ('A' for Active; 'I' for Inactive)
REMARK    1  A    between atoms: N1_1  and  C1_5 
REMARK    2  A    between atoms: C1_5  and  C2_6 
REMARK    3  A    between atoms: C2_6  and  C3_7 
REMARK    4  A    between atoms: C3_7  and  C4_8 
REMARK    5  A    between atoms: C4_8  and  C5_9 
REMARK    6  A    between atoms: C5_9  and  N2_10 
REMARK    7  A    between atoms: N2_10  and  C6_12 
REMARK    8  A    between atoms: C9_15  and  N3_16 
REMARK    9  A    between atoms: N5_25  and  C14_26 
REMARK   10  A    between atoms: C14_26  and  C15_27 
REMARK   11  A    between atoms: C15_27  and  C16_28 
REMARK   12  A    between atoms: C16_28  and  C17_29 
REMARK   13  A    between atoms: C17_29  and  C18_30 
REMARK   14  A    between atoms: C18_30  and  C19_31 
REMARK   15  A    between atoms: C19_31  and  N6_32 
ROOT
HETATM    1  C6  UNL     1      -3.456  -2.162   0.670  1.00  0.00     0.117 A 
HETATM    2  C7  UNL     1      -4.184  -3.360   0.504  1.00  0.00     0.037 A 
HETATM    3  C8  UNL     1      -5.464  -3.358  -0.023  1.00  0.00     0.053 A 
HETATM    4  C9  UNL     1      -6.213  -4.531  -0.206  1.00  0.00     0.103 A 
HETATM    5  C10 UNL     1      -5.616  -5.705   0.165  1.00  0.00     0.038 A 
HETATM    6  C11 UNL     1      -4.354  -5.752   0.689  1.00  0.00     0.033 A 
HETATM    7  C12 UNL     1      -3.630  -4.569   0.860  1.00  0.00     0.047 A 
HETATM    8  N4  UNL     1      -2.378  -4.660   1.380  1.00  0.00    -0.351 N 
ATOM      9  H4  UNL     1      -1.975  -5.559   1.643  1.00  0.00     0.166 HD
HETATM   10  C13 UNL     1      -1.704  -3.528   1.530  1.00  0.00     0.185 A 
HETATM   11  N5  UNL     1      -2.198  -2.330   1.198  1.00  0.00    -0.329 N 
ENDROOT
BRANCH  11  12
HETATM   12  C14 UNL     1      -1.370  -1.145   1.364  1.00  0.00     0.131 C 
BRANCH  12  13
HETATM   13  C15 UNL     1      -0.460  -0.965   0.156  1.00  0.00     0.020 C 
BRANCH  13  14
HETATM   14  C16 UNL     1       0.384   0.293   0.442  1.00  0.00     0.002 C 
BRANCH  14  15
HETATM   15  C17 UNL     1       1.297   0.534  -0.723  1.00  0.00     0.002 C 
BRANCH  15  16
HETATM   16  C18 UNL     1       2.273  -0.525  -1.025  1.00  0.00     0.020 C 
BRANCH  16  17
HETATM   17  C19 UNL     1       3.341  -0.757  -0.009  1.00  0.00     0.129 C 
BRANCH  17  18
HETATM   18  N6  UNL     1       4.233   0.374   0.120  1.00  0.00    -0.349 N 
HETATM   19  C20 UNL     1       5.258   0.556  -0.773  1.00  0.00     0.019 A 
HETATM   20  C21 UNL     1       5.927   1.672  -0.360  1.00  0.00    -0.023 A 
HETATM   21  C31 UNL     1       5.699  -0.199  -1.990  1.00  0.00     0.058 C 
HETATM   22  C22 UNL     1       5.341   2.194   0.777  1.00  0.00    -0.001 A 
HETATM   23  C28 UNL     1       7.105   2.087  -1.182  1.00  0.00     0.041 C 
HETATM   24  C23 UNL     1       5.630   3.281   1.587  1.00  0.00     0.014 A 
HETATM   25  C27 UNL     1       4.269   1.336   1.045  1.00  0.00     0.045 A 
HETATM   26  C24 UNL     1       4.880   3.578   2.700  1.00  0.00     0.001 A 
HETATM   27  C25 UNL     1       3.827   2.734   2.966  1.00  0.00     0.002 A 
HETATM   28  C26 UNL     1       3.536   1.654   2.166  1.00  0.00     0.030 A 
HETATM   29  C29 UNL     1       7.921   0.832  -1.414  1.00  0.00     0.005 C 
HETATM   30  C30 UNL     1       7.181  -0.238  -2.141  1.00  0.00     0.006 C 
ENDBRANCH  17  18
ENDBRANCH  16  17
ENDBRANCH  15  16
ENDBRANCH  14  15
ENDBRANCH  13  14
ENDBRANCH  12  13
ENDBRANCH  11  12
BRANCH   1  31
HETATM   31  N2  UNL     1      -3.895  -1.032   0.433  1.00  0.00    -0.375 N 
ATOM     32  H2  UNL     1      -3.128  -0.396   0.653  1.00  0.00     0.161 HD
BRANCH  31  33
HETATM   33  C5  UNL     1      -4.908  -0.235   0.021  1.00  0.00     0.121 C 
BRANCH  33  34
HETATM   34  C4  UNL     1      -4.597   1.267   0.169  1.00  0.00     0.020 C 
BRANCH  34  35
HETATM   35  C3  UNL     1      -3.465   1.727  -0.654  1.00  0.00     0.003 C 
BRANCH  35  36
HETATM   36  C2  UNL     1      -3.143   3.164  -0.453  1.00  0.00     0.027 C 
BRANCH  36  37
HETATM   37  C1  UNL     1      -4.168   4.182  -0.751  1.00  0.00     0.229 C 
BRANCH  37  38
HETATM   38  N1  UNL     1      -5.376   4.150   0.020  1.00  0.00    -0.079 N 
ATOM     39  H13 UNL     1      -5.794   3.222  -0.046  1.00  0.00     0.274 HD
ATOM     40  H12 UNL     1      -5.144   4.186   1.013  1.00  0.00     0.274 HD
ATOM     41  H11 UNL     1      -6.085   4.854  -0.186  1.00  0.00     0.274 HD
ENDBRANCH  37  38
ENDBRANCH  36  37
ENDBRANCH  35  36
ENDBRANCH  34  35
ENDBRANCH  33  34
ENDBRANCH  31  33
ENDBRANCH   1  31
BRANCH   4  42
HETATM   42  N3  UNL     1      -7.518  -4.466  -0.750  1.00  0.00    -0.116 N 
HETATM   43  O1  UNL     1      -8.041  -3.394  -1.080  1.00  0.00    -0.532 OA
HETATM   44  O2  UNL     1      -8.221  -5.626  -0.914  1.00  0.00    -0.532 OA
ENDBRANCH   4  42
TORSDOF 15
