REMARK  9 active torsions:
REMARK  status: ('A' for Active; 'I' for Inactive)
REMARK    1  A    between atoms: C2_2  and  O1_3 
REMARK    2  A    between atoms: C2_2  and  C3_5 
REMARK    3  A    between atoms: C3_5  and  O2_6 
REMARK    4  A    between atoms: C4_8  and  O3_9 
REMARK    5  A    between atoms: C5_11  and  N1_12 
REMARK    6  A    between atoms: C6_16  and  O4_17 
REMARK    7  A    between atoms: C7_19  and  O5_20 
REMARK    8  A    between atoms: O5_20  and  C8_21 
REMARK    9  A    between atoms: C12_25  and  O6_26 
ROOT
HETATM    1  C3  UNL     1       1.949   0.317  -0.063  1.00  0.00     0.139 C 
HETATM    2  C4  UNL     1       1.855  -0.402   1.240  1.00  0.00     0.190 C 
HETATM    3  C5  UNL     1       0.494  -0.362   1.876  1.00  0.00     0.246 C 
HETATM    4  C6  UNL     1      -0.127   0.969   1.430  1.00  0.00     0.182 C 
HETATM    5  C7  UNL     1      -0.542   0.747  -0.008  1.00  0.00     0.185 C 
HETATM    6  C12 UNL     1       0.684   0.461  -0.825  1.00  0.00     0.189 C 
ENDROOT
BRANCH   1   7
HETATM    7  C2  UNL     1       2.960  -0.486  -0.896  1.00  0.00     0.153 C 
HETATM    8  C1  UNL     1       3.402   0.294  -2.096  1.00  0.00     0.042 C 
BRANCH   7   9
HETATM    9  O1  UNL     1       2.540  -1.761  -1.163  1.00  0.00    -0.393 OA
ATOM     10  H1  UNL     1       2.260  -2.256  -0.402  1.00  0.00     0.210 HD
ENDBRANCH   7   9
ENDBRANCH   1   7
BRANCH   1  11
HETATM   11  O2  UNL     1       2.584   1.576   0.082  1.00  0.00    -0.382 OA
ATOM     12  H2  UNL     1       1.959   2.072   0.597  1.00  0.00     0.211 HD
ENDBRANCH   1  11
BRANCH   2  13
HETATM   13  O3  UNL     1       2.295  -1.723   1.195  1.00  0.00    -0.390 OA
ATOM     14  H3  UNL     1       2.235  -2.181   2.025  1.00  0.00     0.210 HD
ENDBRANCH   2  13
BRANCH   6  15
HETATM   15  O6  UNL     1       0.445  -0.639  -1.677  1.00  0.00    -0.390 OA
ATOM     16  H6  UNL     1      -0.365  -0.547  -2.165  1.00  0.00     0.210 HD
ENDBRANCH   6  15
BRANCH   3  17
HETATM   17  N1  UNL     1       0.526  -0.471   3.310  1.00  0.00    -0.070 N 
ATOM     18  H13 UNL     1       1.034  -1.308   3.597  1.00  0.00     0.274 HD
ATOM     19  H12 UNL     1       1.133   0.243   3.713  1.00  0.00     0.274 HD
ATOM     20  H11 UNL     1      -0.398  -0.444   3.742  1.00  0.00     0.274 HD
ENDBRANCH   3  17
BRANCH   5  21
HETATM   21  O5  UNL     1      -1.361  -0.342  -0.061  1.00  0.00    -0.371 OA
BRANCH  21  22
HETATM   22  C8  UNL     1      -2.618  -0.169  -0.525  1.00  0.00     0.051 C 
HETATM   23  C9  UNL     1      -3.479   0.806   0.249  1.00  0.00     0.045 C 
HETATM   24  C10 UNL     1      -3.334  -1.526  -0.411  1.00  0.00     0.045 C 
HETATM   25  C11 UNL     1      -2.720   0.221  -1.981  1.00  0.00     0.045 C 
ENDBRANCH  21  22
ENDBRANCH   5  21
BRANCH   4  26
HETATM   26  O4  UNL     1      -1.164   1.226   2.286  1.00  0.00    -0.391 OA
ATOM     27  H4  UNL     1      -1.548   2.050   2.010  1.00  0.00     0.210 HD
ENDBRANCH   4  26
TORSDOF 9
