REMARK  2 active torsions:
REMARK  status: ('A' for Active; 'I' for Inactive)
REMARK    1  A    between atoms: C2_2  and  C3_3 
REMARK    2  A    between atoms: C5_5  and  C7_7 
ROOT
HETATM    1  C3  UNL     1      -1.162   0.507   0.377  1.00  0.00     0.144 C 
HETATM    2  C4  UNL     1      -0.307   0.091  -0.773  1.00  0.00     0.055 C 
HETATM    3  C5  UNL     1       0.894  -0.519  -0.109  1.00  0.00     0.040 C 
HETATM    4  C6  UNL     1       1.222  -1.801  -0.790  1.00  0.00     0.026 C 
HETATM    5  C9  UNL     1       0.394  -0.814   1.279  1.00  0.00     0.185 C 
HETATM    6  O2  UNL     1      -0.536   0.154   1.544  1.00  0.00    -0.381 OA
ENDROOT
BRANCH   3   7
HETATM    7  C7  UNL     1       1.995   0.452  -0.149  1.00  0.00     0.133 C 
HETATM    8  C8  UNL     1       1.987   1.791   0.447  1.00  0.00     0.091 C 
HETATM    9  O1  UNL     1       3.012   0.113  -0.734  1.00  0.00    -0.297 OA
ENDBRANCH   3   7
BRANCH   1  10
HETATM   10  C2  UNL     1      -2.490  -0.148   0.233  1.00  0.00    -0.005 C 
HETATM   11  C1  UNL     1      -3.443   0.463  -0.441  1.00  0.00     0.009 C 
ENDBRANCH   1  10
TORSDOF 2
