REMARK  5 active torsions:
REMARK  status: ('A' for Active; 'I' for Inactive)
REMARK    1  A    between atoms: O1_2  and  C2_3 
REMARK    2  A    between atoms: C2_3  and  C3_5 
REMARK    3  A    between atoms: C5_7  and  O3_8 
REMARK    4  A    between atoms: C10_13  and  O4_14 
REMARK    5  A    between atoms: C14_21  and  C15_22 
REMARK       I    between atoms: C15_22  and  N2_24 
ROOT
HETATM    1  C3  UNL     1      -0.136  -0.588   0.053  1.00  0.00     0.071 C 
HETATM    2  C4  UNL     1      -0.160  -0.839   1.560  1.00  0.00     0.053 C 
HETATM    3  C5  UNL     1      -1.600  -0.347   1.489  1.00  0.00     0.127 C 
HETATM    4  C7  UNL     1      -1.009   0.566   0.436  1.00  0.00     0.036 C 
HETATM    5  C8  UNL     1      -1.840   1.166  -0.586  1.00  0.00     0.047 C 
HETATM    6  C9  UNL     1      -1.444   2.530  -1.028  1.00  0.00     0.260 C 
HETATM    7  C10 UNL     1      -0.802   3.454  -0.033  1.00  0.00     0.210 C 
HETATM    8  C11 UNL     1       0.472   3.206  -0.758  1.00  0.00     0.391 C 
HETATM    9  O5  UNL     1       1.333   2.239  -0.324  1.00  0.00    -0.347 OA
HETATM   10  C12 UNL     1       1.272   1.152  -1.182  1.00  0.00     0.167 C 
HETATM   11  C13 UNL     1       0.355   1.481  -2.290  1.00  0.00     0.309 C 
HETATM   12  N1  UNL     1      -0.318   2.666  -1.841  1.00  0.00     0.129 N 
HETATM   13  C14 UNL     1       1.161  -0.188  -0.542  1.00  0.00     0.127 C 
ENDROOT
BRANCH  13  14
HETATM   14  C15 UNL     1       2.370  -0.376   0.282  1.00  0.00     0.227 C 
HETATM   15  O6  UNL     1       2.885   0.714   0.734  1.00  0.00    -0.273 OA
HETATM   16  N2  UNL     1       3.013  -1.545   0.629  1.00  0.00    -0.360 N 
HETATM   17  C16 UNL     1       2.509  -2.802   0.149  1.00  0.00     0.152 C 
HETATM   18  C17 UNL     1       4.179  -1.538   1.464  1.00  0.00     0.152 C 
ENDBRANCH  13  14
BRANCH   1  19
HETATM   19  C2  UNL     1      -0.769  -1.776  -0.561  1.00  0.00     0.268 C 
HETATM   20  O2  UNL     1      -1.112  -2.772   0.126  1.00  0.00    -0.264 OA
BRANCH  19  21
HETATM   21  O1  UNL     1      -1.045  -1.921  -1.907  1.00  0.00    -0.326 OA
HETATM   22  C1  UNL     1      -1.651  -3.081  -2.438  1.00  0.00     0.213 C 
ENDBRANCH  19  21
ENDBRANCH   1  19
BRANCH   3  23
HETATM   23  O3  UNL     1      -1.997   0.335   2.654  1.00  0.00    -0.390 OA
HETATM   24  C6  UNL     1      -3.268  -0.095   3.026  1.00  0.00     0.202 C 
ENDBRANCH   3  23
BRANCH   7  25
HETATM   25  O4  UNL     1      -1.185   4.805  -0.227  1.00  0.00    -0.389 OA
ATOM     26  H4  UNL     1      -0.779   5.389   0.402  1.00  0.00     0.210 HD
ENDBRANCH   7  25
TORSDOF 5
