REMARK  6 active torsions:
REMARK  status: ('A' for Active; 'I' for Inactive)
REMARK    1  A    between atoms: C3_3  and  N1_4 
REMARK       I    between atoms: C4_6  and  N2_7 
REMARK       I    between atoms: C4_6  and  N5_16 
REMARK    2  A    between atoms: N2_7  and  N3_9 
REMARK    3  A    between atoms: N3_9  and  C5_11 
REMARK    4  A    between atoms: N4_12  and  O1_14 
REMARK    5  A    between atoms: N5_16  and  N6_18 
REMARK    6  A    between atoms: N6_18  and  O2_20 
ROOT
HETATM    1  C1  UNL     1      -2.246   3.603  -0.034  1.00  0.00     0.014 C 
HETATM    2  C2  UNL     1      -2.057   2.525  -0.544  1.00  0.00    -0.097 C 
HETATM    3  C3  UNL     1      -1.804   1.213  -1.181  1.00  0.00     0.231 C 
ENDROOT
BRANCH   3   4
HETATM    4  N1  UNL     1      -0.445   0.834  -0.971  1.00  0.00    -0.213 N 
HETATM    5  C4  UNL     1      -0.017  -0.290  -0.573  1.00  0.00     0.711 C 
HETATM    6  N2  UNL     1       1.385  -0.465  -0.427  1.00  0.00    -0.130 N 
HETATM    7  N5  UNL     1      -0.877  -1.379  -0.267  1.00  0.00    -0.108 N 
ATOM      8  H2  UNL     1       1.825  -1.364  -0.625  1.00  0.00     0.205 HD
HETATM    9  C6  UNL     1      -0.947  -2.570  -1.083  1.00  0.00     0.199 C 
ATOM     10  H1  UNL     1       0.260   1.546  -1.162  1.00  0.00     0.178 HD
BRANCH   6  11
HETATM   11  N3  UNL     1       2.140   0.622  -0.007  1.00  0.00    -0.280 N 
ATOM     12  H3  UNL     1       2.138   1.478  -0.562  1.00  0.00     0.188 HD
BRANCH  11  13
HETATM   13  C5  UNL     1       2.902   0.565   1.161  1.00  0.00     0.221 C 
HETATM   14  N4  UNL     1       2.421   0.051   2.245  1.00  0.00    -0.264 N 
ATOM     15  H4  UNL     1       1.472  -0.321   2.257  1.00  0.00     0.195 HD
BRANCH  14  16
HETATM   16  O1  UNL     1       3.194   0.008   3.382  1.00  0.00    -0.289 OA
ATOM     17  H1  UNL     1       2.840  -0.370   4.179  1.00  0.00     0.244 HD
ENDBRANCH  14  16
ENDBRANCH  11  13
ENDBRANCH   6  11
BRANCH   7  18
HETATM   18  N6  UNL     1      -1.675  -1.263   0.874  1.00  0.00    -0.194 N 
ATOM     19  H6  UNL     1      -2.349  -0.498   0.905  1.00  0.00     0.216 HD
BRANCH  18  20
HETATM   20  O2  UNL     1      -1.623  -2.019   1.846  1.00  0.00    -0.274 OA
ATOM     21  H2  UNL     1      -2.166  -1.940   2.622  1.00  0.00     0.246 HD
ENDBRANCH  18  20
ENDBRANCH   7  18
ENDBRANCH   3   4
TORSDOF 6
