REMARK  16 active torsions:
REMARK  status: ('A' for Active; 'I' for Inactive)
REMARK    1  A    between atoms: C2_2  and  C7_21 
REMARK    2  A    between atoms: N1_3  and  C3_5 
REMARK    3  A    between atoms: C3_5  and  O1_6 
REMARK    4  A    between atoms: C3_5  and  C4_8 
REMARK    5  A    between atoms: C4_8  and  N3_13 
REMARK    6  A    between atoms: N2_9  and  O2_11 
REMARK    7  A    between atoms: N3_13  and  C5_15 
REMARK    8  A    between atoms: C5_15  and  O3_16 
REMARK    9  A    between atoms: C5_15  and  C6_18 
REMARK   10  A    between atoms: C6_18  and  O4_19 
REMARK       I    between atoms: C7_21  and  N4_23 
REMARK   11  A    between atoms: N4_23  and  C8_25 
REMARK   12  A    between atoms: C10_29  and  N5_31 
REMARK   13  A    between atoms: C14_38  and  O8_39 
REMARK   14  A    between atoms: C14_38  and  N8_41 
REMARK   15  A    between atoms: N8_41  and  N9_43 
REMARK   16  A    between atoms: C16_48  and  O9_49 
ROOT
HETATM    1  C8  UNL     1       1.078  -1.430   0.250  1.00  0.00     0.214 C 
HETATM    2  C9  UNL     1       2.088  -1.346   1.322  1.00  0.00     0.286 C 
HETATM    3  O6  UNL     1       1.855  -1.889   2.418  1.00  0.00    -0.263 OA
HETATM    4  O7  UNL     1       3.230  -0.682   1.080  1.00  0.00    -0.285 OA
HETATM    5  C10 UNL     1       4.077  -0.787  -0.078  1.00  0.00     0.177 C 
HETATM    6  C11 UNL     1       5.023  -1.835   0.355  1.00  0.00     0.075 C 
HETATM    7  C15 UNL     1       3.180  -1.369  -1.114  1.00  0.00     0.146 C 
HETATM    8 BR1  UNL     1       3.735  -1.077  -2.930  1.00  0.00    -0.083 Br
HETATM    9  C16 UNL     1       1.723  -1.065  -1.067  1.00  0.00     0.169 C 
ENDROOT
BRANCH   1  10
HETATM   10  N4  UNL     1      -0.074  -0.596   0.507  1.00  0.00    -0.340 N 
HETATM   11  C7  UNL     1      -1.363  -1.108   0.663  1.00  0.00     0.264 C 
HETATM   12  O5  UNL     1      -1.561  -2.342   0.583  1.00  0.00    -0.266 OA
ATOM     13  H4  UNL     1       0.061   0.413   0.578  1.00  0.00     0.163 HD
BRANCH  11  14
HETATM   14  C2  UNL     1      -2.480  -0.232   0.919  1.00  0.00     0.071 C 
HETATM   15  C1  UNL     1      -2.263   1.225   1.023  1.00  0.00     0.074 C 
HETATM   16  N1  UNL     1      -3.659  -0.713   1.058  1.00  0.00    -0.357 N 
ATOM     17  H1  UNL     1      -3.758  -1.725   0.977  1.00  0.00     0.162 HD
BRANCH  16  18
HETATM   18  C3  UNL     1      -4.848   0.034   1.316  1.00  0.00     0.288 C 
BRANCH  18  19
HETATM   19  O1  UNL     1      -4.917   0.347   2.675  1.00  0.00    -0.369 OA
ATOM     20  H1  UNL     1      -5.708   0.844   2.847  1.00  0.00     0.212 HD
ENDBRANCH  18  19
BRANCH  18  21
HETATM   21  C4  UNL     1      -6.034  -0.700   0.845  1.00  0.00     0.148 C 
HETATM   22  N2  UNL     1      -5.992  -1.843   0.265  1.00  0.00    -0.253 N 
ATOM     23  H2  UNL     1      -6.887  -2.246  -0.013  1.00  0.00     0.195 HD
BRANCH  22  24
HETATM   24  O2  UNL     1      -4.889  -2.572  -0.018  1.00  0.00    -0.288 OA
ATOM     25  H2  UNL     1      -4.858  -3.419  -0.448  1.00  0.00     0.244 HD
ENDBRANCH  22  24
BRANCH  21  26
HETATM   26  N3  UNL     1      -7.309  -0.060   1.068  1.00  0.00    -0.347 N 
ATOM     27  H3  UNL     1      -7.671   0.010   2.019  1.00  0.00     0.163 HD
BRANCH  26  28
HETATM   28  C5  UNL     1      -8.082   0.482  -0.019  1.00  0.00     0.242 C 
BRANCH  28  29
HETATM   29  O3  UNL     1      -8.330  -0.579  -0.908  1.00  0.00    -0.375 OA
ATOM     30  H3  UNL     1      -8.840  -0.221  -1.625  1.00  0.00     0.212 HD
ENDBRANCH  28  29
BRANCH  28  31
HETATM   31  C6  UNL     1      -7.371   1.568  -0.784  1.00  0.00     0.217 C 
BRANCH  31  32
HETATM   32  O4  UNL     1      -7.059   2.633   0.050  1.00  0.00    -0.397 OA
ATOM     33  H4  UNL     1      -6.611   3.318  -0.432  1.00  0.00     0.209 HD
ENDBRANCH  31  32
ENDBRANCH  28  31
ENDBRANCH  26  28
ENDBRANCH  21  26
ENDBRANCH  18  21
ENDBRANCH  16  18
ENDBRANCH  11  14
ENDBRANCH   1  10
BRANCH   9  34
HETATM   34  O9  UNL     1       1.363   0.191  -1.540  1.00  0.00    -0.392 OA
ATOM     35  H9  UNL     1       1.768   0.420  -2.368  1.00  0.00     0.210 HD
ENDBRANCH   9  34
BRANCH   5  36
HETATM   36  N5  UNL     1       4.542   0.524  -0.321  1.00  0.00    -0.235 N 
HETATM   37  N6  UNL     1       3.699   1.556  -0.259  1.00  0.00    -0.289 N 
HETATM   38  C12 UNL     1       4.275   2.704  -0.514  1.00  0.00     0.199 A 
ATOM     39  H6  UNL     1       2.708   1.461  -0.036  1.00  0.00     0.188 HD
HETATM   40  N7  UNL     1       5.549   2.399  -0.750  1.00  0.00    -0.333 N 
HETATM   41  C13 UNL     1       5.715   1.056  -0.632  1.00  0.00     0.179 A 
ATOM     42  H7  UNL     1       6.284   3.067  -0.982  1.00  0.00     0.168 HD
HETATM   43  C14 UNL     1       7.002   0.450  -0.823  1.00  0.00     0.201 C 
BRANCH  43  44
HETATM   44  O8  UNL     1       7.198  -0.705  -1.462  1.00  0.00    -0.342 OA
ATOM     45  H8  UNL     1       8.050  -1.106  -1.588  1.00  0.00     0.219 HD
ENDBRANCH  43  44
BRANCH  43  46
HETATM   46  N8  UNL     1       7.812   0.657   0.393  1.00  0.00    -0.283 N 
ATOM     47  H8  UNL     1       8.181  -0.098   0.971  1.00  0.00     0.188 HD
BRANCH  46  48
HETATM   48  N9  UNL     1       8.011   2.009   0.654  1.00  0.00    -0.343 N 
ATOM     49  H92 UNL     1       7.636   2.754   0.067  1.00  0.00     0.176 HD
ATOM     50  H91 UNL     1       8.571   2.152   1.495  1.00  0.00     0.176 HD
ENDBRANCH  46  48
ENDBRANCH  43  46
ENDBRANCH   5  36
TORSDOF 16
