REMARK  6 active torsions:
REMARK  status: ('A' for Active; 'I' for Inactive)
REMARK    1  A    between atoms: C6_7  and  N1_8 
REMARK    2  A    between atoms: N1_8  and  C7_10 
REMARK    3  A    between atoms: C10_13  and  C11_14 
REMARK    4  A    between atoms: C11_14  and  N2_15 
REMARK    5  A    between atoms: N2_15  and  S1_17 
REMARK    6  A    between atoms: S1_17  and  C12_20 
ROOT
HETATM    1  C12 UNL     1       5.398  -1.237  -0.194  1.00  0.00     0.081 A 
HETATM    2  C13 UNL     1       5.958  -1.936  -1.245  1.00  0.00     0.025 A 
HETATM    3  C14 UNL     1       7.249  -1.748  -1.690  1.00  0.00     0.003 A 
HETATM    4  C15 UNL     1       8.034  -0.807  -1.053  1.00  0.00     0.023 A 
HETATM    5  C16 UNL     1       7.502  -0.105  -0.011  1.00  0.00     0.046 A 
HETATM    6  C17 UNL     1       8.340   0.873   0.643  1.00  0.00     0.099 C 
HETATM    7  N3  UNL     1       9.008   1.651   1.163  1.00  0.00    -0.191 NA
HETATM    8  C18 UNL     1       6.189  -0.304   0.432  1.00  0.00     0.048 A 
ENDROOT
BRANCH   1   9
HETATM    9  S1  UNL     1       3.748  -1.591   0.239  1.00  0.00     0.258 S 
HETATM   10  O1  UNL     1       3.451  -3.008  -0.139  1.00  0.00    -0.201 OA
HETATM   11  O2  UNL     1       3.594  -1.393   1.721  1.00  0.00    -0.201 OA
BRANCH   9  12
HETATM   12  N2  UNL     1       2.638  -0.566  -0.593  1.00  0.00    -0.315 N 
ATOM     13  H2  UNL     1       2.418  -0.612  -1.588  1.00  0.00     0.172 HD
BRANCH  12  14
HETATM   14  C11 UNL     1       2.082   0.351   0.333  1.00  0.00     0.136 C 
BRANCH  14  15
HETATM   15  C10 UNL     1       1.086   1.338  -0.229  1.00  0.00     0.004 C 
HETATM   16  C9  UNL     1      -0.082   0.613  -0.855  1.00  0.00     0.008 C 
HETATM   17  C8  UNL     1      -1.213   1.628  -0.922  1.00  0.00     0.025 C 
HETATM   18  C7  UNL     1      -1.763   1.713   0.470  1.00  0.00     0.077 C 
HETATM   19  C20 UNL     1      -0.662   1.979   1.478  1.00  0.00     0.025 C 
HETATM   20  C19 UNL     1       0.662   2.276   0.866  1.00  0.00     0.008 C 
BRANCH  18  21
HETATM   21  N1  UNL     1      -2.529   0.633   0.836  1.00  0.00    -0.413 N 
ATOM     22  H1  UNL     1      -2.135   0.060   1.582  1.00  0.00     0.154 HD
BRANCH  21  23
HETATM   23  C6  UNL     1      -3.734   0.205   0.359  1.00  0.00     0.080 C 
HETATM   24  C5  UNL     1      -4.915   1.148   0.510  1.00  0.00     0.025 C 
HETATM   25  C4  UNL     1      -6.172   0.318   0.373  1.00  0.00     0.005 C 
HETATM   26  C3  UNL     1      -5.946  -1.104  -0.010  1.00  0.00     0.043 C 
HETATM   27  C2  UNL     1      -4.947  -1.329  -1.091  1.00  0.00     0.102 C 
HETATM   28  C1  UNL     1      -4.323  -2.692  -0.912  1.00  0.00     0.051 C 
HETATM   29  F1  UNL     1      -5.480  -1.229  -2.368  1.00  0.00    -0.243 F 
HETATM   30  C21 UNL     1      -3.809  -0.311  -1.049  1.00  0.00     0.067 C 
ENDBRANCH  21  23
ENDBRANCH  18  21
ENDBRANCH  14  15
ENDBRANCH  12  14
ENDBRANCH   9  12
ENDBRANCH   1   9
TORSDOF 6
