REMARK  5 active torsions:
REMARK  status: ('A' for Active; 'I' for Inactive)
REMARK       I    between atoms: C1_2  and  N1_3 
REMARK    1  A    between atoms: C1_2  and  C18_25 
REMARK    2  A    between atoms: N1_3  and  C2_5 
REMARK    3  A    between atoms: C2_5  and  C3_6 
REMARK    4  A    between atoms: C2_5  and  C6_9 
REMARK    5  A    between atoms: C21_28  and  N3_29 
ROOT
HETATM    1  C6  UNL     1      -0.709  -0.622   0.712  1.00  0.00     0.127 C 
HETATM    2  C7  UNL     1      -1.864  -1.500   0.433  1.00  0.00    -0.004 C 
HETATM    3  C8  UNL     1      -2.856  -1.623  -0.451  1.00  0.00    -0.024 C 
HETATM    4  C9  UNL     1      -3.220  -0.814  -1.640  1.00  0.00     0.009 C 
HETATM    5  C10 UNL     1      -4.268   0.182  -1.296  1.00  0.00     0.013 C 
HETATM    6  C11 UNL     1      -3.982   1.609  -1.477  1.00  0.00    -0.007 C 
HETATM    7  C12 UNL     1      -2.868   1.929  -2.446  1.00  0.00     0.015 C 
HETATM    8  C13 UNL     1      -1.678   1.161  -1.995  1.00  0.00     0.038 C 
HETATM    9  C14 UNL     1      -1.982  -0.290  -2.245  1.00  0.00     0.019 C 
HETATM   10  C15 UNL     1      -1.251   1.456  -0.564  1.00  0.00     0.059 C 
HETATM   11  N2  UNL     1      -0.448   0.412  -0.148  1.00  0.00    -0.381 N 
ATOM     12  H2  UNL     1       0.491   0.411  -0.545  1.00  0.00     0.160 HD
HETATM   13  C16 UNL     1      -2.244   2.077   0.310  1.00  0.00     0.282 C 
HETATM   14  F1  UNL     1      -2.480   1.409   1.518  1.00  0.00    -0.200 F 
HETATM   15  F2  UNL     1      -1.817   3.332   0.822  1.00  0.00    -0.200 F 
HETATM   16  C17 UNL     1      -3.604   2.371  -0.237  1.00  0.00     0.090 C 
ENDROOT
BRANCH   1  17
HETATM   17  C2  UNL     1       0.531  -1.530   0.649  1.00  0.00     0.115 C 
BRANCH  17  18
HETATM   18  N1  UNL     1       1.730  -0.742   0.889  1.00  0.00    -0.348 N 
HETATM   19  C1  UNL     1       2.810  -0.683  -0.019  1.00  0.00     0.275 C 
HETATM   20  O1  UNL     1       2.732  -1.341  -1.084  1.00  0.00    -0.265 OA
ATOM     21  H1  UNL     1       1.794  -0.206   1.755  1.00  0.00     0.163 HD
BRANCH  19  22
HETATM   22  C18 UNL     1       4.009   0.101   0.214  1.00  0.00     0.145 A 
HETATM   23  C19 UNL     1       4.189   0.868   1.371  1.00  0.00     0.047 A 
HETATM   24  C20 UNL     1       5.424   1.475   1.265  1.00  0.00     0.066 A 
HETATM   25  C21 UNL     1       5.933   1.052   0.058  1.00  0.00     0.215 A 
HETATM   26  O4  UNL     1       5.069   0.255  -0.510  1.00  0.00    -0.283 OA
BRANCH  25  27
HETATM   27  N3  UNL     1       7.202   1.435  -0.466  1.00  0.00    -0.090 N 
HETATM   28  O2  UNL     1       7.966   2.204   0.149  1.00  0.00    -0.530 OA
HETATM   29  O3  UNL     1       7.640   0.968  -1.682  1.00  0.00    -0.530 OA
ENDBRANCH  25  27
ENDBRANCH  19  22
ENDBRANCH  17  18
BRANCH  17  30
HETATM   30  C3  UNL     1       0.507  -2.604   1.721  1.00  0.00     0.011 A 
HETATM   31  C4  UNL     1       1.714  -3.503   1.692  1.00  0.00     0.007 A 
HETATM   32  C5  UNL     1       1.484  -2.581   2.846  1.00  0.00     0.007 A 
ENDBRANCH  17  30
ENDBRANCH   1  17
TORSDOF 5
