REMARK  5 active torsions:
REMARK  status: ('A' for Active; 'I' for Inactive)
REMARK    1  A    between atoms: C2_2  and  C3_3 
REMARK    2  A    between atoms: C3_3  and  N1_4 
REMARK    3  A    between atoms: N1_4  and  S1_6 
REMARK    4  A    between atoms: S1_6  and  C4_9 
REMARK    5  A    between atoms: C9_16  and  C10_17 
REMARK       I    between atoms: C10_17  and  N3_19 
ROOT
HETATM    1  C4  UNL     1      -0.297  -1.476  -0.191  1.00  0.00     0.119 A 
HETATM    2  C5  UNL     1      -0.458  -2.315   0.922  1.00  0.00     0.030 A 
HETATM    3  C6  UNL     1       0.536  -3.285   1.449  1.00  0.00     0.070 C 
HETATM    4  N2  UNL     1      -1.666  -2.134   1.481  1.00  0.00    -0.361 N 
ATOM      5  H2  UNL     1      -2.034  -2.618   2.300  1.00  0.00     0.165 HD
HETATM    6  C7  UNL     1      -2.288  -1.209   0.769  1.00  0.00     0.023 A 
HETATM    7  C8  UNL     1      -3.661  -0.728   1.073  1.00  0.00     0.069 C 
HETATM    8  C9  UNL     1      -1.469  -0.780  -0.272  1.00  0.00     0.079 A 
ENDROOT
BRANCH   1   9
HETATM    9  S1  UNL     1       1.042  -1.450  -1.262  1.00  0.00     0.261 S 
HETATM   10  O1  UNL     1       0.603  -0.690  -2.520  1.00  0.00    -0.200 OA
HETATM   11  O2  UNL     1       1.383  -2.838  -1.778  1.00  0.00    -0.200 OA
BRANCH   9  12
HETATM   12  N1  UNL     1       2.459  -0.681  -0.742  1.00  0.00    -0.315 N 
ATOM     13  H1  UNL     1       3.365  -1.136  -0.626  1.00  0.00     0.172 HD
BRANCH  12  14
HETATM   14  C3  UNL     1       2.193   0.708  -0.489  1.00  0.00     0.132 C 
BRANCH  14  15
HETATM   15  C2  UNL     1       3.429   1.456  -0.026  1.00  0.00     0.016 C 
HETATM   16  C1  UNL     1       3.984   0.877   1.252  1.00  0.00     0.006 C 
ENDBRANCH  14  15
ENDBRANCH  12  14
ENDBRANCH   9  12
ENDBRANCH   1   9
BRANCH   8  17
HETATM   17  C10 UNL     1      -1.917   0.249  -1.200  1.00  0.00     0.256 C 
HETATM   18  O3  UNL     1      -2.463  -0.126  -2.303  1.00  0.00    -0.267 OA
HETATM   19  N3  UNL     1      -1.824   1.636  -1.024  1.00  0.00    -0.357 N 
HETATM   20  C11 UNL     1      -1.271   2.191   0.174  1.00  0.00     0.152 C 
HETATM   21  C12 UNL     1      -2.281   2.545  -2.041  1.00  0.00     0.152 C 
ENDBRANCH   8  17
TORSDOF 5
