REMARK  12 active torsions:
REMARK  status: ('A' for Active; 'I' for Inactive)
REMARK    1  A    between atoms: C2_2  and  C4_4 
REMARK    2  A    between atoms: C4_4  and  C5_5 
REMARK    3  A    between atoms: C7_10  and  C8_11 
REMARK    4  A    between atoms: C8_11  and  C9_12 
REMARK    5  A    between atoms: C14_22  and  C15_23 
REMARK    6  A    between atoms: C15_23  and  C16_24 
REMARK    7  A    between atoms: C16_24  and  N4_25 
REMARK    8  A    between atoms: C21_33  and  C22_34 
REMARK    9  A    between atoms: C22_34  and  C23_35 
REMARK   10  A    between atoms: C27_42  and  C28_43 
REMARK   11  A    between atoms: C28_43  and  C29_44 
REMARK   12  A    between atoms: C32_49  and  O5_50 
ROOT
HETATM    1  C5  UNL     1      -2.467  -1.414  -0.286  1.00  0.00     0.159 C 
HETATM    2  N1  UNL     1      -1.667  -1.390  -1.484  1.00  0.00    -0.347 N 
ATOM      3  H1  UNL     1      -1.753  -0.520  -2.010  1.00  0.00     0.163 HD
HETATM    4  C6  UNL     1      -0.803  -2.305  -2.071  1.00  0.00     0.241 C 
HETATM    5  O1  UNL     1      -1.013  -2.591  -3.312  1.00  0.00    -0.271 OA
HETATM    6  C7  UNL     1       0.355  -3.043  -1.546  1.00  0.00     0.180 C 
HETATM    7  N3  UNL     1       1.577  -2.605  -2.257  1.00  0.00    -0.346 N 
ATOM      8  H3  UNL     1       1.570  -2.753  -3.266  1.00  0.00     0.163 HD
HETATM    9  C13 UNL     1       2.720  -2.028  -1.757  1.00  0.00     0.241 C 
HETATM   10  O2  UNL     1       3.841  -2.597  -2.033  1.00  0.00    -0.271 OA
HETATM   11  C14 UNL     1       2.903  -0.805  -0.914  1.00  0.00     0.178 C 
HETATM   12  N5  UNL     1       1.666  -0.111  -0.704  1.00  0.00    -0.346 N 
ATOM     13  H5  UNL     1       0.990  -0.660  -0.172  1.00  0.00     0.163 HD
HETATM   14  C20 UNL     1       1.180   1.141  -1.062  1.00  0.00     0.241 C 
HETATM   15  O3  UNL     1       0.469   1.314  -2.119  1.00  0.00    -0.271 OA
HETATM   16  C21 UNL     1       1.368   2.460  -0.340  1.00  0.00     0.177 C 
HETATM   17  N6  UNL     1       0.382   2.637   0.685  1.00  0.00    -0.346 N 
ATOM     18  H6  UNL     1       0.678   3.249   1.446  1.00  0.00     0.163 HD
HETATM   19  C26 UNL     1      -0.917   2.123   0.835  1.00  0.00     0.241 C 
HETATM   20  O4  UNL     1      -1.208   1.409   1.832  1.00  0.00    -0.271 OA
HETATM   21  C27 UNL     1      -2.069   2.339  -0.100  1.00  0.00     0.175 C 
HETATM   22  N7  UNL     1      -2.860   1.204  -0.414  1.00  0.00    -0.359 N 
ATOM     23  H7  UNL     1      -3.470   1.432  -1.199  1.00  0.00     0.162 HD
HETATM   24  C32 UNL     1      -3.093  -0.097  -0.031  1.00  0.00     0.135 C 
ENDROOT
BRANCH   6  25
HETATM   25  C8  UNL     1       0.173  -4.534  -1.637  1.00  0.00     0.074 C 
BRANCH  25  26
HETATM   26  C9  UNL     1      -0.023  -5.149  -2.921  1.00  0.00    -0.039 A 
HETATM   27  C10 UNL     1      -1.200  -5.503  -3.531  1.00  0.00     0.025 A 
HETATM   28  C11 UNL     1      -0.928  -6.059  -4.743  1.00  0.00     0.088 A 
HETATM   29  N2  UNL     1       0.397  -6.065  -4.915  1.00  0.00    -0.375 N 
HETATM   30  C12 UNL     1       0.964  -5.515  -3.815  1.00  0.00     0.094 A 
ATOM     31  H2  UNL     1       0.894  -6.421  -5.731  1.00  0.00     0.164 HD
ENDBRANCH  25  26
ENDBRANCH   6  25
BRANCH   1  32
HETATM   32  C4  UNL     1      -1.807  -1.950   0.905  1.00  0.00     0.037 C 
BRANCH  32  33
HETATM   33  C2  UNL     1      -2.577  -2.021   2.192  1.00  0.00    -0.020 C 
HETATM   34  C1  UNL     1      -3.801  -2.895   2.110  1.00  0.00     0.009 C 
HETATM   35  C3  UNL     1      -1.690  -2.648   3.289  1.00  0.00     0.009 C 
ENDBRANCH  32  33
ENDBRANCH   1  32
BRANCH  11  36
HETATM   36  C15 UNL     1       3.394  -1.348   0.439  1.00  0.00     0.063 C 
BRANCH  36  37
HETATM   37  C16 UNL     1       3.628  -0.214   1.410  1.00  0.00     0.238 C 
BRANCH  37  38
HETATM   38  N4  UNL     1       4.092  -0.695   2.693  1.00  0.00    -0.079 N 
HETATM   39  C17 UNL     1       5.290  -1.505   2.537  1.00  0.00     0.271 C 
HETATM   40  C18 UNL     1       4.371   0.413   3.586  1.00  0.00     0.271 C 
HETATM   41  C19 UNL     1       3.096  -1.534   3.351  1.00  0.00     0.271 C 
ENDBRANCH  37  38
ENDBRANCH  36  37
ENDBRANCH  11  36
BRANCH  24  42
HETATM   42  O5  UNL     1      -4.130  -0.239   0.754  1.00  0.00    -0.348 OA
ATOM     43  H5  UNL     1      -4.532   0.606   0.918  1.00  0.00     0.219 HD
ENDBRANCH  24  42
BRANCH  21  44
HETATM   44  C28 UNL     1      -2.875   3.446   0.582  1.00  0.00     0.038 C 
BRANCH  44  45
HETATM   45  C29 UNL     1      -4.069   3.984  -0.020  1.00  0.00    -0.020 C 
HETATM   46  C30 UNL     1      -4.612   5.116   0.920  1.00  0.00     0.009 C 
HETATM   47  C31 UNL     1      -5.245   3.163  -0.340  1.00  0.00     0.009 C 
ENDBRANCH  44  45
ENDBRANCH  21  44
BRANCH  16  48
HETATM   48  C22 UNL     1       1.514   3.534  -1.356  1.00  0.00     0.038 C 
BRANCH  48  49
HETATM   49  C23 UNL     1       1.742   4.914  -0.816  1.00  0.00    -0.020 C 
HETATM   50  C24 UNL     1       1.904   5.821  -2.073  1.00  0.00     0.009 C 
HETATM   51  C25 UNL     1       0.534   5.508  -0.110  1.00  0.00     0.009 C 
ENDBRANCH  48  49
ENDBRANCH  16  48
TORSDOF 12
