REMARK  5 active torsions:
REMARK  status: ('A' for Active; 'I' for Inactive)
REMARK    1  A    between atoms: C2_2  and  N1_4 
REMARK    2  A    between atoms: N2_7  and  C6_8 
REMARK    3  A    between atoms: C8_10  and  C9_11 
REMARK    4  A    between atoms: C9_11  and  C10_12 
REMARK    5  A    between atoms: C16_24  and  N4_25 
ROOT
HETATM    1  C6  UNL     1       0.269   0.919  -0.181  1.00  0.00     0.121 A 
HETATM    2  C7  UNL     1       1.038  -0.243  -0.078  1.00  0.00     0.074 A 
HETATM    3  C8  UNL     1       2.412  -0.187  -0.095  1.00  0.00     0.034 A 
HETATM    4  N3  UNL     1       2.980   1.033  -0.214  1.00  0.00    -0.195 N 
ATOM      5  H3  UNL     1       3.997   1.107  -0.230  1.00  0.00     0.184 HD
HETATM    6  C16 UNL     1       2.244   2.149  -0.312  1.00  0.00     0.677 A 
HETATM    7  N5  UNL     1       0.901   2.107  -0.296  1.00  0.00    -0.177 N 
ATOM      8  H5  UNL     1       0.361   2.969  -0.370  1.00  0.00     0.185 HD
ENDROOT
BRANCH   3   9
HETATM    9  C9  UNL     1       3.190  -1.442   0.003  1.00  0.00     0.102 C 
BRANCH   9  10
HETATM   10  C10 UNL     1       4.630  -1.190  -0.038  1.00  0.00     0.031 A 
HETATM   11  C11 UNL     1       5.345  -0.758   1.084  1.00  0.00     0.164 A 
HETATM   12  F1  UNL     1       4.670  -0.594   2.275  1.00  0.00    -0.202 F 
HETATM   13  C12 UNL     1       6.701  -0.517   0.980  1.00  0.00     0.158 A 
HETATM   14  F2  UNL     1       7.417  -0.105   2.071  1.00  0.00    -0.203 F 
HETATM   15  C13 UNL     1       7.336  -0.702  -0.229  1.00  0.00     0.090 A 
HETATM   16  C14 UNL     1       6.629  -1.129  -1.344  1.00  0.00     0.158 A 
HETATM   17  F3  UNL     1       7.276  -1.301  -2.546  1.00  0.00    -0.203 F 
HETATM   18  C15 UNL     1       5.280  -1.374  -1.258  1.00  0.00     0.164 A 
HETATM   19  F4  UNL     1       4.563  -1.789  -2.334  1.00  0.00    -0.202 F 
ENDBRANCH   9  10
ENDBRANCH   3   9
BRANCH   1  20
HETATM   20  N2  UNL     1      -1.134   0.755  -0.171  1.00  0.00    -0.363 N 
HETATM   21  C5  UNL     1      -1.954   1.559   0.689  1.00  0.00     0.154 C 
HETATM   22  C4  UNL     1      -3.414   1.325   0.476  1.00  0.00     0.292 C 
HETATM   23  N1  UNL     1      -3.782  -0.033   0.396  1.00  0.00     0.095 N 
HETATM   24  C18 UNL     1      -2.881  -0.937  -0.254  1.00  0.00     0.292 C 
HETATM   25  C17 UNL     1      -1.786  -0.219  -1.022  1.00  0.00     0.154 C 
BRANCH  23  26
HETATM   26  C2  UNL     1      -5.162  -0.229   0.004  1.00  0.00     0.215 C 
HETATM   27  C1  UNL     1      -6.041   0.379   1.058  1.00  0.00     0.042 C 
HETATM   28  C3  UNL     1      -5.527  -1.685  -0.141  1.00  0.00     0.042 C 
ENDBRANCH  23  26
ENDBRANCH   1  20
BRANCH   6  29
HETATM   29  N4  UNL     1       2.825   3.304  -0.427  1.00  0.00    -0.234 N 
ATOM     30  H42 UNL     1       3.844   3.336  -0.439  1.00  0.00     0.174 HD
ATOM     31  H41 UNL     1       2.265   4.153  -0.502  1.00  0.00     0.174 HD
ENDBRANCH   6  29
TORSDOF 5
