REMARK  8 active torsions:
REMARK  status: ('A' for Active; 'I' for Inactive)
REMARK    1  A    between atoms: S1_2  and  C1_4 
REMARK    2  A    between atoms: S1_2  and  C8_12 
REMARK    3  A    between atoms: C1_4  and  C2_5 
REMARK    4  A    between atoms: C8_12  and  S2_14 
REMARK    5  A    between atoms: C8_12  and  S3_22 
REMARK    6  A    between atoms: S2_14  and  C9_15 
REMARK    7  A    between atoms: C9_15  and  C10_16 
REMARK    8  A    between atoms: S3_22  and  C16_25 
ROOT
HETATM    1  C8  UNL     1      -0.785   1.067  -0.472  1.00  0.00     0.294 C 
HETATM    2 CL2  UNL     1      -0.839   0.011  -1.930  1.00  0.00    -0.072 Cl
ENDROOT
BRANCH   1   3
HETATM    3  S1  UNL     1      -2.206   0.766   0.515  1.00  0.00     0.196 S 
HETATM    4  O1  UNL     1      -2.020   1.632   1.772  1.00  0.00    -0.224 OA
HETATM    5  O2  UNL     1      -3.440   1.325  -0.219  1.00  0.00    -0.224 OA
BRANCH   3   6
HETATM    6  C1  UNL     1      -2.495  -0.849   1.071  1.00  0.00     0.182 C 
BRANCH   6   7
HETATM    7  C2  UNL     1      -2.715  -1.878   0.049  1.00  0.00    -0.044 A 
HETATM    8  C3  UNL     1      -3.972  -2.008  -0.532  1.00  0.00     0.010 A 
HETATM    9  C4  UNL     1      -4.237  -2.980  -1.473  1.00  0.00     0.024 A 
HETATM   10  C5  UNL     1      -3.258  -3.864  -1.874  1.00  0.00     0.034 A 
HETATM   11 CL1  UNL     1      -3.606  -5.109  -3.083  1.00  0.00    -0.084 Cl
HETATM   12  C6  UNL     1      -2.011  -3.749  -1.310  1.00  0.00     0.024 A 
HETATM   13  C7  UNL     1      -1.759  -2.755  -0.355  1.00  0.00     0.010 A 
ENDBRANCH   6   7
ENDBRANCH   3   6
ENDBRANCH   1   3
BRANCH   1  14
HETATM   14  S2  UNL     1       0.773   1.003   0.378  1.00  0.00    -0.111 SA
BRANCH  14  15
HETATM   15  C9  UNL     1       1.415  -0.577   0.862  1.00  0.00     0.082 C 
BRANCH  15  16
HETATM   16  C10 UNL     1       1.934  -1.398  -0.326  1.00  0.00    -0.005 C 
HETATM   17  C11 UNL     1       3.039  -0.682  -1.029  1.00  0.00     0.005 C 
HETATM   18  C12 UNL     1       4.275  -1.519  -1.216  1.00  0.00     0.000 C 
HETATM   19  C13 UNL     1       4.773  -1.937   0.139  1.00  0.00     0.000 C 
HETATM   20  C14 UNL     1       3.683  -2.583   0.938  1.00  0.00     0.000 C 
HETATM   21  C15 UNL     1       2.414  -2.741   0.150  1.00  0.00     0.005 C 
ENDBRANCH  15  16
ENDBRANCH  14  15
ENDBRANCH   1  14
BRANCH   1  22
HETATM   22  S3  UNL     1      -0.917   2.756  -1.174  1.00  0.00     0.222 S 
HETATM   23  O3  UNL     1       0.317   2.969  -2.006  1.00  0.00    -0.219 OA
HETATM   24  O4  UNL     1      -2.102   2.820  -2.090  1.00  0.00    -0.219 OA
BRANCH  22  25
HETATM   25  C16 UNL     1      -0.993   3.941   0.100  1.00  0.00     0.063 A 
HETATM   26  C17 UNL     1       0.188   4.414   0.682  1.00  0.00     0.025 A 
HETATM   27  C18 UNL     1       0.180   5.361   1.683  1.00  0.00     0.025 A 
HETATM   28  C19 UNL     1      -0.998   5.883   2.156  1.00  0.00     0.034 A 
HETATM   29 CL3  UNL     1      -1.057   7.091   3.429  1.00  0.00    -0.084 Cl
HETATM   30  C20 UNL     1      -2.173   5.414   1.578  1.00  0.00     0.025 A 
HETATM   31  C21 UNL     1      -2.176   4.464   0.572  1.00  0.00     0.025 A 
ENDBRANCH  22  25
ENDBRANCH   1  22
TORSDOF 8
