REMARK  12 active torsions:
REMARK  status: ('A' for Active; 'I' for Inactive)
REMARK    1  A    between atoms: C2_2  and  C4_4 
REMARK    2  A    between atoms: C5_5  and  C6_6 
REMARK    3  A    between atoms: C11_11  and  O1_12 
REMARK    4  A    between atoms: C16_19  and  C17_20 
REMARK    5  A    between atoms: C17_20  and  C18_21 
REMARK    6  A    between atoms: C18_21  and  C19_22 
REMARK    7  A    between atoms: C24_28  and  O4_30 
REMARK    8  A    between atoms: C26_32  and  C27_33 
REMARK    9  A    between atoms: C27_33  and  N1_34 
REMARK   10  A    between atoms: C27_33  and  O7_40 
REMARK       I    between atoms: N1_34  and  C28_36 
REMARK   11  A    between atoms: C28_36  and  O6_38 
REMARK   12  A    between atoms: O7_40  and  C30_41 
ROOT
HETATM    1  C6  UNL     1      -2.597   0.832  -0.181  1.00  0.00    -0.037 C 
HETATM    2  C7  UNL     1      -2.542   2.351  -0.347  1.00  0.00     0.037 C 
HETATM    3  C8  UNL     1      -3.844   2.734  -1.065  1.00  0.00     0.019 C 
HETATM    4  C9  UNL     1      -1.445   3.052  -0.945  1.00  0.00    -0.019 C 
HETATM    5  C10 UNL     1      -0.723   3.155  -2.033  1.00  0.00     0.001 C 
HETATM    6  C11 UNL     1       0.419   3.917  -2.581  1.00  0.00     0.141 C 
HETATM    7  C12 UNL     1       1.772   3.750  -1.911  1.00  0.00     0.047 C 
HETATM    8  C13 UNL     1       2.320   2.353  -1.928  1.00  0.00     0.057 C 
HETATM    9  C14 UNL     1       3.447   2.322  -3.001  1.00  0.00     0.018 C 
HETATM   10  C15 UNL     1       3.004   1.892  -0.693  1.00  0.00     0.168 C 
HETATM   11  O2  UNL     1       4.199   2.074  -0.546  1.00  0.00    -0.294 OA
HETATM   12  C16 UNL     1       2.313   1.175   0.469  1.00  0.00     0.151 A 
HETATM   13  O3  UNL     1       1.455   2.118   0.898  1.00  0.00    -0.357 OA
HETATM   14  C23 UNL     1       1.027   0.973   0.268  1.00  0.00     0.204 A 
HETATM   15  C24 UNL     1      -0.216   0.482   0.931  1.00  0.00     0.115 C 
HETATM   16  C25 UNL     1      -0.536   1.246   2.130  1.00  0.00     0.054 C 
HETATM   17  C26 UNL     1      -1.322   0.145  -0.077  1.00  0.00     0.037 C 
ENDROOT
BRANCH  17  18
HETATM   18  C27 UNL     1      -1.113  -1.225  -0.684  1.00  0.00     0.165 C 
BRANCH  18  19
HETATM   19  N1  UNL     1      -1.858  -2.332  -0.265  1.00  0.00    -0.282 N 
HETATM   20  C28 UNL     1      -1.265  -3.536   0.165  1.00  0.00     0.366 C 
HETATM   21  O5  UNL     1      -0.037  -3.782   0.225  1.00  0.00    -0.238 OA
ATOM     22  H1  UNL     1      -2.876  -2.265  -0.271  1.00  0.00     0.173 HD
BRANCH  20  23
HETATM   23  O6  UNL     1      -2.106  -4.578   0.573  1.00  0.00    -0.309 OA
HETATM   24  C29 UNL     1      -1.596  -5.821   1.021  1.00  0.00     0.215 C 
ENDBRANCH  20  23
ENDBRANCH  18  19
BRANCH  18  25
HETATM   25  O7  UNL     1      -0.976  -1.179  -2.113  1.00  0.00    -0.261 OA
BRANCH  25  26
HETATM   26  C30 UNL     1       0.129  -1.424  -2.846  1.00  0.00     0.261 C 
HETATM   27  C31 UNL     1       0.109  -1.330  -4.324  1.00  0.00     0.126 C 
HETATM   28  O8  UNL     1       1.137  -1.727  -2.187  1.00  0.00    -0.265 OA
ENDBRANCH  25  26
ENDBRANCH  18  25
ENDBRANCH  17  18
BRANCH   1  29
HETATM   29  C5  UNL     1      -3.857   0.381   0.384  1.00  0.00     0.009 C 
HETATM   30  C4  UNL     1      -4.541   0.570   1.624  1.00  0.00     0.006 C 
BRANCH  30  31
HETATM   31  C2  UNL     1      -4.180   0.046   2.937  1.00  0.00    -0.071 C 
HETATM   32  C1  UNL     1      -3.274  -0.848   3.259  1.00  0.00     0.018 C 
HETATM   33  C3  UNL     1      -4.926   0.571   4.119  1.00  0.00     0.047 C 
ENDBRANCH  30  31
ENDBRANCH   1  29
BRANCH  15  34
HETATM   34  O4  UNL     1       0.272  -0.750   1.489  1.00  0.00    -0.382 OA
ATOM     35  H4  UNL     1      -0.520  -1.063   1.911  1.00  0.00     0.211 HD
ENDBRANCH  15  34
BRANCH  12  36
HETATM   36  C17 UNL     1       3.264   0.378   1.299  1.00  0.00     0.053 C 
BRANCH  36  37
HETATM   37  C18 UNL     1       3.902  -0.677   0.425  1.00  0.00     0.030 C 
BRANCH  37  38
HETATM   38  C19 UNL     1       4.844  -1.471   1.262  1.00  0.00    -0.025 C 
HETATM   39  C20 UNL     1       4.687  -2.777   1.406  1.00  0.00    -0.091 C 
HETATM   40  C21 UNL     1       5.657  -3.518   2.250  1.00  0.00     0.042 C 
HETATM   41  C22 UNL     1       3.555  -3.463   0.724  1.00  0.00     0.042 C 
ENDBRANCH  37  38
ENDBRANCH  36  37
ENDBRANCH  12  36
BRANCH   6  42
HETATM   42  O1  UNL     1       0.663   3.402  -3.902  1.00  0.00    -0.392 OA
ATOM     43  H1  UNL     1       1.397   3.892  -4.254  1.00  0.00     0.210 HD
ENDBRANCH   6  42
TORSDOF 12
