REMARK  4 active torsions:
REMARK  status: ('A' for Active; 'I' for Inactive)
REMARK    1  A    between atoms: C5_6  and  C6_7 
REMARK    2  A    between atoms: C8_9  and  C9_10 
REMARK    3  A    between atoms: N1_13  and  C12_14 
REMARK    4  A    between atoms: C21_23  and  O1_24 
ROOT
HETATM    1  C6  UNL     1       3.863   0.036  -0.778  1.00  0.00     0.050 A 
HETATM    2  C7  UNL     1       2.648   0.179  -0.141  1.00  0.00     0.046 A 
HETATM    3  C8  UNL     1       1.618   0.328  -1.091  1.00  0.00     0.023 A 
HETATM    4  C21 UNL     1       2.233   0.273  -2.289  1.00  0.00     0.151 A 
HETATM    5  N2  UNL     1       3.559   0.100  -2.081  1.00  0.00    -0.336 N 
ATOM      6  H2  UNL     1       4.247   0.027  -2.830  1.00  0.00     0.168 HD
ENDROOT
BRANCH   3   7
HETATM    7  C9  UNL     1       0.211   0.500  -0.752  1.00  0.00    -0.044 C 
HETATM    8  C10 UNL     1      -0.180   0.566   0.507  1.00  0.00     0.011 C 
HETATM    9  C11 UNL     1      -1.586   0.740   0.937  1.00  0.00     0.301 C 
HETATM   10  N1  UNL     1      -2.566   0.494  -0.084  1.00  0.00     0.096 N 
HETATM   11  C19 UNL     1      -2.066  -0.180  -1.228  1.00  0.00     0.278 C 
HETATM   12  C20 UNL     1      -0.840   0.587  -1.776  1.00  0.00     0.069 C 
BRANCH  10  13
HETATM   13  C12 UNL     1      -3.673  -0.213   0.510  1.00  0.00     0.223 C 
HETATM   14  C13 UNL     1      -4.369  -1.016  -0.562  1.00  0.00     0.036 C 
HETATM   15  C14 UNL     1      -5.586  -1.741  -0.014  1.00  0.00     0.002 C 
HETATM   16  C15 UNL     1      -6.718  -0.800   0.274  1.00  0.00     0.000 C 
HETATM   17  C16 UNL     1      -6.587   0.505  -0.443  1.00  0.00     0.000 C 
HETATM   18  C17 UNL     1      -5.455   1.368  -0.035  1.00  0.00     0.002 C 
HETATM   19  C18 UNL     1      -4.602   0.839   1.089  1.00  0.00     0.036 C 
ENDBRANCH  10  13
ENDBRANCH   3   7
BRANCH   4  20
HETATM   20  O1  UNL     1       1.614   0.379  -3.559  1.00  0.00    -0.345 OA
ATOM     21  H1  UNL     1       2.047   0.340  -4.403  1.00  0.00     0.219 HD
ENDBRANCH   4  20
BRANCH   1  22
HETATM   22  C5  UNL     1       5.166  -0.084  -0.111  1.00  0.00     0.051 A 
HETATM   23  C4  UNL     1       5.261  -0.531   1.197  1.00  0.00     0.131 A 
HETATM   24  C3  UNL     1       6.481  -0.607   1.876  1.00  0.00     0.050 A 
HETATM   25  F1  UNL     1       4.154  -0.947   1.859  1.00  0.00    -0.205 F 
HETATM   26  C2  UNL     1       7.658  -0.243   1.282  1.00  0.00    -0.057 A 
HETATM   27  C1  UNL     1       8.943  -0.330   2.028  1.00  0.00     0.048 C 
HETATM   28  C23 UNL     1       7.583   0.201  -0.009  1.00  0.00     0.031 A 
HETATM   29  C22 UNL     1       6.357   0.282  -0.701  1.00  0.00     0.050 A 
HETATM   30 CL1  UNL     1       6.377   0.910  -2.333  1.00  0.00    -0.083 Cl
ENDBRANCH   1  22
TORSDOF 4
