REMARK  3 active torsions:
REMARK  status: ('A' for Active; 'I' for Inactive)
REMARK    1  A    between atoms: O1_1  and  C1_3 
REMARK    2  A    between atoms: C6_10  and  C7_11 
REMARK    3  A    between atoms: C15_24  and  C16_25 
ROOT
HETATM    1  C1  UNL     1       1.146  -0.569   2.028  1.00  0.00     0.078 A 
HETATM    2  C2  UNL     1      -0.204  -0.431   2.165  1.00  0.00     0.052 A 
HETATM    3  C3  UNL     1      -1.082  -0.241   1.124  1.00  0.00     0.012 A 
HETATM    4  C4  UNL     1      -2.503  -0.096   1.272  1.00  0.00     0.116 A 
HETATM    5  N1  UNL     1      -3.177  -0.124   2.450  1.00  0.00    -0.349 N 
ATOM      6  H1  UNL     1      -2.773  -0.251   3.378  1.00  0.00     0.167 HD
HETATM    7  C5  UNL     1      -4.487   0.048   2.159  1.00  0.00     0.120 A 
HETATM    8  C6  UNL     1      -4.638   0.184   0.796  1.00  0.00     0.059 A 
HETATM    9  N2  UNL     1      -3.397   0.090   0.287  1.00  0.00    -0.340 N 
ATOM     10  H2  UNL     1      -3.167   0.151  -0.705  1.00  0.00     0.167 HD
HETATM   11  C13 UNL     1      -0.508  -0.195  -0.136  1.00  0.00     0.035 A 
HETATM   12  C14 UNL     1       0.883  -0.334  -0.314  1.00  0.00     0.019 A 
HETATM   13  S1  UNL     1       1.928  -0.333  -1.662  1.00  0.00    -0.093 SA
HETATM   14  C15 UNL     1       3.419  -0.568  -0.863  1.00  0.00    -0.011 A 
HETATM   15  C22 UNL     1       3.052  -0.643   0.451  1.00  0.00     0.030 A 
HETATM   16  C23 UNL     1       1.730  -0.521   0.739  1.00  0.00     0.015 A 
ENDROOT
BRANCH   1  17
HETATM   17  O1  UNL     1       1.899  -0.754   3.172  1.00  0.00    -0.360 OA
ATOM     18  H1  UNL     1       2.839  -0.850   3.077  1.00  0.00     0.217 HD
ENDBRANCH   1  17
BRANCH   8  19
HETATM   19  C7  UNL     1      -5.882   0.388   0.058  1.00  0.00    -0.002 A 
HETATM   20  C8  UNL     1      -5.919   0.512  -1.312  1.00  0.00     0.056 A 
HETATM   21  C9  UNL     1      -7.096   0.704  -2.009  1.00  0.00     0.120 A 
HETATM   22  F1  UNL     1      -7.148   0.827  -3.346  1.00  0.00    -0.206 F 
HETATM   23  C10 UNL     1      -8.276   0.773  -1.297  1.00  0.00     0.084 A 
HETATM   24  C11 UNL     1      -8.273   0.653   0.078  1.00  0.00     0.120 A 
HETATM   25  F2  UNL     1      -9.465   0.729   0.717  1.00  0.00    -0.206 F 
HETATM   26  C12 UNL     1      -7.077   0.461   0.741  1.00  0.00     0.056 A 
ENDBRANCH   8  19
BRANCH  14  27
HETATM   27  C16 UNL     1       4.789  -0.694  -1.446  1.00  0.00     0.030 C 
HETATM   28  C17 UNL     1       5.340   0.685  -1.880  1.00  0.00     0.014 C 
HETATM   29  C18 UNL     1       6.648   0.652  -1.147  1.00  0.00    -0.013 C 
HETATM   30  C19 UNL     1       6.137   0.254   0.254  1.00  0.00     0.010 C 
HETATM   31  C21 UNL     1       7.106  -0.786  -1.213  1.00  0.00     0.010 C 
HETATM   32  C20 UNL     1       5.795  -1.044  -0.441  1.00  0.00    -0.005 C 
ENDBRANCH  14  27
TORSDOF 3
