REMARK  6 active torsions:
REMARK  status: ('A' for Active; 'I' for Inactive)
REMARK       I    between atoms: C1_2  and  N1_3 
REMARK    1  A    between atoms: C1_2  and  C8_11 
REMARK    2  A    between atoms: N1_3  and  C2_5 
REMARK    3  A    between atoms: C2_5  and  C3_6 
REMARK    4  A    between atoms: C10_13  and  S1_14 
REMARK    5  A    between atoms: S1_14  and  N2_17 
REMARK       I    between atoms: N2_17  and  C11_19 
REMARK    6  A    between atoms: C11_19  and  C12_21 
ROOT
HETATM    1  S1  UNL     1      -0.607  -1.297   2.278  1.00  0.00     0.271 S 
HETATM    2  O2  UNL     1      -1.017  -1.220   3.738  1.00  0.00    -0.200 OA
HETATM    3  O3  UNL     1       0.079  -2.590   2.033  1.00  0.00    -0.200 OA
ENDROOT
BRANCH   1   4
HETATM    4  C10 UNL     1       0.506   0.063   2.028  1.00  0.00     0.123 A 
HETATM    5  C9  UNL     1       1.806  -0.007   1.599  1.00  0.00     0.052 A 
HETATM    6  C8  UNL     1       2.472   1.164   1.474  1.00  0.00     0.062 A 
HETATM    7  C22 UNL     1       1.787   2.303   1.787  1.00  0.00     0.091 A 
HETATM    8  S2  UNL     1       0.251   1.727   2.242  1.00  0.00    -0.063 SA
HETATM    9 CL1  UNL     1       2.383   3.979   1.728  1.00  0.00    -0.075 Cl
BRANCH   6  10
HETATM   10  C1  UNL     1       3.894   1.277   1.008  1.00  0.00     0.253 C 
HETATM   11  O1  UNL     1       4.824   1.249   1.839  1.00  0.00    -0.268 OA
HETATM   12  N1  UNL     1       4.176   1.413  -0.363  1.00  0.00    -0.356 N 
ATOM     13  H1  UNL     1       3.404   1.438  -1.029  1.00  0.00     0.162 HD
BRANCH  12  14
HETATM   14  C2  UNL     1       5.515   1.517  -0.847  1.00  0.00     0.127 C 
BRANCH  14  15
HETATM   15  C3  UNL     1       6.297   0.291  -0.518  1.00  0.00     0.003 C 
HETATM   16  C4  UNL     1       7.717   0.486  -1.078  1.00  0.00     0.006 C 
HETATM   17  C5  UNL     1       8.187  -0.949  -1.151  1.00  0.00     0.000 C 
HETATM   18  C6  UNL     1       7.008  -1.637  -1.804  1.00  0.00     0.000 C 
HETATM   19  C7  UNL     1       5.809  -0.935  -1.242  1.00  0.00     0.006 C 
ENDBRANCH  14  15
ENDBRANCH  12  14
ENDBRANCH   6  10
ENDBRANCH   1   4
BRANCH   1  20
HETATM   20  N2  UNL     1      -1.962  -1.133   1.235  1.00  0.00    -0.249 N 
HETATM   21  C11 UNL     1      -2.881  -0.059   1.299  1.00  0.00     0.240 C 
HETATM   22  O4  UNL     1      -2.733   0.839   2.145  1.00  0.00    -0.272 OA
ATOM     23  H2  UNL     1      -2.113  -1.852   0.528  1.00  0.00     0.182 HD
BRANCH  21  24
HETATM   24  C12 UNL     1      -4.022   0.001   0.362  1.00  0.00     0.043 C 
HETATM   25  C13 UNL     1      -4.889  -1.221   0.675  1.00  0.00     0.024 C 
HETATM   26  C14 UNL     1      -6.098  -1.290  -0.223  1.00  0.00    -0.013 C 
HETATM   27  C15 UNL     1      -5.615  -1.380  -1.657  1.00  0.00     0.009 C 
HETATM   28  C19 UNL     1      -6.934  -0.048  -0.078  1.00  0.00     0.009 C 
HETATM   29  C16 UNL     1      -4.777  -0.178  -1.984  1.00  0.00    -0.013 C 
HETATM   30  C17 UNL     1      -5.524   1.111  -1.794  1.00  0.00     0.009 C 
HETATM   31  C21 UNL     1      -3.573  -0.170  -1.066  1.00  0.00     0.024 C 
HETATM   32  C18 UNL     1      -6.055   1.149  -0.368  1.00  0.00    -0.013 C 
HETATM   33  C20 UNL     1      -4.872   1.220   0.561  1.00  0.00     0.024 C 
ENDBRANCH  21  24
ENDBRANCH   1  20
TORSDOF 6
