REMARK  13 active torsions:
REMARK  status: ('A' for Active; 'I' for Inactive)
REMARK    1  A    between atoms: N1_2  and  C2_3 
REMARK    2  A    between atoms: N1_2  and  C10_12 
REMARK    3  A    between atoms: C2_3  and  C3_4 
REMARK    4  A    between atoms: C3_4  and  C4_5 
REMARK    5  A    between atoms: C10_12  and  C11_18 
REMARK    6  A    between atoms: N3_13  and  N4_15 
REMARK    7  A    between atoms: N6_21  and  C12_22 
REMARK    8  A    between atoms: C12_22  and  C13_23 
REMARK    9  A    between atoms: C13_23  and  C14_24 
REMARK   10  A    between atoms: C14_24  and  C15_25 
REMARK   11  A    between atoms: C15_25  and  O1_27 
REMARK   12  A    between atoms: C15_25  and  C17_29 
REMARK   13  A    between atoms: C17_29  and  S1_30 
ROOT
HETATM    1  C11 UNL     1       0.021   0.233   0.436  1.00  0.00     0.169 A 
HETATM    2  N5  UNL     1      -1.166   0.387   1.039  1.00  0.00    -0.278 N 
ATOM      3  H5  UNL     1      -1.387   0.018   1.964  1.00  0.00     0.189 HD
HETATM    4  N6  UNL     1      -2.011   1.067   0.301  1.00  0.00    -0.275 N 
HETATM    5  C20 UNL     1      -1.344   1.365  -0.824  1.00  0.00     0.205 A 
HETATM    6  N7  UNL     1      -0.082   0.853  -0.753  1.00  0.00    -0.328 N 
HETATM    7  C21 UNL     1       0.884   1.013  -1.823  1.00  0.00     0.159 C 
ENDROOT
BRANCH   1   8
HETATM    8  C10 UNL     1       1.220  -0.445   0.911  1.00  0.00     0.164 C 
HETATM    9  N3  UNL     1       1.514  -0.359   2.158  1.00  0.00    -0.289 N 
ATOM     10  H3  UNL     1       2.353  -0.857   2.455  1.00  0.00     0.188 HD
BRANCH   8  11
HETATM   11  N1  UNL     1       2.088  -1.212   0.107  1.00  0.00    -0.367 N 
HETATM   12  C1  UNL     1       1.479  -2.375  -0.563  1.00  0.00     0.151 C 
BRANCH  11  13
HETATM   13  C2  UNL     1       3.471  -1.001  -0.136  1.00  0.00     0.128 C 
BRANCH  13  14
HETATM   14  C3  UNL     1       4.096   0.163   0.553  1.00  0.00     0.058 C 
BRANCH  14  15
HETATM   15  C4  UNL     1       5.560   0.282   0.207  1.00  0.00    -0.054 A 
HETATM   16  C5  UNL     1       5.998   1.021  -0.869  1.00  0.00     0.024 A 
HETATM   17  C6  UNL     1       7.362   1.100  -1.146  1.00  0.00     0.090 A 
HETATM   18  N2  UNL     1       8.274   0.472  -0.390  1.00  0.00    -0.371 N 
HETATM   19  C7  UNL     1       9.701   0.531  -0.647  1.00  0.00     0.154 C 
HETATM   20  C8  UNL     1       7.824  -0.247   0.660  1.00  0.00     0.090 A 
HETATM   21  C9  UNL     1       6.503  -0.366   0.987  1.00  0.00     0.024 A 
ENDBRANCH  14  15
ENDBRANCH  13  14
ENDBRANCH  11  13
ENDBRANCH   8  11
BRANCH   9  22
HETATM   22  N4  UNL     1       0.839   0.319   3.138  1.00  0.00    -0.344 N 
ATOM     23  H42 UNL     1       0.003   0.810   2.821  1.00  0.00     0.176 HD
ATOM     24  H41 UNL     1       1.073   0.387   4.129  1.00  0.00     0.176 HD
ENDBRANCH   9  22
ENDBRANCH   1   8
BRANCH   4  25
HETATM   25  C12 UNL     1      -3.379   1.434   0.608  1.00  0.00     0.243 C 
BRANCH  25  26
HETATM   26  C13 UNL     1      -4.328   0.415   0.158  1.00  0.00    -0.082 C 
BRANCH  26  27
HETATM   27  C14 UNL     1      -5.129  -0.437  -0.198  1.00  0.00    -0.066 C 
BRANCH  27  28
HETATM   28  C15 UNL     1      -6.056  -1.473  -0.616  1.00  0.00     0.125 C 
HETATM   29  C16 UNL     1      -6.798  -2.053   0.572  1.00  0.00     0.061 C 
BRANCH  28  30
HETATM   30  O1  UNL     1      -5.341  -2.567  -1.164  1.00  0.00    -0.377 OA
ATOM     31  H1  UNL     1      -5.948  -3.245  -1.438  1.00  0.00     0.211 HD
ENDBRANCH  28  30
BRANCH  28  32
HETATM   32  C17 UNL     1      -6.971  -1.000  -1.685  1.00  0.00     0.114 C 
BRANCH  32  33
HETATM   33  S1  UNL     1      -8.008   0.339  -1.317  1.00  0.00    -0.215 SA
HETATM   34  C18 UNL     1      -7.632   1.893  -0.862  1.00  0.00     0.073 A 
HETATM   35  C19 UNL     1      -8.481   0.970   0.105  1.00  0.00     0.073 A 
ENDBRANCH  32  33
ENDBRANCH  28  32
ENDBRANCH  27  28
ENDBRANCH  26  27
ENDBRANCH  25  26
ENDBRANCH   4  25
TORSDOF 13
