REMARK  9 active torsions:
REMARK  status: ('A' for Active; 'I' for Inactive)
REMARK    1  A    between atoms: N2_6  and  C5_7 
REMARK    2  A    between atoms: C5_7  and  O1_8 
REMARK    3  A    between atoms: C5_7  and  N3_10 
REMARK    4  A    between atoms: N3_10  and  C6_11 
REMARK    5  A    between atoms: N4_14  and  C9_15 
REMARK    6  A    between atoms: C9_15  and  C10_16 
REMARK    7  A    between atoms: C10_16  and  C11_17 
REMARK    8  A    between atoms: C10_16  and  N6_20 
REMARK    9  A    between atoms: C18_27  and  C19_28 
ROOT
HETATM    1  C6  UNL     1      -0.466   0.788  -1.468  1.00  0.00     0.129 A 
HETATM    2  C7  UNL     1      -0.094   2.043  -0.969  1.00  0.00     0.063 A 
HETATM    3  C8  UNL     1       1.165   2.328  -0.561  1.00  0.00     0.094 A 
HETATM    4  N4  UNL     1       2.137   1.372  -0.625  1.00  0.00    -0.363 N 
HETATM    5  C17 UNL     1       1.837   0.168  -1.092  1.00  0.00     0.110 A 
HETATM    6  C18 UNL     1       0.544  -0.164  -1.528  1.00  0.00     0.085 A 
ENDROOT
BRANCH   1   7
HETATM    7  N3  UNL     1      -1.796   0.474  -1.681  1.00  0.00    -0.364 NA
BRANCH   7   8
HETATM    8  C5  UNL     1      -3.072   0.175  -1.886  1.00  0.00     0.296 C 
BRANCH   8   9
HETATM    9  N2  UNL     1      -3.795  -1.011  -1.495  1.00  0.00    -0.333 N 
HETATM   10  C4  UNL     1      -5.152  -1.284  -1.902  1.00  0.00     0.155 C 
HETATM   11  C3  UNL     1      -5.783  -2.142  -0.807  1.00  0.00     0.256 C 
HETATM   12  N1  UNL     1      -5.408  -1.739   0.520  1.00  0.00    -0.072 N 
HETATM   13  C1  UNL     1      -5.962  -2.728   1.428  1.00  0.00     0.272 C 
HETATM   14  C2  UNL     1      -5.995  -0.444   0.872  1.00  0.00     0.272 C 
HETATM   15  C21 UNL     1      -3.986  -1.741   0.737  1.00  0.00     0.256 C 
HETATM   16  C20 UNL     1      -3.207  -1.943  -0.579  1.00  0.00     0.155 C 
ENDBRANCH   8   9
BRANCH   8  17
HETATM   17  O1  UNL     1      -3.903   0.994  -2.519  1.00  0.00    -0.321 OA
ATOM     18  H1  UNL     1      -3.427   1.775  -2.776  1.00  0.00     0.222 HD
ENDBRANCH   8  17
ENDBRANCH   7   8
ENDBRANCH   1   7
BRANCH   6  19
HETATM   19  C19 UNL     1       0.387  -1.428  -2.173  1.00  0.00     0.269 C 
HETATM   20  N7  UNL     1       1.385  -2.426  -2.139  1.00  0.00    -0.057 NA
HETATM   21  O3  UNL     1      -0.670  -1.706  -2.814  1.00  0.00    -0.271 OA
ENDBRANCH   6  19
BRANCH   4  22
HETATM   22  C9  UNL     1       3.475   1.714  -0.220  1.00  0.00     0.162 C 
BRANCH  22  23
HETATM   23  C10 UNL     1       3.736   1.520   1.228  1.00  0.00     0.196 C 
BRANCH  23  24
HETATM   24  C11 UNL     1       3.566   0.126   1.644  1.00  0.00     0.256 C 
HETATM   25  N5  UNL     1       4.412  -0.885   1.158  1.00  0.00    -0.060 NA
HETATM   26  O2  UNL     1       2.658  -0.223   2.451  1.00  0.00    -0.274 OA
ENDBRANCH  23  24
BRANCH  23  27
HETATM   27  N6  UNL     1       5.040   2.006   1.633  1.00  0.00    -0.352 N 
HETATM   28  C12 UNL     1       5.202   2.788   2.741  1.00  0.00     0.091 A 
HETATM   29  C13 UNL     1       6.433   3.252   3.152  1.00  0.00     0.017 A 
HETATM   30  C14 UNL     1       7.561   2.924   2.428  1.00  0.00     0.003 A 
HETATM   31  C15 UNL     1       7.394   2.128   1.302  1.00  0.00     0.017 A 
HETATM   32  C16 UNL     1       6.145   1.695   0.939  1.00  0.00     0.091 A 
ENDBRANCH  23  27
ENDBRANCH  22  23
ENDBRANCH   4  22
TORSDOF 9
