REMARK  5 active torsions:
REMARK  status: ('A' for Active; 'I' for Inactive)
REMARK    1  A    between atoms: C2_2  and  O1_3 
REMARK    2  A    between atoms: O1_3  and  C3_4 
REMARK       I    between atoms: C3_4  and  N1_6 
REMARK    3  A    between atoms: N1_6  and  C4_8 
REMARK    4  A    between atoms: C4_8  and  C5_9 
REMARK       I    between atoms: N2_14  and  C10_15 
REMARK    5  A    between atoms: C10_15  and  C11_17 
ROOT
HETATM    1  C5  UNL     1       1.651  -0.638   0.250  1.00  0.00     0.105 C 
HETATM    2  C6  UNL     1       1.943  -2.140   0.257  1.00  0.00     0.027 C 
HETATM    3  C7  UNL     1       1.622  -2.765  -1.070  1.00  0.00     0.004 C 
HETATM    4  C8  UNL     1       0.286  -2.323  -1.613  1.00  0.00     0.020 C 
HETATM    5  C9  UNL     1       0.201  -0.783  -1.649  1.00  0.00     0.126 C 
HETATM    6  N2  UNL     1       0.336  -0.369  -0.268  1.00  0.00    -0.345 N 
HETATM    7  C10 UNL     1      -0.670   0.203   0.460  1.00  0.00     0.229 C 
HETATM    8  O3  UNL     1      -0.377   0.495   1.691  1.00  0.00    -0.272 OA
ENDROOT
BRANCH   1   9
HETATM    9  C4  UNL     1       2.063  -0.053   1.528  1.00  0.00     0.150 C 
BRANCH   9  10
HETATM   10  N1  UNL     1       3.492  -0.252   1.732  1.00  0.00    -0.335 N 
HETATM   11  C3  UNL     1       4.495   0.297   0.904  1.00  0.00     0.360 C 
HETATM   12  O2  UNL     1       4.239   1.017  -0.082  1.00  0.00    -0.239 OA
ATOM     13  H1  UNL     1       3.786  -0.824   2.523  1.00  0.00     0.164 HD
BRANCH  11  14
HETATM   14  O1  UNL     1       5.854   0.071   1.131  1.00  0.00    -0.304 OA
BRANCH  14  15
HETATM   15  C2  UNL     1       6.852   0.627   0.292  1.00  0.00     0.176 C 
HETATM   16  C1  UNL     1       6.732   0.189  -1.127  1.00  0.00     0.034 C 
ENDBRANCH  14  15
ENDBRANCH  11  14
ENDBRANCH   9  10
ENDBRANCH   1   9
BRANCH   7  17
HETATM   17  C11 UNL     1      -2.061   0.569   0.130  1.00  0.00     0.042 C 
HETATM   18  C12 UNL     1      -2.270   1.526  -0.967  1.00  0.00     0.024 C 
HETATM   19  C13 UNL     1      -3.782   1.751  -1.123  1.00  0.00    -0.013 C 
HETATM   20  C14 UNL     1      -4.533   0.471  -1.342  1.00  0.00     0.009 C 
HETATM   21  C18 UNL     1      -4.352   2.416   0.103  1.00  0.00     0.009 C 
HETATM   22  C15 UNL     1      -4.344  -0.449  -0.146  1.00  0.00    -0.013 C 
HETATM   23  C16 UNL     1      -4.776   0.205   1.127  1.00  0.00     0.009 C 
HETATM   24  C20 UNL     1      -2.848  -0.702  -0.063  1.00  0.00     0.024 C 
HETATM   25  C17 UNL     1      -4.072   1.521   1.289  1.00  0.00    -0.013 C 
HETATM   26  C19 UNL     1      -2.609   1.302   1.396  1.00  0.00     0.024 C 
ENDBRANCH   7  17
TORSDOF 5
