REMARK  1 active torsions:
REMARK  status: ('A' for Active; 'I' for Inactive)
REMARK    1  A    between atoms: S1_2  and  N1_3 
ROOT
HETATM    1  C1  UNL     1      -1.940  -0.474  -0.443  1.00  0.00     0.117 C 
HETATM    2  S1  UNL     1      -0.204   0.364  -0.246  1.00  0.00    -0.074 SA
HETATM    3  C2  UNL     1       0.936  -0.562   1.502  1.00  0.00     0.153 A 
HETATM    4  N2  UNL     1       1.708  -1.074   0.780  1.00  0.00    -0.355 N 
ATOM      5  H2  UNL     1       2.397  -1.603   1.314  1.00  0.00     0.166 HD
HETATM    6  C3  UNL     1       1.954  -1.172  -0.512  1.00  0.00     0.187 A 
HETATM    7  N3  UNL     1       1.236  -0.601  -1.404  1.00  0.00    -0.325 N 
ATOM      8  H3  UNL     1       1.341  -0.614  -2.418  1.00  0.00     0.175 HD
ENDROOT
BRANCH   2   9
HETATM    9  N1  UNL     1       0.004   2.249  -0.172  1.00  0.00    -0.372 N 
ATOM     10  H12 UNL     1      -0.835   2.825  -0.240  1.00  0.00     0.164 HD
ATOM     11  H11 UNL     1       0.918   2.690  -0.068  1.00  0.00     0.164 HD
ENDBRANCH   2   9
TORSDOF 1
