REMARK  13 active torsions:
REMARK  status: ('A' for Active; 'I' for Inactive)
REMARK    1  A    between atoms: N1_1  and  C1_4 
REMARK    2  A    between atoms: N4_12  and  N5_13 
REMARK    3  A    between atoms: N6_19  and  C6_20 
REMARK    4  A    between atoms: C7_21  and  O3_22 
REMARK    5  A    between atoms: C8_24  and  C9_25 
REMARK    6  A    between atoms: C9_25  and  O4_26 
REMARK    7  A    between atoms: C9_25  and  C10_28 
REMARK    8  A    between atoms: C10_28  and  O5_29 
REMARK    9  A    between atoms: C10_28  and  C11_31 
REMARK   10  A    between atoms: C11_31  and  O6_32 
REMARK   11  A    between atoms: C11_31  and  C12_34 
REMARK   12  A    between atoms: C12_34  and  O7_35 
REMARK   13  A    between atoms: C13_38  and  N7_39 
ROOT
HETATM    1  C6  UNL     1      -0.624   0.184   0.938  1.00  0.00     0.189 C 
HETATM    2  C7  UNL     1       0.696  -0.248   1.416  1.00  0.00     0.178 C 
HETATM    3  C8  UNL     1       1.677   0.581   0.704  1.00  0.00     0.186 C 
HETATM    4  O8  UNL     1       1.056   1.792   0.571  1.00  0.00    -0.353 OA
HETATM    5  C13 UNL     1      -0.322   1.541   0.424  1.00  0.00     0.259 C 
ENDROOT
BRANCH   1   6
HETATM    6  N6  UNL     1      -1.355  -0.733   0.126  1.00  0.00    -0.163 N 
HETATM    7  C1  UNL     1      -0.890  -1.713  -0.664  1.00  0.00     0.681 A 
HETATM    8  N2  UNL     1      -1.935  -2.325  -1.232  1.00  0.00    -0.174 N 
HETATM    9  C2  UNL     1      -3.089  -1.733  -0.800  1.00  0.00     0.158 A 
ATOM     10  H2  UNL     1      -1.880  -3.108  -1.883  1.00  0.00     0.186 HD
HETATM   11  N3  UNL     1      -4.369  -2.020  -1.093  1.00  0.00    -0.290 N 
HETATM   12  C5  UNL     1      -2.724  -0.723   0.063  1.00  0.00     0.167 A 
HETATM   13  C3  UNL     1      -5.329  -1.285  -0.514  1.00  0.00     0.349 A 
ATOM     14  H3  UNL     1      -4.603  -2.775  -1.737  1.00  0.00     0.172 HD
HETATM   15  O1  UNL     1      -6.554  -1.515  -0.758  1.00  0.00    -0.244 OA
HETATM   16  N4  UNL     1      -5.015  -0.293   0.334  1.00  0.00    -0.173 N 
HETATM   17  C4  UNL     1      -3.736   0.013   0.644  1.00  0.00     0.301 A 
HETATM   18  O2  UNL     1      -3.462   0.938   1.440  1.00  0.00    -0.263 OA
BRANCH   7  19
HETATM   19  N1  UNL     1       0.321  -2.092  -0.890  1.00  0.00    -0.234 N 
ATOM     20  H12 UNL     1       0.674  -2.837  -1.490  1.00  0.00     0.174 HD
ATOM     21  H11 UNL     1       1.118  -1.625  -0.457  1.00  0.00     0.174 HD
ENDBRANCH   7  19
BRANCH  16  22
HETATM   22  N5  UNL     1      -6.020   0.466   0.934  1.00  0.00    -0.332 N 
ATOM     23  H52 UNL     1      -6.986   0.235   0.700  1.00  0.00     0.177 HD
ATOM     24  H51 UNL     1      -5.781   1.220   1.578  1.00  0.00     0.177 HD
ENDBRANCH  16  22
ENDBRANCH   1   6
BRANCH   2  25
HETATM   25  O3  UNL     1       0.807   0.151   2.785  1.00  0.00    -0.391 OA
ATOM     26  H3  UNL     1       1.661  -0.128   3.094  1.00  0.00     0.210 HD
ENDBRANCH   2  25
BRANCH   5  27
HETATM   27  N7  UNL     1      -0.750   1.986  -0.839  1.00  0.00    -0.280 N 
HETATM   28  C14 UNL     1      -0.320   1.475  -1.984  1.00  0.00     0.104 A 
HETATM   29  C15 UNL     1      -0.739   1.924  -3.249  1.00  0.00     0.092 A 
HETATM   30  C16 UNL     1      -1.637   2.943  -3.289  1.00  0.00     0.250 A 
HETATM   31  O9  UNL     1      -2.081   3.423  -4.390  1.00  0.00    -0.268 OA
HETATM   32  N8  UNL     1      -2.071   3.462  -2.130  1.00  0.00    -0.275 N 
HETATM   33  C17 UNL     1      -1.635   2.993  -0.945  1.00  0.00     0.331 A 
ATOM     34  H8  UNL     1      -2.745   4.227  -2.147  1.00  0.00     0.173 HD
HETATM   35  O10 UNL     1      -2.113   3.566   0.067  1.00  0.00    -0.246 OA
ENDBRANCH   5  27
BRANCH   3  36
HETATM   36  C9  UNL     1       2.989   0.726   1.505  1.00  0.00     0.181 C 
BRANCH  36  37
HETATM   37  O4  UNL     1       3.812   1.604   0.805  1.00  0.00    -0.390 OA
ATOM     38  H4  UNL     1       4.619   1.693   1.298  1.00  0.00     0.210 HD
ENDBRANCH  36  37
BRANCH  36  39
HETATM   39  C10 UNL     1       3.690  -0.585   1.628  1.00  0.00     0.180 C 
BRANCH  39  40
HETATM   40  O5  UNL     1       4.890  -0.333   2.331  1.00  0.00    -0.390 OA
ATOM     41  H5  UNL     1       5.336  -1.168   2.409  1.00  0.00     0.210 HD
ENDBRANCH  39  40
BRANCH  39  42
HETATM   42  C11 UNL     1       4.134  -1.088   0.260  1.00  0.00     0.173 C 
BRANCH  42  43
HETATM   43  O6  UNL     1       4.898  -0.158  -0.409  1.00  0.00    -0.391 OA
ATOM     44  H6  UNL     1       5.175  -0.472  -1.262  1.00  0.00     0.210 HD
ENDBRANCH  42  43
BRANCH  42  45
HETATM   45  C12 UNL     1       4.970  -2.349   0.440  1.00  0.00     0.198 C 
BRANCH  45  46
HETATM   46  O7  UNL     1       4.173  -3.272   1.118  1.00  0.00    -0.398 OA
ATOM     47  H7  UNL     1       4.694  -4.058   1.230  1.00  0.00     0.209 HD
ENDBRANCH  45  46
ENDBRANCH  42  45
ENDBRANCH  39  42
ENDBRANCH  36  39
ENDBRANCH   3  36
TORSDOF 13
