REMARK  3 active torsions:
REMARK  status: ('A' for Active; 'I' for Inactive)
REMARK    1  A    between atoms: C2_2  and  N1_3 
REMARK    2  A    between atoms: C7_11  and  N2_12 
REMARK    3  A    between atoms: C7_11  and  N3_16 
ROOT
HETATM    1  C1  UNL     1       1.876   0.555  -0.180  1.00  0.00     0.051 C 
HETATM    2  C2  UNL     1       0.694  -0.202   0.376  1.00  0.00     0.176 C 
HETATM    3  C3  UNL     1       0.428  -1.479  -0.351  1.00  0.00     0.026 C 
HETATM    4  C4  UNL     1      -1.075  -1.712  -0.223  1.00  0.00     0.016 C 
HETATM    5  C5  UNL     1      -1.142  -0.393  -1.013  1.00  0.00     0.047 C 
HETATM    6  C6  UNL     1       0.059  -0.971  -1.751  1.00  0.00     0.016 C 
HETATM    7  C7  UNL     1      -0.594   0.559   0.000  1.00  0.00     0.244 C 
ENDROOT
BRANCH   7   8
HETATM    8  N2  UNL     1      -1.467   0.539   1.163  1.00  0.00    -0.049 N 
ATOM      9  H23 UNL     1      -1.648  -0.403   1.509  1.00  0.00     0.277 HD
ATOM     10  H22 UNL     1      -1.019   0.905   2.003  1.00  0.00     0.277 HD
ATOM     11  H21 UNL     1      -2.319   1.042   0.914  1.00  0.00     0.277 HD
ENDBRANCH   7   8
BRANCH   7  12
HETATM   12  N3  UNL     1      -0.326   1.855  -0.481  1.00  0.00    -0.305 N 
HETATM   13  N4  UNL     1      -0.538   2.821   0.302  1.00  0.00    -0.347 N 
ATOM     14  H42 UNL     1      -0.890   2.653   1.244  1.00  0.00     0.176 HD
ATOM     15  H41 UNL     1      -0.344   3.760  -0.046  1.00  0.00     0.176 HD
ATOM     16  H3  UNL     1       0.026   2.007  -1.426  1.00  0.00     0.182 HD
ENDBRANCH   7  12
BRANCH   2  17
HETATM   17  N1  UNL     1       0.760  -0.351   1.807  1.00  0.00    -0.066 N 
ATOM     18  H13 UNL     1       1.639  -0.783   2.091  1.00  0.00     0.275 HD
ATOM     19  H12 UNL     1       0.866   0.554   2.266  1.00  0.00     0.275 HD
ATOM     20  H11 UNL     1      -0.039  -0.862   2.183  1.00  0.00     0.275 HD
ENDBRANCH   2  17
TORSDOF 3
