REMARK  13 active torsions:
REMARK  status: ('A' for Active; 'I' for Inactive)
REMARK    1  A    between atoms: C2_2  and  C4_4 
REMARK    2  A    between atoms: C4_4  and  N1_5 
REMARK    3  A    between atoms: C4_4  and  C11_15 
REMARK       I    between atoms: N1_5  and  C5_7 
REMARK    4  A    between atoms: C5_7  and  C6_9 
REMARK       I    between atoms: C11_15  and  N2_17 
REMARK       I    between atoms: N3_20  and  C14_21 
REMARK       I    between atoms: C14_21  and  N4_23 
REMARK    5  A    between atoms: N4_23  and  S1_25 
REMARK    6  A    between atoms: S1_25  and  C15_28 
REMARK    7  A    between atoms: C16_29  and  O7_30 
REMARK    8  A    between atoms: C16_29  and  N5_32 
REMARK    9  A    between atoms: C19_35  and  O8_36 
REMARK   10  A    between atoms: O8_36  and  C20_37 
REMARK   11  A    between atoms: C20_37  and  O9_38 
REMARK   12  A    between atoms: C20_37  and  N6_40 
REMARK   13  A    between atoms: N6_40  and  C21_41 
ROOT
HETATM    1  C21 UNL     1      11.308  -2.019   1.071  1.00  0.00     0.185 A 
HETATM    2  C22 UNL     1      12.219  -2.006   2.261  1.00  0.00     0.105 C 
HETATM    3  N7  UNL     1      12.942  -1.990   3.161  1.00  0.00    -0.193 NA
HETATM    4  C23 UNL     1      10.818  -3.379   0.725  1.00  0.00     0.066 A 
HETATM    5  C24 UNL     1      11.885  -2.781  -0.137  1.00  0.00     0.066 A 
ENDROOT
BRANCH   1   6
HETATM    6  N6  UNL     1      10.622  -0.852   0.787  1.00  0.00    -0.377 NA
BRANCH   6   7
HETATM    7  C20 UNL     1       9.950   0.294   0.507  1.00  0.00     0.337 C 
BRANCH   7   8
HETATM    8  O8  UNL     1       8.648   0.511   0.408  1.00  0.00    -0.300 OA
BRANCH   8   9
HETATM    9  C19 UNL     1       7.397   0.765   0.302  1.00  0.00     0.137 C 
HETATM   10  C18 UNL     1       6.533   0.478   1.537  1.00  0.00     0.052 C 
HETATM   11  C17 UNL     1       5.154   0.972   1.185  1.00  0.00     0.128 C 
HETATM   12  N5  UNL     1       4.600   0.224   0.007  1.00  0.00    -0.353 N 
HETATM   13  C26 UNL     1       5.438   0.324  -1.138  1.00  0.00     0.029 C 
HETATM   14  C25 UNL     1       6.808  -0.209  -0.754  1.00  0.00     0.063 C 
HETATM   15  C27 UNL     1       5.063  -0.447  -2.368  1.00  0.00     0.038 C 
HETATM   16  C28 UNL     1       5.654   1.785  -1.584  1.00  0.00     0.038 C 
BRANCH  12  17
HETATM   17  C16 UNL     1       3.386  -0.436   0.158  1.00  0.00     0.151 C 
HETATM   18  C15 UNL     1       2.497  -1.323  -0.510  1.00  0.00     0.187 C 
BRANCH  18  19
HETATM   19  S1  UNL     1       1.270  -0.795  -1.614  1.00  0.00     0.260 S 
HETATM   20  O5  UNL     1       0.382  -2.067  -1.879  1.00  0.00    -0.201 OA
HETATM   21  O6  UNL     1       1.693  -0.411  -2.989  1.00  0.00    -0.201 OA
BRANCH  19  22
HETATM   22  N4  UNL     1       0.174   0.363  -0.975  1.00  0.00    -0.232 N 
HETATM   23  C14 UNL     1      -0.591   0.196   0.203  1.00  0.00     0.332 C 
HETATM   24  N3  UNL     1      -1.478   1.218   0.621  1.00  0.00    -0.327 N 
HETATM   25  O4  UNL     1      -0.447  -0.883   0.851  1.00  0.00    -0.246 OA
HETATM   26  C13 UNL     1      -1.653   2.460  -0.073  1.00  0.00     0.148 C 
HETATM   27  C29 UNL     1      -2.279   1.030   1.794  1.00  0.00     0.172 C 
HETATM   28  C12 UNL     1      -3.047   2.481  -0.702  1.00  0.00     0.151 C 
HETATM   29  N2  UNL     1      -3.992   1.942   0.284  1.00  0.00    -0.327 N 
HETATM   30  C11 UNL     1      -5.319   1.698  -0.214  1.00  0.00     0.246 C 
HETATM   31  C30 UNL     1      -3.648   1.624   1.613  1.00  0.00     0.086 C 
HETATM   32  O3  UNL     1      -5.408   1.800  -1.506  1.00  0.00    -0.271 OA
ATOM     33  H4  UNL     1       0.066   1.240  -1.485  1.00  0.00     0.183 HD
BRANCH  30  34
HETATM   34  C4  UNL     1      -6.473   1.379   0.579  1.00  0.00     0.180 C 
BRANCH  34  35
HETATM   35  C2  UNL     1      -7.465   2.593   0.622  1.00  0.00     0.009 C 
HETATM   36  C1  UNL     1      -8.037   2.893  -0.719  1.00  0.00     0.012 C 
HETATM   37  C3  UNL     1      -6.650   3.787   1.071  1.00  0.00     0.012 C 
ENDBRANCH  34  35
BRANCH  34  38
HETATM   38  N1  UNL     1      -7.295   0.246   0.073  1.00  0.00    -0.347 N 
HETATM   39  C5  UNL     1      -8.139  -0.479   0.902  1.00  0.00     0.224 C 
HETATM   40  O1  UNL     1      -8.201  -0.152   2.148  1.00  0.00    -0.273 OA
ATOM     41  H1  UNL     1      -7.236  -0.005  -0.914  1.00  0.00     0.163 HD
BRANCH  39  42
HETATM   42  C6  UNL     1      -8.981  -1.602   0.484  1.00  0.00     0.102 C 
HETATM   43  C7  UNL     1      -8.659  -2.894   1.196  1.00  0.00     0.018 C 
HETATM   44  C8  UNL     1      -7.768  -3.739   0.303  1.00  0.00     0.027 C 
HETATM   45  C9  UNL     1      -8.581  -4.138  -0.928  1.00  0.00     0.167 C 
HETATM   46  O2  UNL     1      -9.516  -3.141  -1.213  1.00  0.00    -0.390 OA
HETATM   47  C10 UNL     1      -9.041  -1.853  -0.982  1.00  0.00     0.181 C 
ENDBRANCH  39  42
ENDBRANCH  34  38
ENDBRANCH  30  34
ENDBRANCH  19  22
ENDBRANCH  18  19
BRANCH  17  48
HETATM   48  O7  UNL     1       2.875  -0.137   1.403  1.00  0.00    -0.346 OA
ATOM     49  H7  UNL     1       3.469   0.455   1.849  1.00  0.00     0.219 HD
ENDBRANCH  17  48
ENDBRANCH  12  17
ENDBRANCH   8   9
ENDBRANCH   7   8
BRANCH   7  50
HETATM   50  O9  UNL     1      10.517   1.459   0.267  1.00  0.00    -0.316 OA
ATOM     51  H9  UNL     1      11.451   1.303   0.338  1.00  0.00     0.222 HD
ENDBRANCH   7  50
ENDBRANCH   6   7
ENDBRANCH   1   6
TORSDOF 13
