REMARK  6 active torsions:
REMARK  status: ('A' for Active; 'I' for Inactive)
REMARK    1  A    between atoms: C2_2  and  C3_3 
REMARK    2  A    between atoms: C3_3  and  C4_4 
REMARK    3  A    between atoms: C4_4  and  C5_5 
REMARK    4  A    between atoms: C5_5  and  C6_6 
REMARK    5  A    between atoms: N1_8  and  N2_10 
REMARK       I    between atoms: N2_10  and  C8_12 
REMARK       I    between atoms: N4_14  and  C9_16 
REMARK    6  A    between atoms: C9_16  and  C10_18 
ROOT
HETATM    1  N2  UNL     1       1.361   0.972   0.949  1.00  0.00    -0.274 N 
ATOM      2  H2  UNL     1       1.232   1.981   1.028  1.00  0.00     0.189 HD
HETATM    3  C8  UNL     1       0.397   0.180   0.299  1.00  0.00     0.209 C 
HETATM    4  N3  UNL     1       0.440   0.054  -1.116  1.00  0.00    -0.062 NA
HETATM    5  N4  UNL     1      -0.518  -0.425   0.978  1.00  0.00    -0.300 N 
ATOM      6  H4  UNL     1      -0.520  -0.313   1.992  1.00  0.00     0.171 HD
HETATM    7  C9  UNL     1      -1.514  -1.232   0.396  1.00  0.00     0.230 C 
HETATM    8  O1  UNL     1      -1.452  -2.470   0.509  1.00  0.00    -0.273 OA
ENDROOT
BRANCH   7   9
HETATM    9  C10 UNL     1      -2.627  -0.610  -0.344  1.00  0.00     0.101 C 
HETATM   10  C11 UNL     1      -3.563  -1.597  -0.876  1.00  0.00     0.020 C 
HETATM   11  C12 UNL     1      -5.006  -1.235  -0.900  1.00  0.00    -0.011 C 
HETATM   12  C13 UNL     1      -5.313   0.071  -1.545  1.00  0.00     0.009 C 
HETATM   13  C17 UNL     1      -5.653  -1.383   0.475  1.00  0.00     0.029 C 
HETATM   14  C14 UNL     1      -5.273   1.256  -0.646  1.00  0.00    -0.010 C 
HETATM   15  C15 UNL     1      -6.037   1.032   0.635  1.00  0.00     0.029 C 
HETATM   16  C19 UNL     1      -3.847   1.569  -0.269  1.00  0.00     0.030 C 
HETATM   17  C16 UNL     1      -5.418  -0.163   1.320  1.00  0.00     0.077 C 
HETATM   18  N5  UNL     1      -4.033  -0.033   1.596  1.00  0.00    -0.412 N 
HETATM   19  C18 UNL     1      -3.218   0.462   0.536  1.00  0.00     0.090 C 
ATOM     20  H5  UNL     1      -3.641  -0.280   2.504  1.00  0.00     0.154 HD
ENDBRANCH   7   9
BRANCH   1  21
HETATM   21  N1  UNL     1       2.492   0.364   1.482  1.00  0.00    -0.307 N 
HETATM   22  C6  UNL     1       3.673   0.403   0.874  1.00  0.00    -0.000 C 
HETATM   23  C7  UNL     1       3.673   1.137  -0.393  1.00  0.00     0.065 C 
ATOM     24  H1  UNL     1       2.412  -0.129   2.371  1.00  0.00     0.186 HD
BRANCH  22  25
HETATM   25  C5  UNL     1       4.779  -0.285   1.556  1.00  0.00     0.053 C 
BRANCH  25  26
HETATM   26  C4  UNL     1       5.494  -1.324   0.778  1.00  0.00     0.006 C 
BRANCH  26  27
HETATM   27  C3  UNL     1       6.310  -0.939  -0.384  1.00  0.00     0.000 C 
BRANCH  27  28
HETATM   28  C2  UNL     1       7.550  -0.165  -0.157  1.00  0.00    -0.005 C 
HETATM   29  C1  UNL     1       7.517   1.133   0.523  1.00  0.00     0.005 C 
ENDBRANCH  27  28
ENDBRANCH  26  27
ENDBRANCH  25  26
ENDBRANCH  22  25
ENDBRANCH   1  21
TORSDOF 6
