REMARK  6 active torsions:
REMARK  status: ('A' for Active; 'I' for Inactive)
REMARK    1  A    between atoms: C6_6  and  C7_7 
REMARK    2  A    between atoms: C7_7  and  C8_8 
REMARK    3  A    between atoms: C8_8  and  N1_9 
REMARK       I    between atoms: N1_9  and  C9_11 
REMARK    4  A    between atoms: C9_11  and  C10_13 
REMARK    5  A    between atoms: C10_13  and  N2_14 
REMARK    6  A    between atoms: C10_13  and  C14_21 
REMARK       I    between atoms: N2_14  and  C11_16 
REMARK       I    between atoms: C11_16  and  N3_18 
ROOT
HETATM    1  N1  UNL     1      -0.252   0.946  -1.191  1.00  0.00    -0.359 N 
ATOM      2  H1  UNL     1      -0.548   1.425  -2.042  1.00  0.00     0.162 HD
HETATM    3  C9  UNL     1      -1.262   0.639  -0.241  1.00  0.00     0.240 C 
HETATM    4  O1  UNL     1      -0.924   0.053   0.815  1.00  0.00    -0.271 OA
ENDROOT
BRANCH   1   5
HETATM    5  C8  UNL     1       1.140   0.647  -1.066  1.00  0.00     0.127 C 
BRANCH   5   6
HETATM    6  C7  UNL     1       1.448  -0.831  -0.948  1.00  0.00     0.058 C 
BRANCH   6   7
HETATM    7  C6  UNL     1       2.926  -1.035  -0.826  1.00  0.00    -0.050 A 
HETATM    8  C4  UNL     1       3.787  -0.941  -1.886  1.00  0.00    -0.055 A 
HETATM    9  C3  UNL     1       5.148  -1.153  -1.654  1.00  0.00     0.014 A 
HETATM   10  C5  UNL     1       3.291  -0.622  -3.244  1.00  0.00     0.049 C 
HETATM   11  C2  UNL     1       5.643  -1.449  -0.406  1.00  0.00    -0.056 A 
HETATM   12  C1  UNL     1       7.071  -1.664  -0.203  1.00  0.00     0.049 C 
HETATM   13  C18 UNL     1       4.784  -1.545   0.664  1.00  0.00    -0.056 A 
HETATM   14  C17 UNL     1       3.441  -1.339   0.446  1.00  0.00     0.015 A 
HETATM   15  C19 UNL     1       5.326  -1.860   1.985  1.00  0.00     0.049 C 
ENDBRANCH   6   7
ENDBRANCH   5   6
ENDBRANCH   1   5
BRANCH   3  16
HETATM   16  C10 UNL     1      -2.687   0.987  -0.463  1.00  0.00     0.181 C 
BRANCH  16  17
HETATM   17  N2  UNL     1      -3.453   0.546   0.665  1.00  0.00    -0.329 N 
HETATM   18  C11 UNL     1      -4.524  -0.363   0.605  1.00  0.00     0.318 C 
HETATM   19  O2  UNL     1      -4.865  -0.845  -0.493  1.00  0.00    -0.247 OA
HETATM   20  N3  UNL     1      -5.218  -0.738   1.772  1.00  0.00    -0.343 N 
HETATM   21  C12 UNL     1      -6.335  -1.688   1.713  1.00  0.00     0.154 C 
HETATM   22  C13 UNL     1      -4.817  -0.171   3.062  1.00  0.00     0.154 C 
ATOM     23  H2  UNL     1      -3.202   0.920   1.580  1.00  0.00     0.165 HD
ENDBRANCH  16  17
BRANCH  16  24
HETATM   24  C14 UNL     1      -2.761   2.480  -0.675  1.00  0.00     0.009 C 
HETATM   25  C15 UNL     1      -2.250   3.261   0.492  1.00  0.00     0.012 C 
HETATM   26  C16 UNL     1      -4.150   2.937  -1.061  1.00  0.00     0.012 C 
ENDBRANCH  16  24
ENDBRANCH   3  16
TORSDOF 6
