REMARK  2 active torsions:
REMARK  status: ('A' for Active; 'I' for Inactive)
REMARK    1  A    between atoms: N2_4  and  C1_6 
REMARK    2  A    between atoms: C1_6  and  C2_10 
ROOT
HETATM    1  C1  UNL     1       1.530  -0.232  -0.039  1.00  0.00     0.093 C 
HETATM    2  N3  UNL     1       2.512  -0.970   0.348  1.00  0.00    -0.388 N 
ATOM      3  H31 UNL     1       2.304  -1.692   1.038  1.00  0.00     0.157 HD
ATOM      4  H32 UNL     1       3.459  -0.849  -0.012  1.00  0.00     0.157 HD
ENDROOT
BRANCH   1   5
HETATM    5  N2  UNL     1       1.819   0.773  -1.000  1.00  0.00    -0.296 N 
HETATM    6  N1  UNL     1       2.353   1.846  -0.554  1.00  0.00    -0.344 N 
ATOM      7  H12 UNL     1       2.554   1.958   0.440  1.00  0.00     0.176 HD
ATOM      8  H11 UNL     1       2.561   2.568  -1.244  1.00  0.00     0.176 HD
ATOM      9  H2  UNL     1       1.612   0.646  -1.991  1.00  0.00     0.187 HD
ENDBRANCH   1   5
BRANCH   1  10
HETATM   10  C2  UNL     1       0.166  -0.406   0.479  1.00  0.00     0.054 C 
HETATM   11  C3  UNL     1      -0.890  -0.739  -0.562  1.00  0.00     0.012 C 
HETATM   12  C4  UNL     1      -1.802   0.253   0.156  1.00  0.00     0.002 C 
HETATM   13  C5  UNL     1      -0.571   0.924   0.697  1.00  0.00     0.012 C 
ENDBRANCH   1  10
TORSDOF 2
