REMARK  8 active torsions:
REMARK  status: ('A' for Active; 'I' for Inactive)
REMARK    1  A    between atoms: C2_2  and  C3_3 
REMARK    2  A    between atoms: C3_3  and  N1_4 
REMARK    3  A    between atoms: N1_4  and  C4_6 
REMARK    4  A    between atoms: C6_11  and  C7_12 
REMARK    5  A    between atoms: C7_12  and  O2_14 
REMARK    6  A    between atoms: O2_14  and  C8_15 
REMARK    7  A    between atoms: C12_19  and  C13_20 
REMARK    8  A    between atoms: C13_20  and  O4_22 
ROOT
HETATM    1  C4  UNL     1       1.310   0.229   0.084  1.00  0.00     0.123 A 
HETATM    2  N2  UNL     1       0.806   1.454   0.246  1.00  0.00    -0.331 N 
ATOM      3  H2  UNL     1       1.439   2.253   0.266  1.00  0.00     0.168 HD
HETATM    4  C5  UNL     1      -0.532   1.664   0.385  1.00  0.00     0.122 A 
HETATM    5 CL1  UNL     1      -1.104   3.296   0.592  1.00  0.00    -0.063 Cl
HETATM    6  C6  UNL     1      -1.454   0.632   0.369  1.00  0.00     0.085 A 
HETATM    7  C10 UNL     1      -0.961  -0.646   0.203  1.00  0.00    -0.022 A 
HETATM    8  C11 UNL     1      -1.961  -1.742   0.188  1.00  0.00     0.050 C 
HETATM    9  C12 UNL     1       0.378  -0.828   0.067  1.00  0.00     0.090 A 
ENDROOT
BRANCH   1  10
HETATM   10  N1  UNL     1       2.509  -0.010  -0.045  1.00  0.00    -0.355 N 
ATOM     11  H1  UNL     1       2.614  -1.019  -0.149  1.00  0.00     0.166 HD
BRANCH  10  12
HETATM   12  C3  UNL     1       3.763   0.548  -0.104  1.00  0.00     0.062 C 
BRANCH  12  13
HETATM   13  C2  UNL     1       3.930   2.031  -0.024  1.00  0.00     0.040 C 
HETATM   14  C1  UNL     1       5.433   2.323  -0.120  1.00  0.00     0.010 C 
ENDBRANCH  12  13
ENDBRANCH  10  12
ENDBRANCH   1  10
BRANCH   9  15
HETATM   15  C13 UNL     1       0.872  -2.200  -0.108  1.00  0.00     0.297 C 
HETATM   16  O3  UNL     1       0.969  -2.638  -1.273  1.00  0.00    -0.259 OA
BRANCH  15  17
HETATM   17  O4  UNL     1       1.226  -3.010   0.945  1.00  0.00    -0.322 OA
HETATM   18  C14 UNL     1       1.690  -4.318   0.673  1.00  0.00     0.213 C 
ENDBRANCH  15  17
ENDBRANCH   9  15
BRANCH   6  19
HETATM   19  C7  UNL     1      -2.891   0.890   0.522  1.00  0.00     0.297 C 
HETATM   20  O1  UNL     1      -3.379   0.892   1.659  1.00  0.00    -0.259 OA
BRANCH  19  21
HETATM   21  O2  UNL     1      -3.723   1.129  -0.532  1.00  0.00    -0.318 OA
BRANCH  21  22
HETATM   22  C8  UNL     1      -5.093   1.378  -0.433  1.00  0.00     0.174 C 
HETATM   23  C9  UNL     1      -5.898   0.298   0.187  1.00  0.00     0.034 C 
ENDBRANCH  21  22
ENDBRANCH  19  21
ENDBRANCH   6  19
TORSDOF 8
