REMARK  6 active torsions:
REMARK  status: ('A' for Active; 'I' for Inactive)
REMARK    1  A    between atoms: C2_2  and  C3_4 
REMARK    2  A    between atoms: C7_10  and  C8_11 
REMARK    3  A    between atoms: C8_11  and  S3_13 
REMARK    4  A    between atoms: S3_13  and  C9_14 
REMARK    5  A    between atoms: C9_14  and  C10_15 
REMARK    6  A    between atoms: C10_15  and  N2_16 
ROOT
HETATM    1  C3  UNL     1      -2.893  -0.385  -0.665  1.00  0.00     0.054 A 
HETATM    2  C4  UNL     1      -4.182  -0.931  -0.756  1.00  0.00     0.102 A 
HETATM    3  N1  UNL     1      -5.409  -0.247  -1.096  1.00  0.00    -0.093 NA
HETATM    4  S1  UNL     1      -3.972  -2.566  -0.379  1.00  0.00    -0.078 SA
HETATM    5  C5  UNL     1      -2.309  -2.584  -0.108  1.00  0.00    -0.006 A 
HETATM    6  C6  UNL     1      -1.405  -3.744   0.280  1.00  0.00     0.057 C 
HETATM    7  C7  UNL     1      -1.928  -1.272  -0.323  1.00  0.00     0.021 A 
ENDROOT
BRANCH   7   8
HETATM    8  C8  UNL     1      -0.462  -0.987  -0.147  1.00  0.00     0.080 C 
HETATM    9  S2  UNL     1       0.552  -0.895  -1.410  1.00  0.00    -0.072 SA
BRANCH   8  10
HETATM   10  S3  UNL     1       0.165  -0.824   1.495  1.00  0.00    -0.116 SA
BRANCH  10  11
HETATM   11  C9  UNL     1       1.914  -0.428   1.581  1.00  0.00     0.110 C 
BRANCH  11  12
HETATM   12  C10 UNL     1       2.149   0.960   1.056  1.00  0.00     0.281 C 
BRANCH  12  13
HETATM   13  N2  UNL     1       3.550   1.335   1.103  1.00  0.00     0.080 N 
HETATM   14  C11 UNL     1       3.672   2.677   0.578  1.00  0.00     0.309 C 
HETATM   15  C12 UNL     1       4.367   0.391   0.390  1.00  0.00     0.309 C 
ENDBRANCH  12  13
ENDBRANCH  11  12
ENDBRANCH  10  11
ENDBRANCH   8  10
ENDBRANCH   7   8
BRANCH   1  16
HETATM   16  C2  UNL     1      -2.729   1.043  -0.943  1.00  0.00     0.159 C 
HETATM   17  C1  UNL     1      -1.496   1.832  -0.910  1.00  0.00     0.097 C 
HETATM   18  O1  UNL     1      -3.771   1.715  -1.259  1.00  0.00    -0.293 OA
ENDBRANCH   1  16
TORSDOF 6
