REMARK  2 active torsions:
REMARK  status: ('A' for Active; 'I' for Inactive)
REMARK    1  A    between atoms: C14_14  and  O1_15 
REMARK    2  A    between atoms: C15_17  and  O2_18 
ROOT
HETATM    1  C1  UNL     1      -2.398   1.773  -0.042  1.00  0.00     0.016 C 
HETATM    2  C2  UNL     1      -1.659   0.428   0.118  1.00  0.00    -0.036 C 
HETATM    3  C3  UNL     1      -2.079  -0.159   1.442  1.00  0.00     0.010 C 
HETATM    4  C4  UNL     1      -2.945  -1.141   0.688  1.00  0.00     0.006 C 
HETATM    5  C5  UNL     1      -2.314  -0.663  -0.612  1.00  0.00    -0.006 C 
HETATM    6  C6  UNL     1      -1.448  -1.682  -1.247  1.00  0.00     0.006 C 
HETATM    7  C7  UNL     1      -0.053  -1.296  -1.535  1.00  0.00     0.013 C 
HETATM    8  C8  UNL     1       0.638  -0.492  -0.461  1.00  0.00    -0.006 C 
HETATM    9  C9  UNL     1       0.897  -1.440   0.679  1.00  0.00     0.019 C 
HETATM   10  C10 UNL     1      -0.229   0.665  -0.114  1.00  0.00     0.005 C 
HETATM   11  C11 UNL     1       0.347   1.404   1.085  1.00  0.00     0.007 C 
HETATM   12  C12 UNL     1       1.782   1.722   0.899  1.00  0.00     0.011 C 
HETATM   13  C13 UNL     1       2.412   1.285  -0.358  1.00  0.00     0.055 A 
HETATM   14  C14 UNL     1       3.210  -0.040  -0.290  1.00  0.00     0.160 A 
HETATM   15  C15 UNL     1       1.945   0.034  -0.973  1.00  0.00     0.098 A 
ENDROOT
BRANCH  14  16
HETATM   16  O1  UNL     1       3.440  -0.508   0.990  1.00  0.00    -0.392 OA
ATOM     17  H1  UNL     1       3.930  -1.321   1.032  1.00  0.00     0.210 HD
ENDBRANCH  14  16
BRANCH  15  18
HETATM   18  O2  UNL     1       2.023   0.043  -2.393  1.00  0.00    -0.386 OA
ATOM     19  H2  UNL     1       2.851   0.376  -2.717  1.00  0.00     0.210 HD
ENDBRANCH  15  18
TORSDOF 2
