REMARK  16 active torsions:
REMARK  status: ('A' for Active; 'I' for Inactive)
REMARK    1  A    between atoms: C2_2  and  C3_3 
REMARK    2  A    between atoms: C2_2  and  C14_31 
REMARK    3  A    between atoms: C3_3  and  C4_4 
REMARK    4  A    between atoms: C4_4  and  O1_5 
REMARK    5  A    between atoms: O1_5  and  C5_6 
REMARK    6  A    between atoms: C6_8  and  O3_9 
REMARK    7  A    between atoms: O3_9  and  C7_10 
REMARK    8  A    between atoms: C10_17  and  O4_18 
REMARK    9  A    between atoms: C11_20  and  O5_21 
REMARK   10  A    between atoms: C12_23  and  O6_24 
REMARK   11  A    between atoms: C13_26  and  N2_27 
REMARK   12  A    between atoms: C14_31  and  N3_32 
REMARK   13  A    between atoms: C14_31  and  C16_37 
REMARK       I    between atoms: N3_32  and  C15_34 
REMARK   14  A    between atoms: C16_37  and  C17_39 
REMARK   15  A    between atoms: C17_39  and  O9_40 
REMARK   16  A    between atoms: O9_40  and  C18_41 
ROOT
HETATM    1  C5  UNL     1      -0.711   0.934   0.250  1.00  0.00     0.295 C 
HETATM    2  O2  UNL     1      -1.982   0.514   0.712  1.00  0.00    -0.327 OA
HETATM    3  C6  UNL     1      -2.972   0.795  -0.226  1.00  0.00     0.297 C 
HETATM    4  C11 UNL     1      -2.947   2.204  -0.699  1.00  0.00     0.204 C 
HETATM    5  C12 UNL     1      -2.080   3.005   0.246  1.00  0.00     0.187 C 
HETATM    6  C13 UNL     1      -0.694   2.432   0.414  1.00  0.00     0.269 C 
ENDROOT
BRANCH   1   7
HETATM    7  O1  UNL     1       0.197   0.266   1.000  1.00  0.00    -0.359 OA
BRANCH   7   8
HETATM    8  C4  UNL     1       1.016  -0.649   0.383  1.00  0.00     0.171 C 
BRANCH   8   9
HETATM    9  C3  UNL     1       1.889  -0.067  -0.687  1.00  0.00     0.033 C 
BRANCH   9  10
HETATM   10  C2  UNL     1       2.785  -0.963  -1.405  1.00  0.00     0.013 C 
HETATM   11  C1  UNL     1       1.932  -2.038  -2.102  1.00  0.00     0.012 C 
BRANCH  10  12
HETATM   12  C14 UNL     1       4.017  -1.522  -0.845  1.00  0.00     0.151 C 
BRANCH  12  13
HETATM   13  N3  UNL     1       3.854  -2.577   0.143  1.00  0.00    -0.324 N 
HETATM   14  C15 UNL     1       4.232  -3.904  -0.207  1.00  0.00     0.284 C 
HETATM   15  O7  UNL     1       4.701  -4.174  -1.345  1.00  0.00    -0.630 OA
HETATM   16  O8  UNL     1       4.106  -4.961   0.680  1.00  0.00    -0.630 OA
ATOM     17  H3  UNL     1       3.477  -2.370   1.068  1.00  0.00     0.166 HD
ENDBRANCH  12  13
BRANCH  12  18
HETATM   18  C16 UNL     1       5.022  -0.555  -0.287  1.00  0.00     0.118 C 
HETATM   19  F2  UNL     1       5.423   0.364  -1.201  1.00  0.00    -0.211 F 
BRANCH  18  20
HETATM   20  C17 UNL     1       4.859  -0.138   1.115  1.00  0.00     0.248 C 
BRANCH  20  21
HETATM   21  O9  UNL     1       5.800   0.774   1.615  1.00  0.00    -0.300 OA
BRANCH  21  22
HETATM   22  C18 UNL     1       5.945   2.059   1.225  1.00  0.00     0.373 C 
HETATM   23  N4  UNL     1       6.967   2.855   1.819  1.00  0.00    -0.032 NA
HETATM   24  O10 UNL     1       5.231   2.608   0.362  1.00  0.00    -0.242 OA
ENDBRANCH  21  22
ENDBRANCH  20  21
ENDBRANCH  18  20
ENDBRANCH  12  18
ENDBRANCH  10  12
ENDBRANCH   9  10
ENDBRANCH   8   9
ENDBRANCH   7   8
ENDBRANCH   1   7
BRANCH   6  25
HETATM   25  N2  UNL     1      -0.265   2.743   1.764  1.00  0.00    -0.068 N 
ATOM     26  H23 UNL     1      -0.833   2.278   2.472  1.00  0.00     0.275 HD
ATOM     27  H22 UNL     1       0.630   2.313   1.999  1.00  0.00     0.275 HD
ATOM     28  H21 UNL     1      -0.253   3.757   1.875  1.00  0.00     0.275 HD
ENDBRANCH   6  25
BRANCH   3  29
HETATM   29  O3  UNL     1      -4.187   0.542   0.410  1.00  0.00    -0.324 OA
BRANCH  29  30
HETATM   30  C7  UNL     1      -4.856  -0.536  -0.106  1.00  0.00     0.355 C 
HETATM   31  N1  UNL     1      -5.099  -1.584   0.861  1.00  0.00    -0.043 N 
HETATM   32  C8  UNL     1      -6.436  -2.081   0.575  1.00  0.00     0.275 C 
ATOM     33  H12 UNL     1      -4.384  -2.312   0.864  1.00  0.00     0.280 HD
ATOM     34  H11 UNL     1      -4.972  -1.285   1.828  1.00  0.00     0.280 HD
HETATM   35  C9  UNL     1      -7.201  -0.906   0.069  1.00  0.00     0.228 C 
HETATM   36  F1  UNL     1      -8.234  -1.281  -0.768  1.00  0.00    -0.245 F 
HETATM   37  C10 UNL     1      -6.180  -0.087  -0.653  1.00  0.00     0.210 C 
BRANCH  37  38
HETATM   38  O4  UNL     1      -6.462   1.256  -0.412  1.00  0.00    -0.388 OA
ATOM     39  H4  UNL     1      -7.300   1.540  -0.758  1.00  0.00     0.210 HD
ENDBRANCH  37  38
ENDBRANCH  29  30
ENDBRANCH   3  29
BRANCH   5  40
HETATM   40  O6  UNL     1      -2.772   3.080   1.463  1.00  0.00    -0.391 OA
ATOM     41  H6  UNL     1      -2.227   3.583   2.057  1.00  0.00     0.210 HD
ENDBRANCH   5  40
BRANCH   4  42
HETATM   42  O5  UNL     1      -2.537   2.340  -2.022  1.00  0.00    -0.388 OA
ATOM     43  H5  UNL     1      -2.521   3.240  -2.324  1.00  0.00     0.210 HD
ENDBRANCH   4  42
TORSDOF 16
