REMARK  9 active torsions:
REMARK  status: ('A' for Active; 'I' for Inactive)
REMARK    1  A    between atoms: C1_2  and  N1_3 
REMARK    2  A    between atoms: N1_3  and  C2_5 
REMARK    3  A    between atoms: C2_5  and  C3_6 
REMARK    4  A    between atoms: C3_6  and  C4_7 
REMARK    5  A    between atoms: C4_7  and  N2_8 
REMARK    6  A    between atoms: N2_8  and  C5_10 
REMARK    7  A    between atoms: C5_10  and  C6_11 
REMARK    8  A    between atoms: C6_11  and  C7_12 
REMARK    9  A    between atoms: N3_13  and  C8_15 
ROOT
HETATM    1  C8  UNL     1      -2.331  -0.197  -0.837  1.00  0.00     0.139 A 
HETATM    2  N4  UNL     1      -2.247   0.645  -1.937  1.00  0.00    -0.283 N 
ATOM      3  H4  UNL     1      -1.640   0.495  -2.742  1.00  0.00     0.188 HD
HETATM    4  N5  UNL     1      -3.054   1.652  -1.792  1.00  0.00    -0.283 N 
ATOM      5  H5  UNL     1      -3.162   2.401  -2.476  1.00  0.00     0.188 HD
HETATM    6  C9  UNL     1      -3.737   1.589  -0.621  1.00  0.00     0.143 A 
HETATM    7  N6  UNL     1      -4.651   2.372  -0.045  1.00  0.00    -0.292 N 
ATOM      8  H6  UNL     1      -4.962   3.220  -0.519  1.00  0.00     0.172 HD
HETATM    9  C10 UNL     1      -5.165   2.053   1.153  1.00  0.00     0.328 A 
HETATM   10  O2  UNL     1      -6.034   2.776   1.724  1.00  0.00    -0.247 OA
HETATM   11  N7  UNL     1      -4.715   0.922   1.725  1.00  0.00    -0.275 N 
ATOM     12  H7  UNL     1      -5.099   0.668   2.635  1.00  0.00     0.173 HD
HETATM   13  C11 UNL     1      -3.800   0.105   1.188  1.00  0.00     0.267 A 
HETATM   14  O3  UNL     1      -3.402  -0.937   1.749  1.00  0.00    -0.267 OA
HETATM   15  C12 UNL     1      -3.266   0.418  -0.035  1.00  0.00     0.123 A 
ENDROOT
BRANCH   1  16
HETATM   16  N3  UNL     1      -1.649  -1.221  -0.773  1.00  0.00    -0.354 N 
HETATM   17  C7  UNL     1      -1.270  -2.337  -0.110  1.00  0.00     0.068 C 
ATOM     18  H3  UNL     1      -1.109  -1.233  -1.638  1.00  0.00     0.166 HD
BRANCH  17  19
HETATM   19  C6  UNL     1       0.069  -2.299   0.631  1.00  0.00     0.089 C 
BRANCH  19  20
HETATM   20  C5  UNL     1       1.207  -2.072  -0.314  1.00  0.00     0.065 C 
BRANCH  20  21
HETATM   21  N2  UNL     1       2.493  -2.044   0.261  1.00  0.00    -0.382 N 
ATOM     22  H2  UNL     1       3.149  -2.805   0.085  1.00  0.00     0.164 HD
BRANCH  21  23
HETATM   23  C4  UNL     1       2.869  -0.960   1.080  1.00  0.00     0.061 C 
BRANCH  23  24
HETATM   24  C3  UNL     1       3.063   0.346   0.333  1.00  0.00     0.064 C 
BRANCH  24  25
HETATM   25  C2  UNL     1       4.150   0.149  -0.725  1.00  0.00     0.127 C 
BRANCH  25  26
HETATM   26  N1  UNL     1       4.403   1.350  -1.463  1.00  0.00    -0.368 N 
ATOM     27  H1  UNL     1       4.237   1.328  -2.469  1.00  0.00     0.161 HD
BRANCH  26  28
HETATM   28  C1  UNL     1       4.868   2.571  -0.902  1.00  0.00     0.348 C 
HETATM   29  O1  UNL     1       5.096   2.682   0.309  1.00  0.00    -0.284 OA
ENDBRANCH  26  28
ENDBRANCH  25  26
ENDBRANCH  24  25
ENDBRANCH  23  24
ENDBRANCH  21  23
ENDBRANCH  20  21
ENDBRANCH  19  20
ENDBRANCH  17  19
ENDBRANCH   1  16
TORSDOF 9
