REMARK  2 active torsions:
REMARK  status: ('A' for Active; 'I' for Inactive)
REMARK    1  A    between atoms: N1_1  and  C1_4 
REMARK    2  A    between atoms: N5_16  and  O3_17 
ROOT
HETATM    1  C1  UNL     1      -2.173  -0.372   0.137  1.00  0.00     0.680 A 
HETATM    2  N2  UNL     1      -1.985   0.941  -0.083  1.00  0.00    -0.154 N 
ATOM      3  H2  UNL     1      -2.803   1.546  -0.153  1.00  0.00     0.187 HD
HETATM    4  C2  UNL     1      -0.759   1.495  -0.216  1.00  0.00     0.290 A 
HETATM    5  O1  UNL     1      -0.585   2.718  -0.420  1.00  0.00    -0.265 OA
HETATM    6  C3  UNL     1       0.337   0.689  -0.124  1.00  0.00     0.154 A 
HETATM    7  N3  UNL     1       1.566   1.226  -0.254  1.00  0.00    -0.299 N 
ATOM      8  H3  UNL     1       1.696   2.224  -0.420  1.00  0.00     0.171 HD
HETATM    9  C4  UNL     1       2.623   0.380  -0.154  1.00  0.00     0.341 A 
HETATM   10  O2  UNL     1       3.790   0.836  -0.270  1.00  0.00    -0.245 OA
HETATM   11  N4  UNL     1       2.461  -0.937   0.065  1.00  0.00    -0.223 N 
ATOM     12  H4  UNL     1       3.275  -1.548   0.135  1.00  0.00     0.194 HD
HETATM   13  N5  UNL     1       1.243  -1.439   0.190  1.00  0.00    -0.139 N 
HETATM   14  C5  UNL     1       0.141  -0.660   0.102  1.00  0.00     0.199 A 
HETATM   15  N6  UNL     1      -1.107  -1.185   0.231  1.00  0.00    -0.170 N 
ATOM     16  H6  UNL     1      -1.232  -2.184   0.397  1.00  0.00     0.186 HD
ENDROOT
BRANCH   1  17
HETATM   17  N1  UNL     1      -3.380  -0.855   0.258  1.00  0.00    -0.234 N 
ATOM     18  H12 UNL     1      -4.189  -0.238   0.187  1.00  0.00     0.174 HD
ATOM     19  H11 UNL     1      -3.523  -1.851   0.425  1.00  0.00     0.174 HD
ENDBRANCH   1  17
BRANCH  13  20
HETATM   20  O3  UNL     1       1.056  -2.667   0.395  1.00  0.00    -0.266 OA
ATOM     21  H3  UNL     1       0.182  -3.027   0.485  1.00  0.00     0.247 HD
ENDBRANCH  13  20
TORSDOF 2
