REMARK  1 active torsions:
REMARK  status: ('A' for Active; 'I' for Inactive)
REMARK    1  A    between atoms: N1_1  and  N2_4 
REMARK       I    between atoms: N2_4  and  C1_6 
ROOT
HETATM    1  N2  UNL     1       2.110   0.529   0.057  1.00  0.00    -0.138 N 
ATOM      2  H2  UNL     1       2.433   1.484   0.214  1.00  0.00     0.205 HD
HETATM    3  C1  UNL     1       0.842   0.338  -0.073  1.00  0.00     0.703 C 
HETATM    4  N3  UNL     1       0.095   1.460   0.018  1.00  0.00    -0.140 N 
ATOM      5  H3  UNL     1       0.627   2.330   0.029  1.00  0.00     0.189 HD
HETATM    6  C2  UNL     1      -1.243   1.613   0.097  1.00  0.00     0.341 C 
HETATM    7  O1  UNL     1      -1.703   2.772  -0.065  1.00  0.00    -0.246 OA
HETATM    8  N4  UNL     1      -2.154   0.653   0.334  1.00  0.00    -0.270 N 
ATOM      9  H4  UNL     1      -3.068   0.974   0.653  1.00  0.00     0.174 HD
HETATM   10  C3  UNL     1      -2.007  -0.695   0.201  1.00  0.00     0.318 C 
HETATM   11  O2  UNL     1      -2.949  -1.421   0.539  1.00  0.00    -0.262 OA
HETATM   12  C4  UNL     1      -0.899  -1.375  -0.282  1.00  0.00     0.328 C 
HETATM   13  O3  UNL     1      -1.083  -2.523  -0.763  1.00  0.00    -0.261 OA
HETATM   14  N5  UNL     1       0.383  -0.907  -0.280  1.00  0.00    -0.150 N 
ATOM     15  H5  UNL     1       1.101  -1.608  -0.463  1.00  0.00     0.188 HD
ENDROOT
BRANCH   1  16
HETATM   16  N1  UNL     1       3.059  -0.468  -0.001  1.00  0.00    -0.331 N 
ATOM     17  H12 UNL     1       2.718  -1.416  -0.158  1.00  0.00     0.177 HD
ATOM     18  H11 UNL     1       4.062  -0.317   0.102  1.00  0.00     0.177 HD
ENDBRANCH   1  16
TORSDOF 1
