REMARK  8 active torsions:
REMARK  status: ('A' for Active; 'I' for Inactive)
REMARK    1  A    between atoms: O1_2  and  C2_3 
REMARK    2  A    between atoms: C2_3  and  C5_6 
REMARK    3  A    between atoms: C5_6  and  C6_8 
REMARK    4  A    between atoms: C6_8  and  C7_10 
REMARK       I    between atoms: C7_10  and  N1_12 
REMARK       I    between atoms: N2_14  and  C8_16 
REMARK       I    between atoms: C8_16  and  N3_18 
REMARK    5  A    between atoms: N3_18  and  C9_20 
REMARK    6  A    between atoms: C11_22  and  O6_24 
REMARK    7  A    between atoms: C13_27  and  O8_28 
REMARK    8  A    between atoms: C14_30  and  O9_31 
ROOT
HETATM    1  C7  UNL     1      -1.597  -2.226  -0.978  1.00  0.00     0.314 C 
HETATM    2  O4  UNL     1      -1.223  -1.904  -2.161  1.00  0.00    -0.262 OA
HETATM    3  N1  UNL     1      -0.998  -3.339  -0.381  1.00  0.00    -0.259 N 
ATOM      4  H1  UNL     1      -1.597  -4.164  -0.426  1.00  0.00     0.190 HD
HETATM    5  N2  UNL     1       0.036  -3.569   0.168  1.00  0.00    -0.249 N 
ATOM      6  H2  UNL     1       0.131  -4.533   0.487  1.00  0.00     0.192 HD
HETATM    7  C8  UNL     1       1.143  -2.761   0.456  1.00  0.00     0.335 C 
HETATM    8  O5  UNL     1       2.222  -3.312   0.925  1.00  0.00    -0.246 OA
HETATM    9  N3  UNL     1       1.238  -1.365   0.296  1.00  0.00    -0.334 N 
ATOM     10  H3  UNL     1       0.435  -0.851  -0.067  1.00  0.00     0.164 HD
ENDROOT
BRANCH   9  11
HETATM   11  C9  UNL     1       2.426  -0.653   0.628  1.00  0.00     0.124 C 
HETATM   12  C10 UNL     1       3.094  -0.081  -0.628  1.00  0.00     0.096 C 
HETATM   13  C11 UNL     1       4.505   0.280  -0.203  1.00  0.00     0.163 C 
HETATM   14  C12 UNL     1       5.303   0.863  -1.324  1.00  0.00     0.079 C 
HETATM   15  O7  UNL     1       4.471   1.072   0.919  1.00  0.00    -0.323 OA
HETATM   16  C13 UNL     1       3.230   1.566   1.240  1.00  0.00     0.291 C 
HETATM   17  C14 UNL     1       2.211   0.496   1.560  1.00  0.00     0.196 C 
BRANCH  13  18
HETATM   18  O6  UNL     1       5.126  -0.936   0.151  1.00  0.00    -0.365 OA
ATOM     19  H6  UNL     1       6.010  -0.710   0.417  1.00  0.00     0.213 HD
ENDBRANCH  13  18
BRANCH  16  20
HETATM   20  O8  UNL     1       3.360   2.350   2.385  1.00  0.00    -0.368 OA
ATOM     21  H8  UNL     1       2.502   2.692   2.607  1.00  0.00     0.212 HD
ENDBRANCH  16  20
BRANCH  17  22
HETATM   22  O9  UNL     1       2.256   0.096   2.891  1.00  0.00    -0.389 OA
ATOM     23  H9  UNL     1       2.119   0.826   3.483  1.00  0.00     0.210 HD
ENDBRANCH  17  22
ENDBRANCH   9  11
BRANCH   1  24
HETATM   24  C6  UNL     1      -2.610  -1.451  -0.293  1.00  0.00     0.289 C 
HETATM   25  O3  UNL     1      -2.957  -1.779   0.858  1.00  0.00    -0.278 OA
BRANCH  24  26
HETATM   26  C5  UNL     1      -3.213  -0.310  -0.933  1.00  0.00     0.238 C 
HETATM   27  O2  UNL     1      -2.823  -0.023  -2.113  1.00  0.00    -0.285 OA
BRANCH  26  28
HETATM   28  C2  UNL     1      -4.241   0.542  -0.326  1.00  0.00     0.121 C 
HETATM   29  C3  UNL     1      -5.330  -0.205   0.376  1.00  0.00     0.055 C 
HETATM   30  C4  UNL     1      -3.499   1.308   0.806  1.00  0.00     0.055 C 
BRANCH  28  31
HETATM   31  O1  UNL     1      -4.666   1.513  -1.177  1.00  0.00    -0.378 OA
HETATM   32  C1  UNL     1      -5.503   1.174  -2.190  1.00  0.00     0.203 C 
ENDBRANCH  28  31
ENDBRANCH  26  28
ENDBRANCH  24  26
ENDBRANCH   1  24
TORSDOF 8
