REMARK  0 active torsions:
REMARK  status: ('A' for Active; 'I' for Inactive)
REMARK       I    between atoms: C1_4  and  N3_6 
REMARK       I    between atoms: N4_9  and  C4_10 
REMARK       I    between atoms: C4_10  and  N5_12 
ROOT
HETATM    1  N1  UNL     1      -4.738   0.358   1.134  1.00  0.00    -0.374 N 
ATOM      2  H11 UNL     1      -4.702   1.233   0.611  1.00  0.00     0.158 HD
ATOM      3  H12 UNL     1      -5.459   0.210   1.840  1.00  0.00     0.158 HD
HETATM    4  C1  UNL     1      -3.856  -0.541   0.878  1.00  0.00     0.184 C 
HETATM    5  N2  UNL     1      -3.906  -1.752   1.602  1.00  0.00    -0.064 NA
HETATM    6  N3  UNL     1      -2.870  -0.338  -0.088  1.00  0.00    -0.353 N 
HETATM    7  C2  UNL     1      -2.620   0.947  -0.701  1.00  0.00     0.145 C 
HETATM    8  C3  UNL     1      -1.378   0.894  -1.563  1.00  0.00     0.147 C 
HETATM    9  N4  UNL     1      -0.285   0.214  -0.897  1.00  0.00    -0.331 N 
HETATM   10  C4  UNL     1       1.012   0.741  -0.953  1.00  0.00     0.320 C 
HETATM   11  O1  UNL     1       1.090   1.832  -1.647  1.00  0.00    -0.247 OA
HETATM   12  N5  UNL     1       2.205   0.281  -0.390  1.00  0.00    -0.333 N 
HETATM   13  C5  UNL     1       3.409   1.097  -0.690  1.00  0.00     0.137 C 
HETATM   14  C6  UNL     1       3.572   1.994   0.554  1.00  0.00     0.093 C 
HETATM   15  S1  UNL     1       4.117   0.807   1.841  1.00  0.00    -0.166 SA
HETATM   16  C7  UNL     1       3.749  -0.852   1.188  1.00  0.00     0.093 C 
HETATM   17  C8  UNL     1       2.437  -0.855   0.430  1.00  0.00     0.137 C 
HETATM   18  C9  UNL     1      -0.583  -0.998  -0.204  1.00  0.00     0.147 C 
HETATM   19  C10 UNL     1      -2.028  -1.446  -0.531  1.00  0.00     0.145 C 
ENDROOT
TORSDOF 0
