REMARK  6 active torsions:
REMARK  status: ('A' for Active; 'I' for Inactive)
REMARK    1  A    between atoms: C2_2  and  C4_4 
REMARK    2  A    between atoms: C4_4  and  O1_5 
REMARK    3  A    between atoms: C4_4  and  C5_7 
REMARK    4  A    between atoms: C5_7  and  N1_8 
REMARK       I    between atoms: N1_8  and  C6_10 
REMARK       I    between atoms: C6_10  and  N2_12 
REMARK    5  A    between atoms: N2_12  and  C7_14 
REMARK    6  A    between atoms: C10_19  and  O3_20 
ROOT
HETATM    1  C7  UNL     1      -3.007  -0.099   0.842  1.00  0.00     0.146 C 
HETATM    2  C8  UNL     1      -3.543  -0.025   2.222  1.00  0.00     0.115 C 
HETATM    3  S1  UNL     1      -4.671   1.403   2.466  1.00  0.00    -0.095 SA
HETATM    4  S2  UNL     1      -6.178   1.057   0.960  1.00  0.00    -0.093 SA
HETATM    5  C9  UNL     1      -5.263   0.037  -0.268  1.00  0.00     0.141 C 
HETATM    6  C10 UNL     1      -3.843   0.495  -0.223  1.00  0.00     0.176 C 
HETATM    7  C11 UNL     1      -3.232   0.146  -1.525  1.00  0.00     0.100 C 
HETATM    8  N3  UNL     1      -2.744  -0.132  -2.540  1.00  0.00    -0.194 NA
ENDROOT
BRANCH   6   9
HETATM    9  O3  UNL     1      -3.764   1.903  -0.143  1.00  0.00    -0.373 OA
ATOM     10  H3  UNL     1      -4.301   2.285  -0.827  1.00  0.00     0.212 HD
ENDBRANCH   6   9
BRANCH   1  11
HETATM   11  N2  UNL     1      -1.689   0.502   0.779  1.00  0.00    -0.334 N 
HETATM   12  C6  UNL     1      -0.526  -0.225   0.462  1.00  0.00     0.316 C 
HETATM   13  N1  UNL     1       0.757   0.365   0.401  1.00  0.00    -0.341 N 
HETATM   14  O2  UNL     1      -0.644  -1.453   0.224  1.00  0.00    -0.247 OA
ATOM     15  H1  UNL     1       0.852   1.362   0.594  1.00  0.00     0.164 HD
ATOM     16  H2  UNL     1      -1.600   1.499   0.974  1.00  0.00     0.164 HD
BRANCH  13  17
HETATM   17  C5  UNL     1       1.943  -0.405   0.072  1.00  0.00     0.156 C 
BRANCH  17  18
HETATM   18  C4  UNL     1       3.121   0.519   0.096  1.00  0.00     0.139 C 
BRANCH  18  19
HETATM   19  C2  UNL     1       4.431  -0.165  -0.161  1.00  0.00     0.008 C 
HETATM   20  C1  UNL     1       4.520  -0.760  -1.544  1.00  0.00     0.012 C 
HETATM   21  C3  UNL     1       4.766  -1.178   0.915  1.00  0.00     0.012 C 
ENDBRANCH  18  19
BRANCH  18  22
HETATM   22  O1  UNL     1       2.964   1.547  -0.829  1.00  0.00    -0.394 OA
ATOM     23  H1  UNL     1       2.134   1.980  -0.666  1.00  0.00     0.210 HD
ENDBRANCH  18  22
ENDBRANCH  17  18
ENDBRANCH  13  17
ENDBRANCH   1  11
TORSDOF 6
