REMARK  3 active torsions:
REMARK  status: ('A' for Active; 'I' for Inactive)
REMARK    1  A    between atoms: C3_3  and  C4_5 
REMARK    2  A    between atoms: C6_7  and  N1_8 
REMARK    3  A    between atoms: C7_14  and  N3_15 
ROOT
HETATM    1  C1  UNL     1       3.816  -0.117   0.395  1.00  0.00     0.021 C 
HETATM    2  C2  UNL     1       2.954  -0.177  -0.432  1.00  0.00    -0.033 C 
HETATM    3  C3  UNL     1       1.923  -0.284  -1.522  1.00  0.00     0.246 C 
HETATM    4  O1  UNL     1       2.261  -0.400  -2.634  1.00  0.00    -0.276 OA
ENDROOT
BRANCH   3   5
HETATM    5  C4  UNL     1       0.502  -0.194  -1.046  1.00  0.00     0.072 C 
HETATM    6  C5  UNL     1       0.054   1.159  -0.733  1.00  0.00     0.115 C 
HETATM    7  C6  UNL     1      -0.825   1.308   0.458  1.00  0.00     0.287 C 
HETATM    8  N2  UNL     1      -1.056   0.107   1.186  1.00  0.00    -0.335 N 
HETATM    9  C7  UNL     1      -1.094  -1.103   0.442  1.00  0.00     0.361 C 
ATOM     10  H2  UNL     1      -1.188   0.115   2.197  1.00  0.00     0.160 HD
HETATM   11  C8  UNL     1      -1.328  -2.204   1.380  1.00  0.00     0.144 C 
HETATM   12  N5  UNL     1       0.168  -1.282  -0.235  1.00  0.00    -0.328 N 
HETATM   13  N4  UNL     1      -1.495  -3.094   2.091  1.00  0.00    -0.191 NA
ATOM     14  H5  UNL     1       0.752  -2.112  -0.133  1.00  0.00     0.164 HD
BRANCH   7  15
HETATM   15  N1  UNL     1      -0.216   2.265   1.379  1.00  0.00    -0.058 N 
ATOM     16  H13 UNL     1       0.739   2.010   1.630  1.00  0.00     0.276 HD
ATOM     17  H12 UNL     1      -0.012   3.159   0.932  1.00  0.00     0.276 HD
ATOM     18  H11 UNL     1      -0.819   2.367   2.196  1.00  0.00     0.276 HD
ENDBRANCH   7  15
BRANCH   9  19
HETATM   19  N3  UNL     1      -2.194  -1.087  -0.503  1.00  0.00    -0.020 N 
ATOM     20  H33 UNL     1      -3.085  -0.897  -0.044  1.00  0.00     0.280 HD
ATOM     21  H32 UNL     1      -2.158  -0.269  -1.112  1.00  0.00     0.280 HD
ATOM     22  H31 UNL     1      -2.221  -1.956  -1.037  1.00  0.00     0.280 HD
ENDBRANCH   9  19
ENDBRANCH   3   5
TORSDOF 3
