REMARK  5 active torsions:
REMARK  status: ('A' for Active; 'I' for Inactive)
REMARK    1  A    between atoms: N1_2  and  C2_5 
REMARK    2  A    between atoms: C2_5  and  C4_7 
REMARK    3  A    between atoms: C5_8  and  C6_9 
REMARK       I    between atoms: C6_9  and  N2_11 
REMARK    4  A    between atoms: N2_11  and  C7_13 
REMARK    5  A    between atoms: N4_16  and  C9_17 
ROOT
HETATM    1  C7  UNL     1      -0.849   0.276   0.342  1.00  0.00     0.145 A 
HETATM    2  C8  UNL     1      -2.095   0.238  -0.315  1.00  0.00     0.155 A 
HETATM    3  N3  UNL     1      -2.193  -0.537  -1.506  1.00  0.00    -0.080 NA
HETATM    4  N4  UNL     1      -3.193   0.871   0.080  1.00  0.00    -0.281 N 
HETATM    5  C13 UNL     1      -3.075   1.607   1.213  1.00  0.00     0.331 A 
HETATM    6  O2  UNL     1      -4.101   2.221   1.614  1.00  0.00    -0.246 OA
HETATM    7  N5  UNL     1      -1.921   1.681   1.878  1.00  0.00    -0.273 N 
ATOM      8  H5  UNL     1      -1.884   2.249   2.724  1.00  0.00     0.173 HD
HETATM    9  C14 UNL     1      -0.784   1.032   1.480  1.00  0.00     0.279 A 
HETATM   10  O3  UNL     1       0.253   1.167   2.187  1.00  0.00    -0.265 OA
ENDROOT
BRANCH   1  11
HETATM   11  N2  UNL     1       0.210  -0.485  -0.170  1.00  0.00    -0.316 N 
HETATM   12  C6  UNL     1       1.590  -0.387  -0.025  1.00  0.00     0.245 C 
HETATM   13  O1  UNL     1       2.142   0.489   0.636  1.00  0.00    -0.268 OA
ATOM     14  H2  UNL     1      -0.088  -1.260  -0.763  1.00  0.00     0.169 HD
BRANCH  12  15
HETATM   15  C5  UNL     1       2.440  -1.376  -0.691  1.00  0.00     0.072 C 
HETATM   16  C4  UNL     1       3.719  -1.499  -0.702  1.00  0.00     0.011 C 
BRANCH  16  17
HETATM   17  C2  UNL     1       4.691  -0.651  -0.028  1.00  0.00     0.204 C 
HETATM   18  C3  UNL     1       5.673  -1.566   0.710  1.00  0.00     0.044 C 
BRANCH  17  19
HETATM   19  N1  UNL     1       5.455   0.120  -1.040  1.00  0.00    -0.072 N 
HETATM   20  C1  UNL     1       6.404   0.913  -0.294  1.00  0.00     0.267 C 
ATOM     21  H12 UNL     1       4.866   0.670  -1.665  1.00  0.00     0.277 HD
ATOM     22  H11 UNL     1       5.885  -0.463  -1.758  1.00  0.00     0.277 HD
ENDBRANCH  17  19
ENDBRANCH  16  17
ENDBRANCH  12  15
ENDBRANCH   1  11
BRANCH   4  23
HETATM   23  C9  UNL     1      -4.440   0.815  -0.600  1.00  0.00     0.096 C 
HETATM   24  C10 UNL     1      -4.891  -0.554  -1.055  1.00  0.00     0.026 C 
HETATM   25  C11 UNL     1      -6.326  -0.085  -0.759  1.00  0.00     0.004 C 
HETATM   26  C12 UNL     1      -5.686   0.851   0.279  1.00  0.00     0.026 C 
ENDBRANCH   4  23
TORSDOF 5
