REMARK  10 active torsions:
REMARK  status: ('A' for Active; 'I' for Inactive)
REMARK    1  A    between atoms: C3_3  and  C4_4 
REMARK    2  A    between atoms: C7_7  and  C8_8 
REMARK       I    between atoms: N1_9  and  C9_11 
REMARK    3  A    between atoms: C9_11  and  C10_13 
REMARK    4  A    between atoms: C10_13  and  C11_14 
REMARK    5  A    between atoms: C11_14  and  N2_15 
REMARK    6  A    between atoms: N3_18  and  C14_19 
REMARK    7  A    between atoms: C14_19  and  C15_20 
REMARK    8  A    between atoms: C16_21  and  C17_22 
REMARK    9  A    between atoms: C17_22  and  O2_23 
REMARK   10  A    between atoms: N4_31  and  C24_32 
ROOT
HETATM    1  C1  UNL     1      -5.895   6.336   0.664  1.00  0.00     0.112 C 
HETATM    2  C2  UNL     1      -5.803   4.879   0.530  1.00  0.00    -0.104 C 
HETATM    3  C3  UNL     1      -5.722   3.681   0.404  1.00  0.00    -0.049 C 
ENDROOT
BRANCH   3   4
HETATM    4  C4  UNL     1      -5.617   2.249   0.257  1.00  0.00     0.089 A 
HETATM    5  C5  UNL     1      -4.478   1.604  -0.138  1.00  0.00     0.055 A 
HETATM    6  C6  UNL     1      -4.742   0.231  -0.168  1.00  0.00     0.023 A 
HETATM    7  C7  UNL     1      -3.922  -0.830  -0.501  1.00  0.00    -0.005 A 
HETATM    8  C26 UNL     1      -6.058   0.078   0.217  1.00  0.00     0.119 A 
HETATM    9  C22 UNL     1      -4.482  -2.088  -0.433  1.00  0.00     0.031 A 
HETATM   10  C23 UNL     1      -5.805  -2.225  -0.044  1.00  0.00     0.093 A 
HETATM   11  N4  UNL     1      -6.576  -1.171   0.273  1.00  0.00    -0.343 N 
HETATM   12  N5  UNL     1      -6.553   1.311   0.465  1.00  0.00    -0.335 N 
ATOM     13  H5  UNL     1      -7.508   1.502   0.769  1.00  0.00     0.168 HD
BRANCH   7  14
HETATM   14  C8  UNL     1      -2.540  -0.605  -0.900  1.00  0.00     0.103 C 
HETATM   15  N1  UNL     1      -1.794  -1.584  -1.203  1.00  0.00    -0.336 N 
HETATM   16  C9  UNL     1      -0.445  -1.497  -1.603  1.00  0.00     0.223 C 
ATOM     17  H1  UNL     1      -2.206  -2.516  -1.153  1.00  0.00     0.168 HD
HETATM   18  O1  UNL     1      -0.222  -1.569  -2.854  1.00  0.00    -0.273 OA
BRANCH  16  19
HETATM   19  C10 UNL     1       0.683  -1.329  -0.656  1.00  0.00     0.131 C 
BRANCH  19  20
HETATM   20  C11 UNL     1       1.977  -1.274  -1.429  1.00  0.00     0.247 C 
BRANCH  20  21
HETATM   21  N2  UNL     1       3.137  -1.111  -0.606  1.00  0.00    -0.062 N 
HETATM   22  C12 UNL     1       3.474   0.280  -0.374  1.00  0.00     0.265 C 
HETATM   23  C13 UNL     1       4.819   0.362   0.293  1.00  0.00     0.266 C 
HETATM   24  N3  UNL     1       5.236  -0.951   0.723  1.00  0.00    -0.052 N 
HETATM   25  C18 UNL     1       5.429  -1.848  -0.410  1.00  0.00     0.266 C 
HETATM   26  C20 UNL     1       4.198  -1.526   1.536  1.00  0.00     0.266 C 
HETATM   27  C19 UNL     1       4.266  -1.688  -1.331  1.00  0.00     0.265 C 
HETATM   28  C21 UNL     1       2.984  -1.772   0.663  1.00  0.00     0.265 C 
BRANCH  24  29
HETATM   29  C14 UNL     1       6.500  -0.881   1.425  1.00  0.00     0.331 C 
BRANCH  29  30
HETATM   30  C15 UNL     1       7.327   0.236   0.994  1.00  0.00    -0.076 C 
HETATM   31  C16 UNL     1       8.028   1.153   0.631  1.00  0.00    -0.079 C 
BRANCH  31  32
HETATM   32  C17 UNL     1       8.900   2.260   0.194  1.00  0.00     0.257 C 
BRANCH  32  33
HETATM   33  O2  UNL     1       8.922   2.359  -1.199  1.00  0.00    -0.389 OA
ATOM     34  H2  UNL     1       9.483   3.072  -1.480  1.00  0.00     0.210 HD
ENDBRANCH  32  33
ENDBRANCH  31  32
ENDBRANCH  29  30
ENDBRANCH  24  29
ENDBRANCH  20  21
ENDBRANCH  19  20
ENDBRANCH  16  19
ENDBRANCH   7  14
BRANCH  11  35
HETATM   35  C24 UNL     1      -7.972  -1.348   0.680  1.00  0.00     0.125 C 
HETATM   36  C25 UNL     1      -8.881  -1.304  -0.523  1.00  0.00     0.027 C 
ENDBRANCH  11  35
ENDBRANCH   3   4
TORSDOF 10
