REMARK  1 active torsions:
REMARK  status: ('A' for Active; 'I' for Inactive)
REMARK    1  A    between atoms: C2_2  and  N1_5 
REMARK       I    between atoms: N1_5  and  C5_7 
ROOT
HETATM    1  N1  UNL     1      -2.028   0.061   0.970  1.00  0.00    -0.217 N 
ATOM      2  H1  UNL     1      -2.453   0.237   1.880  1.00  0.00     0.178 HD
HETATM    3  C5  UNL     1      -0.628  -0.102   0.953  1.00  0.00     0.693 C 
HETATM    4  N2  UNL     1       0.016  -0.062   2.074  1.00  0.00    -0.022 N 
ATOM      5  H2  UNL     1      -0.571   0.089   2.895  1.00  0.00     0.203 HD
HETATM    6  C6  UNL     1       1.414  -0.194   2.358  1.00  0.00     0.703 A 
HETATM    7  N3  UNL     1       1.939  -0.435   3.572  1.00  0.00    -0.199 N 
ATOM      8  H3  UNL     1       1.387  -0.541   4.423  1.00  0.00     0.183 HD
HETATM    9  C7  UNL     1       3.280  -0.519   3.527  1.00  0.00     0.124 A 
HETATM   10  C8  UNL     1       3.607  -0.318   2.201  1.00  0.00     0.133 A 
HETATM   11  N4  UNL     1       2.475  -0.125   1.522  1.00  0.00    -0.154 N 
HETATM   12  C9  UNL     1       2.443   0.115   0.100  1.00  0.00     0.083 A 
HETATM   13  C10 UNL     1       3.652   0.450  -0.436  1.00  0.00     0.034 A 
HETATM   14  C11 UNL     1       3.779   0.703  -1.813  1.00  0.00     0.021 A 
HETATM   15  C12 UNL     1       2.671   0.607  -2.603  1.00  0.00     0.013 A 
HETATM   16 BR1  UNL     1       2.800   0.944  -4.491  1.00  0.00    -0.051 Br
HETATM   17  C13 UNL     1       1.454   0.269  -2.051  1.00  0.00     0.051 A 
HETATM   18  C14 UNL     1       1.327   0.024  -0.716  1.00  0.00     0.078 A 
HETATM   19  N5  UNL     1      -0.005  -0.294  -0.309  1.00  0.00    -0.189 N 
ATOM     20  H5  UNL     1      -0.592  -0.719  -1.027  1.00  0.00     0.184 HD
ENDROOT
BRANCH   1  21
HETATM   21  C2  UNL     1      -2.918   0.007  -0.147  1.00  0.00     0.036 C 
HETATM   22  C1  UNL     1      -2.573   1.030  -1.198  1.00  0.00     0.038 C 
HETATM   23  C3  UNL     1      -3.107  -1.387  -0.711  1.00  0.00     0.038 C 
HETATM   24  C4  UNL     1      -4.313   0.405   0.368  1.00  0.00     0.038 C 
ENDBRANCH   1  21
TORSDOF 1
