REMARK  11 active torsions:
REMARK  status: ('A' for Active; 'I' for Inactive)
REMARK    1  A    between atoms: C2_2  and  C3_3 
REMARK    2  A    between atoms: C3_3  and  C4_4 
REMARK    3  A    between atoms: C4_4  and  C7_7 
REMARK    4  A    between atoms: C8_8  and  C9_9 
REMARK    5  A    between atoms: C9_9  and  C10_10 
REMARK    6  A    between atoms: C10_10  and  N1_11 
REMARK    7  A    between atoms: C11_14  and  O1_15 
REMARK    8  A    between atoms: C14_21  and  O2_22 
REMARK    9  A    between atoms: C15_24  and  C16_25 
REMARK   10  A    between atoms: C16_25  and  C18_27 
REMARK   11  A    between atoms: C20_31  and  O3_32 
ROOT
HETATM    1  N1  UNL     1       0.746  -0.208  -0.950  1.00  0.00    -0.254 N 
HETATM    2  N2  UNL     1       1.097  -1.550  -1.115  1.00  0.00    -0.277 N 
ATOM      3  H2  UNL     1       0.427  -2.133  -1.617  1.00  0.00     0.189 HD
HETATM    4  C11 UNL     1       2.280  -2.199  -0.665  1.00  0.00     0.153 C 
HETATM    5  C12 UNL     1       2.757  -2.350   0.704  1.00  0.00     0.155 C 
HETATM    6  C13 UNL     1       3.644  -3.629   0.710  1.00  0.00     0.041 C 
HETATM    7  N3  UNL     1       3.456  -1.266   1.310  1.00  0.00    -0.361 N 
ATOM      8  H3  UNL     1       4.127  -1.562   2.019  1.00  0.00     0.162 HD
HETATM    9  C14 UNL     1       3.411   0.120   1.133  1.00  0.00     0.135 C 
HETATM   10  C15 UNL     1       3.846   0.974   0.042  1.00  0.00     0.163 C 
HETATM   11  N4  UNL     1       2.977   1.045  -1.108  1.00  0.00    -0.343 N 
ATOM     12  H4  UNL     1       3.453   1.212  -1.994  1.00  0.00     0.164 HD
HETATM   13  C20 UNL     1       1.582   0.921  -1.203  1.00  0.00     0.235 C 
ENDROOT
BRANCH   1  14
HETATM   14  C10 UNL     1      -0.647   0.021  -0.503  1.00  0.00     0.165 C 
BRANCH  14  15
HETATM   15  C9  UNL     1      -1.563   0.114  -1.708  1.00  0.00     0.115 C 
BRANCH  15  16
HETATM   16  C8  UNL     1      -2.916   0.339  -1.198  1.00  0.00    -0.104 C 
HETATM   17  C7  UNL     1      -4.025   0.521  -0.774  1.00  0.00    -0.097 C 
BRANCH  17  18
HETATM   18  C4  UNL     1      -5.381   0.763  -0.233  1.00  0.00     0.016 C 
HETATM   19  C5  UNL     1      -6.414   0.744  -1.328  1.00  0.00     0.029 C 
HETATM   20  C6  UNL     1      -5.380   2.076   0.523  1.00  0.00     0.029 C 
BRANCH  18  21
HETATM   21  C3  UNL     1      -5.674  -0.328   0.743  1.00  0.00     0.021 C 
BRANCH  21  22
HETATM   22  C2  UNL     1      -7.069  -0.069   1.318  1.00  0.00    -0.003 C 
HETATM   23  C1  UNL     1      -7.449  -1.134   2.324  1.00  0.00     0.005 C 
ENDBRANCH  21  22
ENDBRANCH  18  21
ENDBRANCH  17  18
ENDBRANCH  15  16
ENDBRANCH  14  15
ENDBRANCH   1  14
BRANCH  13  24
HETATM   24  O3  UNL     1       0.905   1.968  -1.576  1.00  0.00    -0.331 OA
ATOM     25  H3  UNL     1       1.461   2.719  -1.744  1.00  0.00     0.221 HD
ENDBRANCH  13  24
BRANCH   4  26
HETATM   26  O1  UNL     1       3.024  -2.725  -1.595  1.00  0.00    -0.347 OA
ATOM     27  H1  UNL     1       3.814  -3.158  -1.294  1.00  0.00     0.219 HD
ENDBRANCH   4  26
BRANCH  10  28
HETATM   28  C16 UNL     1       5.285   0.832  -0.384  1.00  0.00     0.012 C 
HETATM   29  C17 UNL     1       5.734  -0.479  -0.858  1.00  0.00     0.012 C 
BRANCH  28  30
HETATM   30  C18 UNL     1       6.250   1.339   0.656  1.00  0.00     0.002 C 
HETATM   31  C19 UNL     1       5.984   2.824   0.921  1.00  0.00     0.005 C 
ENDBRANCH  28  30
ENDBRANCH  10  28
BRANCH   9  32
HETATM   32  O2  UNL     1       2.879   0.744   2.150  1.00  0.00    -0.348 OA
ATOM     33  H2  UNL     1       2.848   1.686   2.030  1.00  0.00     0.219 HD
ENDBRANCH   9  32
TORSDOF 11
