REMARK  4 active torsions:
REMARK  status: ('A' for Active; 'I' for Inactive)
REMARK    1  A    between atoms: C2_2  and  C3_3 
REMARK    2  A    between atoms: C3_3  and  N1_4 
REMARK    3  A    between atoms: N1_4  and  C4_7 
REMARK    4  A    between atoms: C4_7  and  C5_8 
ROOT
HETATM    1  C4  UNL     1      -0.280  -0.227  -1.151  1.00  0.00     0.266 C 
ENDROOT
BRANCH   1   2
HETATM    2  N1  UNL     1      -1.408   0.546  -0.757  1.00  0.00    -0.069 N 
ATOM      3  H12 UNL     1      -2.043   0.684  -1.543  1.00  0.00     0.277 HD
ATOM      4  H11 UNL     1      -1.139   1.514  -0.584  1.00  0.00     0.277 HD
BRANCH   2   5
HETATM    5  C3  UNL     1      -2.112   0.001   0.378  1.00  0.00     0.259 C 
BRANCH   5   6
HETATM    6  C2  UNL     1      -3.279   0.826   0.764  1.00  0.00    -0.010 C 
HETATM    7  C1  UNL     1      -4.485   0.278   0.738  1.00  0.00     0.008 C 
ENDBRANCH   5   6
ENDBRANCH   2   5
ENDBRANCH   1   2
BRANCH   1   8
HETATM    8  C5  UNL     1       0.856  -0.237  -0.216  1.00  0.00    -0.058 C 
HETATM    9  C6  UNL     1       1.424  -1.266   0.412  1.00  0.00    -0.017 C 
HETATM   10  C7  UNL     1       2.493  -0.731   1.213  1.00  0.00     0.013 A 
HETATM   11  C8  UNL     1       3.817  -0.309   1.070  1.00  0.00     0.014 A 
HETATM   12  C9  UNL     1       2.981   0.291   0.134  1.00  0.00    -0.002 A 
HETATM   13  C10 UNL     1       1.657   1.005   0.171  1.00  0.00     0.041 C 
ENDBRANCH   1   8
TORSDOF 4
