REMARK  15 active torsions:
REMARK  status: ('A' for Active; 'I' for Inactive)
REMARK    1  A    between atoms: C2_2  and  C3_3 
REMARK    2  A    between atoms: C5_5  and  C6_6 
REMARK    3  A    between atoms: C9_9  and  C10_10 
REMARK    4  A    between atoms: C10_10  and  C11_12 
REMARK    5  A    between atoms: C12_13  and  C14_15 
REMARK    6  A    between atoms: C14_15  and  C15_16 
REMARK    7  A    between atoms: C16_17  and  C17_18 
REMARK    8  A    between atoms: C19_20  and  C20_21 
REMARK    9  A    between atoms: C20_21  and  C21_22 
REMARK   10  A    between atoms: C21_22  and  C22_23 
REMARK   11  A    between atoms: C25_26  and  O2_27 
REMARK   12  A    between atoms: C26_29  and  C27_30 
REMARK   13  A    between atoms: C27_30  and  C28_32 
REMARK   14  A    between atoms: C28_32  and  C29_33 
REMARK   15  A    between atoms: C32_36  and  O4_37 
ROOT
HETATM    1  C6  UNL     1      -3.447  -0.582  -0.139  1.00  0.00     0.005 A 
HETATM    2  C7  UNL     1      -2.134  -0.074  -0.059  1.00  0.00    -0.032 A 
HETATM    3  C8  UNL     1      -1.035  -0.959  -0.557  1.00  0.00     0.050 C 
HETATM    4  C9  UNL     1      -1.977   1.188   0.403  1.00  0.00     0.055 A 
HETATM    5  C25 UNL     1      -3.112   1.986   0.799  1.00  0.00     0.097 A 
HETATM    6  C26 UNL     1      -4.383   1.476   0.713  1.00  0.00     0.078 A 
HETATM    7  C32 UNL     1      -4.527   0.182   0.238  1.00  0.00     0.093 A 
ENDROOT
BRANCH   4   8
HETATM    8  C10 UNL     1      -0.672   1.833   0.466  1.00  0.00     0.186 C 
HETATM    9  O1  UNL     1      -0.756   3.087   0.784  1.00  0.00    -0.287 OA
BRANCH   8  10
HETATM   10  C11 UNL     1       0.638   1.376   0.264  1.00  0.00     0.071 C 
HETATM   11  C12 UNL     1       1.795   2.143   0.296  1.00  0.00    -0.013 C 
HETATM   12  C13 UNL     1       1.638   3.583   0.560  1.00  0.00     0.057 C 
BRANCH  11  13
HETATM   13  C14 UNL     1       3.016   1.453   0.146  1.00  0.00    -0.121 C 
BRANCH  13  14
HETATM   14  C15 UNL     1       4.077   0.855   0.016  1.00  0.00     0.056 C 
HETATM   15  C16 UNL     1       5.443   1.309  -0.018  1.00  0.00     0.015 C 
BRANCH  15  16
HETATM   16  C17 UNL     1       6.508   0.537  -0.163  1.00  0.00    -0.061 C 
HETATM   17  C18 UNL     1       7.814   1.288  -0.165  1.00  0.00     0.048 C 
HETATM   18  C19 UNL     1       6.453  -0.890  -0.283  1.00  0.00     0.007 C 
BRANCH  18  19
HETATM   19  C20 UNL     1       7.355  -1.793  -0.436  1.00  0.00     0.001 C 
BRANCH  19  20
HETATM   20  C21 UNL     1       8.775  -1.629  -0.542  1.00  0.00     0.002 C 
BRANCH  20  21
HETATM   21  C22 UNL     1       9.546  -2.728  -0.698  1.00  0.00    -0.088 C 
HETATM   22  C23 UNL     1       8.922  -4.051  -0.755  1.00  0.00     0.043 C 
HETATM   23  C24 UNL     1      11.000  -2.541  -0.815  1.00  0.00     0.043 C 
ENDBRANCH  20  21
ENDBRANCH  19  20
ENDBRANCH  18  19
ENDBRANCH  15  16
ENDBRANCH  13  14
ENDBRANCH  11  13
ENDBRANCH   8  10
ENDBRANCH   4   8
BRANCH   5  24
HETATM   24  O2  UNL     1      -2.844   3.222   1.241  1.00  0.00    -0.359 OA
ATOM     25  H2  UNL     1      -3.591   3.747   1.502  1.00  0.00     0.217 HD
ENDBRANCH   5  24
BRANCH   1  26
HETATM   26  C5  UNL     1      -3.609  -1.906  -0.669  1.00  0.00     0.021 C 
HETATM   27  C3  UNL     1      -4.016  -2.932   0.002  1.00  0.00    -0.062 C 
HETATM   28  C4  UNL     1      -4.313  -2.819   1.459  1.00  0.00     0.048 C 
BRANCH  27  29
HETATM   29  C2  UNL     1      -4.151  -4.241  -0.637  1.00  0.00    -0.004 C 
HETATM   30  C1  UNL     1      -4.572  -5.259   0.064  1.00  0.00     0.012 C 
ENDBRANCH  27  29
ENDBRANCH   1  26
BRANCH   6  31
HETATM   31  C27 UNL     1      -5.536   2.273   1.120  1.00  0.00     0.165 C 
HETATM   32  O3  UNL     1      -5.295   3.463   1.540  1.00  0.00    -0.292 OA
BRANCH  31  33
HETATM   33  C28 UNL     1      -6.940   1.906   1.120  1.00  0.00     0.088 C 
BRANCH  33  34
HETATM   34  C29 UNL     1      -7.694   2.247  -0.138  1.00  0.00    -0.015 C 
HETATM   35  C30 UNL     1      -9.140   1.806  -0.029  1.00  0.00     0.010 C 
HETATM   36  C31 UNL     1      -7.740   3.766  -0.350  1.00  0.00     0.010 C 
ENDBRANCH  33  34
ENDBRANCH  31  33
ENDBRANCH   6  31
BRANCH   7  37
HETATM   37  O4  UNL     1      -5.812  -0.300   0.153  1.00  0.00    -0.359 OA
ATOM     38  H4  UNL     1      -6.558   0.228   0.413  1.00  0.00     0.217 HD
ENDBRANCH   7  37
TORSDOF 15
