REMARK  9 active torsions:
REMARK  status: ('A' for Active; 'I' for Inactive)
REMARK    1  A    between atoms: C2_2  and  O1_3 
REMARK    2  A    between atoms: C2_2  and  C13_25 
REMARK    3  A    between atoms: O1_3  and  C3_4 
REMARK    4  A    between atoms: C4_6  and  C5_7 
REMARK    5  A    between atoms: C5_7  and  C6_9 
REMARK    6  A    between atoms: C6_9  and  C7_10 
REMARK    7  A    between atoms: C8_11  and  O4_12 
REMARK    8  A    between atoms: C8_11  and  C9_14 
REMARK    9  A    between atoms: C10_17  and  N1_18 
ROOT
HETATM    1  C3  UNL     1       1.822  -0.323  -0.416  1.00  0.00     0.276 C 
HETATM    2  O2  UNL     1       0.586  -0.290  -1.064  1.00  0.00    -0.345 OA
HETATM    3  C4  UNL     1      -0.425  -0.896  -0.404  1.00  0.00     0.224 C 
HETATM    4  C10 UNL     1      -0.003  -1.764   0.755  1.00  0.00     0.221 C 
HETATM    5  C11 UNL     1       1.184  -2.583   0.296  1.00  0.00     0.056 C 
HETATM    6  C12 UNL     1       2.253  -1.772  -0.345  1.00  0.00     0.116 C 
HETATM    7  S1  UNL     1       3.771  -2.001   0.595  1.00  0.00    -0.087 SA
ENDROOT
BRANCH   3   8
HETATM    8  C5  UNL     1      -1.460   0.099  -0.004  1.00  0.00     0.161 C 
HETATM    9  O3  UNL     1      -1.275   1.262  -0.304  1.00  0.00    -0.295 OA
BRANCH   8  10
HETATM   10  C6  UNL     1      -2.687  -0.268   0.733  1.00  0.00     0.111 C 
BRANCH  10  11
HETATM   11  C7  UNL     1      -3.483   0.972   0.959  1.00  0.00     0.018 C 
HETATM   12  C8  UNL     1      -4.693   1.192   0.520  1.00  0.00     0.104 C 
BRANCH  12  13
HETATM   13  O4  UNL     1      -5.306   2.412   0.819  1.00  0.00    -0.360 OA
ATOM     14  H4  UNL     1      -6.186   2.572   0.500  1.00  0.00     0.217 HD
ENDBRANCH  12  13
BRANCH  12  15
HETATM   15  C9  UNL     1      -5.488   0.252  -0.277  1.00  0.00     0.409 C 
HETATM   16  F1  UNL     1      -6.645  -0.043   0.450  1.00  0.00    -0.207 F 
HETATM   17  F2  UNL     1      -5.924   0.845  -1.463  1.00  0.00    -0.207 F 
ENDBRANCH  12  15
ENDBRANCH  10  11
ENDBRANCH   8  10
ENDBRANCH   3   8
BRANCH   4  18
HETATM   18  N1  UNL     1      -1.085  -2.706   1.010  1.00  0.00    -0.072 N 
ATOM     19  H13 UNL     1      -1.984  -2.249   1.162  1.00  0.00     0.274 HD
ATOM     20  H12 UNL     1      -1.348  -3.244   0.184  1.00  0.00     0.274 HD
ATOM     21  H11 UNL     1      -0.800  -3.293   1.794  1.00  0.00     0.274 HD
ENDBRANCH   4  18
BRANCH   1  22
HETATM   22  O1  UNL     1       2.670   0.434  -1.226  1.00  0.00    -0.344 OA
BRANCH  22  23
HETATM   23  C2  UNL     1       3.178   1.552  -0.596  1.00  0.00     0.221 C 
HETATM   24  C1  UNL     1       4.689   1.474  -0.683  1.00  0.00     0.051 C 
BRANCH  23  25
HETATM   25  C13 UNL     1       2.789   2.813  -1.288  1.00  0.00     0.203 C 
HETATM   26  O5  UNL     1       2.077   2.825  -2.328  1.00  0.00    -0.646 OA
HETATM   27  O6  UNL     1       3.257   4.001  -0.722  1.00  0.00    -0.646 OA
ENDBRANCH  23  25
ENDBRANCH  22  23
ENDBRANCH   1  22
TORSDOF 9
