REMARK  7 active torsions:
REMARK  status: ('A' for Active; 'I' for Inactive)
REMARK       I    between atoms: N1_2  and  C2_4 
REMARK    1  A    between atoms: C2_4  and  C3_6 
REMARK    2  A    between atoms: C3_6  and  N2_9 
REMARK       I    between atoms: N2_9  and  C6_11 
REMARK    3  A    between atoms: C6_11  and  C7_13 
REMARK    4  A    between atoms: C7_13  and  C8_14 
REMARK    5  A    between atoms: N4_20  and  C11_21 
REMARK    6  A    between atoms: C11_21  and  C12_22 
REMARK    7  A    between atoms: C13_23  and  C14_24 
ROOT
HETATM    1  C7  UNL     1       0.988  -0.099   1.257  1.00  0.00     0.161 C 
ENDROOT
BRANCH   1   2
HETATM    2  C6  UNL     1      -0.208   0.365   0.508  1.00  0.00     0.224 C 
HETATM    3  N2  UNL     1      -1.408  -0.393   0.444  1.00  0.00    -0.343 N 
ATOM      4  H2  UNL     1      -1.437  -1.287   0.934  1.00  0.00     0.163 HD
HETATM    5  O2  UNL     1      -0.220   1.477  -0.121  1.00  0.00    -0.273 OA
BRANCH   3   6
HETATM    6  C3  UNL     1      -2.579   0.022  -0.266  1.00  0.00     0.106 C 
HETATM    7  C4  UNL     1      -3.087   1.375   0.209  1.00  0.00     0.048 C 
HETATM    8  C5  UNL     1      -2.296   0.184  -1.766  1.00  0.00     0.048 C 
BRANCH   6   9
HETATM    9  C2  UNL     1      -3.657  -0.979  -0.144  1.00  0.00     0.244 C 
HETATM   10  N1  UNL     1      -4.891  -0.752  -0.768  1.00  0.00    -0.363 N 
HETATM   11  C1  UNL     1      -5.965  -1.710  -0.668  1.00  0.00     0.149 C 
ATOM     12  H1  UNL     1      -5.032   0.105  -1.302  1.00  0.00     0.162 HD
HETATM   13  O1  UNL     1      -3.484  -2.049   0.520  1.00  0.00    -0.271 OA
ENDBRANCH   6   9
ENDBRANCH   3   6
ENDBRANCH   1   2
BRANCH   1  14
HETATM   14  C8  UNL     1       2.039   0.940   1.102  1.00  0.00     0.039 A 
HETATM   15  C9  UNL     1       2.271   2.048   1.920  1.00  0.00     0.116 A 
HETATM   16  N3  UNL     1       3.319   2.718   1.408  1.00  0.00    -0.344 N 
HETATM   17  C10 UNL     1       3.755   2.073   0.298  1.00  0.00     0.156 A 
ATOM     18  H3  UNL     1       3.721   3.573   1.793  1.00  0.00     0.167 HD
HETATM   19 BR1  UNL     1       5.232   2.618  -0.810  1.00  0.00    -0.010 Br
HETATM   20  N4  UNL     1       2.966   0.998   0.129  1.00  0.00    -0.318 N 
BRANCH  20  21
HETATM   21  C11 UNL     1       3.132   0.063  -0.962  1.00  0.00     0.225 C 
BRANCH  21  22
HETATM   22  C12 UNL     1       4.049  -1.030  -0.592  1.00  0.00    -0.086 C 
HETATM   23  C13 UNL     1       4.809  -1.915  -0.274  1.00  0.00    -0.094 C 
BRANCH  23  24
HETATM   24  C14 UNL     1       5.747  -2.984   0.122  1.00  0.00     0.178 C 
HETATM   25 BR2  UNL     1       6.240  -2.730   1.990  1.00  0.00    -0.083 Br
ENDBRANCH  23  24
ENDBRANCH  21  22
ENDBRANCH  20  21
ENDBRANCH   1  14
TORSDOF 7
