REMARK  5 active torsions:
REMARK  status: ('A' for Active; 'I' for Inactive)
REMARK    1  A    between atoms: N1_2  and  C4_5 
REMARK    2  A    between atoms: C4_5  and  C5_6 
REMARK    3  A    between atoms: C5_6  and  N2_7 
REMARK       I    between atoms: N2_7  and  C6_9 
REMARK       I    between atoms: C6_9  and  N5_15 
REMARK       I    between atoms: N3_10  and  C7_12 
REMARK    4  A    between atoms: N5_15  and  C8_17 
REMARK    5  A    between atoms: C8_17  and  C9_20 
ROOT
HETATM    1  N2  UNL     1       0.743   0.732   0.424  1.00  0.00    -0.225 N 
ATOM      2  H2  UNL     1       0.523   1.469   1.094  1.00  0.00     0.177 HD
HETATM    3  C6  UNL     1       2.112   0.476   0.133  1.00  0.00     0.679 C 
HETATM    4  N3  UNL     1       2.901   1.287  -0.445  1.00  0.00    -0.144 N 
ATOM      5  H3  UNL     1       3.862   0.979  -0.595  1.00  0.00     0.188 HD
HETATM    6  C7  UNL     1       2.557   2.581  -0.897  1.00  0.00     0.346 C 
HETATM    7  N4  UNL     1       2.153   3.633  -0.038  1.00  0.00    -0.039 NA
HETATM    8  O1  UNL     1       2.603   2.844  -2.139  1.00  0.00    -0.250 OA
HETATM    9  N5  UNL     1       2.622  -0.793   0.526  1.00  0.00    -0.197 N 
ATOM     10  H5  UNL     1       2.482  -1.117   1.483  1.00  0.00     0.180 HD
ENDROOT
BRANCH   1  11
HETATM   11  C5  UNL     1      -0.354   0.008  -0.176  1.00  0.00     0.166 C 
BRANCH  11  12
HETATM   12  C4  UNL     1      -1.640   0.538   0.358  1.00  0.00     0.256 C 
BRANCH  12  13
HETATM   13  N1  UNL     1      -2.806  -0.104  -0.166  1.00  0.00    -0.077 N 
HETATM   14  C1  UNL     1      -3.145   0.418  -1.492  1.00  0.00     0.271 C 
HETATM   15  C2  UNL     1      -3.928   0.196   0.704  1.00  0.00     0.271 C 
HETATM   16  C3  UNL     1      -2.681  -1.537  -0.282  1.00  0.00     0.271 C 
ENDBRANCH  12  13
ENDBRANCH  11  12
ENDBRANCH   1  11
BRANCH   9  17
HETATM   17  C8  UNL     1       3.345  -1.640  -0.426  1.00  0.00     0.172 C 
HETATM   18 BR1  UNL     1       4.909  -0.643  -0.969  1.00  0.00    -0.048 Br
HETATM   19 BR2  UNL     1       2.295  -2.021  -1.985  1.00  0.00    -0.048 Br
BRANCH  17  20
HETATM   20  C9  UNL     1       3.745  -2.912   0.320  1.00  0.00     0.141 C 
HETATM   21 BR3  UNL     1       4.870  -2.365   1.794  1.00  0.00    -0.092 Br
ENDBRANCH  17  20
ENDBRANCH   9  17
TORSDOF 5
