REMARK  7 active torsions:
REMARK  status: ('A' for Active; 'I' for Inactive)
REMARK    1  A    between atoms: N1_2  and  C2_3 
REMARK    2  A    between atoms: N1_2  and  C17_20 
REMARK    3  A    between atoms: C2_3  and  C3_4 
REMARK    4  A    between atoms: N2_13  and  C11_14 
REMARK    5  A    between atoms: C17_20  and  C18_21 
REMARK    6  A    between atoms: C21_24  and  N3_25 
REMARK    7  A    between atoms: C22_29  and  O1_30 
ROOT
HETATM    1  C3  UNL     1      -0.651   0.185   0.162  1.00  0.00     0.051 A 
HETATM    2  C4  UNL     1      -0.294   1.232   1.009  1.00  0.00     0.044 A 
HETATM    3  C5  UNL     1      -1.430   1.904   1.404  1.00  0.00    -0.007 A 
HETATM    4  C6  UNL     1      -1.649   3.003   2.229  1.00  0.00     0.015 A 
HETATM    5  C7  UNL     1      -2.928   3.477   2.456  1.00  0.00     0.025 A 
HETATM    6  C8  UNL     1      -3.985   2.845   1.855  1.00  0.00     0.036 A 
HETATM    7 CL1  UNL     1      -5.646   3.377   2.090  1.00  0.00    -0.084 Cl
HETATM    8  C9  UNL     1      -3.760   1.753   1.036  1.00  0.00     0.054 A 
HETATM    9  C10 UNL     1      -2.481   1.256   0.790  1.00  0.00     0.047 A 
HETATM   10  N2  UNL     1      -1.990   0.221   0.044  1.00  0.00    -0.340 N 
ENDROOT
BRANCH   1  11
HETATM   11  C2  UNL     1       0.253  -0.772  -0.471  1.00  0.00     0.119 C 
BRANCH  11  12
HETATM   12  N1  UNL     1       1.457  -1.023   0.218  1.00  0.00    -0.372 N 
HETATM   13  C1  UNL     1       1.440  -1.552   1.501  1.00  0.00     0.154 C 
BRANCH  12  14
HETATM   14  C17 UNL     1       2.598  -0.972  -0.579  1.00  0.00     0.070 C 
BRANCH  14  15
HETATM   15  C18 UNL     1       3.707  -0.063  -0.209  1.00  0.00     0.055 C 
HETATM   16  C19 UNL     1       4.263  -0.418   1.144  1.00  0.00     0.014 C 
HETATM   17  C20 UNL     1       5.769  -0.228   1.062  1.00  0.00     0.036 C 
HETATM   18  C21 UNL     1       5.974   0.451  -0.246  1.00  0.00     0.212 C 
HETATM   19  C22 UNL     1       4.923  -0.190  -1.144  1.00  0.00     0.157 C 
BRANCH  18  20
HETATM   20  N3  UNL     1       7.277   0.224  -0.816  1.00  0.00    -0.073 N 
ATOM     21  H33 UNL     1       8.010   0.485  -0.156  1.00  0.00     0.274 HD
ATOM     22  H32 UNL     1       7.467  -0.775  -0.895  1.00  0.00     0.274 HD
ATOM     23  H31 UNL     1       7.418   0.689  -1.713  1.00  0.00     0.274 HD
ENDBRANCH  18  20
BRANCH  19  24
HETATM   24  O1  UNL     1       4.798   0.585  -2.272  1.00  0.00    -0.393 OA
ATOM     25  H1  UNL     1       5.549   0.507  -2.849  1.00  0.00     0.210 HD
ENDBRANCH  19  24
ENDBRANCH  14  15
ENDBRANCH  12  14
ENDBRANCH  11  12
ENDBRANCH   1  11
BRANCH  10  26
HETATM   26  C11 UNL     1      -2.835  -0.677  -0.738  1.00  0.00     0.090 C 
HETATM   27  C12 UNL     1      -3.719  -1.461   0.167  1.00  0.00     0.026 C 
HETATM   28  C13 UNL     1      -5.006  -1.919  -0.411  1.00  0.00     0.002 C 
HETATM   29  C14 UNL     1      -5.656  -0.965  -1.372  1.00  0.00     0.000 C 
HETATM   30  C15 UNL     1      -4.663  -0.669  -2.458  1.00  0.00     0.002 C 
HETATM   31  C16 UNL     1      -3.491   0.054  -1.846  1.00  0.00     0.026 C 
ENDBRANCH  10  26
TORSDOF 7
