REMARK  6 active torsions:
REMARK  status: ('A' for Active; 'I' for Inactive)
REMARK    1  A    between atoms: C2_2  and  C3_3 
REMARK    2  A    between atoms: C4_5  and  C5_6 
REMARK    3  A    between atoms: C6_10  and  C7_11 
REMARK    4  A    between atoms: C8_14  and  O3_15 
REMARK    5  A    between atoms: C16_24  and  C17_25 
REMARK    6  A    between atoms: C17_25  and  C18_26 
ROOT
HETATM    1  C3  UNL     1       0.446   0.709  -0.715  1.00  0.00     0.138 C 
HETATM    2  F1  UNL     1       0.460   1.370   0.509  1.00  0.00    -0.237 F 
HETATM    3  C4  UNL     1       1.844   0.218  -0.990  1.00  0.00     0.093 C 
HETATM    4  C9  UNL     1       1.731  -1.308  -1.101  1.00  0.00     0.020 C 
HETATM    5  C10 UNL     1       0.597  -1.531  -0.162  1.00  0.00    -0.001 C 
HETATM    6  C11 UNL     1       0.099  -2.920  -0.104  1.00  0.00     0.006 C 
HETATM    7  C12 UNL     1      -1.006  -2.922   0.967  1.00  0.00     0.006 C 
HETATM    8  C13 UNL     1      -2.004  -1.948   0.412  1.00  0.00    -0.002 C 
HETATM    9  C14 UNL     1      -3.256  -1.856   1.219  1.00  0.00     0.032 C 
HETATM   10  C15 UNL     1      -3.716  -0.498   0.797  1.00  0.00    -0.023 C 
HETATM   11  C16 UNL     1      -2.714   0.250   0.338  1.00  0.00    -0.078 C 
HETATM   12  C20 UNL     1      -1.479  -0.522   0.430  1.00  0.00     0.031 C 
HETATM   13  C21 UNL     1      -0.447  -0.487  -0.612  1.00  0.00     0.008 C 
HETATM   14  C22 UNL     1      -0.942  -0.819  -2.002  1.00  0.00     0.020 C 
ENDROOT
BRANCH   3  15
HETATM   15  C5  UNL     1       2.819   0.532   0.060  1.00  0.00     0.119 A 
HETATM   16  O1  UNL     1       2.703   1.070   1.245  1.00  0.00    -0.238 OA
HETATM   17  N1  UNL     1       3.855   1.158   1.841  1.00  0.00    -0.253 N 
HETATM   18  C6  UNL     1       4.817   0.673   1.070  1.00  0.00     0.155 A 
ATOM     19  H1  UNL     1       3.998   1.547   2.773  1.00  0.00     0.195 HD
HETATM   20  C8  UNL     1       4.175   0.256  -0.100  1.00  0.00     0.132 A 
BRANCH  18  21
HETATM   21  C7  UNL     1       6.254   0.561   1.308  1.00  0.00     0.286 C 
HETATM   22  N2  UNL     1       6.817   1.011   2.527  1.00  0.00    -0.056 NA
HETATM   23  O2  UNL     1       7.006   0.062   0.433  1.00  0.00    -0.269 OA
ENDBRANCH  18  21
BRANCH  20  24
HETATM   24  O3  UNL     1       4.830  -0.317  -1.182  1.00  0.00    -0.356 OA
ATOM     25  H3  UNL     1       5.755  -0.505  -1.291  1.00  0.00     0.218 HD
ENDBRANCH  20  24
ENDBRANCH   3  15
BRANCH   1  26
HETATM   26  C2  UNL     1       0.140   1.627  -1.844  1.00  0.00     0.007 C 
HETATM   27  C1  UNL     1       0.886   2.647  -2.197  1.00  0.00     0.010 C 
ENDBRANCH   1  26
BRANCH  11  28
HETATM   28  C17 UNL     1      -2.942   1.632  -0.132  1.00  0.00     0.034 C 
BRANCH  28  29
HETATM   29  C18 UNL     1      -4.382   2.124   0.048  1.00  0.00    -0.000 C 
HETATM   30  C19 UNL     1      -4.806   2.196   1.478  1.00  0.00     0.005 C 
ENDBRANCH  28  29
ENDBRANCH  11  28
TORSDOF 6
