REMARK  5 active torsions:
REMARK  status: ('A' for Active; 'I' for Inactive)
REMARK    1  A    between atoms: O1_2  and  C2_3 
REMARK    2  A    between atoms: C6_8  and  N1_9 
REMARK    3  A    between atoms: C9_13  and  C10_14 
REMARK    4  A    between atoms: C10_14  and  N2_15 
REMARK    5  A    between atoms: N2_15  and  C11_18 
ROOT
HETATM    1  N1  UNL     1       3.116  -1.135  -0.276  1.00  0.00    -0.342 N 
ATOM      2  H1  UNL     1       2.637  -1.708  -0.971  1.00  0.00     0.167 HD
HETATM    3  C7  UNL     1       2.412  -0.472   0.577  1.00  0.00     0.108 A 
HETATM    4  C8  UNL     1       1.036  -0.538   0.549  1.00  0.00     0.075 A 
HETATM    5  C9  UNL     1       0.297   0.177   1.467  1.00  0.00     0.039 A 
HETATM    6  N3  UNL     1       0.991   0.919   2.362  1.00  0.00    -0.354 N 
ATOM      7  H3  UNL     1       0.475   1.460   3.055  1.00  0.00     0.166 HD
HETATM    8  C21 UNL     1       2.329   0.970   2.372  1.00  0.00     0.182 A 
HETATM    9  N4  UNL     1       3.068   0.281   1.486  1.00  0.00    -0.339 N 
ATOM     10  H4  UNL     1       4.087   0.325   1.500  1.00  0.00     0.168 HD
ENDROOT
BRANCH   5  11
HETATM   11  C10 UNL     1      -1.198   0.139   1.478  1.00  0.00     0.290 C 
BRANCH  11  12
HETATM   12  N2  UNL     1      -1.644   0.263   0.112  1.00  0.00    -0.061 N 
ATOM     13  H22 UNL     1      -1.251   1.097  -0.324  1.00  0.00     0.278 HD
ATOM     14  H21 UNL     1      -1.215  -0.452  -0.476  1.00  0.00     0.278 HD
BRANCH  12  15
HETATM   15  C11 UNL     1      -3.078   0.243  -0.020  1.00  0.00     0.127 C 
HETATM   16  C12 UNL     1      -3.656  -1.053   0.442  1.00  0.00     0.043 C 
HETATM   17  C13 UNL     1      -5.147  -1.102   0.170  1.00  0.00    -0.012 C 
HETATM   18  C14 UNL     1      -5.451  -0.942  -1.287  1.00  0.00     0.009 C 
HETATM   19  C18 UNL     1      -5.826   0.026   0.910  1.00  0.00     0.009 C 
HETATM   20  C15 UNL     1      -4.879   0.374  -1.769  1.00  0.00    -0.012 C 
HETATM   21  C16 UNL     1      -5.490   1.549  -1.024  1.00  0.00     0.009 C 
HETATM   22  C20 UNL     1      -3.393   0.407  -1.496  1.00  0.00     0.043 C 
HETATM   23  C17 UNL     1      -5.215   1.329   0.445  1.00  0.00    -0.012 C 
HETATM   24  C19 UNL     1      -3.742   1.387   0.712  1.00  0.00     0.043 C 
ENDBRANCH  12  15
ENDBRANCH  11  12
ENDBRANCH   5  11
BRANCH   1  25
HETATM   25  C6  UNL     1       4.537  -1.095  -0.281  1.00  0.00     0.037 A 
HETATM   26  C5  UNL     1       5.216  -1.987   0.521  1.00  0.00     0.053 A 
HETATM   27  C4  UNL     1       6.593  -1.983   0.545  1.00  0.00     0.038 A 
HETATM   28  C3  UNL     1       7.305  -1.073  -0.244  1.00  0.00     0.060 A 
HETATM   29 CL1  UNL     1       7.457  -3.118   1.566  1.00  0.00    -0.084 Cl
HETATM   30  C2  UNL     1       6.646  -0.179  -1.046  1.00  0.00     0.071 A 
HETATM   31  C22 UNL     1       5.260  -0.213  -1.045  1.00  0.00     0.066 A 
BRANCH  30  32
HETATM   32  O1  UNL     1       7.294   0.754  -1.856  1.00  0.00    -0.356 OA
HETATM   33  C1  UNL     1       8.671   0.894  -1.951  1.00  0.00     0.210 C 
ENDBRANCH  30  32
ENDBRANCH   1  25
TORSDOF 5
