REMARK  2 active torsions:
REMARK  status: ('A' for Active; 'I' for Inactive)
REMARK    1  A    between atoms: N1_1  and  N2_4 
REMARK       I    between atoms: N2_4  and  C1_6 
REMARK    2  A    between atoms: C1_6  and  C2_8 
ROOT
HETATM    1  C2  UNL     1      -0.481  -0.023  -0.204  1.00  0.00     0.195 A 
HETATM    2  N3  UNL     1      -0.873   1.082   0.442  1.00  0.00    -0.277 N 
ATOM      3  H3  UNL     1      -0.274   1.741   0.938  1.00  0.00     0.189 HD
HETATM    4  N4  UNL     1      -2.185   1.154   0.313  1.00  0.00    -0.250 N 
ATOM      5  H4  UNL     1      -2.766   1.895   0.705  1.00  0.00     0.192 HD
HETATM    6  C3  UNL     1      -2.650   0.119  -0.404  1.00  0.00     0.340 A 
HETATM    7  O2  UNL     1      -3.832  -0.160  -0.738  1.00  0.00    -0.245 OA
HETATM    8  N5  UNL     1      -1.569  -0.617  -0.724  1.00  0.00    -0.288 N 
ATOM      9  H5  UNL     1      -1.575  -1.479  -1.269  1.00  0.00     0.172 HD
ENDROOT
BRANCH   1  10
HETATM   10  C1  UNL     1       0.906  -0.460  -0.294  1.00  0.00     0.305 C 
HETATM   11  N2  UNL     1       1.960   0.289   0.320  1.00  0.00    -0.270 N 
ATOM     12  H2  UNL     1       1.766   1.147   0.836  1.00  0.00     0.189 HD
HETATM   13  O1  UNL     1       1.118  -1.516  -0.933  1.00  0.00    -0.263 OA
BRANCH  11  14
HETATM   14  N1  UNL     1       3.262  -0.195   0.188  1.00  0.00    -0.342 N 
ATOM     15  H12 UNL     1       3.440  -1.055  -0.331  1.00  0.00     0.176 HD
ATOM     16  H11 UNL     1       4.013   0.339   0.626  1.00  0.00     0.176 HD
ENDBRANCH  11  14
ENDBRANCH   1  10
TORSDOF 2
