REMARK  4 active torsions:
REMARK  status: ('A' for Active; 'I' for Inactive)
REMARK    1  A    between atoms: N1_1  and  N2_4 
REMARK    2  A    between atoms: N2_4  and  C1_5 
REMARK    3  A    between atoms: C1_5  and  C2_6 
REMARK    4  A    between atoms: C2_6  and  C3_7 
ROOT
HETATM    1  C3  UNL     1       0.660  -0.449  -0.343  1.00  0.00     0.212 C 
HETATM    2  C4  UNL     1       1.113   0.976  -0.561  1.00  0.00     0.265 C 
HETATM    3  N3  UNL     1       1.872   1.439   0.599  1.00  0.00    -0.072 N 
ATOM      4  H31 UNL     1       1.307   1.533   1.443  1.00  0.00     0.277 HD
ATOM      5  H32 UNL     1       2.160   2.415   0.533  1.00  0.00     0.277 HD
HETATM    6  C5  UNL     1       2.982   0.517   0.746  1.00  0.00     0.259 C 
HETATM    7  C6  UNL     1       2.395  -0.771   1.285  1.00  0.00     0.260 C 
HETATM    8  N4  UNL     1       1.013  -0.954   0.954  1.00  0.00    -0.068 N 
ATOM      9  H41 UNL     1       0.748  -1.935   1.043  1.00  0.00     0.277 HD
ATOM     10  H42 UNL     1       0.414  -0.550   1.673  1.00  0.00     0.277 HD
ENDROOT
BRANCH   1  11
HETATM   11  C2  UNL     1      -0.784  -0.667  -0.651  1.00  0.00     0.052 C 
BRANCH  11  12
HETATM   12  C1  UNL     1      -1.743   0.035   0.258  1.00  0.00     0.136 C 
BRANCH  12  13
HETATM   13  N2  UNL     1      -3.074  -0.343  -0.147  1.00  0.00    -0.148 NA
BRANCH  13  14
HETATM   14  N1  UNL     1      -4.053   0.579   0.191  1.00  0.00    -0.348 N 
ATOM     15  H12 UNL     1      -3.834   1.445   0.684  1.00  0.00     0.172 HD
ATOM     16  H11 UNL     1      -4.995   0.312  -0.096  1.00  0.00     0.172 HD
ENDBRANCH  13  14
ENDBRANCH  12  13
ENDBRANCH  11  12
ENDBRANCH   1  11
TORSDOF 4
