REMARK  7 active torsions:
REMARK  status: ('A' for Active; 'I' for Inactive)
REMARK    1  A    between atoms: N1_1  and  C1_5 
REMARK    2  A    between atoms: C1_5  and  C2_6 
REMARK    3  A    between atoms: C2_6  and  N2_7 
REMARK    4  A    between atoms: N2_7  and  C3_9 
REMARK    5  A    between atoms: C6_17  and  C7_18 
REMARK    6  A    between atoms: C7_18  and  N5_19 
REMARK    7  A    between atoms: C12_25  and  N6_26 
ROOT
HETATM    1  C3  UNL     1      -2.325   0.749   1.067  1.00  0.00     0.119 A 
HETATM    2  N3  UNL     1      -2.934   1.574   1.927  1.00  0.00    -0.338 N 
ATOM      3  H3  UNL     1      -3.942   1.717   1.863  1.00  0.00     0.168 HD
HETATM    4  C4  UNL     1      -2.231   2.213   2.870  1.00  0.00     0.184 A 
HETATM    5  N4  UNL     1      -0.904   2.009   2.935  1.00  0.00    -0.332 N 
ATOM      6  H4  UNL     1      -0.384   2.505   3.659  1.00  0.00     0.168 HD
HETATM    7  C5  UNL     1      -0.213   1.199   2.115  1.00  0.00     0.165 A 
HETATM    8  O1  UNL     1       1.016   0.821   1.946  1.00  0.00    -0.293 OA
HETATM    9  C6  UNL     1       1.142  -0.020   0.955  1.00  0.00     0.111 A 
HETATM   10  C12 UNL     1      -0.114  -0.247   0.381  1.00  0.00     0.080 A 
HETATM   11  C17 UNL     1      -0.965   0.537   1.132  1.00  0.00     0.088 A 
ENDROOT
BRANCH   1  12
HETATM   12  N2  UNL     1      -2.969   0.106   0.137  1.00  0.00    -0.374 N 
ATOM     13  H2  UNL     1      -2.488  -0.520  -0.509  1.00  0.00     0.161 HD
BRANCH  12  14
HETATM   14  C2  UNL     1      -4.398   0.320   0.061  1.00  0.00     0.148 C 
BRANCH  14  15
HETATM   15  C1  UNL     1      -4.724   1.627  -0.647  1.00  0.00     0.249 C 
BRANCH  15  16
HETATM   16  N1  UNL     1      -6.165   1.773  -0.685  1.00  0.00    -0.078 N 
ATOM     17  H13 UNL     1      -6.631   0.970  -1.107  1.00  0.00     0.274 HD
ATOM     18  H12 UNL     1      -6.592   1.709   0.239  1.00  0.00     0.274 HD
ATOM     19  H11 UNL     1      -6.384   2.649  -1.160  1.00  0.00     0.274 HD
ENDBRANCH  15  16
ENDBRANCH  14  15
ENDBRANCH  12  14
ENDBRANCH   1  12
BRANCH  10  20
HETATM   20  N6  UNL     1      -0.453  -1.083  -0.714  1.00  0.00    -0.378 N 
HETATM   21  C13 UNL     1      -0.830  -2.484  -0.527  1.00  0.00     0.123 C 
HETATM   22  C14 UNL     1      -1.566  -2.852  -1.791  1.00  0.00     0.021 C 
HETATM   23  C15 UNL     1      -0.821  -2.038  -2.826  1.00  0.00     0.021 C 
HETATM   24  C16 UNL     1      -0.489  -0.755  -2.128  1.00  0.00     0.123 C 
ENDBRANCH  10  20
BRANCH   9  25
HETATM   25  C7  UNL     1       2.377  -0.648   0.485  1.00  0.00     0.339 C 
BRANCH  25  26
HETATM   26  N5  UNL     1       3.569  -0.301   1.177  1.00  0.00     0.098 N 
HETATM   27  C8  UNL     1       3.952   1.065   1.124  1.00  0.00     0.299 C 
HETATM   28  C9  UNL     1       4.737   1.401  -0.127  1.00  0.00     0.198 C 
HETATM   29  O2  UNL     1       5.786   0.539  -0.371  1.00  0.00    -0.388 OA
HETATM   30  C10 UNL     1       5.224  -0.723  -0.572  1.00  0.00     0.198 C 
HETATM   31  C11 UNL     1       4.637  -1.162   0.728  1.00  0.00     0.299 C 
ENDBRANCH  25  26
ENDBRANCH   9  25
TORSDOF 7
