REMARK  13 active torsions:
REMARK  status: ('A' for Active; 'I' for Inactive)
REMARK    1  A    between atoms: O1_2  and  C2_3 
REMARK    2  A    between atoms: C2_3  and  C3_5 
REMARK    3  A    between atoms: C4_6  and  C5_7 
REMARK    4  A    between atoms: N2_9  and  O3_11 
REMARK    5  A    between atoms: C6_15  and  N4_16 
REMARK    6  A    between atoms: N5_19  and  C7_20 
REMARK    7  A    between atoms: C7_20  and  O4_21 
REMARK    8  A    between atoms: O4_21  and  C8_22 
REMARK    9  A    between atoms: C8_22  and  C9_24 
REMARK   10  A    between atoms: C10_27  and  O6_28 
REMARK   11  A    between atoms: C11_30  and  C12_31 
REMARK   12  A    between atoms: C12_31  and  N7_32 
REMARK   13  A    between atoms: C12_31  and  O7_36 
ROOT
HETATM    1  C3  UNL     1      -3.187  -0.182   0.157  1.00  0.00     0.138 A 
HETATM    2  C4  UNL     1      -3.380   0.855   1.031  1.00  0.00     0.114 A 
HETATM    3  N3  UNL     1      -2.528   0.994   2.088  1.00  0.00    -0.187 N 
ATOM      4  H3  UNL     1      -2.674   1.767   2.737  1.00  0.00     0.184 HD
HETATM    5  C6  UNL     1      -1.495   0.145   2.309  1.00  0.00     0.683 A 
HETATM    6  N5  UNL     1      -1.307  -0.868   1.456  1.00  0.00    -0.124 N 
HETATM    7  C13 UNL     1      -2.116  -1.055   0.396  1.00  0.00     0.282 A 
HETATM    8  O8  UNL     1      -1.939  -2.000  -0.399  1.00  0.00    -0.266 OA
ENDROOT
BRANCH   6   9
HETATM    9  C7  UNL     1      -0.198  -1.786   1.692  1.00  0.00     0.332 C 
BRANCH   9  10
HETATM   10  O4  UNL     1       0.970  -1.327   1.039  1.00  0.00    -0.295 OA
BRANCH  10  11
HETATM   11  C8  UNL     1       2.123  -2.089   1.162  1.00  0.00     0.319 C 
HETATM   12  O5  UNL     1       2.223  -3.146   1.799  1.00  0.00    -0.257 OA
BRANCH  11  13
HETATM   13  C9  UNL     1       3.334  -1.590   0.470  1.00  0.00     0.153 A 
HETATM   14  N6  UNL     1       4.543  -2.133   0.437  1.00  0.00    -0.325 N 
HETATM   15  C10 UNL     1       5.491  -1.551  -0.225  1.00  0.00     0.158 A 
ATOM     16  H6  UNL     1       4.726  -3.006   0.931  1.00  0.00     0.168 HD
HETATM   17  C11 UNL     1       5.191  -0.381  -0.871  1.00  0.00     0.091 A 
HETATM   18  S1  UNL     1       3.541  -0.186  -0.482  1.00  0.00    -0.062 SA
BRANCH  15  19
HETATM   19  O6  UNL     1       6.801  -2.090  -0.292  1.00  0.00    -0.345 OA
ATOM     20  H6  UNL     1       7.497  -1.663  -0.778  1.00  0.00     0.219 HD
ENDBRANCH  15  19
BRANCH  17  21
HETATM   21  C12 UNL     1       6.034   0.526  -1.706  1.00  0.00     0.362 C 
BRANCH  21  22
HETATM   22  N7  UNL     1       5.734   1.881  -1.257  1.00  0.00    -0.048 N 
ATOM     23  H73 UNL     1       4.740   2.108  -1.286  1.00  0.00     0.277 HD
ATOM     24  H72 UNL     1       5.863   2.015  -0.254  1.00  0.00     0.277 HD
ATOM     25  H71 UNL     1       6.310   2.500  -1.827  1.00  0.00     0.277 HD
ENDBRANCH  21  22
BRANCH  21  26
HETATM   26  O7  UNL     1       7.384   0.316  -1.479  1.00  0.00    -0.366 OA
ATOM     27  H7  UNL     1       7.920   0.893  -2.010  1.00  0.00     0.212 HD
ENDBRANCH  21  26
ENDBRANCH  17  21
ENDBRANCH  11  13
ENDBRANCH  10  11
ENDBRANCH   9  10
ENDBRANCH   6   9
BRANCH   5  28
HETATM   28  N4  UNL     1      -0.734   0.344   3.329  1.00  0.00    -0.234 N 
ATOM     29  H42 UNL     1      -0.877   1.116   3.979  1.00  0.00     0.174 HD
ATOM     30  H41 UNL     1       0.043  -0.295   3.495  1.00  0.00     0.174 HD
ENDBRANCH   5  28
BRANCH   1  31
HETATM   31  C2  UNL     1      -4.006  -0.441  -1.005  1.00  0.00     0.300 C 
HETATM   32  O2  UNL     1      -5.043  -1.186  -0.945  1.00  0.00    -0.259 OA
BRANCH  31  33
HETATM   33  O1  UNL     1      -3.744   0.082  -2.267  1.00  0.00    -0.322 OA
HETATM   34  C1  UNL     1      -4.554  -0.194  -3.373  1.00  0.00     0.213 C 
ENDBRANCH  31  33
ENDBRANCH   1  31
BRANCH   2  35
HETATM   35  C5  UNL     1      -4.473   1.806   0.867  1.00  0.00     0.164 C 
HETATM   36  N1  UNL     1      -5.429   1.700  -0.222  1.00  0.00    -0.078 NA
HETATM   37  N2  UNL     1      -4.698   2.777   1.626  1.00  0.00    -0.253 N 
ATOM     38  H2  UNL     1      -5.517   3.287   1.296  1.00  0.00     0.195 HD
BRANCH  37  39
HETATM   39  O3  UNL     1      -4.231   3.349   2.696  1.00  0.00    -0.288 OA
ATOM     40  H3  UNL     1      -4.402   4.085   3.272  1.00  0.00     0.244 HD
ENDBRANCH  37  39
ENDBRANCH   2  35
TORSDOF 13
