REMARK  8 active torsions:
REMARK  status: ('A' for Active; 'I' for Inactive)
REMARK    1  A    between atoms: C2_2  and  O1_3 
REMARK    2  A    between atoms: C2_2  and  C3_5 
REMARK    3  A    between atoms: C4_6  and  O2_7 
REMARK    4  A    between atoms: C5_9  and  C6_10 
REMARK    5  A    between atoms: C6_10  and  C10_20 
REMARK    6  A    between atoms: N1_11  and  N2_13 
REMARK    7  A    between atoms: N2_13  and  C7_15 
REMARK    8  A    between atoms: C11_23  and  O4_24 
ROOT
HETATM    1  C3  UNL     1       3.872  -0.553   0.492  1.00  0.00     0.102 A 
HETATM    2  C4  UNL     1       2.734   0.136   0.050  1.00  0.00     0.102 A 
HETATM    3  C5  UNL     1       1.470  -0.126   0.569  1.00  0.00     0.090 A 
HETATM    4  C11 UNL     1       1.398  -1.117   1.558  1.00  0.00     0.202 A 
HETATM    5  O5  UNL     1       2.448  -1.750   1.964  1.00  0.00    -0.250 OA
HETATM    6  C12 UNL     1       3.634  -1.516   1.489  1.00  0.00     0.305 A 
HETATM    7  O6  UNL     1       4.651  -2.148   1.900  1.00  0.00    -0.259 OA
ENDROOT
BRANCH   3   8
HETATM    8  C6  UNL     1       0.236   0.543   0.166  1.00  0.00     0.131 C 
HETATM    9  N1  UNL     1      -0.818   0.115   0.804  1.00  0.00    -0.294 N 
ATOM     10  H1  UNL     1      -0.605  -0.619   1.480  1.00  0.00     0.187 HD
BRANCH   9  11
HETATM   11  N2  UNL     1      -2.122   0.431   0.764  1.00  0.00    -0.286 N 
ATOM     12  H2  UNL     1      -2.416   1.326   1.155  1.00  0.00     0.188 HD
BRANCH  11  13
HETATM   13  C7  UNL     1      -3.130  -0.433   0.195  1.00  0.00     0.150 C 
HETATM   14  N3  UNL     1      -2.792  -1.743  -0.211  1.00  0.00    -0.080 NA
HETATM   15  C8  UNL     1      -4.342   0.009   0.063  1.00  0.00     0.062 C 
HETATM   16  C9  UNL     1      -5.386  -0.862  -0.517  1.00  0.00     0.068 C 
HETATM   17  N4  UNL     1      -4.693   1.319   0.466  1.00  0.00    -0.104 NA
ENDBRANCH  11  13
ENDBRANCH   9  11
BRANCH   8  18
HETATM   18  C10 UNL     1       0.041   1.558  -0.793  1.00  0.00     0.283 C 
HETATM   19  N5  UNL     1      -1.334   2.058  -1.001  1.00  0.00    -0.056 NA
HETATM   20  O3  UNL     1       0.832   2.156  -1.544  1.00  0.00    -0.269 OA
ENDBRANCH   8  18
ENDBRANCH   3   8
BRANCH   2  21
HETATM   21  O2  UNL     1       2.883   1.063  -0.893  1.00  0.00    -0.358 OA
ATOM     22  H2  UNL     1       2.112   1.530  -1.193  1.00  0.00     0.217 HD
ENDBRANCH   2  21
BRANCH   4  23
HETATM   23  O4  UNL     1       0.147  -1.416   2.111  1.00  0.00    -0.340 OA
ATOM     24  H4  UNL     1       0.098  -2.088   2.781  1.00  0.00     0.220 HD
ENDBRANCH   4  23
BRANCH   1  25
HETATM   25  C2  UNL     1       5.209  -0.349   0.017  1.00  0.00     0.058 C 
HETATM   26  C1  UNL     1       5.772   0.543  -0.976  1.00  0.00     0.077 C 
BRANCH  25  27
HETATM   27  O1  UNL     1       6.116  -1.113   0.579  1.00  0.00    -0.364 OA
ATOM     28  H1  UNL     1       5.747  -1.698   1.230  1.00  0.00     0.217 HD
ENDBRANCH  25  27
ENDBRANCH   1  25
TORSDOF 8
