REMARK  3 active torsions:
REMARK  status: ('A' for Active; 'I' for Inactive)
REMARK    1  A    between atoms: N1_1  and  N2_4 
REMARK    2  A    between atoms: N2_4  and  C1_6 
REMARK    3  A    between atoms: C5_13  and  N4_14 
ROOT
HETATM    1  C1  UNL     1      -2.184   0.079  -0.348  1.00  0.00     0.699 A 
HETATM    2  N3  UNL     1      -1.855  -0.701   0.698  1.00  0.00    -0.154 N 
ATOM      3  H3  UNL     1      -2.595  -1.141   1.245  1.00  0.00     0.187 HD
HETATM    4  C2  UNL     1      -0.574  -0.913   1.038  1.00  0.00     0.272 A 
HETATM    5  O1  UNL     1      -0.266  -1.642   2.016  1.00  0.00    -0.267 OA
HETATM    6  C3  UNL     1       0.402  -0.300   0.274  1.00  0.00     0.062 A 
HETATM    7  C4  UNL     1       1.750  -0.496   0.597  1.00  0.00     0.055 A 
HETATM    8  C5  UNL     1       2.724   0.113  -0.163  1.00  0.00     0.104 A 
HETATM    9  C6  UNL     1       2.378   0.917  -1.241  1.00  0.00     0.038 A 
HETATM   10  C7  UNL     1       1.068   1.116  -1.566  1.00  0.00     0.033 A 
HETATM   11  C8  UNL     1       0.091   0.504  -0.803  1.00  0.00     0.065 A 
HETATM   12  N5  UNL     1      -1.224   0.668  -1.081  1.00  0.00    -0.189 N 
ATOM     13  H5  UNL     1      -1.494   1.256  -1.870  1.00  0.00     0.184 HD
ENDROOT
BRANCH   1  14
HETATM   14  N2  UNL     1      -3.416   0.281  -0.672  1.00  0.00    -0.138 N 
ATOM     15  H2  UNL     1      -3.599   0.883  -1.474  1.00  0.00     0.205 HD
BRANCH  14  16
HETATM   16  N1  UNL     1      -4.503  -0.254  -0.018  1.00  0.00    -0.331 N 
ATOM     17  H12 UNL     1      -4.301  -0.854   0.782  1.00  0.00     0.177 HD
ATOM     18  H11 UNL     1      -5.477  -0.094  -0.274  1.00  0.00     0.177 HD
ENDBRANCH  14  16
ENDBRANCH   1  14
BRANCH   8  19
HETATM   19  N4  UNL     1       4.100  -0.096   0.179  1.00  0.00    -0.116 N 
HETATM   20  O2  UNL     1       4.993   0.430  -0.474  1.00  0.00    -0.532 OA
HETATM   21  O3  UNL     1       4.434  -0.891   1.245  1.00  0.00    -0.532 OA
ENDBRANCH   8  19
TORSDOF 3
