REMARK  7 active torsions:
REMARK  status: ('A' for Active; 'I' for Inactive)
REMARK    1  A    between atoms: C1_2  and  C2_3 
REMARK       I    between atoms: C1_2  and  N3_18 
REMARK    2  A    between atoms: C2_3  and  N1_4 
REMARK    3  A    between atoms: N1_4  and  C3_5 
REMARK    4  A    between atoms: N1_4  and  C7_12 
REMARK    5  A    between atoms: C3_5  and  C4_6 
REMARK    6  A    between atoms: C7_12  and  C8_13 
REMARK    7  A    between atoms: N3_18  and  C12_20 
ROOT
HETATM    1  C2  UNL     1      -1.164  -0.724  -1.755  1.00  0.00     0.165 C 
ENDROOT
BRANCH   1   2
HETATM    2  C1  UNL     1       0.251  -0.781  -1.418  1.00  0.00     0.257 C 
HETATM    3  O1  UNL     1       0.988  -1.524  -2.175  1.00  0.00    -0.267 OA
HETATM    4  N3  UNL     1       0.945  -0.140  -0.375  1.00  0.00    -0.347 N 
ATOM      5  H3  UNL     1       0.413   0.458   0.257  1.00  0.00     0.163 HD
BRANCH   4   6
HETATM    6  C12 UNL     1       2.367  -0.278  -0.145  1.00  0.00     0.034 C 
HETATM    7  C13 UNL     1       2.801  -1.675   0.143  1.00  0.00     0.035 C 
HETATM    8  C14 UNL     1       4.299  -1.690   0.358  1.00  0.00    -0.012 C 
HETATM    9  C15 UNL     1       4.681  -0.900   1.564  1.00  0.00     0.009 C 
HETATM   10  C19 UNL     1       4.975  -1.157  -0.863  1.00  0.00     0.009 C 
HETATM   11  C16 UNL     1       4.187   0.517   1.394  1.00  0.00    -0.012 C 
HETATM   12  C17 UNL     1       4.964   1.113   0.230  1.00  0.00     0.009 C 
HETATM   13  C21 UNL     1       2.718   0.535   1.110  1.00  0.00     0.035 C 
HETATM   14  C18 UNL     1       4.614   0.305  -0.985  1.00  0.00    -0.012 C 
HETATM   15  C20 UNL     1       3.153   0.389  -1.261  1.00  0.00     0.035 C 
ENDBRANCH   4   6
ENDBRANCH   1   2
BRANCH   1  16
HETATM   16  N1  UNL     1      -1.991   0.107  -0.999  1.00  0.00    -0.355 N 
BRANCH  16  17
HETATM   17  C3  UNL     1      -1.763   1.496  -1.239  1.00  0.00     0.212 C 
BRANCH  17  18
HETATM   18  C4  UNL     1      -2.628   2.404  -0.430  1.00  0.00     0.141 A 
HETATM   19  N2  UNL     1      -2.306   3.064   0.692  1.00  0.00    -0.347 N 
HETATM   20  C5  UNL     1      -3.383   3.764   1.085  1.00  0.00     0.114 A 
ATOM     21  H2  UNL     1      -1.402   3.039   1.164  1.00  0.00     0.167 HD
HETATM   22  C6  UNL     1      -4.369   3.490   0.139  1.00  0.00     0.161 A 
HETATM   23  O2  UNL     1      -3.880   2.680  -0.741  1.00  0.00    -0.307 OA
ENDBRANCH  17  18
ENDBRANCH  16  17
BRANCH  16  24
HETATM   24  C7  UNL     1      -2.461  -0.268   0.254  1.00  0.00     0.095 C 
BRANCH  24  25
HETATM   25  C8  UNL     1      -3.452  -1.413   0.269  1.00  0.00     0.160 C 
HETATM   26  C9  UNL     1      -4.708  -1.075  -0.497  1.00  0.00     0.039 C 
HETATM   27  C10 UNL     1      -5.696  -0.849   0.641  1.00  0.00     0.029 C 
HETATM   28  C11 UNL     1      -5.164  -1.880   1.632  1.00  0.00     0.168 C 
HETATM   29  O3  UNL     1      -3.803  -1.638   1.584  1.00  0.00    -0.381 OA
ENDBRANCH  24  25
ENDBRANCH  16  24
ENDBRANCH   1  16
TORSDOF 7
