REMARK  7 active torsions:
REMARK  status: ('A' for Active; 'I' for Inactive)
REMARK    1  A    between atoms: C1_2  and  C2_3 
REMARK       I    between atoms: C1_2  and  N3_22 
REMARK    2  A    between atoms: C2_3  and  C3_4 
REMARK    3  A    between atoms: C3_4  and  C4_5 
REMARK    4  A    between atoms: C5_10  and  C6_11 
REMARK    5  A    between atoms: N3_22  and  C16_24 
REMARK    6  A    between atoms: C16_24  and  C17_25 
REMARK    7  A    between atoms: C17_25  and  N4_26 
ROOT
HETATM    1  C4  UNL     1      -0.755   1.930   0.585  1.00  0.00     0.140 A 
HETATM    2  N1  UNL     1      -0.970   2.739   1.604  1.00  0.00    -0.281 N 
ATOM      3  H1  UNL     1      -0.284   3.372   2.016  1.00  0.00     0.189 HD
HETATM    4  N2  UNL     1      -2.256   2.589   2.013  1.00  0.00    -0.281 N 
ATOM      5  H2  UNL     1      -2.703   3.088   2.782  1.00  0.00     0.189 HD
HETATM    6  C5  UNL     1      -2.816   1.697   1.251  1.00  0.00     0.149 A 
HETATM    7  O2  UNL     1      -1.906   1.293   0.382  1.00  0.00    -0.281 OA
ENDROOT
BRANCH   1   8
HETATM    8  C3  UNL     1       0.395   1.629  -0.285  1.00  0.00     0.095 C 
BRANCH   8   9
HETATM    9  C2  UNL     1       1.253   0.570   0.399  1.00  0.00     0.111 C 
BRANCH   9  10
HETATM   10  C1  UNL     1       2.337   0.134  -0.531  1.00  0.00     0.217 C 
HETATM   11  O1  UNL     1       2.245   0.479  -1.775  1.00  0.00    -0.274 OA
HETATM   12  N3  UNL     1       3.420  -0.625  -0.093  1.00  0.00    -0.359 N 
ATOM     13  H3  UNL     1       3.542  -0.906   0.880  1.00  0.00     0.162 HD
BRANCH  12  14
HETATM   14  C16 UNL     1       4.381  -0.989  -1.162  1.00  0.00     0.152 C 
BRANCH  14  15
HETATM   15  C17 UNL     1       5.522  -1.717  -0.572  1.00  0.00     0.292 C 
BRANCH  15  16
HETATM   16  N4  UNL     1       6.461  -2.028  -1.667  1.00  0.00     0.090 N 
HETATM   17  C18 UNL     1       7.090  -0.864  -2.204  1.00  0.00     0.272 C 
HETATM   18  C19 UNL     1       8.539  -0.929  -1.854  1.00  0.00     0.032 C 
HETATM   19  C20 UNL     1       8.679  -2.070  -0.857  1.00  0.00     0.032 C 
HETATM   20  C21 UNL     1       7.473  -2.936  -1.180  1.00  0.00     0.272 C 
ENDBRANCH  15  16
ENDBRANCH  14  15
ENDBRANCH  12  14
ENDBRANCH   9  10
ENDBRANCH   8   9
ENDBRANCH   1   8
BRANCH   6  21
HETATM   21  C6  UNL     1      -4.182   1.077   1.149  1.00  0.00     0.028 C 
HETATM   22  C7  UNL     1      -5.198   1.754   1.986  1.00  0.00     0.022 C 
HETATM   23  C8  UNL     1      -6.551   1.122   1.662  1.00  0.00    -0.013 C 
HETATM   24  C9  UNL     1      -6.542  -0.357   1.957  1.00  0.00     0.009 C 
HETATM   25  C13 UNL     1      -6.911   1.377   0.221  1.00  0.00     0.009 C 
HETATM   26  C10 UNL     1      -5.450  -1.010   1.154  1.00  0.00    -0.013 C 
HETATM   27  C11 UNL     1      -5.744  -0.805  -0.307  1.00  0.00     0.009 C 
HETATM   28  C15 UNL     1      -4.134  -0.368   1.532  1.00  0.00     0.022 C 
HETATM   29  C12 UNL     1      -5.889   0.660  -0.625  1.00  0.00    -0.013 C 
HETATM   30  C14 UNL     1      -4.568   1.300  -0.313  1.00  0.00     0.022 C 
ENDBRANCH   6  21
TORSDOF 7
