REMARK  6 active torsions:
REMARK  status: ('A' for Active; 'I' for Inactive)
REMARK    1  A    between atoms: C2_2  and  C3_3 
REMARK       I    between atoms: N1_7  and  C6_8 
REMARK    2  A    between atoms: C6_8  and  O2_10 
REMARK    3  A    between atoms: O2_10  and  C7_11 
REMARK    4  A    between atoms: C11_15  and  C12_16 
REMARK    5  A    between atoms: C12_16  and  C13_17 
REMARK       I    between atoms: C13_17  and  N2_19 
REMARK    6  A    between atoms: N2_19  and  C14_21 
ROOT
HETATM    1  C3  UNL     1      -0.522   1.155   1.910  1.00  0.00     0.012 C 
HETATM    2  C4  UNL     1      -1.497   0.886   3.026  1.00  0.00     0.048 C 
HETATM    3  C5  UNL     1      -2.532   0.046   2.372  1.00  0.00     0.187 C 
HETATM    4 CL1  UNL     1      -2.843  -1.402   3.362  1.00  0.00    -0.102 Cl
HETATM    5  N1  UNL     1      -1.974  -0.400   1.102  1.00  0.00    -0.305 N 
HETATM    6  C6  UNL     1      -2.764  -0.912   0.055  1.00  0.00     0.365 C 
HETATM    7  O1  UNL     1      -2.223  -1.277  -1.013  1.00  0.00    -0.238 OA
HETATM    8  C11 UNL     1      -0.546  -0.186   1.226  1.00  0.00     0.104 C 
ENDROOT
BRANCH   8   9
HETATM    9  C12 UNL     1       0.209  -0.338  -0.013  1.00  0.00     0.128 C 
BRANCH   9  10
HETATM   10  C13 UNL     1       1.654  -0.094   0.179  1.00  0.00     0.219 C 
HETATM   11  O3  UNL     1       2.201   0.142   1.284  1.00  0.00    -0.274 OA
HETATM   12  N2  UNL     1       2.558  -0.116  -0.945  1.00  0.00    -0.356 N 
ATOM     13  H2  UNL     1       2.170  -0.303  -1.870  1.00  0.00     0.162 HD
BRANCH  12  14
HETATM   14  C14 UNL     1       3.973   0.110  -0.839  1.00  0.00     0.084 C 
HETATM   15  C15 UNL     1       4.719  -1.145  -1.228  1.00  0.00     0.025 C 
HETATM   16  C16 UNL     1       6.189  -1.017  -0.988  1.00  0.00     0.002 C 
HETATM   17  C17 UNL     1       6.662   0.417  -0.940  1.00  0.00     0.000 C 
HETATM   18  C18 UNL     1       5.901   1.259  -1.951  1.00  0.00     0.002 C 
HETATM   19  C19 UNL     1       4.433   1.283  -1.675  1.00  0.00     0.025 C 
ENDBRANCH  12  14
ENDBRANCH   9  10
ENDBRANCH   8   9
BRANCH   1  20
HETATM   20  C2  UNL     1      -0.900   2.283   1.018  1.00  0.00     0.002 C 
HETATM   21  C1  UNL     1      -1.042   3.606   1.647  1.00  0.00     0.005 C 
ENDBRANCH   1  20
BRANCH   6  22
HETATM   22  O2  UNL     1      -4.141  -1.042   0.128  1.00  0.00    -0.294 OA
BRANCH  22  23
HETATM   23  C7  UNL     1      -4.938  -1.547  -0.901  1.00  0.00     0.061 C 
HETATM   24  C8  UNL     1      -6.382  -1.520  -0.416  1.00  0.00     0.046 C 
HETATM   25  C9  UNL     1      -4.842  -0.738  -2.176  1.00  0.00     0.046 C 
HETATM   26  C10 UNL     1      -4.605  -2.991  -1.216  1.00  0.00     0.046 C 
ENDBRANCH  22  23
ENDBRANCH   6  22
TORSDOF 6
