REMARK  5 active torsions:
REMARK  status: ('A' for Active; 'I' for Inactive)
REMARK    1  A    between atoms: N1_2  and  C2_3 
REMARK    2  A    between atoms: N1_2  and  C10_18 
REMARK    3  A    between atoms: C2_3  and  C3_4 
REMARK    4  A    between atoms: C3_4  and  N2_5 
REMARK       I    between atoms: N2_5  and  C4_7 
REMARK       I    between atoms: C4_7  and  N3_9 
REMARK    5  A    between atoms: N3_9  and  C5_11 
ROOT
HETATM    1  N2  UNL     1      -1.037  -1.318  -0.972  1.00  0.00    -0.341 N 
ATOM      2  H2  UNL     1      -1.520  -2.196  -0.784  1.00  0.00     0.164 HD
HETATM    3  C4  UNL     1      -1.739  -0.120  -0.735  1.00  0.00     0.316 C 
HETATM    4  O1  UNL     1      -1.200   0.986  -0.952  1.00  0.00    -0.247 OA
HETATM    5  N3  UNL     1      -3.075  -0.176  -0.243  1.00  0.00    -0.337 N 
ATOM      6  H3  UNL     1      -3.523  -1.076  -0.069  1.00  0.00     0.164 HD
ENDROOT
BRANCH   1   7
HETATM    7  C3  UNL     1       0.311  -1.389  -1.460  1.00  0.00     0.154 C 
BRANCH   7   8
HETATM    8  C2  UNL     1       1.250  -0.725  -0.516  1.00  0.00     0.292 C 
BRANCH   8   9
HETATM    9  N1  UNL     1       2.604  -0.825  -1.032  1.00  0.00     0.090 N 
HETATM   10  C1  UNL     1       3.106  -2.163  -1.015  1.00  0.00     0.310 C 
BRANCH   9  11
HETATM   11  C10 UNL     1       3.413   0.167  -0.421  1.00  0.00     0.222 C 
HETATM   12  C11 UNL     1       4.733   0.275  -1.148  1.00  0.00     0.036 C 
HETATM   13  C12 UNL     1       5.666   1.255  -0.470  1.00  0.00     0.002 C 
HETATM   14  C13 UNL     1       5.884   0.750   0.949  1.00  0.00     0.000 C 
HETATM   15  C14 UNL     1       4.564   0.891   1.678  1.00  0.00     0.002 C 
HETATM   16  C15 UNL     1       3.587  -0.090   1.047  1.00  0.00     0.036 C 
ENDBRANCH   9  11
ENDBRANCH   8   9
ENDBRANCH   7   8
ENDBRANCH   1   7
BRANCH   5  17
HETATM   17  C5  UNL     1      -3.785   1.049   0.006  1.00  0.00     0.104 C 
HETATM   18  C6  UNL     1      -4.951   1.244  -0.950  1.00  0.00     0.100 C 
HETATM   19  S1  UNL     1      -6.426   1.841  -0.069  1.00  0.00    -0.166 SA
HETATM   20  C7  UNL     1      -7.433   0.366   0.315  1.00  0.00     0.084 C 
HETATM   21  C8  UNL     1      -6.430  -0.726   0.710  1.00  0.00     0.084 C 
HETATM   22  S2  UNL     1      -5.378  -0.052   1.996  1.00  0.00    -0.166 SA
HETATM   23  C9  UNL     1      -4.224   1.187   1.445  1.00  0.00     0.100 C 
ENDBRANCH   5  17
TORSDOF 5
