REMARK  14 active torsions:
REMARK  status: ('A' for Active; 'I' for Inactive)
REMARK    1  A    between atoms: N1_1  and  C1_4 
REMARK    2  A    between atoms: C2_7  and  N3_8 
REMARK    3  A    between atoms: N6_15  and  C4_16 
REMARK    4  A    between atoms: C4_16  and  C5_17 
REMARK    5  A    between atoms: C5_17  and  C6_18 
REMARK    6  A    between atoms: C6_18  and  N7_19 
REMARK       I    between atoms: N7_19  and  C7_21 
REMARK    7  A    between atoms: C7_21  and  C8_23 
REMARK    8  A    between atoms: C8_23  and  O2_24 
REMARK    9  A    between atoms: O2_24  and  C9_25 
REMARK   10  A    between atoms: C11_29  and  O3_30 
REMARK   11  A    between atoms: C12_32  and  N9_33 
REMARK   12  A    between atoms: C14_40  and  N13_41 
REMARK   13  A    between atoms: N14_45  and  N15_46 
REMARK   14  A    between atoms: N16_50  and  N17_51 
ROOT
HETATM    1  C9  UNL     1      -2.233  -0.346  -1.165  1.00  0.00     0.247 A 
HETATM    2  N8  UNL     1      -2.869   0.763  -0.669  1.00  0.00    -0.315 N 
ATOM      3  H8  UNL     1      -2.400   1.643  -0.454  1.00  0.00     0.170 HD
HETATM    4  C10 UNL     1      -4.169   0.553  -0.503  1.00  0.00     0.121 A 
HETATM    5  C11 UNL     1      -5.402   1.076  -0.100  1.00  0.00     0.143 A 
HETATM    6  C12 UNL     1      -6.345   0.093  -0.265  1.00  0.00     0.170 A 
HETATM    7  N14 UNL     1      -5.713  -0.991  -0.751  1.00  0.00    -0.223 N 
HETATM    8  C15 UNL     1      -4.391  -0.740  -0.904  1.00  0.00     0.183 A 
HETATM    9  N16 UNL     1      -3.231  -1.271  -1.299  1.00  0.00    -0.205 N 
ENDROOT
BRANCH   1  10
HETATM   10  O2  UNL     1      -0.965  -0.411  -1.424  1.00  0.00    -0.311 OA
BRANCH  10  11
HETATM   11  C8  UNL     1       0.289  -0.134  -1.568  1.00  0.00     0.281 C 
BRANCH  11  12
HETATM   12  C7  UNL     1       1.087   0.317  -0.364  1.00  0.00     0.241 C 
HETATM   13  N7  UNL     1       2.488   0.536  -0.478  1.00  0.00    -0.359 N 
ATOM     14  H7  UNL     1       2.936   0.376  -1.380  1.00  0.00     0.162 HD
HETATM   15  O1  UNL     1       0.528   0.494   0.719  1.00  0.00    -0.271 OA
BRANCH  13  16
HETATM   16  C6  UNL     1       3.302   0.976   0.631  1.00  0.00     0.124 C 
BRANCH  16  17
HETATM   17  C5  UNL     1       4.765   1.089   0.194  1.00  0.00     0.041 C 
BRANCH  17  18
HETATM   18  C4  UNL     1       5.642   1.574   1.325  1.00  0.00     0.150 C 
BRANCH  18  19
HETATM   19  N6  UNL     1       7.019   1.655   0.883  1.00  0.00    -0.258 N 
HETATM   20  N5  UNL     1       7.614   2.683   0.304  1.00  0.00    -0.018 NA
HETATM   21  N4  UNL     1       8.887   2.398   0.026  1.00  0.00    -0.277 N 
HETATM   22  C3  UNL     1       9.125   1.150   0.437  1.00  0.00     0.136 A 
ATOM     23  H4  UNL     1       9.559   3.022  -0.421  1.00  0.00     0.184 HD
HETATM   24  C2  UNL     1      10.238   0.358   0.410  1.00  0.00     0.146 A 
HETATM   25  C16 UNL     1       7.954   0.693   0.971  1.00  0.00     0.168 A 
HETATM   26  N2  UNL     1      10.181  -0.878   0.912  1.00  0.00    -0.175 N 
HETATM   27  C1  UNL     1       9.029  -1.342   1.443  1.00  0.00     0.679 A 
ATOM     28  H2  UNL     1      11.009  -1.473   0.894  1.00  0.00     0.186 HD
HETATM   29  N18 UNL     1       7.941  -0.564   1.467  1.00  0.00    -0.173 N 
ATOM     30  H18 UNL     1       7.078  -0.929   1.871  1.00  0.00     0.186 HD
BRANCH  24  31
HETATM   31  N3  UNL     1      11.360   0.790  -0.097  1.00  0.00    -0.383 N 
ATOM     32  H32 UNL     1      12.191   0.199  -0.117  1.00  0.00     0.157 HD
ATOM     33  H31 UNL     1      11.404   1.734  -0.480  1.00  0.00     0.157 HD
ENDBRANCH  24  31
BRANCH  27  34
HETATM   34  N1  UNL     1       8.960  -2.548   1.936  1.00  0.00    -0.234 N 
ATOM     35  H12 UNL     1       9.790  -3.141   1.918  1.00  0.00     0.174 HD
ATOM     36  H11 UNL     1       8.090  -2.898   2.337  1.00  0.00     0.174 HD
ENDBRANCH  27  34
ENDBRANCH  18  19
ENDBRANCH  17  18
ENDBRANCH  16  17
ENDBRANCH  13  16
ENDBRANCH  11  12
ENDBRANCH  10  11
ENDBRANCH   1  10
BRANCH   9  37
HETATM   37  N17 UNL     1      -3.034  -2.566  -1.777  1.00  0.00    -0.334 N 
ATOM     38 2H17 UNL     1      -2.148  -2.972  -2.079  1.00  0.00     0.177 HD
ATOM     39 1H17 UNL     1      -3.778  -3.256  -1.877  1.00  0.00     0.177 HD
ENDBRANCH   9  37
BRANCH   5  40
HETATM   40  O3  UNL     1      -5.602   2.357   0.376  1.00  0.00    -0.355 OA
ATOM     41  H3  UNL     1      -6.439   2.712   0.650  1.00  0.00     0.218 HD
ENDBRANCH   5  40
BRANCH   7  42
HETATM   42  N15 UNL     1      -6.286  -2.223  -1.075  1.00  0.00    -0.335 N 
ATOM     43 2H15 UNL     1      -7.282  -2.412  -0.960  1.00  0.00     0.177 HD
ATOM     44 1H15 UNL     1      -5.807  -3.045  -1.443  1.00  0.00     0.177 HD
ENDBRANCH   7  42
BRANCH   6  45
HETATM   45  N9  UNL     1      -7.762   0.117   0.008  1.00  0.00    -0.281 N 
HETATM   46  C13 UNL     1      -8.667  -0.419  -0.976  1.00  0.00     0.206 C 
HETATM   47  N10 UNL     1      -9.828  -0.775  -0.612  1.00  0.00    -0.284 N 
HETATM   48  N11 UNL     1     -10.230  -0.654   0.713  1.00  0.00    -0.242 N 
ATOM     49  H10 UNL     1     -10.476  -1.156  -1.301  1.00  0.00     0.188 HD
HETATM   50  N12 UNL     1      -9.358  -0.289   1.734  1.00  0.00    -0.070 NA
ATOM     51  H11 UNL     1     -11.205  -0.841   0.947  1.00  0.00     0.204 HD
HETATM   52  C14 UNL     1      -8.325   0.634   1.216  1.00  0.00     0.406 C 
BRANCH  52  53
HETATM   53  N13 UNL     1      -7.357   0.870   2.268  1.00  0.00    -0.042 N 
ATOM     54 3H13 UNL     1      -6.822   0.023   2.457  1.00  0.00     0.278 HD
ATOM     55 2H13 UNL     1      -6.608   1.477   1.935  1.00  0.00     0.278 HD
ATOM     56 1H13 UNL     1      -7.759   1.239   3.130  1.00  0.00     0.278 HD
ENDBRANCH  52  53
ENDBRANCH   6  45
TORSDOF 14
