REMARK  4 active torsions:
REMARK  status: ('A' for Active; 'I' for Inactive)
REMARK    1  A    between atoms: C2_2  and  C4_4 
REMARK    2  A    between atoms: C8_8  and  N1_9 
REMARK    3  A    between atoms: N1_9  and  O1_10 
REMARK    4  A    between atoms: C9_12  and  N2_13 
ROOT
HETATM    1  C4  UNL     1      -0.476  -0.247   0.116  1.00  0.00     0.020 C 
HETATM    2  C5  UNL     1      -0.180  -1.697  -0.003  1.00  0.00     0.007 C 
HETATM    3  C6  UNL     1       1.170  -1.947   0.633  1.00  0.00     0.002 C 
HETATM    4  C7  UNL     1       2.261  -1.065   0.159  1.00  0.00     0.026 C 
HETATM    5  C8  UNL     1       1.891   0.377   0.010  1.00  0.00     0.135 C 
HETATM    6  C9  UNL     1       0.522   0.585  -0.595  1.00  0.00     0.181 C 
ENDROOT
BRANCH   1   7
HETATM    7  C2  UNL     1      -1.871   0.137  -0.274  1.00  0.00    -0.016 C 
HETATM    8  C1  UNL     1      -2.081   1.626  -0.113  1.00  0.00     0.010 C 
HETATM    9  C3  UNL     1      -2.942  -0.586   0.461  1.00  0.00     0.010 C 
ENDBRANCH   1   7
BRANCH   6  10
HETATM   10  N2  UNL     1       0.553   0.480  -2.020  1.00  0.00    -0.148 N 
HETATM   11  O2  UNL     1       0.335   1.442  -2.784  1.00  0.00    -0.536 OA
HETATM   12  O3  UNL     1       0.836  -0.717  -2.624  1.00  0.00    -0.536 OA
ENDBRANCH   6  10
BRANCH   5  13
HETATM   13  N1  UNL     1       1.953   1.098   1.260  1.00  0.00    -0.097 NA
BRANCH  13  14
HETATM   14  O1  UNL     1       1.615   2.390   1.094  1.00  0.00    -0.296 OA
ATOM     15  H1  UNL     1       1.656   2.864   1.916  1.00  0.00     0.238 HD
ENDBRANCH  13  14
ENDBRANCH   5  13
TORSDOF 4
