REMARK  5 active torsions:
REMARK  status: ('A' for Active; 'I' for Inactive)
REMARK    1  A    between atoms: C2_2  and  C3_3 
REMARK    2  A    between atoms: C3_3  and  O1_4 
REMARK    3  A    between atoms: O1_4  and  N1_5 
REMARK    4  A    between atoms: C7_12  and  C8_13 
REMARK    5  A    between atoms: C8_13  and  O2_16 
ROOT
HETATM    1  N1  UNL     1       0.183   0.366   0.430  1.00  0.00    -0.164 NA
HETATM    2  C4  UNL     1       0.440   1.735   0.363  1.00  0.00     0.114 C 
HETATM    3  C5  UNL     1      -0.767   2.483  -0.052  1.00  0.00     0.017 C 
HETATM    4  N2  UNL     1      -0.822   3.713  -0.149  1.00  0.00    -0.402 N 
ATOM      5  H21 UNL     1      -1.654   4.229  -0.435  1.00  0.00     0.156 HD
ATOM      6  H22 UNL     1      -0.146   4.447   0.063  1.00  0.00     0.156 HD
HETATM    7  C6  UNL     1      -1.771   1.393  -0.367  1.00  0.00     0.083 C 
HETATM    8  C7  UNL     1      -1.230   0.274   0.409  1.00  0.00     0.130 C 
ENDROOT
BRANCH   8   9
HETATM    9  C8  UNL     1      -1.944  -0.989   0.517  1.00  0.00     0.069 C 
HETATM   10  C9  UNL     1      -3.242  -0.890  -0.210  1.00  0.00     0.047 C 
HETATM   11  C10 UNL     1      -1.153  -2.139  -0.229  1.00  0.00     0.047 C 
BRANCH   9  12
HETATM   12  O2  UNL     1      -2.039  -1.553   1.775  1.00  0.00    -0.389 OA
ATOM     13  H2  UNL     1      -2.505  -2.378   1.846  1.00  0.00     0.210 HD
ENDBRANCH   9  12
ENDBRANCH   8   9
BRANCH   1  14
HETATM   14  O1  UNL     1       0.687  -0.398  -0.545  1.00  0.00    -0.299 OA
BRANCH  14  15
HETATM   15  C3  UNL     1       1.915  -0.164  -0.987  1.00  0.00     0.194 C 
BRANCH  15  16
HETATM   16  C2  UNL     1       2.828  -0.709   0.153  1.00  0.00     0.024 C 
HETATM   17  C1  UNL     1       4.219  -0.675  -0.257  1.00  0.00     0.007 C 
ENDBRANCH  15  16
ENDBRANCH  14  15
ENDBRANCH   1  14
TORSDOF 5
