REMARK  14 active torsions:
REMARK  status: ('A' for Active; 'I' for Inactive)
REMARK    1  A    between atoms: C2_2  and  C3_3 
REMARK    2  A    between atoms: C3_3  and  C4_4 
REMARK    3  A    between atoms: C8_8  and  C9_9 
REMARK    4  A    between atoms: C9_9  and  C10_10 
REMARK    5  A    between atoms: C10_10  and  C11_11 
REMARK    6  A    between atoms: C11_11  and  C13_13 
REMARK    7  A    between atoms: C15_15  and  C16_16 
REMARK    8  A    between atoms: C17_19  and  S1_20 
REMARK    9  A    between atoms: S1_20  and  C18_21 
REMARK   10  A    between atoms: C18_21  and  C19_22 
REMARK   11  A    between atoms: C19_22  and  C20_23 
REMARK   12  A    between atoms: C20_23  and  C21_24 
REMARK   13  A    between atoms: C21_24  and  O1_25 
REMARK   14  A    between atoms: C22_29  and  N3_30 
ROOT
HETATM    1  C16 UNL     1       0.354  -1.055   0.916  1.00  0.00     0.086 A 
HETATM    2  N1  UNL     1       0.747   0.213   1.008  1.00  0.00    -0.334 N 
ATOM      3  H1  UNL     1       0.109   0.904   0.612  1.00  0.00     0.168 HD
HETATM    4  C17 UNL     1       1.848   0.693   1.541  1.00  0.00     0.146 A 
HETATM    5  N2  UNL     1       2.707  -0.192   2.071  1.00  0.00    -0.322 N 
ATOM      6  H2  UNL     1       3.573   0.139   2.496  1.00  0.00     0.169 HD
HETATM    7  C22 UNL     1       2.442  -1.492   2.049  1.00  0.00     0.124 A 
HETATM    8  C23 UNL     1       1.247  -1.949   1.464  1.00  0.00     0.117 A 
HETATM    9  C24 UNL     1       1.071  -3.367   1.505  1.00  0.00     0.105 C 
HETATM   10  N4  UNL     1       0.969  -4.524   1.563  1.00  0.00    -0.191 NA
ENDROOT
BRANCH   1  11
HETATM   11  C15 UNL     1      -0.878  -1.546   0.312  1.00  0.00     0.072 A 
HETATM   12  C8  UNL     1      -1.783  -0.760  -0.347  1.00  0.00    -0.001 A 
HETATM   13  C6  UNL     1      -2.876  -1.391  -1.012  1.00  0.00    -0.048 A 
HETATM   14  C5  UNL     1      -2.991  -2.735  -0.967  1.00  0.00     0.032 A 
HETATM   15  C7  UNL     1      -3.882  -0.543  -1.753  1.00  0.00     0.049 C 
HETATM   16  C4  UNL     1      -2.077  -3.514  -0.293  1.00  0.00     0.010 A 
HETATM   17  N5  UNL     1      -1.074  -2.907   0.310  1.00  0.00    -0.357 N 
ATOM     18  H5  UNL     1      -0.398  -3.486   0.808  1.00  0.00     0.166 HD
BRANCH  12  19
HETATM   19  C9  UNL     1      -1.795   0.653  -0.482  1.00  0.00     0.011 C 
BRANCH  19  20
HETATM   20  C10 UNL     1      -1.629   1.681   0.264  1.00  0.00    -0.022 C 
BRANCH  20  21
HETATM   21  C11 UNL     1      -1.708   3.093  -0.244  1.00  0.00     0.004 C 
HETATM   22  C12 UNL     1      -2.752   3.880   0.501  1.00  0.00     0.014 C 
BRANCH  21  23
HETATM   23  C13 UNL     1      -1.999   3.164  -1.716  1.00  0.00     0.003 C 
HETATM   24  C14 UNL     1      -2.047   4.652  -2.069  1.00  0.00     0.006 C 
ENDBRANCH  21  23
ENDBRANCH  20  21
ENDBRANCH  19  20
ENDBRANCH  12  19
BRANCH  16  25
HETATM   25  C3  UNL     1      -2.223  -5.003  -0.245  1.00  0.00     0.056 C 
BRANCH  25  26
HETATM   26  C2  UNL     1      -3.430  -5.470  -0.989  1.00  0.00     0.002 C 
HETATM   27  C1  UNL     1      -3.475  -6.987  -0.874  1.00  0.00     0.005 C 
ENDBRANCH  25  26
ENDBRANCH  16  25
ENDBRANCH   1  11
BRANCH   7  28
HETATM   28  N3  UNL     1       3.290  -2.305   2.565  1.00  0.00    -0.384 N 
ATOM     29  H32 UNL     1       4.156  -1.974   2.989  1.00  0.00     0.157 HD
ATOM     30  H31 UNL     1       3.086  -3.304   2.548  1.00  0.00     0.157 HD
ENDBRANCH   7  28
BRANCH   4  31
HETATM   31  S1  UNL     1       2.214   2.445   1.556  1.00  0.00    -0.094 SA
BRANCH  31  32
HETATM   32  C18 UNL     1       3.843   2.778   2.203  1.00  0.00     0.082 C 
BRANCH  32  33
HETATM   33  C19 UNL     1       4.978   2.354   1.323  1.00  0.00     0.013 C 
BRANCH  33  34
HETATM   34  C20 UNL     1       4.920   3.077  -0.033  1.00  0.00     0.027 C 
BRANCH  34  35
HETATM   35  C21 UNL     1       6.089   2.608  -0.874  1.00  0.00     0.164 C 
BRANCH  35  36
HETATM   36  O1  UNL     1       5.984   1.217  -1.054  1.00  0.00    -0.401 OA
ATOM     37  H1  UNL     1       6.717   0.923  -1.582  1.00  0.00     0.209 HD
ENDBRANCH  35  36
ENDBRANCH  34  35
ENDBRANCH  33  34
ENDBRANCH  32  33
ENDBRANCH  31  32
ENDBRANCH   4  31
TORSDOF 14
