REMARK  5 active torsions:
REMARK  status: ('A' for Active; 'I' for Inactive)
REMARK    1  A    between atoms: N1_1  and  C1_4 
REMARK    2  A    between atoms: C3_10  and  S1_11 
REMARK    3  A    between atoms: S1_11  and  C4_12 
REMARK    4  A    between atoms: C9_22  and  N6_23 
REMARK    5  A    between atoms: N6_23  and  C10_25 
ROOT
HETATM    1  C1  UNL     1      -0.823   4.195  -0.136  1.00  0.00     0.128 A 
HETATM    2  N2  UNL     1       0.492   4.175  -0.133  1.00  0.00    -0.326 N 
ATOM      3  H2  UNL     1       1.010   5.053  -0.163  1.00  0.00     0.169 HD
HETATM    4  C2  UNL     1       1.176   2.980  -0.090  1.00  0.00     0.126 A 
HETATM    5  N3  UNL     1       2.461   2.829  -0.082  1.00  0.00    -0.330 N 
ATOM      6  H3  UNL     1       3.071   3.646  -0.109  1.00  0.00     0.168 HD
HETATM    7  C3  UNL     1       2.984   1.612  -0.039  1.00  0.00     0.120 A 
HETATM    8  S2  UNL     1       1.584   0.630  -0.009  1.00  0.00    -0.060 SA
HETATM    9  C7  UNL     1       0.390   1.861  -0.054  1.00  0.00     0.068 A 
HETATM   10  C8  UNL     1      -1.000   1.875  -0.058  1.00  0.00     0.059 A 
HETATM   11  C9  UNL     1      -1.665   0.692  -0.019  1.00  0.00     0.120 A 
HETATM   12  N7  UNL     1      -3.030   0.765  -0.025  1.00  0.00    -0.338 N 
ATOM     13  H7  UNL     1      -3.576  -0.096   0.003  1.00  0.00     0.168 HD
HETATM   14  C16 UNL     1      -3.668   1.949  -0.067  1.00  0.00     0.182 A 
HETATM   15  N8  UNL     1      -2.985   3.123  -0.105  1.00  0.00    -0.348 N 
ATOM     16  H8  UNL     1      -3.485   4.012  -0.136  1.00  0.00     0.167 HD
HETATM   17  C17 UNL     1      -1.668   3.096  -0.101  1.00  0.00     0.092 A 
ENDROOT
BRANCH   7  18
HETATM   18  S1  UNL     1       4.728   1.227  -0.022  1.00  0.00    -0.046 SA
BRANCH  18  19
HETATM   19  C4  UNL     1       5.009  -0.498   0.037  1.00  0.00     0.092 A 
HETATM   20  C5  UNL     1       4.121  -1.527   0.070  1.00  0.00     0.126 A 
HETATM   21  N4  UNL     1       4.811  -2.708   0.112  1.00  0.00    -0.359 N 
HETATM   22  C6  UNL     1       6.121  -2.414   0.105  1.00  0.00     0.181 A 
ATOM     23  H4  UNL     1       4.404  -3.643   0.143  1.00  0.00     0.166 HD
HETATM   24  N5  UNL     1       6.236  -1.074   0.060  1.00  0.00    -0.346 N 
ATOM     25  H5  UNL     1       7.120  -0.565   0.045  1.00  0.00     0.167 HD
ENDBRANCH  18  19
ENDBRANCH   7  18
BRANCH   1  26
HETATM   26  N1  UNL     1      -1.447   5.346  -0.177  1.00  0.00    -0.384 N 
ATOM     27  H12 UNL     1      -0.825   6.154  -0.203  1.00  0.00     0.157 HD
ATOM     28  H11 UNL     1      -2.467   5.362  -0.179  1.00  0.00     0.157 HD
ENDBRANCH   1  26
BRANCH  11  29
HETATM   29  N6  UNL     1      -1.039  -0.422   0.020  1.00  0.00    -0.342 N 
ATOM     30  H6  UNL     1      -0.019  -0.446   0.023  1.00  0.00     0.167 HD
BRANCH  29  31
HETATM   31  C10 UNL     1      -1.791  -1.625   0.059  1.00  0.00     0.033 A 
HETATM   32  C11 UNL     1      -2.239  -2.159  -1.126  1.00  0.00     0.029 A 
HETATM   33  C12 UNL     1      -2.963  -3.312  -1.120  1.00  0.00     0.002 A 
HETATM   34  C13 UNL     1      -3.242  -3.939   0.082  1.00  0.00     0.000 A 
HETATM   35  C14 UNL     1      -2.789  -3.396   1.257  1.00  0.00     0.002 A 
HETATM   36  C15 UNL     1      -2.057  -2.230   1.260  1.00  0.00     0.029 A 
ENDBRANCH  29  31
ENDBRANCH  11  29
TORSDOF 5
