REMARK  3 active torsions:
REMARK  status: ('A' for Active; 'I' for Inactive)
REMARK    1  A    between atoms: C2_2  and  C4_4 
REMARK    2  A    between atoms: C10_12  and  C11_13 
REMARK    3  A    between atoms: C11_13  and  O1_14 
ROOT
HETATM    1  C4  UNL     1       0.551  -0.402  -0.045  1.00  0.00    -0.070 C 
HETATM    2  C5  UNL     1      -0.400  -1.328   0.136  1.00  0.00    -0.011 C 
HETATM    3  C6  UNL     1      -1.750  -0.708   0.062  1.00  0.00     0.006 C 
HETATM    4  C7  UNL     1      -2.331  -0.735  -1.313  1.00  0.00     0.022 C 
HETATM    5  C8  UNL     1      -2.667  -1.393   1.024  1.00  0.00     0.022 C 
HETATM    6  C9  UNL     1      -1.425   0.711   0.465  1.00  0.00     0.133 C 
HETATM    7 CL1  UNL     1      -2.638   1.866  -0.081  1.00  0.00    -0.100 Cl
HETATM    8 CL2  UNL     1      -1.230   0.741   2.223  1.00  0.00    -0.100 Cl
HETATM    9  C10 UNL     1      -0.105   0.887  -0.261  1.00  0.00     0.078 C 
ENDROOT
BRANCH   1  10
HETATM   10  C2  UNL     1       1.973  -0.800  -0.009  1.00  0.00     0.007 C 
HETATM   11  C1  UNL     1       2.643  -0.078   1.134  1.00  0.00     0.014 C 
HETATM   12  C3  UNL     1       2.709  -0.505  -1.277  1.00  0.00     0.014 C 
ENDBRANCH   1  10
BRANCH   9  13
HETATM   13  C11 UNL     1       0.561   2.094   0.281  1.00  0.00     0.176 C 
BRANCH  13  14
HETATM   14  O1  UNL     1      -0.273   3.192  -0.062  1.00  0.00    -0.400 OA
ATOM     15  H1  UNL     1       0.154   3.966   0.286  1.00  0.00     0.209 HD
ENDBRANCH  13  14
ENDBRANCH   9  13
TORSDOF 3
