REMARK  14 active torsions:
REMARK  status: ('A' for Active; 'I' for Inactive)
REMARK    1  A    between atoms: C2_2  and  C3_3 
REMARK    2  A    between atoms: C3_3  and  N1_4 
REMARK    3  A    between atoms: N2_6  and  C5_8 
REMARK    4  A    between atoms: C11_15  and  N3_16 
REMARK    5  A    between atoms: N3_16  and  C12_18 
REMARK    6  A    between atoms: C12_18  and  O1_19 
REMARK    7  A    between atoms: C12_18  and  C13_21 
REMARK    8  A    between atoms: C15_23  and  C16_24 
REMARK       I    between atoms: C16_24  and  N4_26 
REMARK    9  A    between atoms: N4_26  and  C17_28 
REMARK   10  A    between atoms: C17_28  and  C18_29 
REMARK   11  A    between atoms: C17_28  and  C20_33 
REMARK   12  A    between atoms: C18_29  and  C19_30 
REMARK   13  A    between atoms: C22_37  and  O7_38 
REMARK   14  A    between atoms: C24_40  and  O8_41 
ROOT
HETATM    1  C13 UNL     1       1.036  -0.092   0.409  1.00  0.00     0.052 A 
HETATM    2  C14 UNL     1       2.241   0.501   0.741  1.00  0.00     0.035 A 
HETATM    3  C15 UNL     1       3.488   0.013   0.430  1.00  0.00     0.035 A 
HETATM    4  C21 UNL     1       3.556  -1.171  -0.275  1.00  0.00     0.056 A 
HETATM    5  C22 UNL     1       2.392  -1.812  -0.638  1.00  0.00     0.103 A 
HETATM    6  C24 UNL     1       1.143  -1.267  -0.294  1.00  0.00     0.116 A 
ENDROOT
BRANCH   1   7
HETATM    7  C12 UNL     1      -0.226   0.496   0.844  1.00  0.00     0.154 C 
BRANCH   7   8
HETATM    8  N3  UNL     1      -1.493   0.082   0.679  1.00  0.00    -0.324 N 
ATOM      9  H3  UNL     1      -1.683  -0.772   1.203  1.00  0.00     0.169 HD
BRANCH   8  10
HETATM   10  C11 UNL     1      -2.516   0.479   0.039  1.00  0.00     0.106 C 
HETATM   11  N1  UNL     1      -3.794  -0.244   0.091  1.00  0.00    -0.312 N 
HETATM   12  C4  UNL     1      -4.892   0.617   0.277  1.00  0.00     0.145 C 
HETATM   13  N2  UNL     1      -6.094   0.392   0.653  1.00  0.00    -0.367 N 
HETATM   14  S1  UNL     1      -4.278   2.258  -0.148  1.00  0.00    -0.077 SA
ATOM     15  H2  UNL     1      -6.362  -0.567   0.872  1.00  0.00     0.162 HD
HETATM   16  C8  UNL     1      -2.688   1.634  -0.873  1.00  0.00     0.067 C 
HETATM   17  C9  UNL     1      -1.657   2.672  -0.885  1.00  0.00     0.035 C 
HETATM   18  C10 UNL     1      -3.088   1.170  -2.270  1.00  0.00     0.035 C 
BRANCH  11  19
HETATM   19  C3  UNL     1      -3.931  -1.682  -0.012  1.00  0.00     0.159 C 
BRANCH  19  20
HETATM   20  C2  UNL     1      -4.358  -2.238   1.302  1.00  0.00    -0.017 C 
HETATM   21  C1  UNL     1      -5.498  -2.892   1.384  1.00  0.00     0.008 C 
ENDBRANCH  19  20
ENDBRANCH  11  19
BRANCH  13  22
HETATM   22  C5  UNL     1      -7.078   1.418   0.781  1.00  0.00     0.075 C 
HETATM   23  C6  UNL     1      -8.144   1.193  -0.260  1.00  0.00     0.032 C 
HETATM   24  C7  UNL     1      -7.750   1.313   2.139  1.00  0.00     0.032 C 
ENDBRANCH  13  22
ENDBRANCH   8  10
ENDBRANCH   7   8
BRANCH   7  25
HETATM   25  O1  UNL     1      -0.072   1.607   1.507  1.00  0.00    -0.345 OA
ATOM     26  H1  UNL     1       0.824   1.900   1.624  1.00  0.00     0.219 HD
ENDBRANCH   7  25
ENDBRANCH   1   7
BRANCH   6  27
HETATM   27  O8  UNL     1       0.051  -1.974  -0.706  1.00  0.00    -0.352 OA
HETATM   28  C25 UNL     1      -0.403  -1.738  -2.044  1.00  0.00     0.210 C 
ENDBRANCH   6  27
BRANCH   3  29
HETATM   29  C16 UNL     1       4.707   0.728   0.831  1.00  0.00     0.252 C 
HETATM   30  O2  UNL     1       4.570   1.920   1.204  1.00  0.00    -0.268 OA
HETATM   31  N4  UNL     1       5.999   0.146   0.817  1.00  0.00    -0.342 N 
ATOM     32  H4  UNL     1       6.094  -0.823   0.512  1.00  0.00     0.163 HD
BRANCH  31  33
HETATM   33  C17 UNL     1       7.185   0.862   1.214  1.00  0.00     0.195 C 
BRANCH  33  34
HETATM   34  C18 UNL     1       8.294   0.804   0.218  1.00  0.00     0.149 C 
BRANCH  34  35
HETATM   35  C19 UNL     1       7.967   1.362  -1.107  1.00  0.00     0.175 C 
HETATM   36  O3  UNL     1       8.875   1.338  -1.976  1.00  0.00    -0.648 OA
HETATM   37  O4  UNL     1       6.747   1.904  -1.460  1.00  0.00    -0.648 OA
ENDBRANCH  34  35
ENDBRANCH  33  34
BRANCH  33  38
HETATM   38  C20 UNL     1       7.700   0.203   2.463  1.00  0.00     0.197 C 
HETATM   39  O5  UNL     1       7.124  -0.780   2.972  1.00  0.00    -0.646 OA
HETATM   40  O6  UNL     1       8.848   0.673   3.096  1.00  0.00    -0.646 OA
ENDBRANCH  33  38
ENDBRANCH  31  33
ENDBRANCH   3  29
BRANCH   5  41
HETATM   41  O7  UNL     1       2.444  -2.997  -1.343  1.00  0.00    -0.353 OA
HETATM   42  C23 UNL     1       3.600  -3.653  -1.751  1.00  0.00     0.210 C 
ENDBRANCH   5  41
TORSDOF 14
