REMARK  11 active torsions:
REMARK  status: ('A' for Active; 'I' for Inactive)
REMARK       I    between atoms: C1_2  and  N2_4 
REMARK    1  A    between atoms: N2_4  and  C2_6 
REMARK    2  A    between atoms: C2_6  and  C3_7 
REMARK    3  A    between atoms: C2_6  and  N3_12 
REMARK    4  A    between atoms: C3_7  and  C4_8 
REMARK    5  A    between atoms: C4_8  and  C5_9 
REMARK       I    between atoms: N3_12  and  C6_14 
REMARK    6  A    between atoms: C6_14  and  C7_16 
REMARK    7  A    between atoms: C7_16  and  N4_17 
REMARK    8  A    between atoms: C7_16  and  N5_21 
REMARK    9  A    between atoms: N5_21  and  C8_23 
REMARK   10  A    between atoms: C8_23  and  O5_24 
REMARK   11  A    between atoms: C8_23  and  C9_26 
ROOT
HETATM    1  C7  UNL     1       0.882   0.451  -0.962  1.00  0.00     0.372 C 
ENDROOT
BRANCH   1   2
HETATM    2  C6  UNL     1      -0.221   0.122  -0.061  1.00  0.00     0.269 C 
HETATM    3  N3  UNL     1      -1.500  -0.287  -0.608  1.00  0.00    -0.337 N 
ATOM      4  H3  UNL     1      -1.613  -0.341  -1.620  1.00  0.00     0.164 HD
HETATM    5  O4  UNL     1      -0.152   0.165   1.174  1.00  0.00    -0.269 OA
BRANCH   3   6
HETATM    6  C2  UNL     1      -2.609  -0.617   0.237  1.00  0.00     0.188 C 
BRANCH   6   7
HETATM    7  N2  UNL     1      -2.833  -2.053   0.025  1.00  0.00    -0.324 N 
HETATM    8  C1  UNL     1      -2.629  -3.045   0.986  1.00  0.00     0.330 C 
HETATM    9  N1  UNL     1      -2.870  -4.397   0.695  1.00  0.00    -0.040 NA
HETATM   10  O1  UNL     1      -2.219  -2.756   2.152  1.00  0.00    -0.251 OA
ATOM     11  H2  UNL     1      -3.163  -2.348  -0.894  1.00  0.00     0.166 HD
ENDBRANCH   6   7
BRANCH   6  12
HETATM   12  C3  UNL     1      -3.818   0.175  -0.005  1.00  0.00     0.057 C 
BRANCH  12  13
HETATM   13  C4  UNL     1      -3.780   1.639   0.188  1.00  0.00     0.117 C 
BRANCH  13  14
HETATM   14  C5  UNL     1      -3.000   2.496  -0.670  1.00  0.00     0.172 C 
HETATM   15  O2  UNL     1      -2.486   2.241  -1.777  1.00  0.00    -0.648 OA
HETATM   16  O3  UNL     1      -2.747   3.835  -0.242  1.00  0.00    -0.648 OA
ENDBRANCH  13  14
ENDBRANCH  12  13
ENDBRANCH   6  12
ENDBRANCH   3   6
ENDBRANCH   1   2
BRANCH   1  17
HETATM   17  N4  UNL     1       0.972  -0.626  -1.957  1.00  0.00    -0.050 N 
ATOM     18  H43 UNL     1       1.064  -1.551  -1.536  1.00  0.00     0.277 HD
ATOM     19  H42 UNL     1       0.093  -0.790  -2.447  1.00  0.00     0.277 HD
ATOM     20  H41 UNL     1       1.742  -0.396  -2.586  1.00  0.00     0.277 HD
ENDBRANCH   1  17
BRANCH   1  21
HETATM   21  N5  UNL     1       2.107   0.757  -0.368  1.00  0.00    -0.358 N 
ATOM     22  H5  UNL     1       2.465   1.708  -0.457  1.00  0.00     0.158 HD
BRANCH  21  23
HETATM   23  C8  UNL     1       2.868  -0.176   0.343  1.00  0.00     0.268 C 
BRANCH  23  24
HETATM   24  O5  UNL     1       2.384  -0.743   1.479  1.00  0.00    -0.371 OA
ATOM     25  H5  UNL     1       2.901  -1.377   1.962  1.00  0.00     0.212 HD
ENDBRANCH  23  24
BRANCH  23  26
HETATM   26  C9  UNL     1       4.179   0.499   0.694  1.00  0.00     0.074 A 
HETATM   27  C10 UNL     1       4.966   1.259  -0.131  1.00  0.00     0.118 A 
HETATM   28  N6  UNL     1       6.044   1.666   0.591  1.00  0.00    -0.360 N 
HETATM   29  C11 UNL     1       5.916   1.165   1.830  1.00  0.00     0.180 A 
ATOM     30  H6  UNL     1       6.811   2.247   0.253  1.00  0.00     0.166 HD
HETATM   31  N7  UNL     1       4.771   0.450   1.886  1.00  0.00    -0.351 N 
ATOM     32  H7  UNL     1       4.419  -0.045   2.705  1.00  0.00     0.166 HD
ENDBRANCH  23  26
ENDBRANCH  21  23
ENDBRANCH   1  21
TORSDOF 11
