REMARK  7 active torsions:
REMARK  status: ('A' for Active; 'I' for Inactive)
REMARK    1  A    between atoms: N1_1  and  C1_4 
REMARK    2  A    between atoms: C3_9  and  N4_10 
REMARK       I    between atoms: N4_10  and  C4_12 
REMARK    3  A    between atoms: C4_12  and  C5_14 
REMARK    4  A    between atoms: N5_15  and  N6_17 
REMARK    5  A    between atoms: C6_19  and  C7_20 
REMARK    6  A    between atoms: C7_20  and  O3_22 
REMARK    7  A    between atoms: O3_22  and  N7_23 
ROOT
HETATM    1  N4  UNL     1      -0.815   1.078   0.628  1.00  0.00    -0.315 N 
ATOM      2  H4  UNL     1      -0.650   1.802   1.327  1.00  0.00     0.169 HD
HETATM    3  C4  UNL     1       0.296   0.386   0.087  1.00  0.00     0.263 C 
HETATM    4  O1  UNL     1       0.070  -0.503  -0.774  1.00  0.00    -0.267 OA
ENDROOT
BRANCH   1   5
HETATM    5  C3  UNL     1      -2.144   0.801   0.234  1.00  0.00     0.146 A 
HETATM    6  C2  UNL     1      -2.865  -0.164   0.930  1.00  0.00     0.164 A 
HETATM    7  N2  UNL     1      -4.121  -0.399   0.527  1.00  0.00    -0.177 N 
HETATM    8  N3  UNL     1      -2.285  -0.877   2.034  1.00  0.00    -0.080 NA
HETATM    9  C1  UNL     1      -4.713   0.238  -0.498  1.00  0.00     0.680 A 
ATOM     10  H2  UNL     1      -4.661  -1.104   1.029  1.00  0.00     0.185 HD
HETATM   11  N8  UNL     1      -4.036   1.180  -1.192  1.00  0.00    -0.154 N 
HETATM   12  C8  UNL     1      -2.772   1.438  -0.811  1.00  0.00     0.289 A 
ATOM     13  H8  UNL     1      -4.466   1.675  -1.973  1.00  0.00     0.187 HD
HETATM   14  O4  UNL     1      -2.118   2.316  -1.445  1.00  0.00    -0.265 OA
BRANCH   9  15
HETATM   15  N1  UNL     1      -5.938  -0.014  -0.865  1.00  0.00    -0.234 N 
ATOM     16  H12 UNL     1      -6.449  -0.725  -0.341  1.00  0.00     0.174 HD
ATOM     17  H11 UNL     1      -6.387   0.469  -1.643  1.00  0.00     0.174 HD
ENDBRANCH   9  15
ENDBRANCH   1   5
BRANCH   3  18
HETATM   18  C5  UNL     1       1.665   0.654   0.476  1.00  0.00     0.181 C 
HETATM   19  N5  UNL     1       2.669   0.038  -0.005  1.00  0.00    -0.307 N 
ATOM     20  H5  UNL     1       3.591   0.307   0.339  1.00  0.00     0.186 HD
BRANCH  19  21
HETATM   21  N6  UNL     1       2.616  -0.962  -0.952  1.00  0.00    -0.306 N 
HETATM   22  C6  UNL     1       3.648  -1.563  -1.396  1.00  0.00     0.191 C 
ATOM     23  H6  UNL     1       1.703  -1.235  -1.316  1.00  0.00     0.186 HD
BRANCH  22  24
HETATM   24  C7  UNL     1       4.973  -1.215  -0.912  1.00  0.00     0.321 C 
HETATM   25  O2  UNL     1       6.001  -1.812  -1.353  1.00  0.00    -0.257 OA
BRANCH  24  26
HETATM   26  O3  UNL     1       5.134  -0.221   0.042  1.00  0.00    -0.202 OA
BRANCH  26  27
HETATM   27  N7  UNL     1       6.390   0.071   0.466  1.00  0.00    -0.302 N 
ATOM     28  H72 UNL     1       7.186  -0.438   0.082  1.00  0.00     0.184 HD
ATOM     29  H71 UNL     1       6.508   0.802   1.168  1.00  0.00     0.184 HD
ENDBRANCH  26  27
ENDBRANCH  24  26
ENDBRANCH  22  24
ENDBRANCH  19  21
ENDBRANCH   3  18
TORSDOF 7
