REMARK  15 active torsions:
REMARK  status: ('A' for Active; 'I' for Inactive)
REMARK    1  A    between atoms: C2_2  and  C3_3 
REMARK    2  A    between atoms: C3_3  and  C4_4 
REMARK    3  A    between atoms: C4_4  and  N1_5 
REMARK    4  A    between atoms: N1_5  and  C5_6 
REMARK    5  A    between atoms: N1_5  and  C7_8 
REMARK    6  A    between atoms: N1_5  and  C9_11 
REMARK    7  A    between atoms: C7_8  and  C8_9 
REMARK    8  A    between atoms: C9_11  and  C10_12 
REMARK    9  A    between atoms: C10_12  and  C11_13 
REMARK   10  A    between atoms: N2_16  and  C14_17 
REMARK   11  A    between atoms: C14_17  and  C15_18 
REMARK   12  A    between atoms: C15_18  and  N3_19 
REMARK       I    between atoms: N3_19  and  C16_20 
REMARK   13  A    between atoms: C16_20  and  C17_22 
REMARK   14  A    between atoms: C20_25  and  N4_26 
REMARK   15  A    between atoms: N4_26  and  C21_28 
ROOT
HETATM    1  C14 UNL     1       0.804  -0.485  -0.044  1.00  0.00     0.091 C 
ENDROOT
BRANCH   1   2
HETATM    2  N2  UNL     1      -0.076  -1.365  -0.659  1.00  0.00    -0.290 NA
HETATM    3  C13 UNL     1      -0.994  -2.124   0.119  1.00  0.00     0.095 C 
HETATM    4  C12 UNL     1      -2.337  -2.244  -0.633  1.00  0.00     0.019 C 
HETATM    5  C11 UNL     1      -3.036  -0.907  -0.431  1.00  0.00    -0.011 C 
HETATM    6  C29 UNL     1      -1.989   0.109  -1.001  1.00  0.00     0.019 C 
HETATM    7  C28 UNL     1      -0.858  -0.582  -1.679  1.00  0.00     0.095 C 
BRANCH   5   8
HETATM    8  C10 UNL     1      -4.245  -0.727  -1.307  1.00  0.00     0.032 C 
BRANCH   8   9
HETATM    9  C9  UNL     1      -5.043   0.493  -1.099  1.00  0.00     0.238 C 
BRANCH   9  10
HETATM   10  N1  UNL     1      -5.880   0.621   0.068  1.00  0.00    -0.067 N 
BRANCH  10  11
HETATM   11  C4  UNL     1      -7.256   0.646  -0.423  1.00  0.00     0.237 C 
BRANCH  11  12
HETATM   12  C3  UNL     1      -7.482   0.083  -1.780  1.00  0.00     0.027 C 
BRANCH  12  13
HETATM   13  C2  UNL     1      -9.007   0.108  -2.047  1.00  0.00    -0.003 C 
HETATM   14  C1  UNL     1      -9.700  -0.755  -1.009  1.00  0.00     0.005 C 
ENDBRANCH  12  13
ENDBRANCH  11  12
ENDBRANCH  10  11
BRANCH  10  15
HETATM   15  C5  UNL     1      -5.512   1.832   0.743  1.00  0.00     0.233 C 
HETATM   16  C6  UNL     1      -6.357   3.030   0.605  1.00  0.00     0.035 C 
ENDBRANCH  10  15
BRANCH  10  17
HETATM   17  C7  UNL     1      -5.717  -0.436   1.036  1.00  0.00     0.248 C 
BRANCH  17  18
HETATM   18  C8  UNL     1      -6.877  -0.823   1.873  1.00  0.00     0.113 C 
HETATM   19 BR1  UNL     1      -7.626   0.499   3.015  1.00  0.00    -0.095 Br
ENDBRANCH  17  18
ENDBRANCH  10  17
ENDBRANCH   9  10
ENDBRANCH   8   9
ENDBRANCH   5   8
ENDBRANCH   1   2
BRANCH   1  20
HETATM   20  C15 UNL     1       1.891  -1.076   0.835  1.00  0.00     0.198 C 
BRANCH  20  21
HETATM   21  N3  UNL     1       2.750  -0.096   1.270  1.00  0.00    -0.378 NA
HETATM   22  C16 UNL     1       3.607   0.892   1.711  1.00  0.00     0.327 C 
HETATM   23  O1  UNL     1       3.337   1.808   2.511  1.00  0.00    -0.251 OA
BRANCH  22  24
HETATM   24  C17 UNL     1       4.997   0.910   1.168  1.00  0.00     0.069 A 
HETATM   25  C18 UNL     1       5.124   1.821   0.103  1.00  0.00     0.024 A 
HETATM   26  C19 UNL     1       6.293   1.849  -0.600  1.00  0.00     0.049 A 
HETATM   27  C20 UNL     1       7.374   1.000  -0.289  1.00  0.00     0.101 A 
HETATM   28  N5  UNL     1       7.187   0.162   0.740  1.00  0.00    -0.346 N 
HETATM   29  C26 UNL     1       6.026   0.115   1.455  1.00  0.00     0.023 A 
ATOM     30  H5  UNL     1       7.946  -0.468   1.000  1.00  0.00     0.167 HD
HETATM   31  C27 UNL     1       5.890  -0.833   2.610  1.00  0.00     0.069 C 
BRANCH  27  32
HETATM   32  N4  UNL     1       8.362   1.095  -1.023  1.00  0.00    -0.372 N 
ATOM     33  H4  UNL     1       8.194   1.799  -1.742  1.00  0.00     0.161 HD
BRANCH  32  34
HETATM   34  C21 UNL     1       9.635   0.547  -1.183  1.00  0.00     0.083 C 
HETATM   35  C22 UNL     1      10.690   1.177  -0.276  1.00  0.00     0.025 C 
HETATM   36  C23 UNL     1      11.318   0.070   0.497  1.00  0.00     0.002 C 
HETATM   37  C24 UNL     1      10.754  -1.231   0.016  1.00  0.00     0.002 C 
HETATM   38  C25 UNL     1       9.775  -0.932  -1.103  1.00  0.00     0.025 C 
ENDBRANCH  32  34
ENDBRANCH  27  32
ENDBRANCH  22  24
ENDBRANCH  20  21
ENDBRANCH   1  20
TORSDOF 15
