REMARK  3 active torsions:
REMARK  status: ('A' for Active; 'I' for Inactive)
REMARK    1  A    between atoms: N1_2  and  C3_4 
REMARK    2  A    between atoms: C3_4  and  C4_5 
REMARK    3  A    between atoms: C4_5  and  C5_6 
ROOT
HETATM    1  C5  UNL     1       0.617   0.452  -0.774  1.00  0.00    -0.030 A 
HETATM    2  C6  UNL     1       1.098   1.640  -1.302  1.00  0.00     0.097 A 
HETATM    3  N2  UNL     1       2.322   2.093  -0.995  1.00  0.00    -0.351 N 
ATOM      4  H2  UNL     1       2.645   2.971  -1.400  1.00  0.00     0.166 HD
HETATM    5  C7  UNL     1       3.131   1.416  -0.166  1.00  0.00     0.111 A 
HETATM    6  N3  UNL     1       4.326   1.858   0.139  1.00  0.00    -0.385 N 
ATOM      7  H31 UNL     1       4.941   1.343   0.769  1.00  0.00     0.157 HD
ATOM      8  H32 UNL     1       4.636   2.738  -0.274  1.00  0.00     0.157 HD
HETATM    9  C8  UNL     1       2.714   0.234   0.389  1.00  0.00     0.034 A 
HETATM   10  C9  UNL     1       1.429  -0.243   0.067  1.00  0.00    -0.012 A 
HETATM   11  C10 UNL     1       0.984  -1.500   0.644  1.00  0.00     0.030 A 
HETATM   12  C11 UNL     1       1.812  -2.141   1.451  1.00  0.00     0.088 A 
HETATM   13  N4  UNL     1       3.107  -1.639   1.764  1.00  0.00    -0.374 N 
ATOM     14  H4  UNL     1       3.699  -2.180   2.394  1.00  0.00     0.164 HD
HETATM   15  C12 UNL     1       3.566  -0.535   1.289  1.00  0.00     0.103 A 
ENDROOT
BRANCH   1  16
HETATM   16  C4  UNL     1      -0.728  -0.009  -1.091  1.00  0.00     0.060 C 
BRANCH  16  17
HETATM   17  C3  UNL     1      -1.640   0.362   0.069  1.00  0.00     0.120 C 
BRANCH  17  18
HETATM   18  N1  UNL     1      -2.986  -0.089  -0.206  1.00  0.00    -0.421 N 
HETATM   19  C1  UNL     1      -3.904   0.182   0.838  1.00  0.00     0.142 C 
HETATM   20  C2  UNL     1      -3.071  -1.359  -0.838  1.00  0.00     0.142 C 
ENDBRANCH  17  18
ENDBRANCH  16  17
ENDBRANCH   1  16
TORSDOF 3
