REMARK  6 active torsions:
REMARK  status: ('A' for Active; 'I' for Inactive)
REMARK    1  A    between atoms: C1_2  and  C2_3 
REMARK       I    between atoms: C1_2  and  N2_16 
REMARK    2  A    between atoms: C2_3  and  S1_4 
REMARK    3  A    between atoms: S1_4  and  C3_5 
REMARK    4  A    between atoms: C3_5  and  C4_6 
REMARK       I    between atoms: C4_6  and  N1_8 
REMARK    5  A    between atoms: N1_8  and  C5_10 
REMARK    6  A    between atoms: C12_23  and  C13_24 
ROOT
HETATM    1  O1  UNL     1       1.682   0.667  -0.457  1.00  0.00    -0.272 OA
HETATM    2  C1  UNL     1       0.925  -0.194   0.090  1.00  0.00     0.232 C 
HETATM    3  N2  UNL     1       0.454  -1.267  -0.706  1.00  0.00    -0.305 N 
ATOM      4  H2  UNL     1       1.080  -1.969  -1.099  1.00  0.00     0.171 HD
HETATM    5  C11 UNL     1      -0.844  -1.296  -0.903  1.00  0.00     0.167 A 
HETATM    6  N3  UNL     1      -1.604  -2.156  -1.590  1.00  0.00    -0.279 N 
ATOM      7  H3  UNL     1      -1.178  -2.941  -2.083  1.00  0.00     0.189 HD
HETATM    8  N4  UNL     1      -2.865  -1.983  -1.621  1.00  0.00    -0.295 N 
ATOM      9  H4  UNL     1      -3.451  -2.634  -2.143  1.00  0.00     0.187 HD
HETATM   10  C12 UNL     1      -3.422  -0.969  -0.984  1.00  0.00     0.078 A 
HETATM   11  S2  UNL     1      -2.051  -0.217  -0.303  1.00  0.00    -0.037 SA
ENDROOT
BRANCH   2  12
HETATM   12  C2  UNL     1       0.567  -0.057   1.482  1.00  0.00     0.177 C 
BRANCH  12  13
HETATM   13  S1  UNL     1       1.712  -0.810   2.621  1.00  0.00    -0.150 SA
BRANCH  13  14
HETATM   14  C3  UNL     1       3.292  -0.043   2.663  1.00  0.00     0.177 C 
BRANCH  14  15
HETATM   15  C4  UNL     1       4.274  -0.387   1.618  1.00  0.00     0.227 C 
HETATM   16  O2  UNL     1       4.045  -1.262   0.787  1.00  0.00    -0.273 OA
HETATM   17  N1  UNL     1       5.487   0.329   1.623  1.00  0.00    -0.356 N 
ATOM     18  H1  UNL     1       5.626   1.065   2.315  1.00  0.00     0.162 HD
BRANCH  17  19
HETATM   19  C5  UNL     1       6.547   0.047   0.667  1.00  0.00     0.084 C 
HETATM   20  C6  UNL     1       7.900   0.039   1.391  1.00  0.00     0.025 C 
HETATM   21  C7  UNL     1       8.996   0.558   0.491  1.00  0.00     0.002 C 
HETATM   22  C8  UNL     1       8.813   0.039  -0.928  1.00  0.00     0.000 C 
HETATM   23  C9  UNL     1       7.514   0.542  -1.529  1.00  0.00     0.002 C 
HETATM   24  C10 UNL     1       6.608   1.092  -0.447  1.00  0.00     0.025 C 
ENDBRANCH  17  19
ENDBRANCH  14  15
ENDBRANCH  13  14
ENDBRANCH  12  13
ENDBRANCH   2  12
BRANCH  10  25
HETATM   25  C13 UNL     1      -4.834  -0.519  -0.814  1.00  0.00     0.011 C 
HETATM   26  C14 UNL     1      -4.823   0.316   0.463  1.00  0.00     0.021 C 
HETATM   27  C15 UNL     1      -6.162   0.933   0.679  1.00  0.00    -0.013 C 
HETATM   28  C16 UNL     1      -7.271  -0.076   0.773  1.00  0.00     0.009 C 
HETATM   29  C20 UNL     1      -6.456   1.815  -0.537  1.00  0.00     0.009 C 
HETATM   30  C17 UNL     1      -7.163  -1.008  -0.413  1.00  0.00    -0.013 C 
HETATM   31  C18 UNL     1      -7.553  -0.168  -1.619  1.00  0.00     0.009 C 
HETATM   32  C22 UNL     1      -5.806  -1.629  -0.579  1.00  0.00     0.021 C 
HETATM   33  C19 UNL     1      -6.565   0.955  -1.757  1.00  0.00    -0.013 C 
HETATM   34  C21 UNL     1      -5.212   0.327  -2.002  1.00  0.00     0.021 C 
ENDBRANCH  10  25
TORSDOF 6
