REMARK  5 active torsions:
REMARK  status: ('A' for Active; 'I' for Inactive)
REMARK    1  A    between atoms: C3_3  and  N1_4 
REMARK    2  A    between atoms: N1_4  and  C4_6 
REMARK    3  A    between atoms: C4_6  and  C5_7 
REMARK    4  A    between atoms: C5_7  and  N2_8 
REMARK    5  A    between atoms: N2_8  and  C6_11 
ROOT
HETATM    1  C4  UNL     1      -0.025  -0.849   0.560  1.00  0.00     0.142 C 
ENDROOT
BRANCH   1   2
HETATM    2  N1  UNL     1      -1.231  -0.384  -0.103  1.00  0.00    -0.414 N 
ATOM      3  H1  UNL     1      -1.199   0.153  -0.970  1.00  0.00     0.153 HD
BRANCH   2   4
HETATM    4  C3  UNL     1      -2.453  -0.721   0.526  1.00  0.00     0.103 C 
HETATM    5  C2  UNL     1      -3.452  -1.082  -0.551  1.00  0.00     0.054 C 
HETATM    6  C1  UNL     1      -4.085   0.244  -0.954  1.00  0.00     0.234 C 
HETATM    7  N4  UNL     1      -3.565   1.233  -0.072  1.00  0.00    -0.073 N 
HETATM    8  C9  UNL     1      -3.121   0.528   1.102  1.00  0.00     0.256 C 
ATOM      9  H42 UNL     1      -2.841   1.814  -0.495  1.00  0.00     0.277 HD
ATOM     10  H41 UNL     1      -4.225   1.984   0.130  1.00  0.00     0.277 HD
ENDBRANCH   2   4
ENDBRANCH   1   2
BRANCH   1  11
HETATM   11  C5  UNL     1       1.143  -0.291  -0.257  1.00  0.00     0.252 C 
BRANCH  11  12
HETATM   12  N2  UNL     1       2.421  -0.688   0.177  1.00  0.00    -0.066 N 
ATOM     13  H22 UNL     1       2.523  -0.647   1.191  1.00  0.00     0.277 HD
ATOM     14  H21 UNL     1       2.583  -1.689   0.063  1.00  0.00     0.277 HD
BRANCH  12  15
HETATM   15  C6  UNL     1       3.393   0.112  -0.511  1.00  0.00     0.236 C 
HETATM   16  C7  UNL     1       3.360   1.549   0.008  1.00  0.00     0.267 C 
HETATM   17  N3  UNL     1       4.310   1.084   1.057  1.00  0.00    -0.071 N 
HETATM   18  C8  UNL     1       4.802   0.150   0.059  1.00  0.00     0.267 C 
ATOM     19  H32 UNL     1       4.934   1.731   1.540  1.00  0.00     0.277 HD
ATOM     20  H31 UNL     1       3.986   0.770   1.972  1.00  0.00     0.277 HD
ENDBRANCH  12  15
ENDBRANCH  11  12
ENDBRANCH   1  11
TORSDOF 5
