REMARK  13 active torsions:
REMARK  status: ('A' for Active; 'I' for Inactive)
REMARK    1  A    between atoms: N1_1  and  C1_4 
REMARK    2  A    between atoms: C2_7  and  N3_8 
REMARK    3  A    between atoms: N3_8  and  C3_10 
REMARK    4  A    between atoms: C3_10  and  C4_11 
REMARK    5  A    between atoms: C4_11  and  C5_12 
REMARK    6  A    between atoms: C5_12  and  C6_13 
REMARK    7  A    between atoms: C6_13  and  C7_14 
REMARK    8  A    between atoms: C7_14  and  O1_15 
REMARK    9  A    between atoms: C8_19  and  N5_20 
REMARK   10  A    between atoms: N5_20  and  O2_22 
REMARK   11  A    between atoms: O2_22  and  C9_23 
REMARK   12  A    between atoms: C11_25  and  N6_26 
REMARK   13  A    between atoms: C12_30  and  N7_31 
ROOT
HETATM    1  C1  UNL     1       0.069   2.164   0.036  1.00  0.00     0.705 A 
HETATM    2  N2  UNL     1       1.284   1.910  -0.467  1.00  0.00    -0.022 N 
ATOM      3  H2  UNL     1       1.975   2.659  -0.498  1.00  0.00     0.203 HD
HETATM    4  C2  UNL     1       1.617   0.691  -0.933  1.00  0.00     0.707 A 
HETATM    5  N4  UNL     1       0.702  -0.297  -0.890  1.00  0.00    -0.020 N 
ATOM      6  H4  UNL     1       0.949  -1.222  -1.241  1.00  0.00     0.203 HD
HETATM    7  C8  UNL     1      -0.541  -0.086  -0.389  1.00  0.00     0.731 A 
HETATM    8  N8  UNL     1      -0.813   1.149   0.060  1.00  0.00    -0.020 N 
ATOM      9  H8  UNL     1      -1.742   1.328   0.441  1.00  0.00     0.203 HD
ENDROOT
BRANCH   7  10
HETATM   10  N5  UNL     1      -1.386  -1.049  -0.364  1.00  0.00    -0.093 N 
ATOM     11  H5  UNL     1      -1.104  -1.961  -0.724  1.00  0.00     0.213 HD
BRANCH  10  12
HETATM   12  O2  UNL     1      -2.639  -0.899   0.123  1.00  0.00    -0.233 OA
BRANCH  12  13
HETATM   13  C9  UNL     1      -3.824  -1.143  -0.640  1.00  0.00     0.294 C 
HETATM   14  C10 UNL     1      -4.602   0.157  -0.645  1.00  0.00     0.100 C 
HETATM   15  C11 UNL     1      -5.637  -0.135   0.439  1.00  0.00     0.244 C 
HETATM   16  C12 UNL     1      -5.861  -1.626   0.150  1.00  0.00     0.351 C 
HETATM   17  O3  UNL     1      -4.561  -2.074   0.034  1.00  0.00    -0.325 OA
BRANCH  15  18
HETATM   18  N6  UNL     1      -6.846   0.620   0.234  1.00  0.00    -0.071 N 
ATOM     19  H63 UNL     1      -6.654   1.619   0.162  1.00  0.00     0.274 HD
ATOM     20  H62 UNL     1      -7.229   0.464  -0.699  1.00  0.00     0.274 HD
ATOM     21  H61 UNL     1      -7.537   0.425   0.958  1.00  0.00     0.274 HD
ENDBRANCH  15  18
BRANCH  16  22
HETATM   22  N7  UNL     1      -6.592  -2.236   1.218  1.00  0.00    -0.051 N 
ATOM     23  H73 UNL     1      -6.141  -2.087   2.121  1.00  0.00     0.277 HD
ATOM     24  H72 UNL     1      -7.469  -1.749   1.405  1.00  0.00     0.277 HD
ATOM     25  H71 UNL     1      -6.741  -3.227   1.026  1.00  0.00     0.277 HD
ENDBRANCH  16  22
ENDBRANCH  12  13
ENDBRANCH  10  12
ENDBRANCH   7  10
BRANCH   4  26
HETATM   26  N3  UNL     1       2.767   0.404  -1.423  1.00  0.00    -0.225 N 
ATOM     27  H3  UNL     1       2.903  -0.554  -1.745  1.00  0.00     0.177 HD
BRANCH  26  28
HETATM   28  C3  UNL     1       3.868   1.286  -1.562  1.00  0.00     0.138 C 
BRANCH  28  29
HETATM   29  C4  UNL     1       4.732   1.468  -0.352  1.00  0.00     0.020 C 
BRANCH  29  30
HETATM   30  C5  UNL     1       5.420   0.266   0.167  1.00  0.00     0.004 C 
BRANCH  30  31
HETATM   31  C6  UNL     1       4.559  -0.876   0.611  1.00  0.00     0.026 C 
BRANCH  31  32
HETATM   32  C7  UNL     1       5.520  -1.966   1.130  1.00  0.00     0.164 C 
BRANCH  32  33
HETATM   33  O1  UNL     1       6.382  -2.364   0.118  1.00  0.00    -0.401 OA
ATOM     34  H1  UNL     1       6.974  -3.035   0.438  1.00  0.00     0.209 HD
ENDBRANCH  32  33
ENDBRANCH  31  32
ENDBRANCH  30  31
ENDBRANCH  29  30
ENDBRANCH  28  29
ENDBRANCH  26  28
ENDBRANCH   4  26
BRANCH   1  35
HETATM   35  N1  UNL     1      -0.222   3.336   0.474  1.00  0.00    -0.234 N 
ATOM     36  H12 UNL     1       0.447   4.106   0.456  1.00  0.00     0.174 HD
ATOM     37  H11 UNL     1      -1.147   3.529   0.857  1.00  0.00     0.174 HD
ENDBRANCH   1  35
TORSDOF 13
