REMARK  11 active torsions:
REMARK  status: ('A' for Active; 'I' for Inactive)
REMARK    1  A    between atoms: N1_1  and  C1_4 
REMARK    2  A    between atoms: C3_9  and  N4_10 
REMARK    3  A    between atoms: N4_10  and  C4_12 
REMARK    4  A    between atoms: C4_12  and  C5_13 
REMARK    5  A    between atoms: C5_13  and  O1_14 
REMARK    6  A    between atoms: C5_13  and  C6_16 
REMARK    7  A    between atoms: C6_16  and  C7_17 
REMARK    8  A    between atoms: C7_17  and  N5_18 
REMARK    9  A    between atoms: C7_17  and  C8_22 
REMARK   10  A    between atoms: C8_22  and  S1_23 
REMARK   11  A    between atoms: S1_23  and  N6_24 
ROOT
HETATM    1  C4  UNL     1      -0.505  -0.756  -1.512  1.00  0.00     0.151 C 
ENDROOT
BRANCH   1   2
HETATM    2  N4  UNL     1      -1.303   0.428  -1.377  1.00  0.00    -0.380 N 
ATOM      3  H4  UNL     1      -1.066   1.209  -1.989  1.00  0.00     0.160 HD
BRANCH   2   4
HETATM    4  C3  UNL     1      -2.372   0.628  -0.496  1.00  0.00     0.139 A 
HETATM    5  C2  UNL     1      -3.638   0.215  -0.933  1.00  0.00     0.163 A 
HETATM    6  N2  UNL     1      -4.741   0.364  -0.179  1.00  0.00    -0.177 N 
HETATM    7  N3  UNL     1      -3.730  -0.377  -2.218  1.00  0.00    -0.080 NA
HETATM    8  C1  UNL     1      -4.607   0.931   1.033  1.00  0.00     0.680 A 
ATOM      9  H2  UNL     1      -5.653   0.056  -0.516  1.00  0.00     0.185 HD
HETATM   10  N7  UNL     1      -3.424   1.334   1.480  1.00  0.00    -0.154 N 
HETATM   11  C9  UNL     1      -2.279   1.199   0.740  1.00  0.00     0.289 A 
ATOM     12  H7  UNL     1      -3.365   1.758   2.406  1.00  0.00     0.187 HD
HETATM   13  O3  UNL     1      -1.187   1.599   1.211  1.00  0.00    -0.265 OA
BRANCH   8  14
HETATM   14  N1  UNL     1      -5.662   1.078   1.764  1.00  0.00    -0.234 N 
ATOM     15  H12 UNL     1      -6.571   0.768   1.420  1.00  0.00     0.174 HD
ATOM     16  H11 UNL     1      -5.560   1.508   2.683  1.00  0.00     0.174 HD
ENDBRANCH   8  14
ENDBRANCH   2   4
ENDBRANCH   1   2
BRANCH   1  17
HETATM   17  C5  UNL     1       0.474  -1.014  -0.391  1.00  0.00     0.137 C 
BRANCH  17  18
HETATM   18  O1  UNL     1       1.057  -2.259  -0.735  1.00  0.00    -0.394 OA
ATOM     19  H1  UNL     1       1.673  -2.421  -0.030  1.00  0.00     0.210 HD
ENDBRANCH  17  18
BRANCH  17  20
HETATM   20  C6  UNL     1       1.517   0.071  -0.510  1.00  0.00     0.067 C 
BRANCH  20  21
HETATM   21  C7  UNL     1       2.602   0.068   0.479  1.00  0.00     0.199 C 
BRANCH  21  22
HETATM   22  N5  UNL     1       3.513   1.180   0.213  1.00  0.00    -0.074 N 
ATOM     23  H53 UNL     1       3.865   1.168  -0.744  1.00  0.00     0.274 HD
ATOM     24  H52 UNL     1       3.026   2.076   0.179  1.00  0.00     0.274 HD
ATOM     25  H51 UNL     1       4.267   1.178   0.900  1.00  0.00     0.274 HD
ENDBRANCH  21  22
BRANCH  21  26
HETATM   26  C8  UNL     1       3.394  -1.164   0.649  1.00  0.00     0.164 C 
BRANCH  26  27
HETATM   27  S1  UNL     1       4.620  -0.870   1.901  1.00  0.00     0.109 S 
HETATM   28  O2  UNL     1       3.966  -0.781   3.421  1.00  0.00    -0.236 OA
BRANCH  27  29
HETATM   29  N6  UNL     1       5.703   0.382   1.542  1.00  0.00    -0.350 NA
ATOM     30  H62 UNL     1       6.106   0.327   0.606  1.00  0.00     0.166 HD
ATOM     31  H61 UNL     1       6.407   0.551   2.261  1.00  0.00     0.166 HD
ENDBRANCH  27  29
ENDBRANCH  26  27
ENDBRANCH  21  26
ENDBRANCH  20  21
ENDBRANCH  17  20
ENDBRANCH   1  17
TORSDOF 11
