REMARK  11 active torsions:
REMARK  status: ('A' for Active; 'I' for Inactive)
REMARK    1  A    between atoms: C2_2  and  O1_3 
REMARK    2  A    between atoms: C2_2  and  C3_5 
REMARK    3  A    between atoms: C3_5  and  O2_6 
REMARK    4  A    between atoms: C3_5  and  C4_8 
REMARK    5  A    between atoms: C4_8  and  N1_9 
REMARK    6  A    between atoms: N1_9  and  C5_11 
REMARK    7  A    between atoms: N6_25  and  C10_26 
REMARK    8  A    between atoms: C10_26  and  C11_27 
REMARK    9  A    between atoms: C11_27  and  O3_28 
REMARK   10  A    between atoms: C11_27  and  C12_30 
REMARK   11  A    between atoms: C12_30  and  N7_31 
ROOT
HETATM    1  C5  UNL     1       0.806  -1.298  -0.547  1.00  0.00     0.151 A 
HETATM    2  N2  UNL     1       0.331  -2.203  -1.448  1.00  0.00    -0.174 N 
ATOM      3  H2  UNL     1       0.921  -2.989  -1.721  1.00  0.00     0.186 HD
HETATM    4  C6  UNL     1      -0.892  -2.087  -1.985  1.00  0.00     0.679 A 
HETATM    5  N3  UNL     1      -1.314  -2.968  -2.841  1.00  0.00    -0.234 N 
ATOM      6  H31 UNL     1      -2.244  -2.880  -3.250  1.00  0.00     0.174 HD
ATOM      7  H32 UNL     1      -0.688  -3.736  -3.082  1.00  0.00     0.174 HD
HETATM    8  N4  UNL     1      -1.717  -1.075  -1.668  1.00  0.00    -0.174 N 
ATOM      9  H4  UNL     1      -2.641  -1.018  -2.097  1.00  0.00     0.186 HD
HETATM   10  C7  UNL     1      -1.324  -0.127  -0.777  1.00  0.00     0.155 A 
HETATM   11  C8  UNL     1      -0.044  -0.267  -0.229  1.00  0.00     0.123 A 
HETATM   12  N5  UNL     1       0.100   0.764   0.583  1.00  0.00    -0.346 N 
ATOM     13  H5  UNL     1       0.931   0.958   1.142  1.00  0.00     0.167 HD
HETATM   14  C9  UNL     1      -1.008   1.518   0.563  1.00  0.00     0.185 A 
HETATM   15  N6  UNL     1      -1.918   0.974  -0.288  1.00  0.00    -0.324 N 
ENDROOT
BRANCH   1  16
HETATM   16  N1  UNL     1       1.968  -1.508  -0.109  1.00  0.00    -0.351 N 
ATOM     17  H1  UNL     1       2.391  -2.347  -0.505  1.00  0.00     0.166 HD
BRANCH  16  18
HETATM   18  C4  UNL     1       2.813  -0.855   0.796  1.00  0.00     0.096 C 
BRANCH  18  19
HETATM   19  C3  UNL     1       3.914  -0.072   0.094  1.00  0.00     0.184 C 
BRANCH  19  20
HETATM   20  C2  UNL     1       4.845   0.518   1.138  1.00  0.00     0.148 C 
HETATM   21  C1  UNL     1       6.034   1.183   0.531  1.00  0.00     0.042 C 
BRANCH  20  22
HETATM   22  O1  UNL     1       4.144   1.411   1.917  1.00  0.00    -0.393 OA
ATOM     23  H1  UNL     1       3.387   0.987   2.304  1.00  0.00     0.210 HD
ENDBRANCH  20  22
ENDBRANCH  19  20
BRANCH  19  24
HETATM   24  O2  UNL     1       3.377   0.883  -0.731  1.00  0.00    -0.388 OA
ATOM     25  H2  UNL     1       2.794   0.514  -1.384  1.00  0.00     0.210 HD
ENDBRANCH  19  24
ENDBRANCH  18  19
ENDBRANCH  16  18
ENDBRANCH   1  16
BRANCH  15  26
HETATM   26  C10 UNL     1      -3.242   1.476  -0.568  1.00  0.00     0.164 C 
BRANCH  26  27
HETATM   27  C11 UNL     1      -4.266   1.027   0.403  1.00  0.00     0.161 C 
BRANCH  27  28
HETATM   28  O3  UNL     1      -5.517   1.571   0.028  1.00  0.00    -0.392 OA
ATOM     29  H3  UNL     1      -6.174   1.283   0.651  1.00  0.00     0.210 HD
ENDBRANCH  27  28
BRANCH  27  30
HETATM   30  C12 UNL     1      -4.340  -0.468   0.450  1.00  0.00     0.262 C 
BRANCH  30  31
HETATM   31  N7  UNL     1      -5.366  -0.810   1.433  1.00  0.00    -0.077 N 
ATOM     32  H73 UNL     1      -5.204  -0.387   2.347  1.00  0.00     0.274 HD
ATOM     33  H72 UNL     1      -6.266  -0.369   1.244  1.00  0.00     0.274 HD
ATOM     34  H71 UNL     1      -5.416  -1.828   1.465  1.00  0.00     0.274 HD
ENDBRANCH  30  31
ENDBRANCH  27  30
ENDBRANCH  26  27
ENDBRANCH  15  26
TORSDOF 11
