REMARK  12 active torsions:
REMARK  status: ('A' for Active; 'I' for Inactive)
REMARK    1  A    between atoms: N1_1  and  C1_4 
REMARK    2  A    between atoms: C2_7  and  N3_8 
REMARK    3  A    between atoms: C6_16  and  N6_17 
REMARK    4  A    between atoms: N6_17  and  N7_18 
REMARK    5  A    between atoms: N6_17  and  C7_21 
REMARK    6  A    between atoms: C7_21  and  C8_22 
REMARK    7  A    between atoms: C8_22  and  N8_23 
REMARK    8  A    between atoms: N8_23  and  C9_24 
REMARK    9  A    between atoms: N8_23  and  C11_30 
REMARK   10  A    between atoms: C9_24  and  C10_25 
REMARK   11  A    between atoms: C10_25  and  N9_26 
REMARK   12  A    between atoms: C14_33  and  O1_34 
ROOT
HETATM    1  C1  UNL     1      -6.681   1.936  -0.100  1.00  0.00     0.679 A 
HETATM    2  N2  UNL     1      -7.257   0.759   0.193  1.00  0.00    -0.176 N 
ATOM      3  H2  UNL     1      -8.270   0.698   0.298  1.00  0.00     0.186 HD
HETATM    4  C2  UNL     1      -6.494  -0.343   0.349  1.00  0.00     0.130 A 
HETATM    5  C3  UNL     1      -5.123  -0.258   0.208  1.00  0.00     0.079 A 
HETATM    6  C4  UNL     1      -4.278  -1.334   0.355  1.00  0.00     0.092 A 
HETATM    7  N4  UNL     1      -4.886  -2.585   0.664  1.00  0.00    -0.099 NA
HETATM    8  C5  UNL     1      -2.906  -1.199   0.206  1.00  0.00     0.117 A 
HETATM    9  N5  UNL     1      -2.078  -2.337   0.375  1.00  0.00    -0.096 NA
HETATM   10  C6  UNL     1      -2.355   0.022  -0.094  1.00  0.00     0.150 A 
HETATM   11  N10 UNL     1      -3.199   1.075  -0.236  1.00  0.00    -0.325 N 
ATOM     12  H10 UNL     1      -2.812   1.992  -0.458  1.00  0.00     0.169 HD
HETATM   13  C17 UNL     1      -4.525   0.947  -0.093  1.00  0.00     0.138 A 
HETATM   14  N11 UNL     1      -5.348   2.030  -0.240  1.00  0.00    -0.176 N 
ATOM     15  H11 UNL     1      -4.937   2.937  -0.463  1.00  0.00     0.186 HD
ENDROOT
BRANCH  10  16
HETATM   16  N6  UNL     1      -0.938   0.231  -0.257  1.00  0.00    -0.280 N 
BRANCH  16  17
HETATM   17  N7  UNL     1      -0.363   1.124   0.649  1.00  0.00    -0.341 N 
ATOM     18  H72 UNL     1      -0.932   1.580   1.362  1.00  0.00     0.177 HD
ATOM     19  H71 UNL     1       0.640   1.272   0.534  1.00  0.00     0.177 HD
ENDBRANCH  16  17
BRANCH  16  20
HETATM   20  C7  UNL     1      -0.136  -0.412  -1.261  1.00  0.00     0.180 C 
BRANCH  20  21
HETATM   21  C8  UNL     1       1.293   0.042  -1.282  1.00  0.00     0.294 C 
BRANCH  21  22
HETATM   22  N8  UNL     1       1.984  -0.178  -0.015  1.00  0.00     0.096 N 
BRANCH  22  23
HETATM   23  C9  UNL     1       2.126  -1.599   0.239  1.00  0.00     0.300 C 
BRANCH  23  24
HETATM   24  C10 UNL     1       3.073  -2.311  -0.657  1.00  0.00     0.259 C 
BRANCH  24  25
HETATM   25  N9  UNL     1       3.122  -3.740  -0.299  1.00  0.00    -0.078 N 
ATOM     26  H93 UNL     1       3.347  -3.881   0.686  1.00  0.00     0.274 HD
ATOM     27  H92 UNL     1       2.196  -4.168  -0.302  1.00  0.00     0.274 HD
ATOM     28  H91 UNL     1       3.772  -4.229  -0.914  1.00  0.00     0.274 HD
ENDBRANCH  24  25
ENDBRANCH  23  24
ENDBRANCH  22  23
BRANCH  22  29
HETATM   29  C11 UNL     1       3.307   0.444  -0.073  1.00  0.00     0.223 C 
HETATM   30  C12 UNL     1       3.188   1.934  -0.308  1.00  0.00     0.038 C 
HETATM   31  C13 UNL     1       4.447   2.663   0.006  1.00  0.00     0.034 C 
HETATM   32  C14 UNL     1       5.619   1.738   0.251  1.00  0.00     0.118 C 
HETATM   33  C15 UNL     1       5.335   0.822   1.398  1.00  0.00     0.034 C 
HETATM   34  C16 UNL     1       3.945   0.238   1.275  1.00  0.00     0.038 C 
BRANCH  32  35
HETATM   35  O1  UNL     1       6.707   2.542   0.590  1.00  0.00    -0.396 OA
ATOM     36  H1  UNL     1       7.443   1.961   0.744  1.00  0.00     0.210 HD
ENDBRANCH  32  35
ENDBRANCH  22  29
ENDBRANCH  21  22
ENDBRANCH  20  21
ENDBRANCH  16  20
ENDBRANCH  10  16
BRANCH   4  37
HETATM   37  N3  UNL     1      -7.027  -1.484   0.630  1.00  0.00    -0.384 N 
ATOM     38  H32 UNL     1      -8.040  -1.547   0.734  1.00  0.00     0.157 HD
ATOM     39  H31 UNL     1      -6.450  -2.317   0.748  1.00  0.00     0.157 HD
ENDBRANCH   4  37
BRANCH   1  40
HETATM   40  N1  UNL     1      -7.407   2.996  -0.250  1.00  0.00    -0.234 N 
ATOM     41  H12 UNL     1      -8.419   2.925  -0.144  1.00  0.00     0.174 HD
ATOM     42  H11 UNL     1      -6.969   3.890  -0.473  1.00  0.00     0.174 HD
ENDBRANCH   1  40
TORSDOF 12
