REMARK  16 active torsions:
REMARK  status: ('A' for Active; 'I' for Inactive)
REMARK    1  A    between atoms: C2_2  and  C3_3 
REMARK    2  A    between atoms: C3_3  and  O1_4 
REMARK    3  A    between atoms: C3_3  and  O2_6 
REMARK    4  A    between atoms: C3_3  and  C4_8 
REMARK    5  A    between atoms: C5_9  and  C6_10 
REMARK    6  A    between atoms: C7_11  and  O3_12 
REMARK    7  A    between atoms: C8_14  and  N1_15 
REMARK    8  A    between atoms: C9_19  and  O4_20 
REMARK    9  A    between atoms: C10_22  and  O5_23 
REMARK   10  A    between atoms: C11_25  and  N2_26 
REMARK   11  A    between atoms: N2_26  and  C12_28 
REMARK   12  A    between atoms: C12_28  and  O6_29 
REMARK   13  A    between atoms: C12_28  and  C13_31 
REMARK   14  A    between atoms: C13_31  and  N3_32 
REMARK   15  A    between atoms: C13_31  and  C14_36 
REMARK   16  A    between atoms: C14_36  and  C15_37 
ROOT
HETATM    1  C6  UNL     1      -2.342  -1.195   0.048  1.00  0.00     0.064 C 
HETATM    2  C7  UNL     1      -3.214  -2.405  -0.373  1.00  0.00     0.161 C 
HETATM    3  C8  UNL     1      -2.326  -3.600  -0.151  1.00  0.00     0.243 C 
HETATM    4  C9  UNL     1      -1.164  -3.482  -1.067  1.00  0.00     0.181 C 
HETATM    5  C10 UNL     1      -0.451  -2.185  -1.093  1.00  0.00     0.172 C 
HETATM    6  C11 UNL     1      -1.342  -0.974  -1.028  1.00  0.00     0.120 C 
ENDROOT
BRANCH   6   7
HETATM    7  N2  UNL     1      -0.608   0.240  -0.789  1.00  0.00    -0.388 N 
ATOM      8  H2  UNL     1      -0.696   0.712   0.111  1.00  0.00     0.156 HD
BRANCH   7   9
HETATM    9  C12 UNL     1       0.221   0.780  -1.768  1.00  0.00     0.244 C 
BRANCH   9  10
HETATM   10  O6  UNL     1      -0.324   1.942  -2.393  1.00  0.00    -0.375 OA
ATOM     11  H6  UNL     1       0.242   2.311  -3.061  1.00  0.00     0.212 HD
ENDBRANCH   9  10
BRANCH   9  12
HETATM   12  C13 UNL     1       1.545   1.308  -1.173  1.00  0.00     0.231 C 
BRANCH  12  13
HETATM   13  N3  UNL     1       1.322   2.346  -0.236  1.00  0.00    -0.071 N 
ATOM     14  H33 UNL     1       0.770   3.101  -0.642  1.00  0.00     0.274 HD
ATOM     15  H32 UNL     1       0.676   2.053   0.497  1.00  0.00     0.274 HD
ATOM     16  H31 UNL     1       2.196   2.695   0.157  1.00  0.00     0.274 HD
ENDBRANCH  12  13
BRANCH  12  17
HETATM   17  C14 UNL     1       2.393   0.217  -0.602  1.00  0.00     0.042 C 
BRANCH  17  18
HETATM   18  C15 UNL     1       3.669   0.729  -0.042  1.00  0.00    -0.012 C 
HETATM   19  C16 UNL     1       3.589   1.688   1.092  1.00  0.00     0.005 C 
HETATM   20  C17 UNL     1       4.706   1.479   2.106  1.00  0.00     0.000 C 
HETATM   21  C18 UNL     1       6.031   1.166   1.503  1.00  0.00     0.000 C 
HETATM   22  C19 UNL     1       6.007   0.221   0.344  1.00  0.00     0.000 C 
HETATM   23  C20 UNL     1       4.618  -0.424   0.313  1.00  0.00     0.005 C 
ENDBRANCH  17  18
ENDBRANCH  12  17
ENDBRANCH   9  12
ENDBRANCH   7   9
ENDBRANCH   6   7
BRANCH   1  24
HETATM   24  C5  UNL     1      -3.254  -0.074   0.358  1.00  0.00    -0.016 C 
HETATM   25  C4  UNL     1      -3.373   1.094  -0.156  1.00  0.00     0.041 C 
BRANCH  25  26
HETATM   26  C3  UNL     1      -4.390   2.052   0.351  1.00  0.00     0.198 C 
BRANCH  26  27
HETATM   27  C2  UNL     1      -3.979   2.434   1.747  1.00  0.00     0.035 C 
HETATM   28  C1  UNL     1      -3.696   3.682   2.071  1.00  0.00     0.013 C 
ENDBRANCH  26  27
BRANCH  26  29
HETATM   29  O1  UNL     1      -5.660   1.480   0.446  1.00  0.00    -0.359 OA
ATOM     30  H1  UNL     1      -5.920   1.239  -0.435  1.00  0.00     0.213 HD
ENDBRANCH  26  29
BRANCH  26  31
HETATM   31  O2  UNL     1      -4.451   3.181  -0.463  1.00  0.00    -0.359 OA
ATOM     32  H2  UNL     1      -4.711   2.940  -1.344  1.00  0.00     0.213 HD
ENDBRANCH  26  31
ENDBRANCH  25  26
ENDBRANCH   1  24
BRANCH   5  33
HETATM   33  O5  UNL     1       0.343  -2.199  -2.243  1.00  0.00    -0.391 OA
ATOM     34  H5  UNL     1       0.801  -1.367  -2.260  1.00  0.00     0.210 HD
ENDBRANCH   5  33
BRANCH   2  35
HETATM   35  O3  UNL     1      -4.388  -2.431   0.345  1.00  0.00    -0.393 OA
ATOM     36  H3  UNL     1      -4.923  -3.173   0.087  1.00  0.00     0.210 HD
ENDBRANCH   2  35
BRANCH   4  37
HETATM   37  O4  UNL     1      -0.231  -4.473  -0.678  1.00  0.00    -0.391 OA
ATOM     38  H4  UNL     1       0.513  -4.397  -1.264  1.00  0.00     0.210 HD
ENDBRANCH   4  37
BRANCH   3  39
HETATM   39  N1  UNL     1      -1.939  -3.663   1.225  1.00  0.00    -0.070 N 
ATOM     40  H13 UNL     1      -1.504  -2.797   1.542  1.00  0.00     0.274 HD
ATOM     41  H12 UNL     1      -2.744  -3.661   1.851  1.00  0.00     0.274 HD
ATOM     42  H11 UNL     1      -1.337  -4.473   1.375  1.00  0.00     0.274 HD
ENDBRANCH   3  39
TORSDOF 16
