REMARK  11 active torsions:
REMARK  status: ('A' for Active; 'I' for Inactive)
REMARK    1  A    between atoms: N1_1  and  C1_5 
REMARK    2  A    between atoms: C1_5  and  C2_6 
REMARK    3  A    between atoms: C2_6  and  N2_7 
REMARK    4  A    between atoms: N2_7  and  C3_9 
REMARK    5  A    between atoms: C3_9  and  C4_10 
REMARK    6  A    between atoms: C4_10  and  S1_11 
REMARK    7  A    between atoms: S1_11  and  C5_12 
REMARK    8  A    between atoms: C6_13  and  N3_14 
REMARK    9  A    between atoms: C8_19  and  N4_20 
REMARK   10  A    between atoms: C9_24  and  O1_25 
REMARK   11  A    between atoms: C10_27  and  N5_28 
ROOT
HETATM    1  C5  UNL     1      -1.527  -0.011  -0.982  1.00  0.00     0.110 C 
HETATM    2  C6  UNL     1      -1.679  -1.342  -0.281  1.00  0.00     0.201 C 
HETATM    3  C7  UNL     1      -3.068  -1.444   0.277  1.00  0.00     0.069 C 
HETATM    4  C8  UNL     1      -4.007  -0.365  -0.245  1.00  0.00     0.216 C 
HETATM    5  C9  UNL     1      -3.487   0.982   0.191  1.00  0.00     0.180 C 
HETATM    6  C10 UNL     1      -1.997   1.113  -0.052  1.00  0.00     0.229 C 
ENDROOT
BRANCH   1   7
HETATM    7  S1  UNL     1       0.128   0.307  -1.604  1.00  0.00    -0.158 SA
BRANCH   7   8
HETATM    8  C4  UNL     1       1.327   0.632  -0.328  1.00  0.00     0.094 C 
BRANCH   8   9
HETATM    9  C3  UNL     1       2.686   0.907  -0.990  1.00  0.00     0.129 C 
BRANCH   9  10
HETATM   10  N2  UNL     1       3.667   1.260  -0.018  1.00  0.00    -0.400 N 
ATOM     11  H2  UNL     1       4.037   2.209   0.038  1.00  0.00     0.158 HD
BRANCH  10  12
HETATM   12  C2  UNL     1       4.106   0.257   0.860  1.00  0.00     0.082 C 
BRANCH  12  13
HETATM   13  C1  UNL     1       4.999  -0.812   0.260  1.00  0.00     0.273 C 
BRANCH  13  14
HETATM   14  N1  UNL     1       6.220  -0.260  -0.260  1.00  0.00    -0.075 N 
ATOM     15  H13 UNL     1       6.034   0.487  -0.930  1.00  0.00     0.274 HD
ATOM     16  H12 UNL     1       6.714   0.281   0.450  1.00  0.00     0.274 HD
ATOM     17  H11 UNL     1       6.821  -0.979  -0.664  1.00  0.00     0.274 HD
ENDBRANCH  13  14
ENDBRANCH  12  13
ENDBRANCH  10  12
ENDBRANCH   9  10
ENDBRANCH   8   9
ENDBRANCH   7   8
ENDBRANCH   1   7
BRANCH   2  18
HETATM   18  N3  UNL     1      -0.733  -1.581   0.760  1.00  0.00    -0.074 N 
ATOM     19  H33 UNL     1       0.217  -1.475   0.405  1.00  0.00     0.274 HD
ATOM     20  H32 UNL     1      -0.754  -0.820   1.439  1.00  0.00     0.274 HD
ATOM     21  H31 UNL     1      -0.836  -2.479   1.233  1.00  0.00     0.274 HD
ENDBRANCH   2  18
BRANCH   6  22
HETATM   22  N5  UNL     1      -1.269   1.100   1.210  1.00  0.00    -0.071 N 
ATOM     23  H53 UNL     1      -1.328   0.189   1.666  1.00  0.00     0.274 HD
ATOM     24  H52 UNL     1      -0.261   1.137   1.060  1.00  0.00     0.274 HD
ATOM     25  H51 UNL     1      -1.582   1.848   1.829  1.00  0.00     0.274 HD
ENDBRANCH   6  22
BRANCH   5  26
HETATM   26  O1  UNL     1      -4.178   2.016  -0.434  1.00  0.00    -0.391 OA
ATOM     27  H1  UNL     1      -3.850   2.864  -0.159  1.00  0.00     0.210 HD
ENDBRANCH   5  26
BRANCH   4  28
HETATM   28  N4  UNL     1      -5.296  -0.609   0.401  1.00  0.00    -0.072 N 
ATOM     29  H43 UNL     1      -5.648  -1.557   0.264  1.00  0.00     0.274 HD
ATOM     30  H42 UNL     1      -5.242  -0.644   1.419  1.00  0.00     0.274 HD
ATOM     31  H41 UNL     1      -5.925   0.114   0.051  1.00  0.00     0.274 HD
ENDBRANCH   4  28
TORSDOF 11
