REMARK  2 active torsions:
REMARK  status: ('A' for Active; 'I' for Inactive)
REMARK    1  A    between atoms: C3_3  and  C4_4 
REMARK    2  A    between atoms: C6_7  and  O1_8 
ROOT
HETATM    1  C1  UNL     1      -2.272   2.001   1.198  1.00  0.00     0.015 C 
HETATM    2  C2  UNL     1      -1.710   1.056   0.705  1.00  0.00    -0.077 C 
HETATM    3  C3  UNL     1      -1.011  -0.069   0.115  1.00  0.00     0.198 C 
HETATM    4  C5  UNL     1       0.003   0.385  -0.890  1.00  0.00     0.086 C 
HETATM    5  C6  UNL     1       1.315   0.109  -0.144  1.00  0.00     0.149 C 
HETATM    6  C8  UNL     1       0.929  -1.194   0.564  1.00  0.00     0.266 C 
HETATM    7  N1  UNL     1      -0.335  -0.784   1.152  1.00  0.00    -0.052 N 
ATOM      8  H11 UNL     1      -0.877  -1.554   1.544  1.00  0.00     0.279 HD
ATOM      9  H12 UNL     1      -0.235  -0.257   2.020  1.00  0.00     0.279 HD
ENDROOT
BRANCH   3  10
HETATM   10  C4  UNL     1      -1.985  -1.035  -0.547  1.00  0.00     0.138 C 
HETATM   11  S1  UNL     1      -3.110  -1.609   0.772  1.00  0.00    -0.094 SA
ENDBRANCH   3  10
BRANCH   5  12
HETATM   12  O1  UNL     1       2.379  -0.042  -0.987  1.00  0.00    -0.389 OA
HETATM   13  C7  UNL     1       3.355   0.910  -0.612  1.00  0.00     0.202 C 
ENDBRANCH   5  12
TORSDOF 2
