REMARK  5 active torsions:
REMARK  status: ('A' for Active; 'I' for Inactive)
REMARK    1  A    between atoms: N1_4  and  C4_5 
REMARK    2  A    between atoms: C8_10  and  N2_11 
REMARK    3  A    between atoms: C10_13  and  C11_14 
REMARK    4  A    between atoms: C11_14  and  N3_15 
REMARK    5  A    between atoms: C12_19  and  N4_21 
ROOT
HETATM    1  N2  UNL     1      -1.668   0.402   0.072  1.00  0.00    -0.376 N 
HETATM    2  C9  UNL     1      -2.436   1.511  -0.398  1.00  0.00     0.132 C 
HETATM    3  C10 UNL     1      -3.860   1.270  -0.734  1.00  0.00     0.068 C 
HETATM    4  C12 UNL     1      -4.364  -0.121  -0.562  1.00  0.00     0.163 C 
HETATM    5  C13 UNL     1      -5.611  -0.400  -1.381  1.00  0.00     0.050 C 
HETATM    6  C14 UNL     1      -3.295  -1.054  -1.088  1.00  0.00     0.148 C 
HETATM    7  C15 UNL     1      -3.761  -2.488  -1.049  1.00  0.00     0.056 C 
HETATM    8  F1  UNL     1      -3.072  -0.740  -2.433  1.00  0.00    -0.239 F 
HETATM    9  C16 UNL     1      -2.040  -0.935  -0.293  1.00  0.00     0.168 C 
ENDROOT
BRANCH   1  10
HETATM   10  C8  UNL     1      -0.530   0.604   0.894  1.00  0.00     0.054 A 
HETATM   11  C7  UNL     1      -0.598   1.166   2.152  1.00  0.00     0.060 A 
HETATM   12  C6  UNL     1       0.547   1.351   2.923  1.00  0.00     0.028 A 
HETATM   13 CL1  UNL     1      -2.132   1.663   2.836  1.00  0.00    -0.082 Cl
HETATM   14  C5  UNL     1       1.787   0.980   2.457  1.00  0.00     0.031 A 
HETATM   15  C4  UNL     1       1.884   0.413   1.196  1.00  0.00     0.032 A 
HETATM   16  C17 UNL     1       0.752   0.240   0.457  1.00  0.00     0.060 A 
BRANCH  15  17
HETATM   17  N1  UNL     1       3.162   0.022   0.710  1.00  0.00    -0.377 N 
HETATM   18  C3  UNL     1       4.308   0.056   1.562  1.00  0.00     0.147 C 
HETATM   19  C2  UNL     1       5.417  -0.852   1.076  1.00  0.00     0.091 C 
HETATM   20  C1  UNL     1       5.112  -2.295   1.427  1.00  0.00     0.033 C 
HETATM   21  N5  UNL     1       5.727  -0.671  -0.307  1.00  0.00    -0.406 N 
HETATM   22  C19 UNL     1       4.681  -0.206  -1.129  1.00  0.00     0.034 C 
ATOM     23  H5  UNL     1       6.656  -0.868  -0.680  1.00  0.00     0.154 HD
HETATM   24  C18 UNL     1       3.293  -0.403  -0.645  1.00  0.00     0.152 C 
HETATM   25  C20 UNL     1       4.860   1.293  -1.407  1.00  0.00     0.039 C 
HETATM   26  C21 UNL     1       4.796  -0.902  -2.492  1.00  0.00     0.039 C 
ENDBRANCH  15  17
ENDBRANCH   1  10
BRANCH   3  27
HETATM   27  C11 UNL     1      -4.803   2.224  -0.024  1.00  0.00     0.238 C 
BRANCH  27  28
HETATM   28  N3  UNL     1      -6.180   2.023  -0.326  1.00  0.00    -0.079 N 
ATOM     29  H33 UNL     1      -6.332   2.057  -1.334  1.00  0.00     0.274 HD
ATOM     30  H32 UNL     1      -6.447   1.056  -0.142  1.00  0.00     0.274 HD
ATOM     31  H31 UNL     1      -6.814   2.664   0.151  1.00  0.00     0.274 HD
ENDBRANCH  27  28
ENDBRANCH   3  27
BRANCH   4  32
HETATM   32  N4  UNL     1      -4.632  -0.394   0.815  1.00  0.00    -0.067 N 
ATOM     33  H43 UNL     1      -3.818  -0.211   1.402  1.00  0.00     0.275 HD
ATOM     34  H42 UNL     1      -5.269   0.292   1.219  1.00  0.00     0.275 HD
ATOM     35  H41 UNL     1      -4.977  -1.347   0.933  1.00  0.00     0.275 HD
ENDBRANCH   4  32
TORSDOF 5
