REMARK  4 active torsions:
REMARK  status: ('A' for Active; 'I' for Inactive)
REMARK    1  A    between atoms: N1_1  and  C1_5 
REMARK    2  A    between atoms: C1_5  and  C2_6 
REMARK    3  A    between atoms: C1_5  and  C7_11 
REMARK    4  A    between atoms: C2_6  and  C3_7 
ROOT
HETATM    1  C1  UNL     1       0.385  -0.008  -0.788  1.00  0.00     0.250 C 
ENDROOT
BRANCH   1   2
HETATM    2  N1  UNL     1       0.501  -1.149  -1.652  1.00  0.00    -0.068 N 
ATOM      3  H13 UNL     1       0.724  -1.996  -1.129  1.00  0.00     0.275 HD
ATOM      4  H12 UNL     1      -0.405  -1.431  -2.026  1.00  0.00     0.275 HD
ATOM      5  H11 UNL     1       1.178  -0.978  -2.396  1.00  0.00     0.275 HD
ENDBRANCH   1   2
BRANCH   1   6
HETATM    6  C2  UNL     1      -0.621  -0.262   0.318  1.00  0.00     0.045 C 
BRANCH   6   7
HETATM    7  C3  UNL     1      -1.985  -0.552  -0.214  1.00  0.00    -0.012 A 
HETATM    8  C4  UNL     1      -2.607   0.530  -1.048  1.00  0.00     0.005 A 
HETATM    9  C5  UNL     1      -3.624   0.823   0.046  1.00  0.00     0.001 A 
HETATM   10  C6  UNL     1      -3.035  -0.310   0.852  1.00  0.00     0.005 A 
ENDBRANCH   6   7
ENDBRANCH   1   6
BRANCH   1  11
HETATM   11  C7  UNL     1       1.737   0.177  -0.144  1.00  0.00     0.104 C 
HETATM   12  N2  UNL     1       2.495   1.212  -0.229  1.00  0.00    -0.377 N 
HETATM   13  C8  UNL     1       3.726   1.083   0.498  1.00  0.00     0.140 C 
ATOM     14  H2  UNL     1       2.246   2.045  -0.762  1.00  0.00     0.160 HD
HETATM   15  C9  UNL     1       3.773  -0.383   0.859  1.00  0.00     0.140 C 
HETATM   16  N3  UNL     1       2.408  -0.774   0.673  1.00  0.00    -0.377 N 
ATOM     17  H3  UNL     1       1.980  -1.611   1.068  1.00  0.00     0.160 HD
ENDBRANCH   1  11
TORSDOF 4
