REMARK  5 active torsions:
REMARK  status: ('A' for Active; 'I' for Inactive)
REMARK    1  A    between atoms: C2_2  and  C3_3 
REMARK    2  A    between atoms: C3_3  and  C4_4 
REMARK    3  A    between atoms: C4_4  and  N1_5 
REMARK    4  A    between atoms: N1_5  and  C5_7 
REMARK    5  A    between atoms: C7_13  and  N4_14 
ROOT
HETATM    1  C5  UNL     1       1.217   0.282   0.405  1.00  0.00     0.693 A 
HETATM    2  N2  UNL     1       1.741   0.682  -0.765  1.00  0.00    -0.187 N 
ATOM      3  H2  UNL     1       1.156   1.164  -1.448  1.00  0.00     0.185 HD
HETATM    4  C6  UNL     1       3.055   0.444  -1.039  1.00  0.00     0.215 A 
HETATM    5  N3  UNL     1       3.817  -0.192  -0.129  1.00  0.00    -0.187 N 
ATOM      6  H3  UNL     1       4.799  -0.364  -0.344  1.00  0.00     0.185 HD
HETATM    7  C7  UNL     1       3.329  -0.609   1.054  1.00  0.00     0.691 A 
HETATM    8  N5  UNL     1       2.032  -0.360   1.294  1.00  0.00    -0.023 N 
ATOM      9  H5  UNL     1       1.636  -0.665   2.183  1.00  0.00     0.203 HD
ENDROOT
BRANCH   1  10
HETATM   10  N1  UNL     1      -0.020   0.483   0.710  1.00  0.00    -0.226 N 
ATOM     11  H1  UNL     1      -0.347   0.150   1.617  1.00  0.00     0.177 HD
BRANCH  10  12
HETATM   12  C4  UNL     1      -0.963   1.141  -0.137  1.00  0.00     0.138 C 
BRANCH  12  13
HETATM   13  C3  UNL     1      -1.590   0.230  -1.170  1.00  0.00     0.020 C 
BRANCH  13  14
HETATM   14  C2  UNL     1      -2.334  -0.919  -0.533  1.00  0.00    -0.003 C 
HETATM   15  C1  UNL     1      -3.432  -0.335   0.345  1.00  0.00     0.005 C 
ENDBRANCH  13  14
ENDBRANCH  12  13
ENDBRANCH  10  12
ENDBRANCH   1  10
BRANCH   7  16
HETATM   16  N4  UNL     1       4.093  -1.216   1.900  1.00  0.00    -0.234 N 
ATOM     17  H42 UNL     1       5.079  -1.405   1.718  1.00  0.00     0.174 HD
ATOM     18  H41 UNL     1       3.723  -1.532   2.797  1.00  0.00     0.174 HD
ENDBRANCH   7  16
TORSDOF 5
