REMARK  3 active torsions:
REMARK  status: ('A' for Active; 'I' for Inactive)
REMARK    1  A    between atoms: C3_3  and  N1_4 
REMARK    2  A    between atoms: N1_4  and  C4_6 
REMARK    3  A    between atoms: C4_6  and  C5_7 
ROOT
HETATM    1  C5  UNL     1       1.162   0.205   0.277  1.00  0.00     0.228 C 
HETATM    2  C6  UNL     1       1.780  -0.865  -0.553  1.00  0.00     0.266 C 
HETATM    3  N2  UNL     1       3.131  -1.119  -0.051  1.00  0.00    -0.071 N 
ATOM      4  H21 UNL     1       3.593  -1.842  -0.602  1.00  0.00     0.277 HD
ATOM      5  H22 UNL     1       3.100  -1.591   0.852  1.00  0.00     0.277 HD
HETATM    6  C7  UNL     1       3.935   0.058   0.019  1.00  0.00     0.259 C 
HETATM    7  C8  UNL     1       3.202   1.119   0.832  1.00  0.00     0.260 C 
HETATM    8  N3  UNL     1       1.968   1.409   0.090  1.00  0.00    -0.066 N 
ATOM      9  H31 UNL     1       1.504   2.274   0.366  1.00  0.00     0.277 HD
ATOM     10  H32 UNL     1       2.114   1.671  -0.885  1.00  0.00     0.277 HD
ENDROOT
BRANCH   1  11
HETATM   11  C4  UNL     1      -0.298   0.419   0.010  1.00  0.00     0.149 C 
BRANCH  11  12
HETATM   12  N1  UNL     1      -0.993  -0.803   0.292  1.00  0.00    -0.415 N 
ATOM     13  H1  UNL     1      -0.487  -1.670   0.473  1.00  0.00     0.153 HD
BRANCH  12  14
HETATM   14  C3  UNL     1      -2.395  -0.761   0.310  1.00  0.00     0.076 C 
HETATM   15  C2  UNL     1      -3.191  -0.408  -0.886  1.00  0.00     0.024 C 
HETATM   16  C1  UNL     1      -4.231   0.175   0.098  1.00  0.00     0.004 C 
HETATM   17  C9  UNL     1      -3.070   0.356   1.063  1.00  0.00     0.024 C 
ENDBRANCH  12  14
ENDBRANCH  11  12
ENDBRANCH   1  11
TORSDOF 3
