REMARK  4 active torsions:
REMARK  status: ('A' for Active; 'I' for Inactive)
REMARK    1  A    between atoms: C2_2  and  C4_4 
REMARK    2  A    between atoms: C7_7  and  C8_8 
REMARK    3  A    between atoms: N1_9  and  N2_11 
REMARK    4  A    between atoms: C9_13  and  C10_14 
ROOT
HETATM    1  C8  UNL     1      -1.405   1.307  -0.173  1.00  0.00     0.118 C 
HETATM    2  N1  UNL     1      -2.239   0.689   0.512  1.00  0.00    -0.311 N 
ATOM      3  H1  UNL     1      -3.169   1.101   0.442  1.00  0.00     0.186 HD
ENDROOT
BRANCH   2   4
HETATM    4  N2  UNL     1      -2.227  -0.354   1.299  1.00  0.00    -0.310 N 
HETATM    5  C9  UNL     1      -3.147  -1.138   1.616  1.00  0.00     0.138 C 
ATOM      6  H2  UNL     1      -1.322  -0.561   1.722  1.00  0.00     0.186 HD
BRANCH   5   7
HETATM    7  C10 UNL     1      -4.504  -1.020   1.125  1.00  0.00     0.065 A 
HETATM    8  C11 UNL     1      -5.105  -0.123   0.274  1.00  0.00     0.119 A 
HETATM    9  N3  UNL     1      -6.416  -0.416   0.106  1.00  0.00    -0.360 N 
HETATM   10  C12 UNL     1      -6.662  -1.493   0.841  1.00  0.00     0.180 A 
ATOM     11  H3  UNL     1      -7.085   0.092  -0.473  1.00  0.00     0.166 HD
HETATM   12  N4  UNL     1      -5.537  -1.872   1.459  1.00  0.00    -0.350 N 
ATOM     13  H4  UNL     1      -5.455  -2.673   2.085  1.00  0.00     0.166 HD
ENDBRANCH   5   7
ENDBRANCH   2   4
BRANCH   1  14
HETATM   14  C7  UNL     1       0.002   0.998  -0.306  1.00  0.00    -0.019 A 
HETATM   15  C6  UNL     1       0.598  -0.058   0.338  1.00  0.00     0.013 A 
HETATM   16  C5  UNL     1       1.968  -0.327   0.184  1.00  0.00     0.008 A 
HETATM   17  C4  UNL     1       2.755   0.451  -0.610  1.00  0.00    -0.055 A 
HETATM   18  C14 UNL     1       2.134   1.526  -1.263  1.00  0.00     0.008 A 
HETATM   19  C13 UNL     1       0.802   1.799  -1.121  1.00  0.00     0.013 A 
BRANCH  17  20
HETATM   20  C2  UNL     1       4.178   0.270  -0.845  1.00  0.00     0.010 C 
HETATM   21  C1  UNL     1       4.890   0.545   0.491  1.00  0.00     0.015 C 
HETATM   22  C3  UNL     1       4.585  -1.113  -1.255  1.00  0.00     0.015 C 
ENDBRANCH  17  20
ENDBRANCH   1  14
TORSDOF 4
