REMARK  5 active torsions:
REMARK  status: ('A' for Active; 'I' for Inactive)
REMARK    1  A    between atoms: N1_1  and  C1_4 
REMARK    2  A    between atoms: C3_10  and  N4_11 
REMARK    3  A    between atoms: N4_11  and  N5_13 
REMARK    4  A    between atoms: N5_13  and  C4_15 
REMARK    5  A    between atoms: C4_15  and  N6_16 
ROOT
HETATM    1  C1  UNL     1      -2.624  -0.836  -0.362  1.00  0.00     0.691 A 
HETATM    2  N2  UNL     1      -3.382   0.172   0.105  1.00  0.00    -0.187 N 
ATOM      3  H2  UNL     1      -4.394   0.054   0.152  1.00  0.00     0.185 HD
HETATM    4  C2  UNL     1      -2.836   1.332   0.511  1.00  0.00     0.215 A 
HETATM    5  N3  UNL     1      -1.489   1.488   0.448  1.00  0.00    -0.185 N 
ATOM      6  H3  UNL     1      -1.065   2.364   0.754  1.00  0.00     0.185 HD
HETATM    7  C3  UNL     1      -0.714   0.500  -0.013  1.00  0.00     0.712 A 
HETATM    8  N7  UNL     1      -1.287  -0.642  -0.409  1.00  0.00    -0.021 N 
ATOM      9  H7  UNL     1      -0.693  -1.394  -0.759  1.00  0.00     0.203 HD
ENDROOT
BRANCH   7  10
HETATM   10  N4  UNL     1       0.557   0.655  -0.069  1.00  0.00    -0.134 N 
ATOM     11  H4  UNL     1       0.939   1.546   0.247  1.00  0.00     0.205 HD
BRANCH  10  12
HETATM   12  N5  UNL     1       1.444  -0.295  -0.525  1.00  0.00    -0.297 N 
ATOM     13  H5  UNL     1       1.192  -0.885  -1.318  1.00  0.00     0.182 HD
BRANCH  12  14
HETATM   14  C4  UNL     1       2.734  -0.460   0.116  1.00  0.00     0.369 C 
BRANCH  14  15
HETATM   15  N6  UNL     1       3.489   0.770   0.036  1.00  0.00    -0.062 N 
ATOM     16  H63 UNL     1       3.580   1.101  -0.925  1.00  0.00     0.276 HD
ATOM     17  H62 UNL     1       2.971   1.561   0.418  1.00  0.00     0.276 HD
ATOM     18  H61 UNL     1       4.397   0.654   0.487  1.00  0.00     0.276 HD
ENDBRANCH  14  15
ENDBRANCH  12  14
ENDBRANCH  10  12
ENDBRANCH   7  10
BRANCH   1  19
HETATM   19  N1  UNL     1      -3.164  -1.952  -0.751  1.00  0.00    -0.234 N 
ATOM     20  H12 UNL     1      -4.173  -2.098  -0.716  1.00  0.00     0.174 HD
ATOM     21  H11 UNL     1      -2.589  -2.716  -1.105  1.00  0.00     0.174 HD
ENDBRANCH   1  19
TORSDOF 5
