REMARK  14 active torsions:
REMARK  status: ('A' for Active; 'I' for Inactive)
REMARK    1  A    between atoms: O1_2  and  C2_3 
REMARK    2  A    between atoms: C2_3  and  C3_4 
REMARK    3  A    between atoms: C2_3  and  C4_7 
REMARK    4  A    between atoms: C3_4  and  O2_5 
REMARK    5  A    between atoms: C4_7  and  O3_8 
REMARK    6  A    between atoms: O3_8  and  N1_9 
REMARK    7  A    between atoms: C5_10  and  N2_11 
REMARK    8  A    between atoms: N2_11  and  C6_13 
REMARK    9  A    between atoms: C7_15  and  C8_16 
REMARK   10  A    between atoms: C8_16  and  O4_17 
REMARK   11  A    between atoms: C8_16  and  O5_19 
REMARK   12  A    between atoms: N3_22  and  N4_23 
REMARK   13  A    between atoms: C10_26  and  N5_27 
REMARK   14  A    between atoms: N9_38  and  O6_39 
ROOT
HETATM    1  C6  UNL     1       1.570   0.276  -0.267  1.00  0.00     0.188 A 
HETATM    2  S1  UNL     1       2.441  -1.089  -0.773  1.00  0.00    -0.047 SA
HETATM    3  C7  UNL     1       3.913  -0.289  -1.249  1.00  0.00     0.088 A 
HETATM    4  C9  UNL     1       3.608   1.012  -0.972  1.00  0.00     0.187 A 
HETATM    5  N3  UNL     1       4.272   2.213  -1.095  1.00  0.00    -0.072 N 
HETATM    6  C10 UNL     1       3.468   3.212  -0.664  1.00  0.00     0.713 A 
HETATM    7  N6  UNL     1       2.340   2.624  -0.290  1.00  0.00    -0.120 N 
ATOM      8  H6  UNL     1       1.524   3.108   0.085  1.00  0.00     0.206 HD
HETATM    9  N7  UNL     1       2.430   1.284  -0.480  1.00  0.00    -0.198 N 
ENDROOT
BRANCH   1  10
HETATM   10  N2  UNL     1       0.338   0.330   0.220  1.00  0.00    -0.165 N 
ATOM     11  H2  UNL     1      -0.104   1.206   0.498  1.00  0.00     0.186 HD
BRANCH  10  12
HETATM   12  C5  UNL     1      -0.329  -0.944   0.326  1.00  0.00     0.721 C 
HETATM   13  N1  UNL     1      -1.645  -1.259  -0.105  1.00  0.00     0.023 N 
HETATM   14  N9  UNL     1      -1.691  -2.642  -0.272  1.00  0.00    -0.035 NA
HETATM   15  C11 UNL     1      -0.798  -3.110   0.770  1.00  0.00     0.142 C 
HETATM   16  N8  UNL     1       0.161  -2.024   0.834  1.00  0.00    -0.197 N 
HETATM   17  C12 UNL     1      -1.584  -3.281   2.029  1.00  0.00     0.061 C 
HETATM   18  C13 UNL     1      -0.149  -4.409   0.386  1.00  0.00     0.061 C 
ATOM     19  H8  UNL     1       1.098  -2.103   1.228  1.00  0.00     0.180 HD
BRANCH  13  20
HETATM   20  O3  UNL     1      -2.657  -0.432  -0.318  1.00  0.00    -0.244 OA
BRANCH  20  21
HETATM   21  C4  UNL     1      -2.995   0.347   0.777  1.00  0.00     0.238 C 
BRANCH  21  22
HETATM   22  C2  UNL     1      -4.140   1.273   0.513  1.00  0.00     0.170 C 
BRANCH  22  23
HETATM   23  O1  UNL     1      -3.931   2.170  -0.494  1.00  0.00    -0.386 OA
HETATM   24  C1  UNL     1      -4.792   2.046  -1.569  1.00  0.00     0.202 C 
ENDBRANCH  22  23
BRANCH  22  25
HETATM   25  C3  UNL     1      -4.589   1.933   1.800  1.00  0.00     0.198 C 
BRANCH  25  26
HETATM   26  O2  UNL     1      -3.652   2.843   2.269  1.00  0.00    -0.398 OA
ATOM     27  H2  UNL     1      -3.934   3.257   3.076  1.00  0.00     0.209 HD
ENDBRANCH  25  26
ENDBRANCH  22  25
ENDBRANCH  21  22
ENDBRANCH  20  21
ENDBRANCH  13  20
BRANCH  14  28
HETATM   28  O6  UNL     1      -2.962  -3.056  -0.085  1.00  0.00    -0.289 OA
ATOM     29  H6  UNL     1      -2.993  -3.999  -0.199  1.00  0.00     0.239 HD
ENDBRANCH  14  28
ENDBRANCH  10  12
ENDBRANCH   1  10
BRANCH   3  30
HETATM   30  C8  UNL     1       5.121  -0.991  -1.781  1.00  0.00     0.299 C 
BRANCH  30  31
HETATM   31  O4  UNL     1       5.280  -2.159  -0.999  1.00  0.00    -0.367 OA
ATOM     32  H4  UNL     1       6.048  -2.605  -1.337  1.00  0.00     0.213 HD
ENDBRANCH  30  31
BRANCH  30  33
HETATM   33  O5  UNL     1       6.228  -0.208  -1.647  1.00  0.00    -0.367 OA
ATOM     34  H5  UNL     1       6.996  -0.654  -1.985  1.00  0.00     0.213 HD
ENDBRANCH  30  33
ENDBRANCH   3  30
BRANCH   5  35
HETATM   35  N4  UNL     1       5.549   2.474  -1.579  1.00  0.00    -0.322 N 
ATOM     36  H42 UNL     1       6.155   1.721  -1.904  1.00  0.00     0.178 HD
ATOM     37  H41 UNL     1       6.041   3.363  -1.670  1.00  0.00     0.178 HD
ENDBRANCH   5  35
BRANCH   6  38
HETATM   38  N5  UNL     1       3.750   4.484  -0.628  1.00  0.00    -0.231 N 
ATOM     39  H52 UNL     1       4.618   4.936  -0.916  1.00  0.00     0.174 HD
ATOM     40  H51 UNL     1       3.144   5.237  -0.303  1.00  0.00     0.174 HD
ENDBRANCH   6  38
TORSDOF 14
