REMARK  4 active torsions:
REMARK  status: ('A' for Active; 'I' for Inactive)
REMARK    1  A    between atoms: C4_5  and  N2_6 
REMARK    2  A    between atoms: N2_6  and  C5_8 
REMARK    3  A    between atoms: C6_11  and  N4_12 
REMARK    4  A    between atoms: C11_20  and  N6_21 
ROOT
HETATM    1  C5  UNL     1       0.478  -1.196   0.140  1.00  0.00     0.711 A 
HETATM    2  N3  UNL     1      -0.690  -1.859   0.201  1.00  0.00    -0.021 N 
ATOM      3  H3  UNL     1      -0.678  -2.876   0.278  1.00  0.00     0.203 HD
HETATM    4  C6  UNL     1      -1.868  -1.224   0.164  1.00  0.00     0.709 A 
HETATM    5  N5  UNL     1      -1.872   0.114   0.064  1.00  0.00    -0.021 N 
ATOM      6  H5  UNL     1      -2.765   0.606   0.036  1.00  0.00     0.203 HD
HETATM    7  C11 UNL     1      -0.724   0.830  -0.001  1.00  0.00     0.710 A 
HETATM    8  N8  UNL     1       0.426   0.143   0.040  1.00  0.00    -0.021 N 
ATOM      9  H8  UNL     1       1.303   0.661  -0.007  1.00  0.00     0.203 HD
ENDROOT
BRANCH   1  10
HETATM   10  N2  UNL     1       1.599  -1.833   0.179  1.00  0.00    -0.191 N 
ATOM     11  H2  UNL     1       1.602  -2.850   0.256  1.00  0.00     0.184 HD
BRANCH  10  12
HETATM   12  C4  UNL     1       2.830  -1.125   0.115  1.00  0.00     0.051 A 
HETATM   13  C3  UNL     1       3.373  -0.685  -1.068  1.00  0.00     0.047 A 
HETATM   14  C2  UNL     1       4.572  -0.007  -1.029  1.00  0.00     0.092 A 
HETATM   15  N1  UNL     1       5.215   0.229   0.155  1.00  0.00    -0.371 N 
HETATM   16  C1  UNL     1       6.461   0.937   0.162  1.00  0.00     0.154 C 
HETATM   17  C16 UNL     1       4.694  -0.196   1.319  1.00  0.00     0.092 A 
HETATM   18  C15 UNL     1       3.502  -0.874   1.309  1.00  0.00     0.047 A 
ENDBRANCH  10  12
ENDBRANCH   1  10
BRANCH   4  19
HETATM   19  N4  UNL     1      -3.056  -1.995   0.231  1.00  0.00    -0.213 N 
HETATM   20  C7  UNL     1      -4.346  -1.347   0.206  1.00  0.00     0.167 C 
HETATM   21  C8  UNL     1      -5.412  -2.262  -0.355  1.00  0.00     0.188 C 
HETATM   22  O1  UNL     1      -4.929  -3.223  -1.190  1.00  0.00    -0.388 OA
HETATM   23  C9  UNL     1      -3.903  -3.991  -0.748  1.00  0.00     0.188 C 
HETATM   24  C10 UNL     1      -3.043  -3.438   0.326  1.00  0.00     0.167 C 
ENDBRANCH   4  19
BRANCH   7  25
HETATM   25  N6  UNL     1      -0.754   2.260  -0.107  1.00  0.00    -0.191 N 
HETATM   26  C12 UNL     1       0.446   3.071  -0.180  1.00  0.00     0.170 C 
HETATM   27  C13 UNL     1      -0.044   4.476  -0.308  1.00  0.00     0.254 C 
HETATM   28  N7  UNL     1      -1.350   4.412   0.324  1.00  0.00    -0.057 N 
HETATM   29  C14 UNL     1      -1.866   3.149  -0.163  1.00  0.00     0.374 C 
ATOM     30  H72 UNL     1      -1.342   4.511   1.339  1.00  0.00     0.279 HD
ATOM     31  H71 UNL     1      -1.951   5.218   0.152  1.00  0.00     0.279 HD
ENDBRANCH   7  25
TORSDOF 4
