REMARK  5 active torsions:
REMARK  status: ('A' for Active; 'I' for Inactive)
REMARK    1  A    between atoms: C4_5  and  N2_6 
REMARK    2  A    between atoms: N2_6  and  C5_8 
REMARK    3  A    between atoms: C13_17  and  C14_18 
REMARK       I    between atoms: C14_18  and  N3_20 
REMARK    4  A    between atoms: N3_20  and  C15_22 
REMARK    5  A    between atoms: C15_22  and  C16_23 
ROOT
HETATM    1  N1  UNL     1       1.253   0.370  -2.735  1.00  0.00    -0.191 NA
HETATM    2  C1  UNL     1       0.622   0.259  -1.760  1.00  0.00     0.100 C 
HETATM    3  C2  UNL     1      -0.171   0.163  -0.557  1.00  0.00     0.062 A 
HETATM    4  C3  UNL     1      -1.517   0.501  -0.604  1.00  0.00     0.056 A 
HETATM    5  C4  UNL     1      -2.272   0.480   0.533  1.00  0.00     0.069 A 
HETATM    6  C11 UNL     1      -1.701   0.121   1.745  1.00  0.00     0.143 A 
HETATM    7  F1  UNL     1      -2.450   0.101   2.875  1.00  0.00    -0.204 F 
HETATM    8  C12 UNL     1      -0.373  -0.209   1.770  1.00  0.00     0.063 A 
HETATM    9  C13 UNL     1       0.428  -0.197   0.606  1.00  0.00     0.055 A 
ENDROOT
BRANCH   9  10
HETATM   10  C14 UNL     1       1.781  -0.647   0.807  1.00  0.00     0.253 C 
HETATM   11  O1  UNL     1       2.332  -0.330   1.918  1.00  0.00    -0.268 OA
HETATM   12  N3  UNL     1       2.546  -1.401  -0.088  1.00  0.00    -0.356 N 
ATOM     13  H3  UNL     1       2.127  -1.685  -0.973  1.00  0.00     0.162 HD
BRANCH  12  14
HETATM   14  C15 UNL     1       3.920  -1.797   0.196  1.00  0.00     0.129 C 
BRANCH  14  15
HETATM   15  C16 UNL     1       4.863  -0.657   0.373  1.00  0.00     0.027 C 
HETATM   16  C17 UNL     1       6.258  -1.209   0.660  1.00  0.00     0.010 C 
HETATM   17  C18 UNL     1       7.302  -0.126   0.590  1.00  0.00     0.027 C 
HETATM   18  C19 UNL     1       6.687   1.118  -0.033  1.00  0.00     0.167 C 
HETATM   19  O2  UNL     1       6.085   0.691  -1.223  1.00  0.00    -0.391 OA
HETATM   20  C20 UNL     1       4.854   0.168  -0.898  1.00  0.00     0.173 C 
ENDBRANCH  14  15
ENDBRANCH  12  14
ENDBRANCH   9  10
BRANCH   5  21
HETATM   21  N2  UNL     1      -3.631   0.823   0.526  1.00  0.00    -0.383 N 
ATOM     22  H2  UNL     1      -4.145   0.838   1.407  1.00  0.00     0.160 HD
BRANCH  21  23
HETATM   23  C5  UNL     1      -4.316   1.154  -0.691  1.00  0.00     0.082 C 
HETATM   24  C6  UNL     1      -4.386  -0.027  -1.596  1.00  0.00     0.025 C 
HETATM   25  C7  UNL     1      -5.827  -0.411  -1.808  1.00  0.00     0.002 C 
HETATM   26  C8  UNL     1      -6.565  -0.554  -0.491  1.00  0.00     0.000 C 
HETATM   27  C9  UNL     1      -6.595   0.762   0.261  1.00  0.00     0.002 C 
HETATM   28  C10 UNL     1      -5.665   1.773  -0.376  1.00  0.00     0.025 C 
ENDBRANCH  21  23
ENDBRANCH   5  21
TORSDOF 5
