REMARK  3 active torsions:
REMARK  status: ('A' for Active; 'I' for Inactive)
REMARK    1  A    between atoms: C8_11  and  N2_12 
REMARK    2  A    between atoms: N2_12  and  C9_14 
REMARK    3  A    between atoms: C9_14  and  C10_15 
ROOT
HETATM    1  C1  UNL     1      -0.659  -2.271  -0.718  1.00  0.00     0.019 C 
HETATM    2  C2  UNL     1      -0.461  -1.051   0.245  1.00  0.00    -0.002 C 
HETATM    3  C3  UNL     1       0.094  -1.602   1.515  1.00  0.00     0.019 C 
HETATM    4  C4  UNL     1      -1.886  -0.596   0.527  1.00  0.00     0.012 C 
HETATM    5  C5  UNL     1      -2.546   0.161  -0.569  1.00  0.00     0.002 C 
HETATM    6  C6  UNL     1      -2.388   1.647  -0.312  1.00  0.00     0.027 C 
HETATM    7  C7  UNL     1      -0.973   1.987  -0.736  1.00  0.00     0.235 C 
HETATM    8  N1  UNL     1      -0.044   1.317   0.116  1.00  0.00    -0.054 N 
ATOM      9  H11 UNL     1      -0.398   1.230   1.069  1.00  0.00     0.279 HD
ATOM     10  H12 UNL     1       0.776   1.892   0.310  1.00  0.00     0.279 HD
HETATM   11  C8  UNL     1       0.336  -0.025  -0.467  1.00  0.00     0.287 C 
ENDROOT
BRANCH  11  12
HETATM   12  N2  UNL     1       1.735  -0.073  -0.464  1.00  0.00    -0.393 N 
ATOM     13  H2  UNL     1       2.232  -0.674  -1.122  1.00  0.00     0.155 HD
BRANCH  12  14
HETATM   14  C9  UNL     1       2.454   0.724   0.465  1.00  0.00     0.147 C 
BRANCH  14  15
HETATM   15  C10 UNL     1       3.943   0.711   0.022  1.00  0.00     0.241 C 
HETATM   16  F1  UNL     1       4.717   1.535   0.786  1.00  0.00    -0.254 F 
ENDBRANCH  14  15
ENDBRANCH  12  14
ENDBRANCH  11  12
TORSDOF 3
