REMARK  2 active torsions:
REMARK  status: ('A' for Active; 'I' for Inactive)
REMARK    1  A    between atoms: C5_6  and  N1_7 
REMARK    2  A    between atoms: N1_7  and  C6_9 
ROOT
HETATM    1  N1  UNL     1       0.252  -0.830  -0.725  1.00  0.00    -0.395 N 
ATOM      2  H1  UNL     1       0.141  -1.772  -1.101  1.00  0.00     0.155 HD
ENDROOT
BRANCH   1   3
HETATM    3  C5  UNL     1       1.531  -0.451  -0.591  1.00  0.00     0.112 C 
HETATM    4  C1  UNL     1       2.164   0.682  -1.325  1.00  0.00     0.192 C 
HETATM    5  F1  UNL     1       2.514   0.347  -2.617  1.00  0.00    -0.247 F 
HETATM    6  C2  UNL     1       3.486   0.955  -0.586  1.00  0.00     0.039 C 
HETATM    7  C3  UNL     1       3.415   0.256   0.730  1.00  0.00     0.005 C 
HETATM    8  C4  UNL     1       1.964  -0.189   0.851  1.00  0.00     0.028 C 
ENDBRANCH   1   3
BRANCH   1   9
HETATM    9  C6  UNL     1      -0.938  -0.201  -0.456  1.00  0.00     0.176 C 
HETATM   10  C7  UNL     1      -1.125   0.068   0.997  1.00  0.00     0.046 C 
HETATM   11  C8  UNL     1      -2.569  -0.148   1.476  1.00  0.00     0.009 C 
HETATM   12  C9  UNL     1      -3.398   0.510   0.394  1.00  0.00     0.044 C 
HETATM   13  C10 UNL     1      -3.328  -0.443  -0.776  1.00  0.00     0.057 C 
HETATM   14  N2  UNL     1      -2.034  -0.908  -1.080  1.00  0.00    -0.382 N 
ATOM     15  H2  UNL     1      -1.879  -1.699  -1.705  1.00  0.00     0.160 HD
ENDBRANCH   1   9
TORSDOF 2
