REMARK  1 active torsions:
REMARK  status: ('A' for Active; 'I' for Inactive)
REMARK    1  A    between atoms: C1_2  and  C2_4 
ROOT
HETATM    1  C2  UNL     1       0.197   0.211   0.425  1.00  0.00     0.151 A 
HETATM    2  C3  UNL     1       1.489  -0.501   0.567  1.00  0.00     0.100 A 
HETATM    3  C4  UNL     1       1.431   0.868  -0.115  1.00  0.00     0.141 A 
HETATM    4  O2  UNL     1       2.102   1.717  -0.657  1.00  0.00    -0.297 OA
ENDROOT
BRANCH   1   5
HETATM    5  C1  UNL     1      -0.803  -0.253  -0.551  1.00  0.00     0.242 C 
HETATM    6  N1  UNL     1      -2.184  -0.071  -0.319  1.00  0.00    -0.061 NA
HETATM    7  O1  UNL     1      -0.459  -0.824  -1.617  1.00  0.00    -0.276 OA
ENDBRANCH   1   5
TORSDOF 1
