REMARK  4 active torsions:
REMARK  status: ('A' for Active; 'I' for Inactive)
REMARK    1  A    between atoms: C5_7  and  N1_8 
REMARK    2  A    between atoms: N1_8  and  C6_11 
REMARK    3  A    between atoms: C6_11  and  C7_12 
REMARK    4  A    between atoms: C9_16  and  N3_17 
ROOT
HETATM    1  C7  UNL     1       0.186  -0.586  -0.707  1.00  0.00     0.068 A 
HETATM    2  C8  UNL     1      -0.185  -1.868  -0.410  1.00  0.00     0.133 A 
HETATM    3  N2  UNL     1      -1.507  -1.838  -0.175  1.00  0.00    -0.200 N 
ATOM      4  H2  UNL     1      -2.068  -2.652   0.074  1.00  0.00     0.183 HD
HETATM    5  C9  UNL     1      -1.997  -0.578  -0.313  1.00  0.00     0.680 A 
HETATM    6  N4  UNL     1      -0.919   0.168  -0.643  1.00  0.00    -0.192 N 
ATOM      7  H4  UNL     1      -0.944   1.172  -0.820  1.00  0.00     0.184 HD
ENDROOT
BRANCH   1   8
HETATM    8  C6  UNL     1       1.579  -0.138  -1.040  1.00  0.00     0.291 C 
BRANCH   8   9
HETATM    9  N1  UNL     1       2.218   0.262   0.178  1.00  0.00    -0.061 N 
ATOM     10  H12 UNL     1       2.194  -0.467   0.891  1.00  0.00     0.278 HD
ATOM     11  H11 UNL     1       1.687   0.970   0.685  1.00  0.00     0.278 HD
BRANCH   9  12
HETATM   12  C5  UNL     1       3.565   0.693  -0.132  1.00  0.00     0.243 C 
HETATM   13  C1  UNL     1       4.321  -0.491  -0.693  1.00  0.00     0.204 C 
HETATM   14  F1  UNL     1       4.647  -0.338  -2.021  1.00  0.00    -0.247 F 
HETATM   15  C2  UNL     1       5.554  -0.689   0.165  1.00  0.00     0.065 C 
HETATM   16  C3  UNL     1       6.321   0.575   0.339  1.00  0.00     0.170 C 
HETATM   17  O1  UNL     1       5.534   1.652   0.663  1.00  0.00    -0.389 OA
HETATM   18  C4  UNL     1       4.288   1.213   1.086  1.00  0.00     0.203 C 
ENDBRANCH   9  12
ENDBRANCH   8   9
ENDBRANCH   1   8
BRANCH   5  19
HETATM   19  N3  UNL     1      -3.356  -0.147  -0.144  1.00  0.00    -0.218 N 
HETATM   20  C10 UNL     1      -4.332  -1.158   0.215  1.00  0.00     0.141 C 
HETATM   21  C11 UNL     1      -5.747  -0.704   0.077  1.00  0.00     0.020 C 
HETATM   22  C12 UNL     1      -5.853   0.740   0.523  1.00  0.00     0.003 C 
HETATM   23  C13 UNL     1      -5.094   1.552  -0.532  1.00  0.00     0.020 C 
HETATM   24  C14 UNL     1      -3.637   1.241  -0.342  1.00  0.00     0.141 C 
ENDBRANCH   5  19
TORSDOF 4
