REMARK  12 active torsions:
REMARK  status: ('A' for Active; 'I' for Inactive)
REMARK    1  A    between atoms: O1_2  and  C2_3 
REMARK    2  A    between atoms: C4_5  and  C5_6 
REMARK    3  A    between atoms: C5_6  and  N1_7 
REMARK    4  A    between atoms: C10_15  and  N3_16 
REMARK    5  A    between atoms: N3_16  and  C11_18 
REMARK    6  A    between atoms: C16_31  and  C17_32 
REMARK    7  A    between atoms: C17_32  and  N7_33 
REMARK    8  A    between atoms: N7_33  and  C18_34 
REMARK    9  A    between atoms: N7_33  and  C23_43 
REMARK   10  A    between atoms: N8_36  and  C20_37 
REMARK   11  A    between atoms: C20_37  and  C21_38 
REMARK   12  A    between atoms: C23_43  and  C25_45 
ROOT
HETATM    1  C2  UNL     1       0.373  -0.120  -0.696  1.00  0.00     0.080 A 
HETATM    2  C3  UNL     1       1.631   0.090  -0.202  1.00  0.00     0.049 A 
HETATM    3  C4  UNL     1       1.819   0.724   0.999  1.00  0.00     0.001 A 
HETATM    4  C14 UNL     1       0.721   1.138   1.685  1.00  0.00     0.125 A 
HETATM    5  F1  UNL     1       0.836   1.766   2.870  1.00  0.00    -0.205 F 
HETATM    6  C15 UNL     1      -0.554   0.921   1.175  1.00  0.00     0.058 A 
HETATM    7  C16 UNL     1      -0.795   0.295  -0.013  1.00  0.00     0.016 A 
ENDROOT
BRANCH   3   8
HETATM    8  C5  UNL     1       3.176   0.963   1.558  1.00  0.00     0.163 C 
BRANCH   8   9
HETATM    9  N1  UNL     1       4.216   0.469   0.715  1.00  0.00    -0.370 N 
HETATM   10  C6  UNL     1       4.708  -0.721   0.721  1.00  0.00     0.128 A 
HETATM   11  N2  UNL     1       4.284  -1.675   1.555  1.00  0.00    -0.351 N 
HETATM   12  C10 UNL     1       5.719  -0.976  -0.207  1.00  0.00     0.078 A 
HETATM   13  C7  UNL     1       4.766  -2.922   1.584  1.00  0.00     0.090 A 
ATOM     14  H2  UNL     1       3.543  -1.436   2.214  1.00  0.00     0.166 HD
HETATM   15  C8  UNL     1       5.766  -3.212   0.680  1.00  0.00     0.019 A 
HETATM   16  C9  UNL     1       6.244  -2.273  -0.202  1.00  0.00     0.035 A 
ATOM     17  H1  UNL     1       4.609   1.124   0.040  1.00  0.00     0.161 HD
BRANCH  12  18
HETATM   18  N3  UNL     1       6.161   0.012  -1.092  1.00  0.00    -0.334 N 
ATOM     19  H3  UNL     1       5.663   0.098  -1.978  1.00  0.00     0.168 HD
BRANCH  18  20
HETATM   20  C11 UNL     1       7.126   0.811  -0.892  1.00  0.00     0.190 A 
HETATM   21  N4  UNL     1       7.458   1.737  -1.846  1.00  0.00    -0.280 N 
HETATM   22  N5  UNL     1       8.444   2.575  -1.677  1.00  0.00    -0.294 N 
ATOM     23  H4  UNL     1       6.920   1.772  -2.712  1.00  0.00     0.188 HD
HETATM   24  C12 UNL     1       9.199   2.594  -0.571  1.00  0.00     0.200 A 
ATOM     25  H5  UNL     1       8.648   3.244  -2.419  1.00  0.00     0.187 HD
HETATM   26  N6  UNL     1       8.902   1.703   0.381  1.00  0.00    -0.315 N 
HETATM   27  C13 UNL     1       7.889   0.820   0.241  1.00  0.00     0.291 A 
ATOM     28  H6  UNL     1       9.456   1.690   1.237  1.00  0.00     0.170 HD
HETATM   29  O2  UNL     1       7.669   0.001   1.195  1.00  0.00    -0.264 OA
ENDBRANCH  18  20
ENDBRANCH  12  18
ENDBRANCH   8   9
ENDBRANCH   3   8
BRANCH   1  30
HETATM   30  O1  UNL     1       0.216  -0.763  -1.910  1.00  0.00    -0.355 OA
HETATM   31  C1  UNL     1       1.335  -1.209  -2.653  1.00  0.00     0.210 C 
ENDBRANCH   1  30
BRANCH   7  32
HETATM   32  C17 UNL     1      -2.048   0.023  -0.674  1.00  0.00     0.106 C 
BRANCH  32  33
HETATM   33  N7  UNL     1      -3.302   0.335  -0.088  1.00  0.00    -0.348 N 
BRANCH  33  34
HETATM   34  C18 UNL     1      -3.621  -0.416   1.005  1.00  0.00     0.199 C 
HETATM   35  C19 UNL     1      -3.777  -1.940   0.719  1.00  0.00     0.161 C 
HETATM   36  N8  UNL     1      -5.173  -1.831   0.999  1.00  0.00    -0.343 N 
HETATM   37  C22 UNL     1      -4.919  -0.589   1.625  1.00  0.00     0.244 C 
HETATM   38  O3  UNL     1      -5.629   0.067   2.431  1.00  0.00    -0.271 OA
BRANCH  36  39
HETATM   39  C20 UNL     1      -6.369  -2.617   0.772  1.00  0.00     0.197 C 
BRANCH  39  40
HETATM   40  C21 UNL     1      -6.572  -3.553   1.945  1.00  0.00     0.370 C 
HETATM   41  F2  UNL     1      -7.728  -4.280   1.675  1.00  0.00    -0.213 F 
HETATM   42  F3  UNL     1      -6.804  -2.751   3.054  1.00  0.00    -0.213 F 
ENDBRANCH  39  40
ENDBRANCH  36  39
ENDBRANCH  33  34
BRANCH  33  43
HETATM   43  C23 UNL     1      -3.832   1.496  -0.598  1.00  0.00    -0.011 C 
HETATM   44  C24 UNL     1      -3.062   2.793  -0.310  1.00  0.00     0.064 C 
BRANCH  43  45
HETATM   45  C25 UNL     1      -5.309   1.721  -0.694  1.00  0.00     0.023 C 
HETATM   46  C26 UNL     1      -5.996   0.692  -1.567  1.00  0.00     0.016 C 
HETATM   47  C27 UNL     1      -5.617   3.050  -1.403  1.00  0.00     0.016 C 
ENDBRANCH  43  45
ENDBRANCH  33  43
ENDBRANCH  32  33
ENDBRANCH   7  32
TORSDOF 12
