REMARK  2 active torsions:
REMARK  status: ('A' for Active; 'I' for Inactive)
REMARK    1  A    between atoms: C11_12  and  S1_13 
REMARK    2  A    between atoms: S1_13  and  C12_14 
ROOT
HETATM    1  C1  UNL     1       0.525  -0.591   2.220  1.00  0.00     0.311 C 
HETATM    2  N1  UNL     1      -0.478  -0.099   1.329  1.00  0.00     0.098 N 
HETATM    3  C2  UNL     1      -1.390  -1.175   1.052  1.00  0.00     0.278 C 
HETATM    4  C3  UNL     1      -2.711  -0.624   0.520  1.00  0.00     0.018 C 
HETATM    5  C4  UNL     1      -3.045   0.614   1.269  1.00  0.00     0.007 C 
HETATM    6  C5  UNL     1      -3.829   1.646   0.522  1.00  0.00     0.000 C 
HETATM    7  C6  UNL     1      -4.412   1.130  -0.771  1.00  0.00     0.000 C 
HETATM    8  C7  UNL     1      -3.210   0.706  -1.576  1.00  0.00     0.005 C 
HETATM    9  C8  UNL     1      -2.613  -0.545  -0.954  1.00  0.00    -0.009 C 
HETATM   10  C9  UNL     1      -1.328  -0.965  -1.576  1.00  0.00     0.008 C 
HETATM   11  C10 UNL     1      -0.050  -0.493  -1.069  1.00  0.00     0.047 C 
HETATM   12  C11 UNL     1      -0.004   0.438   0.094  1.00  0.00     0.284 C 
ENDROOT
BRANCH  12  13
HETATM   13  S1  UNL     1       1.581   1.288   0.226  1.00  0.00    -0.129 SA
BRANCH  13  14
HETATM   14  C12 UNL     1       3.009   0.275   0.439  1.00  0.00     0.049 C 
HETATM   15  C13 UNL     1       3.251  -0.766  -0.600  1.00  0.00     0.015 C 
HETATM   16  C14 UNL     1       4.742  -0.848  -0.841  1.00  0.00     0.001 C 
HETATM   17  C15 UNL     1       5.375   0.297  -0.106  1.00  0.00     0.001 C 
HETATM   18  C16 UNL     1       4.229   1.181   0.300  1.00  0.00     0.015 C 
ENDBRANCH  13  14
ENDBRANCH  12  13
TORSDOF 2
