REMARK  14 active torsions:
REMARK  status: ('A' for Active; 'I' for Inactive)
REMARK    1  A    between atoms: C2_2  and  O1_5 
REMARK    2  A    between atoms: O1_5  and  C5_6 
REMARK    3  A    between atoms: C5_6  and  O3_8 
REMARK    4  A    between atoms: O3_8  and  N1_9 
REMARK    5  A    between atoms: N1_9  and  C6_11 
REMARK    6  A    between atoms: C7_12  and  C8_13 
REMARK    7  A    between atoms: C8_13  and  O4_14 
REMARK    8  A    between atoms: C8_13  and  C9_16 
REMARK    9  A    between atoms: C9_16  and  O5_17 
REMARK   10  A    between atoms: C9_16  and  C10_19 
REMARK   11  A    between atoms: C10_19  and  O6_20 
REMARK   12  A    between atoms: C10_19  and  O7_22 
REMARK   13  A    between atoms: C13_30  and  O9_32 
REMARK   14  A    between atoms: N4_34  and  O10_35 
ROOT
HETATM    1  C6  UNL     1      -1.650  -0.458  -0.156  1.00  0.00     0.149 A 
HETATM    2  C7  UNL     1      -2.302   0.747   0.220  1.00  0.00     0.087 A 
HETATM    3  C11 UNL     1      -3.350   0.588   1.084  1.00  0.00     0.260 A 
HETATM    4  O8  UNL     1      -4.014   1.540   1.511  1.00  0.00    -0.267 OA
HETATM    5  N2  UNL     1      -3.719  -0.655   1.527  1.00  0.00    -0.294 N 
ATOM      6  H2  UNL     1      -4.506  -0.734   2.171  1.00  0.00     0.172 HD
HETATM    7  C12 UNL     1      -3.088  -1.760   1.148  1.00  0.00     0.191 A 
HETATM    8  N3  UNL     1      -2.042  -1.658   0.300  1.00  0.00    -0.249 N 
HETATM    9  C13 UNL     1      -1.364  -2.862  -0.087  1.00  0.00     0.241 C 
HETATM   10  C14 UNL     1      -0.015  -2.870   0.656  1.00  0.00     0.100 C 
HETATM   11  N4  UNL     1      -2.006  -4.095   0.159  1.00  0.00    -0.224 N 
HETATM   12  C15 UNL     1      -3.375  -4.100   0.524  1.00  0.00     0.279 C 
HETATM   13  N5  UNL     1      -3.515  -3.059   1.564  1.00  0.00    -0.344 N 
ATOM     14  H5  UNL     1      -3.884  -3.251   2.496  1.00  0.00     0.164 HD
ENDROOT
BRANCH   2  15
HETATM   15  C8  UNL     1      -1.879   2.001  -0.415  1.00  0.00     0.194 C 
BRANCH  15  16
HETATM   16  O4  UNL     1      -2.422   2.036  -1.768  1.00  0.00    -0.388 OA
ATOM     17  H4  UNL     1      -2.148   2.848  -2.179  1.00  0.00     0.210 HD
ENDBRANCH  15  16
BRANCH  15  18
HETATM   18  C9  UNL     1      -2.127   3.292   0.224  1.00  0.00     0.206 C 
BRANCH  18  19
HETATM   19  O5  UNL     1      -3.390   3.782   0.364  1.00  0.00    -0.388 OA
ATOM     20  H5  UNL     1      -3.551   4.621   0.779  1.00  0.00     0.210 HD
ENDBRANCH  18  19
BRANCH  18  21
HETATM   21  C10 UNL     1      -1.251   4.329  -0.539  1.00  0.00     0.285 C 
BRANCH  21  22
HETATM   22  O6  UNL     1       0.005   3.757  -0.674  1.00  0.00    -0.369 OA
ATOM     23  H6  UNL     1       0.539   4.390  -1.139  1.00  0.00     0.212 HD
ENDBRANCH  21  22
BRANCH  21  24
HETATM   24  O7  UNL     1      -1.119   5.405   0.347  1.00  0.00    -0.369 OA
ATOM     25  H7  UNL     1      -0.585   6.038  -0.118  1.00  0.00     0.212 HD
ENDBRANCH  21  24
ENDBRANCH  18  21
ENDBRANCH  15  18
ENDBRANCH   2  15
BRANCH   1  26
HETATM   26  N1  UNL     1      -0.488  -0.267  -1.009  1.00  0.00    -0.238 N 
ATOM     27  H1  UNL     1      -0.499  -0.556  -1.987  1.00  0.00     0.196 HD
BRANCH  26  28
HETATM   28  O3  UNL     1       0.604   0.305  -0.463  1.00  0.00    -0.173 OA
BRANCH  28  29
HETATM   29  C5  UNL     1       1.919   0.048  -0.662  1.00  0.00     0.429 C 
HETATM   30  O2  UNL     1       2.225  -0.853  -1.467  1.00  0.00    -0.227 OA
BRANCH  29  31
HETATM   31  O1  UNL     1       2.918   0.757   0.002  1.00  0.00    -0.287 OA
BRANCH  31  32
HETATM   32  C2  UNL     1       4.288   0.511  -0.166  1.00  0.00     0.062 C 
HETATM   33  C1  UNL     1       5.100   1.476   0.690  1.00  0.00     0.046 C 
HETATM   34  C3  UNL     1       4.763   0.638  -1.592  1.00  0.00     0.046 C 
HETATM   35  C4  UNL     1       4.576  -0.884   0.403  1.00  0.00     0.046 C 
ENDBRANCH  31  32
ENDBRANCH  29  31
ENDBRANCH  28  29
ENDBRANCH  26  28
ENDBRANCH   1  26
BRANCH   9  36
HETATM   36  O9  UNL     1      -1.107  -2.839  -1.482  1.00  0.00    -0.352 OA
ATOM     37  H9  UNL     1      -0.658  -3.636  -1.738  1.00  0.00     0.214 HD
ENDBRANCH   9  36
BRANCH  11  38
HETATM   38  O10 UNL     1      -1.309  -5.029   0.807  1.00  0.00    -0.286 OA
ATOM     39  H10 UNL     1      -1.741  -5.859   0.973  1.00  0.00     0.244 HD
ENDBRANCH  11  38
TORSDOF 14
