REMARK  13 active torsions:
REMARK  status: ('A' for Active; 'I' for Inactive)
REMARK    1  A    between atoms: N1_1  and  N2_4 
REMARK    2  A    between atoms: N2_4  and  C1_6 
REMARK    3  A    between atoms: N3_7  and  N4_8 
REMARK    4  A    between atoms: N7_15  and  C2_16 
REMARK    5  A    between atoms: C2_16  and  C3_17 
REMARK    6  A    between atoms: C2_16  and  C4_20 
REMARK    7  A    between atoms: C2_16  and  C7_32 
REMARK    8  A    between atoms: C3_17  and  O1_18 
REMARK    9  A    between atoms: C4_20  and  C5_21 
REMARK   10  A    between atoms: N10_28  and  N11_29 
REMARK   11  A    between atoms: C9_34  and  N12_35 
REMARK   12  A    between atoms: C10_38  and  O4_39 
REMARK   13  A    between atoms: C12_42  and  O5_43 
ROOT
HETATM    1  C2  UNL     1      -0.354   0.309  -0.401  1.00  0.00     0.130 C 
ENDROOT
BRANCH   1   2
HETATM    2  N7  UNL     1      -0.154   1.545   0.375  1.00  0.00    -0.086 N 
HETATM    3  C1  UNL     1      -0.383   2.808   0.173  1.00  0.00     0.752 A 
HETATM    4  N3  UNL     1      -0.004   3.539   1.263  1.00  0.00    -0.008 N 
HETATM    5  N5  UNL     1       0.454   2.665   2.110  1.00  0.00    -0.191 N 
HETATM    6  N6  UNL     1       0.374   1.452   1.598  1.00  0.00    -0.208 N 
ATOM      7  H5  UNL     1       0.822   2.885   3.036  1.00  0.00     0.212 HD
ATOM      8  H6  UNL     1       0.666   0.590   2.058  1.00  0.00     0.210 HD
BRANCH   3   9
HETATM    9  N2  UNL     1      -0.881   3.348  -0.847  1.00  0.00    -0.134 N 
ATOM     10  H2  UNL     1      -1.132   2.717  -1.608  1.00  0.00     0.205 HD
BRANCH   9  11
HETATM   11  N1  UNL     1      -1.129   4.675  -1.064  1.00  0.00    -0.331 N 
ATOM     12  H12 UNL     1      -0.872   5.290  -0.292  1.00  0.00     0.177 HD
ATOM     13  H11 UNL     1      -1.533   5.113  -1.892  1.00  0.00     0.177 HD
ENDBRANCH   9  11
ENDBRANCH   3   9
BRANCH   4  14
HETATM   14  N4  UNL     1      -0.074   4.905   1.464  1.00  0.00    -0.308 N 
ATOM     15  H42 UNL     1      -0.433   5.591   0.800  1.00  0.00     0.179 HD
ATOM     16  H41 UNL     1       0.209   5.451   2.278  1.00  0.00     0.179 HD
ENDBRANCH   4  14
ENDBRANCH   1   2
BRANCH   1  17
HETATM   17  C3  UNL     1      -0.793   0.441  -1.773  1.00  0.00     0.203 C 
BRANCH  17  18
HETATM   18  O1  UNL     1      -1.997   1.004  -2.073  1.00  0.00    -0.398 OA
ATOM     19  H1  UNL     1      -2.285   1.091  -2.974  1.00  0.00     0.209 HD
ENDBRANCH  17  18
ENDBRANCH   1  17
BRANCH   1  20
HETATM   20  C4  UNL     1      -1.288  -0.502   0.464  1.00  0.00     0.121 C 
BRANCH  20  21
HETATM   21  C5  UNL     1      -1.784  -1.769  -0.024  1.00  0.00     0.123 A 
HETATM   22  N8  UNL     1      -1.677  -2.490  -1.154  1.00  0.00    -0.285 N 
HETATM   23  N9  UNL     1      -2.333  -3.612  -1.107  1.00  0.00    -0.273 N 
ATOM     24  H8  UNL     1      -1.137  -2.188  -1.965  1.00  0.00     0.188 HD
HETATM   25  C6  UNL     1      -2.921  -3.683   0.097  1.00  0.00     0.213 A 
ATOM     26  H9  UNL     1      -2.390  -4.310  -1.849  1.00  0.00     0.189 HD
HETATM   27  S1  UNL     1      -3.859  -4.925   0.614  1.00  0.00    -0.037 SA
HETATM   28  N10 UNL     1      -2.591  -2.572   0.750  1.00  0.00    -0.222 N 
BRANCH  28  29
HETATM   29  N11 UNL     1      -3.033  -2.300   2.057  1.00  0.00    -0.335 N 
ATOM     30 2H11 UNL     1      -2.780  -1.448   2.558  1.00  0.00     0.177 HD
ATOM     31 1H11 UNL     1      -3.631  -2.895   2.630  1.00  0.00     0.177 HD
ENDBRANCH  28  29
ENDBRANCH  20  21
ENDBRANCH   1  20
BRANCH   1  32
HETATM   32  C7  UNL     1       1.004  -0.305  -0.345  1.00  0.00     0.011 A 
HETATM   33  C8  UNL     1       1.294  -1.516   0.256  1.00  0.00     0.051 A 
HETATM   34  C9  UNL     1       2.552  -2.083   0.343  1.00  0.00     0.136 A 
HETATM   35  C10 UNL     1       3.613  -1.413  -0.199  1.00  0.00     0.101 A 
HETATM   36  C11 UNL     1       3.407  -0.210  -0.808  1.00  0.00     0.076 A 
HETATM   37  C12 UNL     1       2.140   0.323  -0.876  1.00  0.00     0.077 A 
BRANCH  34  38
HETATM   38  N12 UNL     1       2.729  -3.361   0.998  1.00  0.00    -0.113 N 
HETATM   39  O2  UNL     1       1.948  -3.714   1.884  1.00  0.00    -0.532 OA
HETATM   40  O3  UNL     1       3.750  -4.208   0.665  1.00  0.00    -0.532 OA
ENDBRANCH  34  38
BRANCH  35  41
HETATM   41  O4  UNL     1       4.882  -1.981  -0.114  1.00  0.00    -0.358 OA
ATOM     42  H4  UNL     1       5.619  -1.515  -0.491  1.00  0.00     0.217 HD
ENDBRANCH  35  41
BRANCH  37  43
HETATM   43  O5  UNL     1       2.007   1.528  -1.492  1.00  0.00    -0.360 OA
ATOM     44  H5  UNL     1       2.777   1.953  -1.852  1.00  0.00     0.217 HD
ENDBRANCH  37  43
ENDBRANCH   1  32
TORSDOF 13
