REMARK  3 active torsions:
REMARK  status: ('A' for Active; 'I' for Inactive)
REMARK    1  A    between atoms: N1_1  and  N2_4 
REMARK    2  A    between atoms: N3_6  and  C1_8 
REMARK    3  A    between atoms: C1_8  and  C2_9 
ROOT
HETATM    1  N2  UNL     1       2.362   0.109   0.908  1.00  0.00    -0.254 N 
ATOM      2  H2  UNL     1       2.166   0.554   1.805  1.00  0.00     0.207 HD
HETATM    3  N3  UNL     1       1.397  -0.041   0.119  1.00  0.00    -0.322 N 
ATOM      4  H3  UNL     1       1.544  -0.482  -0.789  1.00  0.00     0.181 HD
ENDROOT
BRANCH   3   5
HETATM    5  C1  UNL     1       0.075   0.412   0.498  1.00  0.00     0.145 C 
BRANCH   5   6
HETATM    6  C2  UNL     1      -0.949   0.110  -0.555  1.00  0.00     0.005 A 
HETATM    7  C3  UNL     1      -2.350   0.542  -0.253  1.00  0.00     0.007 A 
HETATM    8  C4  UNL     1      -1.995  -0.883  -0.206  1.00  0.00     0.007 A 
ENDBRANCH   5   6
ENDBRANCH   3   5
BRANCH   1   9
HETATM    9  N1  UNL     1       3.661  -0.276   0.667  1.00  0.00    -0.331 N 
ATOM     10  H12 UNL     1       3.838  -0.720  -0.234  1.00  0.00     0.178 HD
ATOM     11  H11 UNL     1       4.445  -0.154   1.308  1.00  0.00     0.178 HD
ENDBRANCH   1   9
TORSDOF 3
