REMARK  2 active torsions:
REMARK  status: ('A' for Active; 'I' for Inactive)
REMARK    1  A    between atoms: N1_1  and  C1_5 
REMARK    2  A    between atoms: C1_5  and  C2_6 
ROOT
HETATM    1  C2  UNL     1      -0.342   0.323   0.409  1.00  0.00     0.087 A 
HETATM    2  C3  UNL     1      -1.425   0.955  -0.360  1.00  0.00     0.071 A 
HETATM    3  N2  UNL     1      -2.102  -0.089  -0.457  1.00  0.00    -0.381 N 
ATOM      4  H2  UNL     1      -2.998  -0.299  -0.897  1.00  0.00     0.164 HD
HETATM    5  C4  UNL     1      -1.179  -0.871   0.263  1.00  0.00     0.071 A 
ENDROOT
BRANCH   1   6
HETATM    6  C1  UNL     1       0.942   0.372  -0.392  1.00  0.00     0.244 C 
BRANCH   6   7
HETATM    7  N1  UNL     1       2.056  -0.220   0.275  1.00  0.00    -0.078 N 
ATOM      8  H13 UNL     1       2.189   0.199   1.195  1.00  0.00     0.274 HD
ATOM      9  H12 UNL     1       1.842  -1.178   0.554  1.00  0.00     0.274 HD
ATOM     10  H11 UNL     1       2.921  -0.187  -0.265  1.00  0.00     0.274 HD
ENDBRANCH   6   7
ENDBRANCH   1   6
TORSDOF 2
