REMARK  10 active torsions:
REMARK  status: ('A' for Active; 'I' for Inactive)
REMARK    1  A    between atoms: C1_4  and  C2_5 
REMARK    2  A    between atoms: C2_5  and  C3_6 
REMARK    3  A    between atoms: C3_6  and  N2_7 
REMARK    4  A    between atoms: C3_6  and  O1_11 
REMARK    5  A    between atoms: O1_11  and  C4_12 
REMARK    6  A    between atoms: C4_12  and  O2_13 
REMARK    7  A    between atoms: C4_12  and  C5_15 
REMARK    8  A    between atoms: C5_15  and  N3_16 
REMARK    9  A    between atoms: C5_15  and  C6_20 
REMARK   10  A    between atoms: C6_20  and  N4_21 
ROOT
HETATM    1  C4  UNL     1      -1.449  -0.297   0.373  1.00  0.00     0.291 C 
ENDROOT
BRANCH   1   2
HETATM    2  O1  UNL     1      -2.512  -0.585  -0.470  1.00  0.00    -0.327 OA
BRANCH   2   3
HETATM    3  C3  UNL     1      -3.539   0.358  -0.339  1.00  0.00     0.325 C 
BRANCH   3   4
HETATM    4  C2  UNL     1      -4.790  -0.325   0.175  1.00  0.00     0.105 C 
BRANCH   4   5
HETATM    5  C1  UNL     1      -4.569  -0.937   1.497  1.00  0.00     0.057 C 
HETATM    6  N1  UNL     1      -4.422  -0.241   2.556  1.00  0.00    -0.411 N 
ATOM      7  H12 UNL     1      -4.462   0.774   2.467  1.00  0.00     0.155 HD
ATOM      8  H11 UNL     1      -4.269  -0.665   3.471  1.00  0.00     0.155 HD
ENDBRANCH   4   5
ENDBRANCH   3   4
BRANCH   3   9
HETATM    9  N2  UNL     1      -3.838   0.927  -1.627  1.00  0.00    -0.052 N 
ATOM     10  H23 UNL     1      -4.211   0.241  -2.284  1.00  0.00     0.277 HD
ATOM     11  H22 UNL     1      -4.646   1.549  -1.605  1.00  0.00     0.277 HD
ATOM     12  H21 UNL     1      -2.996   1.387  -1.973  1.00  0.00     0.277 HD
ENDBRANCH   3   9
ENDBRANCH   2   3
ENDBRANCH   1   2
BRANCH   1  13
HETATM   13  O2  UNL     1      -1.273  -1.336   1.290  1.00  0.00    -0.369 OA
ATOM     14  H2  UNL     1      -0.545  -1.139   1.867  1.00  0.00     0.212 HD
ENDBRANCH   1  13
BRANCH   1  15
HETATM   15  C5  UNL     1      -0.158  -0.072  -0.427  1.00  0.00     0.266 C 
BRANCH  15  16
HETATM   16  N3  UNL     1      -0.393   1.032  -1.310  1.00  0.00    -0.069 N 
ATOM     17  H33 UNL     1      -1.213   0.902  -1.903  1.00  0.00     0.275 HD
ATOM     18  H32 UNL     1      -0.713   1.870  -0.825  1.00  0.00     0.275 HD
ATOM     19  H31 UNL     1       0.465   1.181  -1.841  1.00  0.00     0.275 HD
ENDBRANCH  15  16
BRANCH  15  20
HETATM   20  C6  UNL     1       0.924   0.183   0.579  1.00  0.00     0.310 C 
BRANCH  20  21
HETATM   21  N4  UNL     1       2.217   0.418   0.004  1.00  0.00     0.090 N 
HETATM   22  C7  UNL     1       3.189   0.654   1.020  1.00  0.00     0.272 C 
HETATM   23  C8  UNL     1       4.457  -0.147   0.872  1.00  0.00     0.030 C 
HETATM   24  C9  UNL     1       4.990   0.113  -0.532  1.00  0.00     0.003 C 
HETATM   25  C10 UNL     1       3.964  -0.395  -1.521  1.00  0.00     0.030 C 
HETATM   26  C11 UNL     1       2.625  -0.619  -0.909  1.00  0.00     0.272 C 
ENDBRANCH  20  21
ENDBRANCH  15  20
ENDBRANCH   1  15
TORSDOF 10
