REMARK  17 active torsions:
REMARK  status: ('A' for Active; 'I' for Inactive)
REMARK    1  A    between atoms: C2_2  and  C3_3 
REMARK    2  A    between atoms: C3_3  and  C4_4 
REMARK    3  A    between atoms: C4_4  and  C5_5 
REMARK    4  A    between atoms: C5_5  and  C6_6 
REMARK    5  A    between atoms: C6_6  and  O1_7 
REMARK    6  A    between atoms: O1_7  and  C7_8 
REMARK       I    between atoms: C7_8  and  N1_10 
REMARK       I    between atoms: N2_13  and  C10_14 
REMARK    7  A    between atoms: C10_14  and  C11_16 
REMARK    8  A    between atoms: C11_16  and  C12_17 
REMARK    9  A    between atoms: C14_19  and  C15_20 
REMARK   10  A    between atoms: C15_20  and  C16_21 
REMARK   11  A    between atoms: C16_21  and  C17_22 
REMARK   12  A    between atoms: C17_22  and  N3_23 
REMARK   13  A    between atoms: N3_23  and  C18_25 
REMARK   14  A    between atoms: C20_30  and  C21_31 
REMARK   15  A    between atoms: C21_31  and  C22_32 
REMARK       I    between atoms: C22_32  and  N5_34 
REMARK       I    between atoms: N6_37  and  C25_38 
REMARK   16  A    between atoms: C25_38  and  O6_40 
REMARK   17  A    between atoms: O6_40  and  C26_41 
ROOT
HETATM    1  C12 UNL     1       0.195  -2.678   0.205  1.00  0.00     0.131 C 
HETATM    2  C13 UNL     1       0.881  -2.889  -1.090  1.00  0.00     0.039 C 
HETATM    3  C14 UNL     1       2.332  -2.663  -0.795  1.00  0.00     0.017 C 
HETATM    4  C20 UNL     1       2.319  -2.270   0.657  1.00  0.00     0.134 C 
HETATM    5  O7  UNL     1       1.030  -1.800   0.916  1.00  0.00    -0.379 OA
ENDROOT
BRANCH   1   6
HETATM    6  C11 UNL     1      -1.205  -2.200   0.053  1.00  0.00     0.135 C 
BRANCH   6   7
HETATM    7  C10 UNL     1      -1.436  -0.927  -0.609  1.00  0.00     0.222 C 
HETATM    8  N2  UNL     1      -2.772  -0.509  -0.808  1.00  0.00    -0.349 N 
HETATM    9  C9  UNL     1      -3.861  -1.337  -0.351  1.00  0.00     0.145 C 
HETATM   10  C31 UNL     1      -3.081   0.726  -1.455  1.00  0.00     0.145 C 
HETATM   11  C8  UNL     1      -4.572  -0.508   0.729  1.00  0.00     0.148 C 
HETATM   12  N1  UNL     1      -4.981   0.735   0.127  1.00  0.00    -0.325 N 
HETATM   13  C7  UNL     1      -6.350   1.178   0.222  1.00  0.00     0.362 C 
HETATM   14  C32 UNL     1      -4.005   1.543  -0.574  1.00  0.00     0.148 C 
HETATM   15  O2  UNL     1      -7.160   0.450   0.847  1.00  0.00    -0.238 OA
HETATM   16  O3  UNL     1      -0.538  -0.174  -1.015  1.00  0.00    -0.273 OA
BRANCH  13  17
HETATM   17  O1  UNL     1      -6.699   2.369  -0.372  1.00  0.00    -0.304 OA
BRANCH  17  18
HETATM   18  C6  UNL     1      -8.014   2.877  -0.335  1.00  0.00     0.180 C 
BRANCH  18  19
HETATM   19  C5  UNL     1      -8.984   1.973  -1.039  1.00  0.00     0.027 C 
BRANCH  19  20
HETATM   20  C4  UNL     1     -10.386   2.524  -1.031  1.00  0.00     0.002 C 
BRANCH  20  21
HETATM   21  C3  UNL     1     -10.857   2.676   0.389  1.00  0.00    -0.000 C 
BRANCH  21  22
HETATM   22  C2  UNL     1     -12.288   3.204   0.441  1.00  0.00    -0.005 C 
HETATM   23  C1  UNL     1     -12.396   4.550  -0.225  1.00  0.00     0.005 C 
ENDBRANCH  21  22
ENDBRANCH  20  21
ENDBRANCH  19  20
ENDBRANCH  18  19
ENDBRANCH  17  18
ENDBRANCH  13  17
ENDBRANCH   6   7
ENDBRANCH   1   6
BRANCH   3  24
HETATM   24  C15 UNL     1       3.287  -3.730  -1.121  1.00  0.00     0.009 C 
BRANCH  24  25
HETATM   25  C16 UNL     1       3.248  -5.055  -0.529  1.00  0.00     0.020 C 
BRANCH  25  26
HETATM   26  C17 UNL     1       2.048  -5.925  -0.712  1.00  0.00     0.121 C 
BRANCH  26  27
HETATM   27  N3  UNL     1       2.354  -7.208  -0.032  1.00  0.00    -0.380 N 
ATOM     28  H3  UNL     1       1.850  -7.476   0.813  1.00  0.00     0.160 HD
BRANCH  27  29
HETATM   29  C18 UNL     1       3.349  -8.053  -0.567  1.00  0.00     0.066 C 
HETATM   30  C19 UNL     1       4.087  -8.949   0.358  1.00  0.00     0.088 C 
HETATM   31  N4  UNL     1       3.602  -8.044  -1.809  1.00  0.00    -0.389 N 
ATOM     32  H42 UNL     1       3.095  -7.428  -2.445  1.00  0.00     0.157 HD
ATOM     33  H41 UNL     1       4.321  -8.655  -2.196  1.00  0.00     0.157 HD
ENDBRANCH  27  29
ENDBRANCH  26  27
ENDBRANCH  25  26
ENDBRANCH  24  25
ENDBRANCH   3  24
BRANCH   4  34
HETATM   34  C21 UNL     1       3.366  -1.377   1.148  1.00  0.00     0.135 C 
BRANCH  34  35
HETATM   35  C22 UNL     1       3.493  -0.042   0.567  1.00  0.00     0.222 C 
HETATM   36  O4  UNL     1       2.713   0.345  -0.337  1.00  0.00    -0.273 OA
HETATM   37  N5  UNL     1       4.502   0.888   0.994  1.00  0.00    -0.349 N 
HETATM   38  C23 UNL     1       4.557   2.177   0.367  1.00  0.00     0.145 C 
HETATM   39  C30 UNL     1       5.453   0.560   2.034  1.00  0.00     0.145 C 
HETATM   40  C24 UNL     1       5.451   3.137   1.067  1.00  0.00     0.148 C 
HETATM   41  N6  UNL     1       6.735   2.512   1.280  1.00  0.00    -0.325 N 
HETATM   42  C25 UNL     1       7.934   3.209   0.987  1.00  0.00     0.363 C 
HETATM   43  C29 UNL     1       6.803   1.184   1.789  1.00  0.00     0.148 C 
HETATM   44  O5  UNL     1       9.062   2.673   1.169  1.00  0.00    -0.238 OA
BRANCH  42  45
HETATM   45  O6  UNL     1       7.959   4.508   0.488  1.00  0.00    -0.299 OA
BRANCH  45  46
HETATM   46  C26 UNL     1       9.204   5.165   0.209  1.00  0.00     0.125 C 
HETATM   47  C27 UNL     1       9.186   6.459   0.999  1.00  0.00     0.040 C 
HETATM   48  C28 UNL     1       9.149   5.539  -1.272  1.00  0.00     0.040 C 
ENDBRANCH  45  46
ENDBRANCH  42  45
ENDBRANCH  34  35
ENDBRANCH   4  34
TORSDOF 17
