REMARK  15 active torsions:
REMARK  status: ('A' for Active; 'I' for Inactive)
REMARK    1  A    between atoms: C2_2  and  C3_3 
REMARK    2  A    between atoms: C3_3  and  O1_4 
REMARK    3  A    between atoms: C3_3  and  C4_6 
REMARK    4  A    between atoms: C3_3  and  O3_27 
REMARK    5  A    between atoms: C4_6  and  C5_7 
REMARK    6  A    between atoms: C5_7  and  C6_8 
REMARK    7  A    between atoms: C12_15  and  C13_16 
REMARK    8  A    between atoms: C13_16  and  C14_17 
REMARK    9  A    between atoms: C14_17  and  C15_18 
REMARK   10  A    between atoms: C15_18  and  C18_21 
REMARK   11  A    between atoms: C18_21  and  C19_22 
REMARK   12  A    between atoms: C19_22  and  C20_23 
REMARK   13  A    between atoms: C20_23  and  C21_24 
REMARK   14  A    between atoms: O3_27  and  C24_28 
REMARK   15  A    between atoms: C24_28  and  C25_29 
ROOT
HETATM    1  C6  UNL     1      -2.137   1.704  -0.735  1.00  0.00     0.015 C 
HETATM    2  C7  UNL     1      -1.787   0.480  -1.552  1.00  0.00     0.014 C 
HETATM    3  C8  UNL     1      -0.748   0.945  -2.574  1.00  0.00     0.015 C 
HETATM    4  C9  UNL     1      -1.170   2.314  -3.080  1.00  0.00     0.010 C 
HETATM    5  C10 UNL     1      -0.791   3.293  -1.962  1.00  0.00     0.033 C 
HETATM    6  C11 UNL     1      -0.786   2.478  -0.689  1.00  0.00     0.126 C 
HETATM    7  O2  UNL     1       0.285   1.592  -0.608  1.00  0.00    -0.380 OA
HETATM    8  C12 UNL     1       0.589   1.148  -1.891  1.00  0.00     0.126 C 
ENDROOT
BRANCH   1   9
HETATM    9  C5  UNL     1      -2.625   1.421   0.616  1.00  0.00     0.013 C 
BRANCH   9  10
HETATM   10  C4  UNL     1      -3.859   0.628   0.767  1.00  0.00     0.074 C 
BRANCH  10  11
HETATM   11  C3  UNL     1      -5.156   1.155   0.305  1.00  0.00     0.185 C 
BRANCH  11  12
HETATM   12  C2  UNL     1      -5.286   1.437  -1.139  1.00  0.00     0.031 C 
HETATM   13  C1  UNL     1      -5.922   2.506  -1.614  1.00  0.00     0.012 C 
ENDBRANCH  11  12
BRANCH  11  14
HETATM   14  O1  UNL     1      -5.218   2.515   0.885  1.00  0.00    -0.362 OA
ATOM     15  H1  UNL     1      -5.134   2.334   1.814  1.00  0.00     0.213 HD
ENDBRANCH  11  14
BRANCH  11  16
HETATM   16  O3  UNL     1      -6.251   0.583   0.852  1.00  0.00    -0.320 OA
BRANCH  16  17
HETATM   17  C24 UNL     1      -6.680  -0.651   0.643  1.00  0.00     0.169 C 
BRANCH  17  18
HETATM   18  C25 UNL     1      -5.891  -1.822   1.021  1.00  0.00     0.072 A 
HETATM   19  C26 UNL     1      -5.418  -2.794   0.148  1.00  0.00     0.120 A 
HETATM   20  N1  UNL     1      -4.756  -3.725   0.836  1.00  0.00    -0.360 N 
HETATM   21  C27 UNL     1      -4.806  -3.355   2.126  1.00  0.00     0.182 A 
ATOM     22  H1  UNL     1      -4.301  -4.555   0.457  1.00  0.00     0.166 HD
HETATM   23  N2  UNL     1      -5.489  -2.210   2.242  1.00  0.00    -0.345 N 
HETATM   24  C28 UNL     1      -5.748  -1.525   3.518  1.00  0.00     0.157 C 
ENDBRANCH  17  18
ENDBRANCH  16  17
ENDBRANCH  11  16
ENDBRANCH  10  11
ENDBRANCH   9  10
ENDBRANCH   1   9
BRANCH   8  25
HETATM   25  C13 UNL     1       1.421  -0.105  -1.892  1.00  0.00     0.033 C 
BRANCH  25  26
HETATM   26  C14 UNL     1       2.746   0.184  -1.188  1.00  0.00     0.011 C 
BRANCH  26  27
HETATM   27  C15 UNL     1       3.630  -1.018  -1.149  1.00  0.00    -0.048 C 
HETATM   28  C16 UNL     1       3.970  -1.525  -2.538  1.00  0.00     0.015 C 
HETATM   29  C17 UNL     1       2.980  -2.120  -0.375  1.00  0.00     0.015 C 
BRANCH  27  30
HETATM   30  C18 UNL     1       4.947  -0.625  -0.519  1.00  0.00     0.008 C 
BRANCH  30  31
HETATM   31  C19 UNL     1       4.819  -0.109   0.877  1.00  0.00     0.001 C 
BRANCH  31  32
HETATM   32  C20 UNL     1       6.146   0.272   1.481  1.00  0.00     0.004 C 
BRANCH  32  33
HETATM   33  C21 UNL     1       7.117  -0.884   1.558  1.00  0.00    -0.023 C 
HETATM   34  C22 UNL     1       8.401  -0.377   2.179  1.00  0.00     0.009 C 
HETATM   35  C23 UNL     1       6.600  -2.014   2.392  1.00  0.00     0.009 C 
ENDBRANCH  32  33
ENDBRANCH  31  32
ENDBRANCH  30  31
ENDBRANCH  27  30
ENDBRANCH  26  27
ENDBRANCH  25  26
ENDBRANCH   8  25
TORSDOF 15
