REMARK  15 active torsions:
REMARK  status: ('A' for Active; 'I' for Inactive)
REMARK    1  A    between atoms: C2_2  and  O2_4 
REMARK    2  A    between atoms: O2_4  and  C3_5 
REMARK    3  A    between atoms: C3_5  and  C4_6 
REMARK    4  A    between atoms: C4_6  and  C5_7 
REMARK    5  A    between atoms: C7_12  and  C8_13 
REMARK    6  A    between atoms: C8_13  and  C9_14 
REMARK    7  A    between atoms: C9_14  and  C10_15 
REMARK    8  A    between atoms: C12_17  and  C13_18 
REMARK    9  A    between atoms: C13_18  and  C14_19 
REMARK   10  A    between atoms: C14_19  and  C15_20 
REMARK   11  A    between atoms: C17_22  and  C18_23 
REMARK   12  A    between atoms: C18_23  and  C19_24 
REMARK   13  A    between atoms: C19_24  and  C20_25 
REMARK   14  A    between atoms: C20_25  and  C21_26 
REMARK   15  A    between atoms: C21_26  and  C22_27 
ROOT
HETATM    1  C9  UNL     1      -2.749  -1.193  -0.942  1.00  0.00     0.038 C 
ENDROOT
BRANCH   1   2
HETATM    2  C8  UNL     1      -3.064  -0.868   0.461  1.00  0.00     0.068 C 
BRANCH   2   3
HETATM    3  C7  UNL     1      -4.564  -0.596   0.642  1.00  0.00     0.296 C 
HETATM    4  O5  UNL     1      -5.323  -1.686   0.289  1.00  0.00    -0.355 OA
HETATM    5  C6  UNL     1      -6.634  -1.457   0.592  1.00  0.00     0.226 C 
HETATM    6  C4  UNL     1      -7.087  -0.034   0.402  1.00  0.00     0.226 C 
HETATM    7  O7  UNL     1      -6.115   0.878   0.270  1.00  0.00    -0.211 OA
HETATM    8  O6  UNL     1      -4.965   0.463  -0.171  1.00  0.00    -0.207 OA
BRANCH   6   9
HETATM    9  C3  UNL     1      -8.062   0.322   1.487  1.00  0.00     0.234 C 
BRANCH   9  10
HETATM   10  O2  UNL     1      -8.763   1.493   1.331  1.00  0.00    -0.318 OA
BRANCH  10  11
HETATM   11  C2  UNL     1      -8.329   2.783   1.322  1.00  0.00     0.254 C 
HETATM   12  C1  UNL     1      -9.352   3.870   1.112  1.00  0.00     0.126 C 
HETATM   13  O1  UNL     1      -7.124   3.077   1.479  1.00  0.00    -0.266 OA
ENDBRANCH  10  11
ENDBRANCH   9  10
ENDBRANCH   6   9
BRANCH   6  14
HETATM   14  C5  UNL     1      -7.901  -0.041  -0.873  1.00  0.00     0.217 C 
HETATM   15  O3  UNL     1      -7.600   0.727  -1.802  1.00  0.00    -0.645 OA
HETATM   16  O4  UNL     1      -8.976  -0.913  -0.976  1.00  0.00    -0.645 OA
ENDBRANCH   6  14
ENDBRANCH   2   3
ENDBRANCH   1   2
BRANCH   1  17
HETATM   17  C10 UNL     1      -1.255  -1.460  -1.114  1.00  0.00    -0.087 C 
HETATM   18  C11 UNL     1      -0.881  -1.778  -2.518  1.00  0.00     0.043 C 
HETATM   19  C12 UNL     1      -0.505  -1.368  -0.068  1.00  0.00    -0.024 C 
BRANCH  19  20
HETATM   20  C13 UNL     1       0.925  -1.558   0.102  1.00  0.00     0.031 C 
BRANCH  20  21
HETATM   21  C14 UNL     1       1.682  -2.019  -1.084  1.00  0.00     0.037 C 
BRANCH  21  22
HETATM   22  C15 UNL     1       3.136  -2.113  -0.616  1.00  0.00    -0.087 C 
HETATM   23  C16 UNL     1       3.439  -3.025   0.492  1.00  0.00     0.043 C 
HETATM   24  C17 UNL     1       4.045  -1.382  -1.219  1.00  0.00    -0.024 C 
BRANCH  24  25
HETATM   25  C18 UNL     1       5.473  -1.433  -0.807  1.00  0.00     0.027 C 
BRANCH  25  26
HETATM   26  C19 UNL     1       5.974  -0.077  -0.352  1.00  0.00     0.004 C 
BRANCH  26  27
HETATM   27  C20 UNL     1       5.870   0.957  -1.434  1.00  0.00     0.004 C 
BRANCH  27  28
HETATM   28  C21 UNL     1       6.393   2.264  -0.876  1.00  0.00     0.027 C 
BRANCH  28  29
HETATM   29  C22 UNL     1       7.807   2.097  -0.459  1.00  0.00    -0.025 C 
HETATM   30  C23 UNL     1       8.234   2.281   0.770  1.00  0.00    -0.091 C 
HETATM   31  C24 UNL     1       7.269   2.686   1.853  1.00  0.00     0.042 C 
HETATM   32  C25 UNL     1       9.665   2.099   1.134  1.00  0.00     0.042 C 
ENDBRANCH  28  29
ENDBRANCH  27  28
ENDBRANCH  26  27
ENDBRANCH  25  26
ENDBRANCH  24  25
ENDBRANCH  21  22
ENDBRANCH  20  21
ENDBRANCH  19  20
ENDBRANCH   1  17
TORSDOF 15
