REMARK  4 active torsions:
REMARK  status: ('A' for Active; 'I' for Inactive)
REMARK    1  A    between atoms: C2_2  and  O1_3 
REMARK    2  A    between atoms: C2_2  and  N1_5 
REMARK    3  A    between atoms: N2_13  and  C6_14 
REMARK    4  A    between atoms: C7_18  and  C8_19 
REMARK       I    between atoms: C8_19  and  N4_21 
ROOT
HETATM    1  N1  UNL     1      -0.572   0.636  -0.775  1.00  0.00    -0.313 N 
HETATM    2  C3  UNL     1      -1.092  -0.028  -1.993  1.00  0.00     0.137 C 
HETATM    3  C4  UNL     1      -1.659  -1.375  -1.569  1.00  0.00     0.077 C 
HETATM    4  C5  UNL     1      -1.937  -1.496  -0.100  1.00  0.00     0.160 C 
HETATM    5  S1  UNL     1      -3.429  -0.538   0.286  1.00  0.00    -0.041 SA
HETATM    6  S2  UNL     1      -5.017  -1.674  -0.610  1.00  0.00    -0.010 SA
HETATM    7  S3  UNL     1      -4.212  -3.654  -0.365  1.00  0.00    -0.010 SA
HETATM    8  S4  UNL     1      -2.260  -3.187   0.402  1.00  0.00    -0.041 SA
HETATM    9  N2  UNL     1      -0.863  -0.992   0.761  1.00  0.00    -0.295 N 
HETATM   10  C7  UNL     1       0.163  -0.245   0.037  1.00  0.00     0.184 C 
ENDROOT
BRANCH  10  11
HETATM   11  C8  UNL     1       1.331   0.163   0.753  1.00  0.00     0.292 C 
HETATM   12  O2  UNL     1       1.741  -0.371   1.844  1.00  0.00    -0.264 OA
HETATM   13  N4  UNL     1       2.158   1.220   0.293  1.00  0.00    -0.297 N 
HETATM   14  C9  UNL     1       3.400   1.003  -0.061  1.00  0.00     0.203 C 
ATOM     15  H4  UNL     1       1.779   2.165   0.237  1.00  0.00     0.171 HD
HETATM   16  N5  UNL     1       4.176   2.089  -0.510  1.00  0.00    -0.066 NA
HETATM   17  N6  UNL     1       3.897  -0.325   0.029  1.00  0.00    -0.066 NA
ENDBRANCH  10  11
BRANCH   1  18
HETATM   18  C2  UNL     1      -0.886   1.955  -0.566  1.00  0.00     0.115 C 
HETATM   19  C1  UNL     1      -0.556   2.814   0.606  1.00  0.00     0.097 C 
BRANCH  18  20
HETATM   20  O1  UNL     1      -1.571   2.627  -1.460  1.00  0.00    -0.349 OA
ATOM     21  H1  UNL     1      -1.781   2.079  -2.207  1.00  0.00     0.219 HD
ENDBRANCH  18  20
ENDBRANCH   1  18
BRANCH   9  22
HETATM   22  C6  UNL     1      -0.828  -1.210   2.147  1.00  0.00     0.180 C 
HETATM   23  N3  UNL     1      -0.878  -2.429   2.588  1.00  0.00    -0.395 N 
ATOM     24  H32 UNL     1      -0.941  -3.203   1.927  1.00  0.00     0.156 HD
ATOM     25  H31 UNL     1      -0.853  -2.587   3.595  1.00  0.00     0.156 HD
ENDBRANCH   9  22
TORSDOF 4
