REMARK  3 active torsions:
REMARK  status: ('A' for Active; 'I' for Inactive)
REMARK    1  A    between atoms: C1_2  and  C2_4 
REMARK    2  A    between atoms: C5_7  and  N1_8 
REMARK    3  A    between atoms: N1_8  and  C6_10 
ROOT
HETATM    1  N1  UNL     1      -0.250  -0.100  -0.928  1.00  0.00    -0.413 N 
ATOM      2  H1  UNL     1      -0.373   0.151  -1.909  1.00  0.00     0.154 HD
ENDROOT
BRANCH   1   3
HETATM    3  C5  UNL     1       0.973   0.164  -0.216  1.00  0.00     0.077 C 
HETATM    4  C4  UNL     1       1.652  -1.128   0.203  1.00  0.00     0.025 C 
HETATM    5  C3  UNL     1       3.118  -1.166  -0.219  1.00  0.00     0.012 C 
HETATM    6  C2  UNL     1       3.821   0.076   0.273  1.00  0.00     0.051 C 
HETATM    7  C14 UNL     1       3.236   1.235  -0.500  1.00  0.00     0.012 C 
HETATM    8  C13 UNL     1       1.898   0.941  -1.118  1.00  0.00     0.025 C 
BRANCH   6   9
HETATM    9  C1  UNL     1       5.299  -0.060   0.052  1.00  0.00     0.357 C 
HETATM   10  F1  UNL     1       5.968   1.063   0.497  1.00  0.00    -0.214 F 
HETATM   11  F2  UNL     1       5.627  -0.204  -1.282  1.00  0.00    -0.214 F 
ENDBRANCH   6   9
ENDBRANCH   1   3
BRANCH   1  12
HETATM   12  C6  UNL     1      -1.278  -0.736  -0.172  1.00  0.00     0.078 C 
HETATM   13  C7  UNL     1      -1.881   0.089   0.968  1.00  0.00     0.040 C 
HETATM   14  C8  UNL     1      -3.213  -0.224   0.388  1.00  0.00     0.029 C 
HETATM   15  C9  UNL     1      -4.263   0.800   0.284  1.00  0.00     0.021 C 
HETATM   16  C11 UNL     1      -4.133  -1.108   1.149  1.00  0.00     0.251 C 
HETATM   17  C12 UNL     1      -2.604  -0.738  -0.880  1.00  0.00     0.040 C 
HETATM   18  C10 UNL     1      -5.301  -0.304   0.556  1.00  0.00     0.081 C 
HETATM   19  F3  UNL     1      -4.106  -0.847   2.521  1.00  0.00    -0.205 F 
HETATM   20  F4  UNL     1      -4.145  -2.436   0.864  1.00  0.00    -0.205 F 
ENDBRANCH   1  12
TORSDOF 3
