REMARK  0 active torsions:
REMARK  status: ('A' for Active; 'I' for Inactive)
ROOT
HETATM    1  N1  UNL     1      -1.280   2.288  -2.539  1.00  0.00    -0.193 NA
HETATM    2  C1  UNL     1      -1.120   2.004  -1.444  1.00  0.00     0.112 C 
HETATM    3  C2  UNL     1      -0.906   1.614  -0.027  1.00  0.00     0.239 C 
HETATM    4  C3  UNL     1      -1.615   2.626   0.770  1.00  0.00     0.112 C 
HETATM    5  N2  UNL     1      -2.161   3.451   1.410  1.00  0.00    -0.193 NA
HETATM    6  N3  UNL     1       0.498   1.702   0.286  1.00  0.00    -0.351 N 
ATOM      7  H3  UNL     1       0.762   2.554   0.780  1.00  0.00     0.163 HD
HETATM    8  C4  UNL     1       1.583   0.818   0.032  1.00  0.00     0.059 A 
HETATM    9  C5  UNL     1       2.795   1.472  -0.053  1.00  0.00     0.050 A 
HETATM   10  C6  UNL     1       3.946   0.754  -0.296  1.00  0.00     0.013 A 
HETATM   11 BR1  UNL     1       5.618   1.656  -0.413  1.00  0.00    -0.051 Br
HETATM   12  C7  UNL     1       3.863  -0.634  -0.452  1.00  0.00     0.021 A 
HETATM   13  C8  UNL     1       2.638  -1.240  -0.359  1.00  0.00     0.034 A 
HETATM   14  C9  UNL     1       1.468  -0.549  -0.117  1.00  0.00     0.073 A 
HETATM   15  N4  UNL     1       0.308  -1.371  -0.058  1.00  0.00    -0.272 N 
HETATM   16  S1  UNL     1       0.545  -3.083  -0.339  1.00  0.00     0.051 SA
HETATM   17  C10 UNL     1      -1.045  -0.994   0.203  1.00  0.00     0.058 A 
HETATM   18  C11 UNL     1      -1.844  -2.107   0.455  1.00  0.00     0.031 A 
HETATM   19  C12 UNL     1      -3.163  -1.904   0.715  1.00  0.00     0.002 A 
HETATM   20  C13 UNL     1      -3.697  -0.638   0.729  1.00  0.00     0.001 A 
HETATM   21  C14 UNL     1      -2.888   0.439   0.478  1.00  0.00     0.014 A 
HETATM   22  C15 UNL     1      -1.525   0.297   0.205  1.00  0.00     0.026 A 
ENDROOT
TORSDOF 0
