REMARK  11 active torsions:
REMARK  status: ('A' for Active; 'I' for Inactive)
REMARK    1  A    between atoms: C2_2  and  C3_3 
REMARK    2  A    between atoms: C3_3  and  O1_4 
REMARK    3  A    between atoms: C4_9  and  N2_10 
REMARK    4  A    between atoms: C7_15  and  N4_16 
REMARK    5  A    between atoms: N6_22  and  N7_24 
REMARK    6  A    between atoms: N7_24  and  C9_26 
REMARK    7  A    between atoms: C12_34  and  S1_35 
REMARK    8  A    between atoms: S1_35  and  C13_36 
REMARK    9  A    between atoms: C13_36  and  C14_37 
REMARK   10  A    between atoms: C14_37  and  S2_38 
REMARK   11  A    between atoms: N13_46  and  N14_47 
ROOT
HETATM    1  C9  UNL     1      -6.611   3.703  -1.731  1.00  0.00     0.207 C 
HETATM    2  N8  UNL     1      -7.600   4.423  -1.386  1.00  0.00    -0.289 N 
ATOM      3  H8  UNL     1      -8.433   3.954  -1.029  1.00  0.00     0.178 HD
HETATM    4  C10 UNL     1      -7.615   5.810  -1.466  1.00  0.00     0.182 C 
HETATM    5  N9  UNL     1      -7.634   6.974  -1.513  1.00  0.00    -0.172 NA
ENDROOT
BRANCH   1   6
HETATM    6  N7  UNL     1      -6.659   2.291  -1.625  1.00  0.00    -0.281 N 
ATOM      7  H7  UNL     1      -7.566   1.830  -1.552  1.00  0.00     0.188 HD
BRANCH   6   8
HETATM    8  N6  UNL     1      -5.503   1.514  -1.617  1.00  0.00    -0.131 N 
HETATM    9  C8  UNL     1      -4.908   1.328  -0.480  1.00  0.00     0.700 A 
HETATM   10  N5  UNL     1      -5.398   1.873   0.652  1.00  0.00    -0.173 N 
HETATM   11  N10 UNL     1      -3.792   0.581  -0.453  1.00  0.00    -0.172 N 
HETATM   12  C7  UNL     1      -4.813   1.706   1.851  1.00  0.00     0.145 A 
ATOM     13  H5  UNL     1      -6.247   2.435   0.596  1.00  0.00     0.186 HD
HETATM   14  C6  UNL     1      -3.653   0.926   1.859  1.00  0.00     0.123 A 
HETATM   15  N3  UNL     1      -2.852   0.579   2.876  1.00  0.00    -0.346 N 
HETATM   16  C11 UNL     1      -3.134   0.359   0.717  1.00  0.00     0.156 A 
HETATM   17  C5  UNL     1      -1.870  -0.179   2.375  1.00  0.00     0.187 A 
ATOM     18  H3  UNL     1      -2.970   0.844   3.854  1.00  0.00     0.167 HD
HETATM   19  N2  UNL     1      -2.033  -0.320   1.051  1.00  0.00    -0.296 N 
ATOM     20  H10 UNL     1      -3.434   0.176  -1.318  1.00  0.00     0.186 HD
ATOM     21  H6  UNL     1      -5.137   1.105  -2.477  1.00  0.00     0.205 HD
BRANCH  12  22
HETATM   22  N4  UNL     1      -5.267   2.220   2.942  1.00  0.00    -0.383 N 
ATOM     23  H42 UNL     1      -4.823   2.093   3.852  1.00  0.00     0.157 HD
ATOM     24  H41 UNL     1      -6.113   2.789   2.936  1.00  0.00     0.157 HD
ENDBRANCH  12  22
BRANCH  19  25
HETATM   25  C4  UNL     1      -1.238  -1.041   0.096  1.00  0.00     0.312 C 
HETATM   26  N1  UNL     1      -1.834  -2.312  -0.271  1.00  0.00    -0.018 N 
HETATM   27  C2  UNL     1      -0.904  -3.096  -1.076  1.00  0.00     0.246 C 
ATOM     28  H12 UNL     1      -2.732  -2.189  -0.739  1.00  0.00     0.283 HD
ATOM     29  H11 UNL     1      -2.159  -2.829   0.546  1.00  0.00     0.283 HD
HETATM   30  C1  UNL     1      -0.440  -4.346  -0.374  1.00  0.00     0.081 C 
HETATM   31  O2  UNL     1       0.167  -2.362  -1.493  1.00  0.00    -0.352 OA
HETATM   32  C19 UNL     1       0.977  -1.822  -0.531  1.00  0.00     0.190 C 
HETATM   33  C12 UNL     1       0.170  -1.294   0.624  1.00  0.00     0.122 C 
BRANCH  27  34
HETATM   34  C3  UNL     1      -1.690  -3.467  -2.345  1.00  0.00     0.232 C 
BRANCH  34  35
HETATM   35  O1  UNL     1      -0.849  -4.227  -3.168  1.00  0.00    -0.396 OA
ATOM     36  H1  UNL     1      -1.334  -4.456  -3.952  1.00  0.00     0.209 HD
ENDBRANCH  34  35
ENDBRANCH  27  34
BRANCH  33  37
HETATM   37  S1  UNL     1       0.887   0.224   1.238  1.00  0.00    -0.157 SA
BRANCH  37  38
HETATM   38  C13 UNL     1       2.478   0.076   2.029  1.00  0.00     0.085 C 
BRANCH  38  39
HETATM   39  C14 UNL     1       3.529  -0.324   1.058  1.00  0.00     0.098 C 
BRANCH  39  40
HETATM   40  S2  UNL     1       5.141  -0.439   1.812  1.00  0.00    -0.079 SA
HETATM   41  N11 UNL     1       5.597   1.120   2.483  1.00  0.00    -0.178 NA
HETATM   42  C15 UNL     1       6.018   1.785   1.299  1.00  0.00     0.184 C 
HETATM   43  C16 UNL     1       6.690   0.870   0.386  1.00  0.00     0.083 A 
HETATM   44  C17 UNL     1       6.318  -0.447   0.517  1.00  0.00     0.102 A 
HETATM   45  N13 UNL     1       7.603   0.895  -0.603  1.00  0.00    -0.258 N 
HETATM   46  N12 UNL     1       6.965  -1.200  -0.344  1.00  0.00    -0.343 N 
HETATM   47  C18 UNL     1       7.768  -0.363  -1.045  1.00  0.00     0.207 A 
ATOM     48  H12 UNL     1       6.880  -2.210  -0.461  1.00  0.00     0.167 HD
BRANCH  45  49
HETATM   49  N14 UNL     1       8.304   1.978  -1.143  1.00  0.00    -0.338 N 
ATOM     50 2H14 UNL     1       8.179   2.933  -0.807  1.00  0.00     0.177 HD
ATOM     51 1H14 UNL     1       8.996   1.997  -1.892  1.00  0.00     0.177 HD
ENDBRANCH  45  49
ENDBRANCH  39  40
ENDBRANCH  38  39
ENDBRANCH  37  38
ENDBRANCH  33  37
ENDBRANCH  19  25
ENDBRANCH   6   8
ENDBRANCH   1   6
TORSDOF 11
