REMARK  7 active torsions:
REMARK  status: ('A' for Active; 'I' for Inactive)
REMARK    1  A    between atoms: N1_1  and  S1_4 
REMARK    2  A    between atoms: S1_4  and  C1_7 
REMARK    3  A    between atoms: C4_10  and  C5_11 
REMARK    4  A    between atoms: C5_11  and  N2_12 
REMARK    5  A    between atoms: C6_14  and  N3_15 
REMARK    6  A    between atoms: N3_15  and  N4_17 
REMARK    7  A    between atoms: N4_17  and  C7_19 
ROOT
HETATM    1  C1  UNL     1      -2.390   0.520   0.747  1.00  0.00     0.149 A 
HETATM    2  C2  UNL     1      -1.312   1.310   1.039  1.00  0.00     0.045 A 
HETATM    3  C3  UNL     1      -0.159   0.670   0.564  1.00  0.00     0.029 A 
HETATM    4  C4  UNL     1      -0.588  -0.506  -0.011  1.00  0.00     0.028 A 
HETATM    5  N5  UNL     1      -1.929  -0.556   0.120  1.00  0.00    -0.348 N 
ATOM      6  H5  UNL     1      -2.513  -1.321  -0.218  1.00  0.00     0.166 HD
ENDROOT
BRANCH   4   7
HETATM    7  C5  UNL     1       0.268  -1.541  -0.670  1.00  0.00     0.177 C 
BRANCH   7   8
HETATM    8  N2  UNL     1       1.599  -1.134  -0.899  1.00  0.00    -0.379 N 
HETATM    9  C6  UNL     1       2.069  -0.083  -1.403  1.00  0.00     0.193 C 
ATOM     10  H2  UNL     1       2.303  -1.811  -0.604  1.00  0.00     0.160 HD
BRANCH   9  11
HETATM   11  N3  UNL     1       3.495   0.012  -1.487  1.00  0.00    -0.294 N 
ATOM     12  H3  UNL     1       3.993  -0.488  -2.224  1.00  0.00     0.187 HD
BRANCH  11  13
HETATM   13  N4  UNL     1       4.211   0.785  -0.567  1.00  0.00    -0.277 N 
ATOM     14  H4  UNL     1       3.828   1.699  -0.326  1.00  0.00     0.189 HD
BRANCH  13  15
HETATM   15  C7  UNL     1       5.415   0.406   0.053  1.00  0.00     0.368 C 
HETATM   16  O3  UNL     1       6.052  -0.648  -0.086  1.00  0.00    -0.282 OA
ENDBRANCH  13  15
ENDBRANCH  11  13
ENDBRANCH   9  11
ENDBRANCH   7   8
ENDBRANCH   4   7
BRANCH   1  17
HETATM   17  S1  UNL     1      -4.065   0.913   1.159  1.00  0.00     0.272 S 
HETATM   18  O1  UNL     1      -4.157   0.972   2.655  1.00  0.00    -0.199 OA
HETATM   19  O2  UNL     1      -4.452   2.258   0.635  1.00  0.00    -0.199 OA
BRANCH  17  20
HETATM   20  N1  UNL     1      -5.111  -0.337   0.618  1.00  0.00    -0.323 N 
ATOM     21  H12 UNL     1      -5.686  -0.926   1.220  1.00  0.00     0.169 HD
ATOM     22  H11 UNL     1      -5.048  -0.377  -0.399  1.00  0.00     0.169 HD
ENDBRANCH  17  20
ENDBRANCH   1  17
TORSDOF 7
