REMARK  8 active torsions:
REMARK  status: ('A' for Active; 'I' for Inactive)
REMARK    1  A    between atoms: N2_5  and  O1_6 
REMARK    2  A    between atoms: C4_9  and  C5_10 
REMARK    3  A    between atoms: C5_10  and  C6_11 
REMARK    4  A    between atoms: C6_11  and  N3_12 
REMARK       I    between atoms: N3_12  and  C7_14 
REMARK    5  A    between atoms: C7_14  and  C8_16 
REMARK       I    between atoms: C8_16  and  N4_18 
REMARK    6  A    between atoms: N4_18  and  C9_20 
REMARK    7  A    between atoms: C9_20  and  C10_21 
REMARK    8  A    between atoms: N5_32  and  O4_33 
ROOT
HETATM    1  C5  UNL     1      -1.864   1.181   0.821  1.00  0.00     0.085 C 
ENDROOT
BRANCH   1   2
HETATM    2  C4  UNL     1      -3.294   1.109   0.731  1.00  0.00    -0.020 A 
HETATM    3  C3  UNL     1      -4.030   0.090   0.195  1.00  0.00     0.117 A 
HETATM    4  N2  UNL     1      -3.425  -1.038  -0.196  1.00  0.00    -0.159 N 
HETATM    5  C19 UNL     1      -5.431   0.209   0.068  1.00  0.00     0.095 A 
HETATM    6  N1  UNL     1      -4.124  -2.049  -0.706  1.00  0.00    -0.261 N 
HETATM    7  C2  UNL     1      -5.453  -1.944  -0.831  1.00  0.00     0.122 A 
ATOM      8  H1  UNL     1      -3.649  -2.902  -1.001  1.00  0.00     0.191 HD
HETATM    9  C1  UNL     1      -6.300  -3.043  -1.396  1.00  0.00     0.093 C 
HETATM   10  N5  UNL     1      -6.102  -0.832  -0.450  1.00  0.00    -0.209 N 
HETATM   11  C18 UNL     1      -6.095   1.341   0.479  1.00  0.00     0.034 A 
HETATM   12  C17 UNL     1      -5.389   2.373   1.021  1.00  0.00     0.003 A 
HETATM   13  C16 UNL     1      -4.033   2.250   1.138  1.00  0.00     0.010 A 
BRANCH   4  14
HETATM   14  O1  UNL     1      -2.075  -1.170  -0.024  1.00  0.00    -0.267 OA
ATOM     15  H1  UNL     1      -1.576  -0.448   0.340  1.00  0.00     0.247 HD
ENDBRANCH   4  14
BRANCH  10  16
HETATM   16  O4  UNL     1      -7.469  -0.694  -0.565  1.00  0.00    -0.281 OA
ATOM     17  H4  UNL     1      -7.928   0.093  -0.295  1.00  0.00     0.245 HD
ENDBRANCH  10  16
ENDBRANCH   1   2
BRANCH   1  18
HETATM   18  C6  UNL     1      -1.179   1.767  -0.402  1.00  0.00     0.069 C 
BRANCH  18  19
HETATM   19  N3  UNL     1       0.188   1.986  -0.407  1.00  0.00    -0.332 N 
HETATM   20  C7  UNL     1       1.210   1.044  -0.247  1.00  0.00     0.312 C 
HETATM   21  O2  UNL     1       0.945  -0.160  -0.074  1.00  0.00    -0.262 OA
ATOM     22  H3  UNL     1       0.486   2.952  -0.544  1.00  0.00     0.168 HD
BRANCH  20  23
HETATM   23  C8  UNL     1       2.632   1.402  -0.271  1.00  0.00     0.309 C 
HETATM   24  O3  UNL     1       2.941   2.608  -0.428  1.00  0.00    -0.262 OA
HETATM   25  N4  UNL     1       3.596   0.355  -0.113  1.00  0.00    -0.349 N 
ATOM     26  H4  UNL     1       3.305  -0.615   0.012  1.00  0.00     0.163 HD
BRANCH  25  27
HETATM   27  C9  UNL     1       4.964   0.710  -0.136  1.00  0.00     0.163 C 
BRANCH  27  28
HETATM   28  C10 UNL     1       5.899  -0.408   0.017  1.00  0.00    -0.023 A 
HETATM   29  C11 UNL     1       5.551  -1.723   0.170  1.00  0.00     0.010 A 
HETATM   30  C12 UNL     1       6.516  -2.727   0.307  1.00  0.00     0.001 A 
HETATM   31  C13 UNL     1       7.851  -2.432   0.294  1.00  0.00     0.001 A 
HETATM   32  C14 UNL     1       8.223  -1.135   0.144  1.00  0.00     0.019 A 
HETATM   33  C15 UNL     1       7.287  -0.153   0.010  1.00  0.00     0.018 A 
HETATM   34 BR1  UNL     1       7.863   1.654  -0.199  1.00  0.00    -0.051 Br
ENDBRANCH  27  28
ENDBRANCH  25  27
ENDBRANCH  20  23
ENDBRANCH  18  19
ENDBRANCH   1  18
TORSDOF 8
