REMARK  4 active torsions:
REMARK  status: ('A' for Active; 'I' for Inactive)
REMARK    1  A    between atoms: N1_1  and  C1_4 
REMARK    2  A    between atoms: N4_11  and  N5_12 
REMARK    3  A    between atoms: C3_14  and  C4_15 
REMARK    4  A    between atoms: C7_18  and  N6_19 
ROOT
HETATM    1  N5  UNL     1      -1.230  -0.503   0.146  1.00  0.00    -0.286 N 
ATOM      2  H5  UNL     1      -0.812  -1.422   0.002  1.00  0.00     0.187 HD
HETATM    3  C3  UNL     1      -0.488   0.509   0.388  1.00  0.00     0.119 C 
ENDROOT
BRANCH   1   4
HETATM    4  N4  UNL     1      -2.612  -0.345   0.080  1.00  0.00    -0.030 N 
HETATM    5  C1  UNL     1      -3.383  -0.415  -1.016  1.00  0.00     0.716 A 
HETATM    6  N2  UNL     1      -4.644  -0.200  -0.603  1.00  0.00    -0.127 N 
HETATM    7  N3  UNL     1      -4.673  -0.003   0.694  1.00  0.00    -0.235 N 
ATOM      8  H2  UNL     1      -5.462  -0.191  -1.212  1.00  0.00     0.206 HD
HETATM    9  C2  UNL     1      -3.395  -0.092   1.137  1.00  0.00     0.375 A 
ATOM     10  H3  UNL     1      -5.500   0.182   1.261  1.00  0.00     0.192 HD
HETATM   11  O1  UNL     1      -2.994   0.036   2.315  1.00  0.00    -0.243 OA
BRANCH   5  12
HETATM   12  N1  UNL     1      -2.970  -0.643  -2.206  1.00  0.00    -0.231 N 
ATOM     13  H12 UNL     1      -3.556  -0.696  -3.039  1.00  0.00     0.174 HD
ATOM     14  H11 UNL     1      -2.013  -0.806  -2.519  1.00  0.00     0.174 HD
ENDBRANCH   5  12
ENDBRANCH   1   4
BRANCH   3  15
HETATM   15  C4  UNL     1       0.950   0.342   0.456  1.00  0.00    -0.019 A 
HETATM   16  C5  UNL     1       1.798   1.408   0.716  1.00  0.00     0.015 A 
HETATM   17  C6  UNL     1       3.143   1.226   0.775  1.00  0.00     0.037 A 
HETATM   18  C7  UNL     1       3.752   0.002   0.586  1.00  0.00     0.102 A 
HETATM   19  C8  UNL     1       2.902  -1.053   0.328  1.00  0.00     0.037 A 
HETATM   20  C9  UNL     1       1.534  -0.896   0.263  1.00  0.00     0.015 A 
BRANCH  18  21
HETATM   21  N6  UNL     1       5.163  -0.142   0.657  1.00  0.00    -0.116 N 
HETATM   22  O2  UNL     1       5.905   0.811   0.888  1.00  0.00    -0.532 OA
HETATM   23  O3  UNL     1       5.723  -1.378   0.463  1.00  0.00    -0.532 OA
ENDBRANCH  18  21
ENDBRANCH   3  15
TORSDOF 4
