REMARK  3 active torsions:
REMARK  status: ('A' for Active; 'I' for Inactive)
REMARK    1  A    between atoms: N1_2  and  C3_4 
REMARK    2  A    between atoms: C5_11  and  N4_12 
REMARK    3  A    between atoms: C6_15  and  C7_16 
ROOT
HETATM    1  C3  UNL     1      -1.088   0.490  -0.039  1.00  0.00     0.119 A 
HETATM    2  N2  UNL     1      -2.206   1.299  -0.164  1.00  0.00    -0.294 N 
ATOM      3  H2  UNL     1      -3.116   0.939   0.122  1.00  0.00     0.172 HD
HETATM    4  C4  UNL     1      -2.119   2.528  -0.646  1.00  0.00     0.327 A 
HETATM    5  O1  UNL     1      -3.168   3.256  -0.752  1.00  0.00    -0.247 OA
HETATM    6  N3  UNL     1      -0.918   2.985  -1.017  1.00  0.00    -0.294 N 
ATOM      7  H3  UNL     1      -0.842   3.931  -1.391  1.00  0.00     0.172 HD
HETATM    8  C5  UNL     1       0.188   2.236  -0.912  1.00  0.00     0.115 A 
HETATM    9  C6  UNL     1       0.139   0.919  -0.403  1.00  0.00     0.062 A 
ENDROOT
BRANCH   9  10
HETATM   10  C7  UNL     1       1.355   0.183  -0.307  1.00  0.00     0.232 A 
HETATM   11  C8  UNL     1       1.814  -0.140   1.062  1.00  0.00     0.139 A 
HETATM   12  N5  UNL     1       1.822   0.776   2.163  1.00  0.00    -0.084 NA
HETATM   13  N6  UNL     1       2.227  -1.348   1.070  1.00  0.00    -0.178 N 
HETATM   14  C9  UNL     1       2.082  -1.899  -0.226  1.00  0.00     0.702 A 
ATOM     15  H6  UNL     1       2.602  -1.839   1.882  1.00  0.00     0.185 HD
HETATM   16  N7  UNL     1       2.305  -3.041  -0.905  1.00  0.00    -0.185 N 
HETATM   17  N9  UNL     1       1.557  -0.999  -1.069  1.00  0.00    -0.106 N 
HETATM   18  C10 UNL     1       1.906  -2.802  -2.155  1.00  0.00     0.215 A 
ATOM     19  H7  UNL     1       2.698  -3.908  -0.539  1.00  0.00     0.185 HD
HETATM   20  N8  UNL     1       1.457  -1.560  -2.233  1.00  0.00    -0.278 N 
ATOM     21  H8  UNL     1       1.091  -1.115  -3.075  1.00  0.00     0.188 HD
ENDBRANCH   9  10
BRANCH   1  22
HETATM   22  N1  UNL     1      -1.356  -0.778   0.464  1.00  0.00    -0.375 N 
HETATM   23  C1  UNL     1      -1.354  -1.041   1.876  1.00  0.00     0.150 C 
HETATM   24  C2  UNL     1      -1.717  -1.862  -0.414  1.00  0.00     0.150 C 
ENDBRANCH   1  22
BRANCH   8  25
HETATM   25  N4  UNL     1       1.326   2.702  -1.278  1.00  0.00    -0.385 N 
ATOM     26  H42 UNL     1       1.361   3.653  -1.645  1.00  0.00     0.157 HD
ATOM     27  H41 UNL     1       2.168   2.132  -1.198  1.00  0.00     0.157 HD
ENDBRANCH   8  25
TORSDOF 3
