REMARK  8 active torsions:
REMARK  status: ('A' for Active; 'I' for Inactive)
REMARK    1  A    between atoms: C3_3  and  C4_4 
REMARK    2  A    between atoms: C5_8  and  N3_9 
REMARK    3  A    between atoms: N3_9  and  C7_11 
REMARK    4  A    between atoms: C7_11  and  C8_12 
REMARK    5  A    between atoms: C8_12  and  N4_13 
REMARK    6  A    between atoms: C11_18  and  N6_19 
REMARK    7  A    between atoms: N6_19  and  C12_21 
REMARK    8  A    between atoms: C14_23  and  C15_24 
ROOT
HETATM    1  C1  UNL     1      -6.236   6.320  -0.963  1.00  0.00     0.112 C 
HETATM    2  C2  UNL     1      -5.079   5.444  -0.752  1.00  0.00    -0.103 C 
HETATM    3  C3  UNL     1      -4.131   4.712  -0.559  1.00  0.00    -0.029 C 
ENDROOT
BRANCH   3   4
HETATM    4  C4  UNL     1      -3.011   3.830  -0.307  1.00  0.00     0.192 A 
HETATM    5  N1  UNL     1      -2.804   2.627  -0.859  1.00  0.00    -0.241 N 
HETATM    6  N2  UNL     1      -1.658   2.115  -0.375  1.00  0.00     0.093 N 
ATOM      7  H1  UNL     1      -3.416   2.173  -1.537  1.00  0.00     0.191 HD
HETATM    8  C5  UNL     1      -1.003   0.963  -0.591  1.00  0.00     0.731 A 
HETATM    9  C19 UNL     1      -1.134   3.005   0.492  1.00  0.00     0.735 A 
HETATM   10  N5  UNL     1       0.165   0.736   0.073  1.00  0.00    -0.019 N 
HETATM   11  C11 UNL     1       0.706   1.604   0.940  1.00  0.00     0.712 A 
ATOM     12  H5  UNL     1       0.655  -0.142  -0.099  1.00  0.00     0.203 HD
HETATM   13  N9  UNL     1       0.015   2.744   1.123  1.00  0.00    -0.019 N 
ATOM     14  H9  UNL     1       0.384   3.439   1.772  1.00  0.00     0.203 HD
HETATM   15  N10 UNL     1      -1.983   4.047   0.515  1.00  0.00    -0.164 N 
ATOM     16  H10 UNL     1      -1.859   4.886   1.082  1.00  0.00     0.186 HD
BRANCH   8  17
HETATM   17  N3  UNL     1      -1.525   0.027  -1.510  1.00  0.00    -0.218 N 
HETATM   18  C6  UNL     1      -2.701   0.301  -2.287  1.00  0.00     0.169 C 
BRANCH  17  19
HETATM   19  C7  UNL     1      -0.844  -1.248  -1.685  1.00  0.00     0.171 C 
BRANCH  19  20
HETATM   20  C8  UNL     1      -1.622  -2.430  -1.243  1.00  0.00     0.291 C 
BRANCH  20  21
HETATM   21  N4  UNL     1      -2.002  -2.503   0.119  1.00  0.00     0.081 N 
HETATM   22  C9  UNL     1      -0.892  -2.720   0.989  1.00  0.00     0.309 C 
HETATM   23  C10 UNL     1      -3.080  -3.453   0.306  1.00  0.00     0.309 C 
ENDBRANCH  20  21
ENDBRANCH  19  20
ENDBRANCH  17  19
ENDBRANCH   8  17
BRANCH  11  24
HETATM   24  N6  UNL     1       1.782   1.456   1.591  1.00  0.00    -0.189 N 
ATOM     25  H6  UNL     1       2.038   2.228   2.206  1.00  0.00     0.184 HD
BRANCH  24  26
HETATM   26  C12 UNL     1       2.669   0.366   1.576  1.00  0.00     0.070 A 
HETATM   27  C13 UNL     1       3.625   0.297   0.591  1.00  0.00     0.066 A 
HETATM   28  C14 UNL     1       4.550  -0.754   0.504  1.00  0.00     0.101 A 
HETATM   29  N8  UNL     1       4.469  -1.707   1.432  1.00  0.00    -0.356 N 
HETATM   30  C16 UNL     1       5.393  -2.832   1.411  1.00  0.00     0.156 C 
HETATM   31  C17 UNL     1       3.530  -1.672   2.427  1.00  0.00     0.112 A 
HETATM   32  C18 UNL     1       2.628  -0.646   2.511  1.00  0.00     0.053 A 
HETATM   33 BR1  UNL     1       1.311  -0.574   3.887  1.00  0.00    -0.047 Br
BRANCH  28  34
HETATM   34  C15 UNL     1       5.535  -0.788  -0.545  1.00  0.00     0.281 C 
HETATM   35  N7  UNL     1       6.517  -1.753  -0.780  1.00  0.00    -0.056 NA
HETATM   36  O1  UNL     1       5.520   0.191  -1.383  1.00  0.00    -0.269 OA
ENDBRANCH  28  34
ENDBRANCH  24  26
ENDBRANCH  11  24
ENDBRANCH   3   4
TORSDOF 8
