REMARK  14 active torsions:
REMARK  status: ('A' for Active; 'I' for Inactive)
REMARK    1  A    between atoms: C2_2  and  O1_3 
REMARK    2  A    between atoms: C2_2  and  C3_5 
REMARK       I    between atoms: C3_5  and  N1_7 
REMARK    3  A    between atoms: N1_7  and  N2_9 
REMARK    4  A    between atoms: N2_9  and  N3_11 
REMARK    5  A    between atoms: N3_11  and  C4_13 
REMARK    6  A    between atoms: C7_16  and  C8_17 
REMARK    7  A    between atoms: C8_17  and  C9_18 
REMARK    8  A    between atoms: C9_18  and  N4_19 
REMARK    9  A    between atoms: N4_19  and  C10_21 
REMARK   10  A    between atoms: C11_24  and  N6_25 
REMARK   11  A    between atoms: C12_29  and  C13_30 
REMARK   12  A    between atoms: C18_41  and  N12_42 
REMARK   13  A    between atoms: C19_47  and  N14_48 
REMARK   14  A    between atoms: N15_51  and  N16_52 
ROOT
HETATM    1  N4  UNL     1       0.535   1.136  -1.820  1.00  0.00    -0.225 N 
ATOM      2  H4  UNL     1       0.527   1.879  -1.121  1.00  0.00     0.177 HD
ENDROOT
BRANCH   1   3
HETATM    3  C9  UNL     1      -0.426   1.156  -2.888  1.00  0.00     0.142 C 
BRANCH   3   4
HETATM    4  C8  UNL     1      -1.629   0.255  -2.599  1.00  0.00     0.062 C 
BRANCH   4   5
HETATM    5  C7  UNL     1      -2.316   0.709  -1.354  1.00  0.00    -0.011 A 
HETATM    6  C6  UNL     1      -2.134   0.007  -0.160  1.00  0.00     0.015 A 
HETATM    7  C5  UNL     1      -2.758   0.419   0.996  1.00  0.00     0.052 A 
HETATM    8  C4  UNL     1      -3.570   1.551   0.924  1.00  0.00     0.144 A 
HETATM    9  N15 UNL     1      -3.736   2.215  -0.231  1.00  0.00    -0.229 N 
HETATM   10  C19 UNL     1      -3.127   1.813  -1.359  1.00  0.00     0.128 A 
BRANCH   8  11
HETATM   11  N3  UNL     1      -4.243   2.035   2.073  1.00  0.00    -0.269 N 
ATOM     12  H3  UNL     1      -3.711   2.616   2.721  1.00  0.00     0.190 HD
BRANCH  11  13
HETATM   13  N2  UNL     1      -5.437   1.804   2.353  1.00  0.00    -0.238 N 
ATOM     14  H2  UNL     1      -5.831   2.199   3.207  1.00  0.00     0.208 HD
BRANCH  13  15
HETATM   15  N1  UNL     1      -6.236   1.033   1.544  1.00  0.00    -0.253 N 
HETATM   16  C3  UNL     1      -6.362  -0.356   1.692  1.00  0.00     0.265 C 
HETATM   17  O2  UNL     1      -5.735  -0.954   2.587  1.00  0.00    -0.269 OA
ATOM     18  H1  UNL     1      -6.762   1.492   0.801  1.00  0.00     0.191 HD
BRANCH  16  19
HETATM   19  C2  UNL     1      -7.238  -1.169   0.800  1.00  0.00     0.207 C 
HETATM   20  C1  UNL     1      -6.410  -2.165   0.010  1.00  0.00     0.049 C 
BRANCH  19  21
HETATM   21  O1  UNL     1      -7.841  -0.296  -0.101  1.00  0.00    -0.386 OA
ATOM     22  H1  UNL     1      -8.359   0.328   0.394  1.00  0.00     0.210 HD
ENDBRANCH  19  21
ENDBRANCH  16  19
ENDBRANCH  13  15
ENDBRANCH  11  13
ENDBRANCH   8  11
BRANCH   9  23
HETATM   23  N16 UNL     1      -4.548   3.338  -0.271  1.00  0.00    -0.335 N 
ATOM     24 2H16 UNL     1      -5.010   3.643   0.585  1.00  0.00     0.177 HD
ATOM     25 1H16 UNL     1      -4.674   3.842  -1.149  1.00  0.00     0.177 HD
ENDBRANCH   9  23
BRANCH  10  26
HETATM   26  N14 UNL     1      -3.283   2.443  -2.471  1.00  0.00    -0.384 N 
ATOM     27 2H14 UNL     1      -2.821   2.138  -3.327  1.00  0.00     0.157 HD
ATOM     28 1H14 UNL     1      -3.887   3.265  -2.475  1.00  0.00     0.157 HD
ENDBRANCH  10  26
ENDBRANCH   4   5
ENDBRANCH   3   4
ENDBRANCH   1   3
BRANCH   1  29
HETATM   29  C10 UNL     1       1.404   0.195  -1.734  1.00  0.00     0.707 A 
HETATM   30  N5  UNL     1       2.279   0.268  -0.676  1.00  0.00    -0.018 N 
HETATM   31  C11 UNL     1       3.235  -0.648  -0.464  1.00  0.00     0.746 A 
ATOM     32  H5  UNL     1       2.198   1.050  -0.026  1.00  0.00     0.203 HD
HETATM   33  N11 UNL     1       3.317  -1.665  -1.339  1.00  0.00    -0.019 N 
HETATM   34  C18 UNL     1       2.486  -1.783  -2.391  1.00  0.00     0.705 A 
ATOM     35  H11 UNL     1       4.037  -2.374  -1.200  1.00  0.00     0.203 HD
HETATM   36  N13 UNL     1       1.525  -0.838  -2.580  1.00  0.00    -0.022 N 
ATOM     37  H13 UNL     1       0.890  -0.917  -3.374  1.00  0.00     0.203 HD
BRANCH  31  38
HETATM   38  N6  UNL     1       4.132  -0.554   0.641  1.00  0.00    -0.002 N 
HETATM   39  N7  UNL     1       3.828  -0.734   1.933  1.00  0.00     0.018 NA
HETATM   40  N8  UNL     1       4.911  -0.568   2.674  1.00  0.00    -0.264 N 
HETATM   41  C12 UNL     1       5.944  -0.275   1.866  1.00  0.00     0.162 A 
ATOM     42  H8  UNL     1       4.955  -0.649   3.690  1.00  0.00     0.186 HD
HETATM   43  N10 UNL     1       5.425  -0.276   0.631  1.00  0.00    -0.248 N 
ATOM     44  H10 UNL     1       5.962  -0.085  -0.215  1.00  0.00     0.191 HD
BRANCH  41  45
HETATM   45  C13 UNL     1       7.314  -0.018   2.294  1.00  0.00     0.079 A 
HETATM   46  C14 UNL     1       8.320   0.278   1.398  1.00  0.00     0.033 A 
HETATM   47  C15 UNL     1       9.618   0.522   1.798  1.00  0.00     0.004 A 
HETATM   48  C16 UNL     1       9.941   0.473   3.144  1.00  0.00     0.017 A 
HETATM   49  C17 UNL     1       8.916   0.175   4.020  1.00  0.00     0.088 A 
HETATM   50  N9  UNL     1       7.647  -0.061   3.595  1.00  0.00    -0.363 N 
ATOM     51  H9  UNL     1       6.926  -0.277   4.284  1.00  0.00     0.165 HD
ENDBRANCH  41  45
ENDBRANCH  31  38
BRANCH  34  52
HETATM   52  N12 UNL     1       2.547  -2.751  -3.242  1.00  0.00    -0.234 N 
ATOM     53 2H12 UNL     1       3.267  -3.459  -3.100  1.00  0.00     0.174 HD
ATOM     54 1H12 UNL     1       1.917  -2.840  -4.039  1.00  0.00     0.174 HD
ENDBRANCH  34  52
ENDBRANCH   1  29
TORSDOF 14
