REMARK  3 active torsions:
REMARK  status: ('A' for Active; 'I' for Inactive)
REMARK    1  A    between atoms: N1_1  and  C1_4 
REMARK    2  A    between atoms: C2_7  and  S1_8 
REMARK    3  A    between atoms: S1_8  and  N3_9 
ROOT
HETATM    1  C1  UNL     1       2.144   0.414   0.053  1.00  0.00     0.160 A 
HETATM    2  N2  UNL     1       0.875   0.570   0.374  1.00  0.00    -0.310 N 
ATOM      3  H2  UNL     1       0.538   1.470   0.714  1.00  0.00     0.170 HD
HETATM    4  C2  UNL     1       0.055  -0.436   0.253  1.00  0.00     0.232 A 
HETATM    5  N4  UNL     1       0.554  -1.593  -0.200  1.00  0.00    -0.299 N 
ATOM      6  H4  UNL     1       0.073  -2.478  -0.359  1.00  0.00     0.176 HD
HETATM    7  S2  UNL     1       2.175  -1.217  -0.440  1.00  0.00     0.024 SA
ENDROOT
BRANCH   4   8
HETATM    8  S1  UNL     1      -1.674  -0.224   0.691  1.00  0.00     0.289 S 
HETATM    9  O1  UNL     1      -1.753   0.201   2.146  1.00  0.00    -0.198 OA
HETATM   10  O2  UNL     1      -2.356  -1.531   0.572  1.00  0.00    -0.198 OA
BRANCH   8  11
HETATM   11  N3  UNL     1      -2.388   0.998  -0.274  1.00  0.00    -0.322 N 
ATOM     12  H32 UNL     1      -1.888   1.522  -0.992  1.00  0.00     0.169 HD
ATOM     13  H31 UNL     1      -3.370   1.118  -0.025  1.00  0.00     0.169 HD
ENDBRANCH   8  11
ENDBRANCH   4   8
BRANCH   1  14
HETATM   14  N1  UNL     1       3.149   1.238   0.080  1.00  0.00    -0.378 N 
ATOM     15  H12 UNL     1       3.130   2.214   0.375  1.00  0.00     0.158 HD
ATOM     16  H11 UNL     1       4.131   1.117  -0.168  1.00  0.00     0.158 HD
ENDBRANCH   1  14
TORSDOF 3
