REMARK  2 active torsions:
REMARK  status: ('A' for Active; 'I' for Inactive)
REMARK    1  A    between atoms: N1_1  and  C1_4 
REMARK    2  A    between atoms: C3_10  and  N4_11 
ROOT
HETATM    1  C1  UNL     1      -3.255   0.543   0.458  1.00  0.00     0.691 A 
HETATM    2  N2  UNL     1      -3.760  -0.704   0.377  1.00  0.00    -0.187 N 
ATOM      3  H2  UNL     1      -4.762  -0.860   0.484  1.00  0.00     0.185 HD
HETATM    4  C2  UNL     1      -2.927  -1.749   0.152  1.00  0.00     0.215 A 
HETATM    5  N3  UNL     1      -1.601  -1.532   0.011  1.00  0.00    -0.187 N 
ATOM      6  H3  UNL     1      -0.982  -2.325  -0.159  1.00  0.00     0.185 HD
HETATM    7  C3  UNL     1      -1.075  -0.293   0.089  1.00  0.00     0.695 A 
HETATM    8  N6  UNL     1      -1.928   0.723   0.313  1.00  0.00    -0.022 N 
ATOM      9  H6  UNL     1      -1.554   1.670   0.376  1.00  0.00     0.203 HD
ENDROOT
BRANCH   7  10
HETATM   10  N4  UNL     1       0.315  -0.071  -0.060  1.00  0.00    -0.214 N 
HETATM   11  C4  UNL     1       1.154  -0.109   1.085  1.00  0.00     0.160 C 
HETATM   12  C5  UNL     1       2.593   0.130   0.859  1.00  0.00     0.134 C 
HETATM   13  N5  UNL     1       3.041   0.140  -0.490  1.00  0.00    -0.418 N 
HETATM   14  C6  UNL     1       2.199  -0.517  -1.437  1.00  0.00     0.134 C 
ATOM     15  H5  UNL     1       3.914   0.591  -0.765  1.00  0.00     0.153 HD
HETATM   16  C7  UNL     1       0.838   0.188  -1.378  1.00  0.00     0.160 C 
ENDBRANCH   7  10
BRANCH   1  17
HETATM   17  N1  UNL     1      -4.067   1.535   0.675  1.00  0.00    -0.234 N 
ATOM     18  H12 UNL     1      -5.072   1.399   0.785  1.00  0.00     0.174 HD
ATOM     19  H11 UNL     1      -3.685   2.479   0.736  1.00  0.00     0.174 HD
ENDBRANCH   1  17
TORSDOF 2
