REMARK  1 active torsions:
REMARK  status: ('A' for Active; 'I' for Inactive)
REMARK    1  A    between atoms: C1_2  and  C2_4 
ROOT
HETATM    1  C2  UNL     1      -1.362  -0.470   0.152  1.00  0.00     0.188 A 
HETATM    2  N2  UNL     1      -0.892  -1.329   1.087  1.00  0.00    -0.280 N 
ATOM      3  H2  UNL     1      -1.548  -1.923   1.594  1.00  0.00     0.189 HD
HETATM    4  N3  UNL     1       0.398  -1.413   1.355  1.00  0.00    -0.281 N 
ATOM      5  H3  UNL     1       0.726  -2.069   2.064  1.00  0.00     0.188 HD
HETATM    6  C3  UNL     1       1.283  -0.641   0.701  1.00  0.00     0.169 A 
HETATM    7  N4  UNL     1       2.617  -0.476   0.724  1.00  0.00    -0.290 N 
ATOM      8  H4  UNL     1       3.267  -0.981   1.327  1.00  0.00     0.172 HD
HETATM    9  C4  UNL     1       2.957   0.468  -0.182  1.00  0.00     0.327 A 
HETATM   10  O2  UNL     1       4.142   0.876  -0.426  1.00  0.00    -0.247 OA
HETATM   11  N5  UNL     1       1.862   0.924  -0.798  1.00  0.00    -0.291 N 
ATOM     12  H5  UNL     1       1.818   1.638  -1.525  1.00  0.00     0.172 HD
HETATM   13  C5  UNL     1       0.814   0.237  -0.253  1.00  0.00     0.157 A 
HETATM   14  N6  UNL     1      -0.494   0.309  -0.512  1.00  0.00    -0.320 N 
ATOM     15  H6  UNL     1      -0.836   0.960  -1.219  1.00  0.00     0.169 HD
ENDROOT
BRANCH   1  16
HETATM   16  C1  UNL     1      -2.773  -0.363  -0.157  1.00  0.00     0.300 C 
HETATM   17  N1  UNL     1      -3.229   0.539  -1.133  1.00  0.00    -0.054 NA
HETATM   18  O1  UNL     1      -3.581  -1.083   0.456  1.00  0.00    -0.268 OA
ENDBRANCH   1  16
TORSDOF 1
