REMARK  7 active torsions:
REMARK  status: ('A' for Active; 'I' for Inactive)
REMARK    1  A    between atoms: N1_2  and  C2_4 
REMARK    2  A    between atoms: C2_4  and  C3_5 
REMARK    3  A    between atoms: C3_5  and  N2_6 
REMARK    4  A    between atoms: N2_6  and  C4_8 
REMARK    5  A    between atoms: C4_8  and  N3_10 
REMARK    6  A    between atoms: N3_10  and  N4_12 
REMARK    7  A    between atoms: C5_14  and  C6_15 
ROOT
HETATM    1  N3  UNL     1      -0.549  -0.231  -0.765  1.00  0.00    -0.277 N 
ATOM      2  H3  UNL     1      -1.346  -0.707  -0.342  1.00  0.00     0.189 HD
ENDROOT
BRANCH   1   3
HETATM    3  C4  UNL     1      -0.735   0.904  -1.567  1.00  0.00     0.186 C 
HETATM    4  S1  UNL     1       0.557   1.634  -2.240  1.00  0.00    -0.040 SA
BRANCH   3   5
HETATM    5  N2  UNL     1      -2.016   1.430  -1.809  1.00  0.00    -0.364 N 
ATOM      6  H2  UNL     1      -2.111   2.245  -2.415  1.00  0.00     0.162 HD
BRANCH   5   7
HETATM    7  C3  UNL     1      -3.186   0.855  -1.230  1.00  0.00     0.141 C 
BRANCH   7   8
HETATM    8  C2  UNL     1      -3.258   1.140   0.233  1.00  0.00     0.133 C 
BRANCH   8   9
HETATM    9  N1  UNL     1      -4.423   0.575   0.882  1.00  0.00    -0.424 N 
HETATM   10  C1  UNL     1      -4.436  -0.850   0.956  1.00  0.00     0.139 C 
ATOM     11  H1  UNL     1      -5.176   1.151   1.257  1.00  0.00     0.152 HD
ENDBRANCH   8   9
ENDBRANCH   7   8
ENDBRANCH   5   7
ENDBRANCH   3   5
ENDBRANCH   1   3
BRANCH   1  12
HETATM   12  N4  UNL     1       0.766  -0.701  -0.556  1.00  0.00    -0.309 N 
HETATM   13  C5  UNL     1       1.625   0.103   0.007  1.00  0.00     0.118 C 
ATOM     14  H4  UNL     1       1.037  -1.643  -0.838  1.00  0.00     0.186 HD
BRANCH  13  15
HETATM   15  C6  UNL     1       2.991  -0.339   0.242  1.00  0.00    -0.019 A 
HETATM   16  C7  UNL     1       3.373  -1.608  -0.117  1.00  0.00     0.013 A 
HETATM   17  C8  UNL     1       4.689  -2.012   0.116  1.00  0.00     0.001 A 
HETATM   18  C9  UNL     1       5.584  -1.146   0.697  1.00  0.00     0.000 A 
HETATM   19  C10 UNL     1       5.183   0.124   1.050  1.00  0.00     0.001 A 
HETATM   20  C11 UNL     1       3.880   0.533   0.823  1.00  0.00     0.013 A 
ENDBRANCH  13  15
ENDBRANCH   1  12
TORSDOF 7
