REMARK  12 active torsions:
REMARK  status: ('A' for Active; 'I' for Inactive)
REMARK    1  A    between atoms: C2_2  and  C3_4 
REMARK    2  A    between atoms: C3_4  and  O2_5 
REMARK    3  A    between atoms: C3_4  and  C4_7 
REMARK    4  A    between atoms: C4_7  and  N1_8 
REMARK    5  A    between atoms: N1_8  and  C5_11 
REMARK    6  A    between atoms: C5_11  and  O3_12 
REMARK    7  A    between atoms: C5_11  and  C6_14 
REMARK    8  A    between atoms: C6_14  and  C7_15 
REMARK    9  A    between atoms: C6_14  and  N2_19 
REMARK   10  A    between atoms: C7_15  and  C8_16 
REMARK       I    between atoms: N2_19  and  C11_21 
REMARK   11  A    between atoms: C11_21  and  O5_23 
REMARK   12  A    between atoms: O5_23  and  C12_24 
ROOT
HETATM    1  N2  UNL     1       1.355  -0.424   1.409  1.00  0.00    -0.328 N 
ATOM      2  H2  UNL     1       1.320  -0.231   2.410  1.00  0.00     0.165 HD
HETATM    3  C11 UNL     1       0.143  -0.787   0.797  1.00  0.00     0.361 C 
HETATM    4  O4  UNL     1       0.122  -1.040  -0.422  1.00  0.00    -0.238 OA
ENDROOT
BRANCH   1   5
HETATM    5  C6  UNL     1       2.635  -0.296   0.777  1.00  0.00     0.143 C 
BRANCH   5   6
HETATM    6  C5  UNL     1       3.125   1.151   0.826  1.00  0.00     0.341 C 
BRANCH   6   7
HETATM    7  N1  UNL     1       4.445   1.307   0.297  1.00  0.00    -0.044 N 
ATOM      8  H12 UNL     1       5.116   0.778   0.854  1.00  0.00     0.280 HD
ATOM      9  H11 UNL     1       4.786   2.253   0.465  1.00  0.00     0.280 HD
BRANCH   7  10
HETATM   10  C4  UNL     1       4.570   0.969  -1.094  1.00  0.00     0.274 C 
BRANCH  10  11
HETATM   11  C3  UNL     1       6.025   1.204  -1.521  1.00  0.00     0.212 C 
BRANCH  11  12
HETATM   12  C2  UNL     1       6.188   0.893  -2.963  1.00  0.00     0.153 C 
HETATM   13  C1  UNL     1       6.604   1.932  -3.916  1.00  0.00     0.093 C 
HETATM   14  O1  UNL     1       5.981  -0.236  -3.388  1.00  0.00    -0.296 OA
ENDBRANCH  11  12
BRANCH  11  15
HETATM   15  O2  UNL     1       6.332   2.546  -1.316  1.00  0.00    -0.386 OA
ATOM     16  H2  UNL     1       6.228   2.745  -0.393  1.00  0.00     0.210 HD
ENDBRANCH  11  15
ENDBRANCH  10  11
ENDBRANCH   7  10
ENDBRANCH   6   7
BRANCH   6  17
HETATM   17  O3  UNL     1       2.246   1.992   0.181  1.00  0.00    -0.368 OA
ATOM     18  H3  UNL     1       1.369   1.888   0.532  1.00  0.00     0.212 HD
ENDBRANCH   6  17
ENDBRANCH   5   6
BRANCH   5  19
HETATM   19  C7  UNL     1       3.609  -1.216   1.445  1.00  0.00     0.033 C 
BRANCH  19  20
HETATM   20  C8  UNL     1       3.206  -2.653   1.445  1.00  0.00    -0.021 C 
HETATM   21  C9  UNL     1       3.049  -3.189   0.050  1.00  0.00     0.009 C 
HETATM   22  C10 UNL     1       4.268  -3.494   2.136  1.00  0.00     0.009 C 
ENDBRANCH  19  20
ENDBRANCH   5  19
ENDBRANCH   1   5
BRANCH   3  23
HETATM   23  O5  UNL     1      -1.061  -0.890   1.452  1.00  0.00    -0.296 OA
BRANCH  23  24
HETATM   24  C12 UNL     1      -2.252  -1.244   0.834  1.00  0.00     0.166 C 
HETATM   25  C13 UNL     1      -2.812  -2.557   1.347  1.00  0.00     0.204 C 
HETATM   26  O6  UNL     1      -4.143  -2.294   1.713  1.00  0.00    -0.358 OA
HETATM   27  C14 UNL     1      -4.557  -1.294   0.827  1.00  0.00     0.267 C 
HETATM   28  O7  UNL     1      -5.704  -0.673   1.287  1.00  0.00    -0.350 OA
HETATM   29  C24 UNL     1      -3.389  -0.337   0.969  1.00  0.00     0.077 C 
HETATM   30  C15 UNL     1      -5.995   0.479   0.579  1.00  0.00     0.061 C 
HETATM   31  C16 UNL     1      -6.111   1.608   1.567  1.00  0.00     0.046 C 
HETATM   32  C17 UNL     1      -7.368   0.274  -0.047  1.00  0.00     0.046 C 
HETATM   33  C18 UNL     1      -5.029   0.671  -0.493  1.00  0.00     0.025 C 
HETATM   34  C19 UNL     1      -5.019   1.953  -1.257  1.00  0.00     0.013 C 
HETATM   35  C23 UNL     1      -3.574   0.749   0.015  1.00  0.00     0.008 C 
HETATM   36  C20 UNL     1      -3.808   1.670  -2.166  1.00  0.00    -0.009 A 
HETATM   37  C21 UNL     1      -2.461   2.107  -1.800  1.00  0.00     0.010 A 
HETATM   38  C22 UNL     1      -2.895   0.744  -1.291  1.00  0.00    -0.005 A 
ENDBRANCH  23  24
ENDBRANCH   3  23
TORSDOF 12
