REMARK  12 active torsions:
REMARK  status: ('A' for Active; 'I' for Inactive)
REMARK    1  A    between atoms: C4_4  and  C5_5 
REMARK    2  A    between atoms: C5_5  and  O1_6 
REMARK    3  A    between atoms: O1_6  and  C6_7 
REMARK    4  A    between atoms: C6_7  and  C7_8 
REMARK    5  A    between atoms: C7_8  and  C8_9 
REMARK    6  A    between atoms: N1_10  and  C9_12 
REMARK    7  A    between atoms: C9_12  and  C10_13 
REMARK    8  A    between atoms: C9_12  and  C13_16 
REMARK    9  A    between atoms: C18_21  and  N2_22 
REMARK   10  A    between atoms: C24_29  and  O3_30 
REMARK   11  A    between atoms: C25_32  and  O4_33 
REMARK   12  A    between atoms: C26_35  and  O5_36 
ROOT
HETATM    1  C13 UNL     1      -1.872  -0.920  -0.678  1.00  0.00     0.033 A 
HETATM    2  C14 UNL     1      -2.028  -0.700  -2.131  1.00  0.00     0.018 A 
HETATM    3  C15 UNL     1      -2.443   0.707  -2.411  1.00  0.00     0.002 A 
HETATM    4  C16 UNL     1      -2.473   1.406  -1.100  1.00  0.00     0.008 A 
HETATM    5  C17 UNL     1      -2.111   0.412  -0.023  1.00  0.00     0.028 A 
HETATM    6  C18 UNL     1      -2.969   0.459   1.181  1.00  0.00     0.129 C 
HETATM    7  C24 UNL     1      -3.900  -0.690   1.377  1.00  0.00     0.173 C 
HETATM    8  C25 UNL     1      -4.224  -1.434   0.125  1.00  0.00     0.178 C 
HETATM    9  C26 UNL     1      -2.867  -2.002  -0.290  1.00  0.00     0.164 C 
ENDROOT
BRANCH   1  10
HETATM   10  C9  UNL     1      -0.523  -1.459  -0.238  1.00  0.00     0.001 C 
BRANCH  10  11
HETATM   11  N1  UNL     1       0.611  -0.697  -0.501  1.00  0.00    -0.375 N 
HETATM   12  C8  UNL     1       1.225  -0.469  -1.693  1.00  0.00     0.062 C 
ATOM     13  H1  UNL     1       1.040  -0.249   0.309  1.00  0.00     0.164 HD
BRANCH  12  14
HETATM   14  C7  UNL     1       2.649   0.022  -1.518  1.00  0.00     0.071 C 
BRANCH  14  15
HETATM   15  C6  UNL     1       2.840   1.252  -0.733  1.00  0.00     0.173 C 
BRANCH  15  16
HETATM   16  O1  UNL     1       4.224   1.556  -0.707  1.00  0.00    -0.387 OA
BRANCH  16  17
HETATM   17  C5  UNL     1       4.995   0.538  -0.196  1.00  0.00     0.195 C 
BRANCH  17  18
HETATM   18  C4  UNL     1       6.439   0.901  -0.112  1.00  0.00     0.001 C 
HETATM   19  C2  UNL     1       7.158   0.928   0.989  1.00  0.00    -0.089 C 
HETATM   20  C1  UNL     1       6.657   0.603   2.352  1.00  0.00     0.042 C 
HETATM   21  C3  UNL     1       8.598   1.304   0.887  1.00  0.00     0.042 C 
ENDBRANCH  17  18
ENDBRANCH  16  17
ENDBRANCH  15  16
ENDBRANCH  14  15
ENDBRANCH  12  14
ENDBRANCH  10  11
BRANCH  10  22
HETATM   22  C10 UNL     1      -0.340  -2.933  -0.453  1.00  0.00     0.024 C 
HETATM   23  C11 UNL     1       0.034  -3.452  -1.774  1.00  0.00     0.016 C 
HETATM   24  C12 UNL     1       0.905  -3.255   0.435  1.00  0.00     0.016 C 
ENDBRANCH  10  22
ENDBRANCH   1  10
BRANCH   9  25
HETATM   25  O5  UNL     1      -3.114  -2.899  -1.311  1.00  0.00    -0.392 OA
ATOM     26  H5  UNL     1      -3.736  -3.575  -1.069  1.00  0.00     0.210 HD
ENDBRANCH   9  25
BRANCH   6  27
HETATM   27  N2  UNL     1      -3.553   1.772   1.341  1.00  0.00    -0.317 N 
HETATM   28  C19 UNL     1      -4.822   2.102   1.154  1.00  0.00     0.095 A 
HETATM   29  C20 UNL     1      -5.298   3.378   1.349  1.00  0.00     0.017 A 
HETATM   30  C21 UNL     1      -4.459   4.410   1.759  1.00  0.00     0.007 A 
HETATM   31  C22 UNL     1      -3.137   4.068   1.953  1.00  0.00     0.074 A 
HETATM   32  C23 UNL     1      -2.721   2.790   1.746  1.00  0.00     0.247 A 
HETATM   33  O2  UNL     1      -1.506   2.511   1.933  1.00  0.00    -0.268 OA
ENDBRANCH   6  27
BRANCH   8  34
HETATM   34  O4  UNL     1      -4.905  -0.842  -0.857  1.00  0.00    -0.390 OA
ATOM     35  H4  UNL     1      -5.111  -1.316  -1.654  1.00  0.00     0.210 HD
ENDBRANCH   8  34
BRANCH   7  36
HETATM   36  O3  UNL     1      -4.972  -0.465   2.226  1.00  0.00    -0.391 OA
ATOM     37  H3  UNL     1      -5.565  -1.197   2.351  1.00  0.00     0.210 HD
ENDBRANCH   7  36
TORSDOF 12
