REMARK  7 active torsions:
REMARK  status: ('A' for Active; 'I' for Inactive)
REMARK    1  A    between atoms: C2_2  and  O1_3 
REMARK    2  A    between atoms: O1_3  and  C3_4 
REMARK       I    between atoms: C3_4  and  N1_6 
REMARK    3  A    between atoms: N1_6  and  N2_8 
REMARK    4  A    between atoms: N2_8  and  C4_10 
REMARK    5  A    between atoms: C4_10  and  N3_12 
REMARK    6  A    between atoms: N3_12  and  N4_14 
REMARK       I    between atoms: N4_14  and  C5_16 
REMARK    7  A    between atoms: C5_16  and  C6_18 
ROOT
HETATM    1  C4  UNL     1      -1.064  -1.522   0.010  1.00  0.00     0.205 C 
HETATM    2  S1  UNL     1      -0.023  -2.810   0.118  1.00  0.00    -0.038 SA
ENDROOT
BRANCH   1   3
HETATM    3  N2  UNL     1      -0.617  -0.232   0.384  1.00  0.00    -0.271 N 
ATOM      4  H2  UNL     1      -1.239   0.574   0.318  1.00  0.00     0.189 HD
BRANCH   3   5
HETATM    5  N1  UNL     1       0.674  -0.088   0.839  1.00  0.00    -0.243 N 
HETATM    6  C3  UNL     1       1.704   0.251  -0.081  1.00  0.00     0.379 C 
HETATM    7  O2  UNL     1       1.431   0.422  -1.297  1.00  0.00    -0.237 OA
ATOM      8  H1  UNL     1       0.890  -0.223   1.827  1.00  0.00     0.192 HD
BRANCH   6   9
HETATM    9  O1  UNL     1       3.017   0.402   0.316  1.00  0.00    -0.303 OA
BRANCH   9  10
HETATM   10  C2  UNL     1       4.074   0.739  -0.540  1.00  0.00     0.176 C 
HETATM   11  C1  UNL     1       5.395   0.797   0.208  1.00  0.00     0.034 C 
ENDBRANCH   9  10
ENDBRANCH   6   9
ENDBRANCH   3   5
ENDBRANCH   1   3
BRANCH   1  12
HETATM   12  N3  UNL     1      -2.367  -1.800  -0.458  1.00  0.00    -0.272 N 
ATOM     13  H3  UNL     1      -2.617  -2.753  -0.722  1.00  0.00     0.189 HD
BRANCH  12  14
HETATM   14  N4  UNL     1      -3.307  -0.790  -0.562  1.00  0.00    -0.263 N 
HETATM   15  C5  UNL     1      -3.847  -0.190   0.593  1.00  0.00     0.274 C 
HETATM   16  O3  UNL     1      -3.441  -0.591   1.725  1.00  0.00    -0.265 OA
ATOM     17  H4  UNL     1      -3.612  -0.477  -1.484  1.00  0.00     0.190 HD
BRANCH  15  18
HETATM   18  C6  UNL     1      -4.840   0.852   0.557  1.00  0.00     0.157 C 
HETATM   19  N5  UNL     1      -5.305   1.293  -0.531  1.00  0.00    -0.404 N 
ATOM     20  H52 UNL     1      -4.957   0.889  -1.400  1.00  0.00     0.155 HD
ATOM     21  H51 UNL     1      -6.008   2.031  -0.557  1.00  0.00     0.155 HD
ENDBRANCH  15  18
ENDBRANCH  12  14
ENDBRANCH   1  12
TORSDOF 7
