REMARK  14 active torsions:
REMARK  status: ('A' for Active; 'I' for Inactive)
REMARK    1  A    between atoms: C2_2  and  C4_4 
REMARK    2  A    between atoms: C4_4  and  C5_5 
REMARK    3  A    between atoms: C7_10  and  C8_11 
REMARK    4  A    between atoms: C8_11  and  C9_12 
REMARK    5  A    between atoms: C13_19  and  C14_20 
REMARK    6  A    between atoms: C14_20  and  C15_21 
REMARK    7  A    between atoms: N4_28  and  C19_29 
REMARK    8  A    between atoms: C19_29  and  C20_30 
REMARK    9  A    between atoms: C20_30  and  C21_31 
REMARK   10  A    between atoms: C23_36  and  C24_37 
REMARK   11  A    between atoms: C24_37  and  C25_38 
REMARK   12  A    between atoms: C29_45  and  C30_46 
REMARK   13  A    between atoms: C30_46  and  C31_47 
REMARK   14  A    between atoms: C34_52  and  O7_53 
ROOT
HETATM    1  C5  UNL     1      -2.508  -0.234  -0.798  1.00  0.00     0.159 C 
HETATM    2  N1  UNL     1      -3.046   1.072  -1.107  1.00  0.00    -0.347 N 
ATOM      3  H1  UNL     1      -3.852   1.102  -1.732  1.00  0.00     0.163 HD
HETATM    4  C6  UNL     1      -2.564   2.309  -0.628  1.00  0.00     0.241 C 
HETATM    5  O1  UNL     1      -2.736   3.353  -1.303  1.00  0.00    -0.271 OA
HETATM    6  C7  UNL     1      -1.828   2.477   0.688  1.00  0.00     0.177 C 
HETATM    7  N2  UNL     1      -1.003   3.658   0.537  1.00  0.00    -0.346 N 
ATOM      8  H2  UNL     1      -1.477   4.552   0.662  1.00  0.00     0.163 HD
HETATM    9  C12 UNL     1       0.357   3.725   0.243  1.00  0.00     0.241 C 
HETATM   10  O2  UNL     1       1.149   4.374   0.967  1.00  0.00    -0.271 OA
HETATM   11  C13 UNL     1       1.043   3.058  -0.939  1.00  0.00     0.178 C 
HETATM   12  N3  UNL     1       2.296   2.487  -0.522  1.00  0.00    -0.329 N 
ATOM     13  H3  UNL     1       3.048   2.510  -1.211  1.00  0.00     0.165 HD
HETATM   14  C18 UNL     1       2.614   1.901   0.718  1.00  0.00     0.325 C 
HETATM   15  O3  UNL     1       3.624   2.415   1.349  1.00  0.00    -0.247 OA
HETATM   16  N4  UNL     1       1.987   0.816   1.384  1.00  0.00    -0.268 N 
HETATM   17  C22 UNL     1       1.699  -0.433   0.750  1.00  0.00     0.250 C 
HETATM   18  O5  UNL     1       0.652  -1.013   1.142  1.00  0.00    -0.271 OA
HETATM   19  C23 UNL     1       2.503  -1.073  -0.293  1.00  0.00     0.178 C 
HETATM   20  N6  UNL     1       1.825  -1.056  -1.553  1.00  0.00    -0.343 N 
ATOM     21  H6  UNL     1       2.464  -0.753  -2.288  1.00  0.00     0.163 HD
HETATM   22  C28 UNL     1       0.597  -1.316  -2.083  1.00  0.00     0.264 C 
HETATM   23  O6  UNL     1       0.007  -0.307  -2.652  1.00  0.00    -0.266 OA
HETATM   24  C29 UNL     1      -0.286  -2.506  -2.193  1.00  0.00     0.079 C 
HETATM   25  N7  UNL     1      -1.673  -2.138  -2.388  1.00  0.00    -0.338 N 
ATOM     26  H7  UNL     1      -2.236  -2.856  -2.844  1.00  0.00     0.167 HD
HETATM   27  C34 UNL     1      -2.371  -0.990  -2.068  1.00  0.00     0.139 C 
ENDROOT
BRANCH  16  28
HETATM   28  C19 UNL     1       1.576   1.000   2.754  1.00  0.00     0.146 C 
BRANCH  28  29
HETATM   29  C20 UNL     1       2.582   0.799   3.808  1.00  0.00     0.120 C 
BRANCH  29  30
HETATM   30  C21 UNL     1       3.222  -0.475   4.016  1.00  0.00     0.232 C 
HETATM   31  N5  UNL     1       4.415  -0.617   4.802  1.00  0.00    -0.062 NA
HETATM   32  O4  UNL     1       2.791  -1.540   3.537  1.00  0.00    -0.277 OA
ENDBRANCH  29  30
ENDBRANCH  28  29
ENDBRANCH  16  28
BRANCH  19  33
HETATM   33  C24 UNL     1       3.132  -2.384   0.080  1.00  0.00     0.038 C 
BRANCH  33  34
HETATM   34  C25 UNL     1       3.931  -2.935  -1.058  1.00  0.00    -0.020 C 
HETATM   35  C26 UNL     1       5.052  -2.061  -1.517  1.00  0.00     0.009 C 
HETATM   36  C27 UNL     1       4.495  -4.300  -0.665  1.00  0.00     0.009 C 
ENDBRANCH  33  34
ENDBRANCH  19  33
BRANCH  11  37
HETATM   37  C14 UNL     1       1.152   4.138  -1.949  1.00  0.00     0.038 C 
BRANCH  37  38
HETATM   38  C15 UNL     1       1.760   3.891  -3.264  1.00  0.00    -0.020 C 
HETATM   39  C16 UNL     1       1.088   2.810  -4.081  1.00  0.00     0.009 C 
HETATM   40  C17 UNL     1       3.235   3.797  -3.375  1.00  0.00     0.009 C 
ENDBRANCH  37  38
ENDBRANCH  11  37
BRANCH  24  41
HETATM   41  C30 UNL     1      -0.015  -3.631  -1.315  1.00  0.00     0.067 C 
BRANCH  41  42
HETATM   42  C31 UNL     1      -0.879  -4.844  -1.454  1.00  0.00    -0.017 C 
HETATM   43  C32 UNL     1      -2.324  -4.738  -1.210  1.00  0.00     0.010 C 
HETATM   44  C33 UNL     1      -0.318  -5.911  -0.473  1.00  0.00     0.010 C 
ENDBRANCH  41  42
ENDBRANCH  24  41
BRANCH   6  45
HETATM   45  C8  UNL     1      -2.869   2.744   1.746  1.00  0.00     0.038 C 
BRANCH  45  46
HETATM   46  C9  UNL     1      -2.414   2.920   3.138  1.00  0.00    -0.020 C 
HETATM   47  C10 UNL     1      -1.483   4.056   3.420  1.00  0.00     0.009 C 
HETATM   48  C11 UNL     1      -3.678   3.200   3.974  1.00  0.00     0.009 C 
ENDBRANCH  45  46
ENDBRANCH   6  45
BRANCH  27  49
HETATM   49  O7  UNL     1      -3.038  -0.468  -3.062  1.00  0.00    -0.348 OA
ATOM     50  H7  UNL     1      -2.950  -0.952  -3.875  1.00  0.00     0.219 HD
ENDBRANCH  27  49
BRANCH   1  51
HETATM   51  C4  UNL     1      -3.290  -0.925   0.234  1.00  0.00     0.037 C 
BRANCH  51  52
HETATM   52  C2  UNL     1      -4.696  -1.291   0.044  1.00  0.00    -0.020 C 
HETATM   53  C1  UNL     1      -5.598  -0.123  -0.186  1.00  0.00     0.009 C 
HETATM   54  C3  UNL     1      -5.230  -2.016   1.307  1.00  0.00     0.009 C 
ENDBRANCH  51  52
ENDBRANCH   1  51
TORSDOF 14
