REMARK  7 active torsions:
REMARK  status: ('A' for Active; 'I' for Inactive)
REMARK    1  A    between atoms: C2_2  and  C3_3 
REMARK    2  A    between atoms: C3_3  and  N1_4 
REMARK    3  A    between atoms: N1_4  and  C4_6 
REMARK    4  A    between atoms: C4_6  and  N2_8 
REMARK    5  A    between atoms: N2_8  and  N3_10 
REMARK    6  A    between atoms: C5_12  and  C6_13 
REMARK    7  A    between atoms: C6_13  and  N4_15 
ROOT
HETATM    1  N2  UNL     1      -0.689   1.354  -0.104  1.00  0.00    -0.277 N 
ATOM      2  H2  UNL     1      -0.418   2.337  -0.078  1.00  0.00     0.189 HD
ENDROOT
BRANCH   1   3
HETATM    3  C4  UNL     1      -2.015   0.965   0.228  1.00  0.00     0.186 C 
HETATM    4  S1  UNL     1      -3.117   2.078   0.652  1.00  0.00    -0.040 SA
BRANCH   3   5
HETATM    5  N1  UNL     1      -2.360  -0.398   0.194  1.00  0.00    -0.363 N 
ATOM      6  H1  UNL     1      -1.646  -1.080  -0.061  1.00  0.00     0.162 HD
BRANCH   5   7
HETATM    7  C3  UNL     1      -3.686  -0.864   0.506  1.00  0.00     0.148 C 
BRANCH   7   8
HETATM    8  C2  UNL     1      -4.645  -0.462  -0.566  1.00  0.00    -0.018 C 
HETATM    9  C1  UNL     1      -5.705   0.280  -0.389  1.00  0.00     0.008 C 
ENDBRANCH   7   8
ENDBRANCH   5   7
ENDBRANCH   3   5
ENDBRANCH   1   3
BRANCH   1  10
HETATM   10  N3  UNL     1       0.228   0.387  -0.462  1.00  0.00    -0.307 N 
HETATM   11  C5  UNL     1       1.456   0.489  -0.110  1.00  0.00     0.148 C 
ATOM     12  H3  UNL     1      -0.075  -0.417  -1.012  1.00  0.00     0.186 HD
BRANCH  11  13
HETATM   13  C6  UNL     1       2.448  -0.505  -0.465  1.00  0.00     0.115 C 
HETATM   14  S2  UNL     1       1.990  -1.785  -1.347  1.00  0.00    -0.059 SA
BRANCH  13  15
HETATM   15  N4  UNL     1       3.784  -0.386  -0.053  1.00  0.00    -0.380 N 
HETATM   16  C7  UNL     1       4.813  -1.356  -0.391  1.00  0.00     0.150 C 
HETATM   17  C8  UNL     1       4.165   0.751   0.762  1.00  0.00     0.150 C 
ENDBRANCH  13  15
ENDBRANCH  11  13
ENDBRANCH   1  10
TORSDOF 7
