REMARK  6 active torsions:
REMARK  status: ('A' for Active; 'I' for Inactive)
REMARK    1  A    between atoms: N1_2  and  C2_3 
REMARK    2  A    between atoms: N1_2  and  C9_13 
REMARK    3  A    between atoms: C2_3  and  C3_4 
REMARK    4  A    between atoms: C3_4  and  O1_5 
REMARK    5  A    between atoms: C3_4  and  C4_7 
REMARK    6  A    between atoms: C4_7  and  N2_8 
ROOT
HETATM    1  C2  UNL     1      -0.406  -0.067  -0.718  1.00  0.00     0.091 C 
ENDROOT
BRANCH   1   2
HETATM    2  N1  UNL     1      -1.591  -0.467  -0.079  1.00  0.00    -0.390 N 
HETATM    3  C1  UNL     1      -1.635  -1.806   0.313  1.00  0.00     0.149 C 
BRANCH   2   4
HETATM    4  C9  UNL     1      -2.762   0.281  -0.268  1.00  0.00     0.084 C 
HETATM    5  C10 UNL     1      -3.685  -0.186  -1.336  1.00  0.00     0.035 C 
HETATM    6  C11 UNL     1      -5.045  -0.642  -0.786  1.00  0.00     0.076 C 
HETATM    7  S1  UNL     1      -5.807   0.860  -0.076  1.00  0.00    -0.169 SA
HETATM    8  C12 UNL     1      -4.509   1.545   1.027  1.00  0.00     0.076 C 
HETATM    9  C13 UNL     1      -3.443   0.469   1.090  1.00  0.00     0.035 C 
ENDBRANCH   2   4
ENDBRANCH   1   2
BRANCH   1  10
HETATM   10  C3  UNL     1       0.826  -0.030   0.165  1.00  0.00     0.184 C 
BRANCH  10  11
HETATM   11  O1  UNL     1       1.093  -1.286   0.693  1.00  0.00    -0.389 OA
ATOM     12  H1  UNL     1       1.865  -1.263   1.246  1.00  0.00     0.210 HD
ENDBRANCH  10  11
BRANCH  10  13
HETATM   13  C4  UNL     1       1.965   0.491  -0.653  1.00  0.00     0.309 C 
BRANCH  13  14
HETATM   14  N2  UNL     1       3.197   0.646   0.057  1.00  0.00     0.091 N 
HETATM   15  C5  UNL     1       4.178   1.156  -0.912  1.00  0.00     0.272 C 
HETATM   16  C6  UNL     1       5.418   1.141  -0.030  1.00  0.00     0.032 C 
HETATM   17  C7  UNL     1       5.333  -0.300   0.490  1.00  0.00     0.032 C 
HETATM   18  C8  UNL     1       3.829  -0.589   0.446  1.00  0.00     0.272 C 
ENDBRANCH  13  14
ENDBRANCH  10  13
ENDBRANCH   1  10
TORSDOF 6
