REMARK  6 active torsions:
REMARK  status: ('A' for Active; 'I' for Inactive)
REMARK    1  A    between atoms: O1_1  and  C1_3 
REMARK    2  A    between atoms: C1_3  and  C2_4 
REMARK    3  A    between atoms: C2_4  and  C3_5 
REMARK    4  A    between atoms: C3_5  and  N1_6 
REMARK    5  A    between atoms: N2_14  and  C11_15 
REMARK    6  A    between atoms: C11_15  and  C12_16 
ROOT
HETATM    1  C2  UNL     1      -0.515  -1.156  -0.575  1.00  0.00     0.034 C 
HETATM    2  C8  UNL     1      -0.450  -2.163   0.555  1.00  0.00     0.017 C 
HETATM    3  C9  UNL     1       0.853  -2.216   1.253  1.00  0.00     0.031 C 
HETATM    4  C10 UNL     1       1.731  -1.013   1.197  1.00  0.00     0.272 C 
HETATM    5  N2  UNL     1       1.499  -0.128   0.086  1.00  0.00     0.089 N 
HETATM    6  C15 UNL     1       0.909  -0.827  -1.048  1.00  0.00     0.285 C 
ENDROOT
BRANCH   1   7
HETATM    7  C1  UNL     1      -1.192  -1.728  -1.775  1.00  0.00     0.177 C 
BRANCH   7   8
HETATM    8  O1  UNL     1      -1.184  -0.941  -2.904  1.00  0.00    -0.400 OA
ATOM      9  H1  UNL     1      -1.615  -1.305  -3.668  1.00  0.00     0.209 HD
ENDBRANCH   7   8
ENDBRANCH   1   7
BRANCH   1  10
HETATM   10  C3  UNL     1      -1.058   0.117  -0.020  1.00  0.00     0.285 C 
BRANCH  10  11
HETATM   11  N1  UNL     1      -2.420   0.115   0.422  1.00  0.00     0.089 N 
HETATM   12  C4  UNL     1      -2.586   1.286   1.304  1.00  0.00     0.272 C 
HETATM   13  C5  UNL     1      -4.061   1.599   1.234  1.00  0.00     0.032 C 
HETATM   14  C6  UNL     1      -4.330   1.424  -0.239  1.00  0.00     0.032 C 
HETATM   15  C7  UNL     1      -3.304   0.412  -0.695  1.00  0.00     0.272 C 
ENDBRANCH  10  11
ENDBRANCH   1  10
BRANCH   5  16
HETATM   16  C11 UNL     1       2.751   0.406  -0.410  1.00  0.00     0.277 C 
BRANCH  16  17
HETATM   17  C12 UNL     1       3.411   1.347   0.564  1.00  0.00     0.014 A 
HETATM   18  C13 UNL     1       4.741   1.912   0.026  1.00  0.00     0.007 A 
HETATM   19  C14 UNL     1       4.667   1.028   1.237  1.00  0.00     0.007 A 
ENDBRANCH  16  17
ENDBRANCH   5  16
TORSDOF 6
