REMARK  10 active torsions:
REMARK  status: ('A' for Active; 'I' for Inactive)
REMARK    1  A    between atoms: C2_2  and  C3_3 
REMARK    2  A    between atoms: C13_13  and  O1_14 
REMARK    3  A    between atoms: O1_14  and  C14_15 
REMARK    4  A    between atoms: C14_15  and  C15_17 
REMARK    5  A    between atoms: C15_17  and  C16_18 
REMARK    6  A    between atoms: C18_20  and  C19_21 
REMARK    7  A    between atoms: C19_21  and  O3_22 
REMARK    8  A    between atoms: O3_22  and  C20_23 
REMARK    9  A    between atoms: C20_23  and  C21_27 
REMARK   10  A    between atoms: C21_27  and  C22_28 
ROOT
HETATM    1  C3  UNL     1      -6.224  -0.425   0.879  1.00  0.00    -0.026 C 
HETATM    2  C4  UNL     1      -7.326  -0.810  -0.115  1.00  0.00     0.019 C 
HETATM    3  C5  UNL     1      -5.612  -1.615   1.537  1.00  0.00     0.014 C 
HETATM    4  C6  UNL     1      -4.530  -2.285   0.778  1.00  0.00     0.011 C 
HETATM    5  C7  UNL     1      -4.058  -1.621  -0.447  1.00  0.00    -0.035 C 
HETATM    6  C8  UNL     1      -4.440  -2.351  -1.717  1.00  0.00     0.016 C 
HETATM    7  C9  UNL     1      -2.525  -1.482  -0.419  1.00  0.00     0.021 C 
HETATM    8  C10 UNL     1      -2.744  -0.066   0.064  1.00  0.00    -0.021 C 
HETATM    9  C11 UNL     1      -2.507   0.119   1.501  1.00  0.00     0.014 C 
HETATM   10  C12 UNL     1      -1.391   1.166   1.665  1.00  0.00     0.034 C 
HETATM   11  C13 UNL     1      -0.801   1.309   0.276  1.00  0.00     0.141 C 
HETATM   12  C25 UNL     1      -1.899   0.980  -0.670  1.00  0.00     0.053 C 
HETATM   13  C26 UNL     1      -2.750   2.141  -1.008  1.00  0.00    -0.082 C 
HETATM   14  C27 UNL     1      -2.649   3.363  -0.544  1.00  0.00     0.015 C 
HETATM   15  C28 UNL     1      -3.857   1.858  -1.991  1.00  0.00     0.034 C 
HETATM   16  C29 UNL     1      -4.052   0.343  -1.933  1.00  0.00     0.015 C 
HETATM   17  C30 UNL     1      -4.127  -0.137  -0.484  1.00  0.00    -0.023 C 
HETATM   18  C31 UNL     1      -5.230   0.505   0.241  1.00  0.00     0.024 C 
ENDROOT
BRANCH  11  19
HETATM   19  O1  UNL     1       0.305   0.404   0.153  1.00  0.00    -0.315 OA
BRANCH  19  20
HETATM   20  C14 UNL     1       1.578   0.820  -0.116  1.00  0.00     0.263 C 
HETATM   21  O2  UNL     1       1.785   2.062  -0.261  1.00  0.00    -0.265 OA
BRANCH  20  22
HETATM   22  C15 UNL     1       2.742  -0.096  -0.249  1.00  0.00     0.144 C 
BRANCH  22  23
HETATM   23  C16 UNL     1       3.994   0.644  -0.532  1.00  0.00    -0.076 C 
HETATM   24  C17 UNL     1       4.093   1.478  -1.754  1.00  0.00     0.043 C 
HETATM   25  C18 UNL     1       5.026   0.577   0.282  1.00  0.00     0.002 C 
BRANCH  25  26
HETATM   26  C19 UNL     1       6.254   1.306  -0.001  1.00  0.00     0.204 C 
BRANCH  26  27
HETATM   27  O3  UNL     1       7.427   0.596  -0.158  1.00  0.00    -0.336 OA
BRANCH  27  28
HETATM   28  C20 UNL     1       8.066  -0.224   0.745  1.00  0.00     0.115 C 
HETATM   29  N1  UNL     1       7.254  -0.953   1.454  1.00  0.00    -0.383 N 
ATOM     30  H12 UNL     1       6.243  -0.898   1.328  1.00  0.00     0.157 HD
ATOM     31  H11 UNL     1       7.727  -1.560   2.123  1.00  0.00     0.157 HD
BRANCH  28  32
HETATM   32  C21 UNL     1       9.518  -0.303   0.926  1.00  0.00     0.116 C 
BRANCH  32  33
HETATM   33  C22 UNL     1      10.290  -0.784  -0.219  1.00  0.00    -0.086 C 
HETATM   34  C23 UNL     1       9.694  -1.149  -1.338  1.00  0.00     0.014 C 
HETATM   35  C24 UNL     1      11.770  -0.867  -0.127  1.00  0.00     0.043 C 
ENDBRANCH  32  33
ENDBRANCH  28  32
ENDBRANCH  27  28
ENDBRANCH  26  27
ENDBRANCH  25  26
ENDBRANCH  22  23
ENDBRANCH  20  22
ENDBRANCH  19  20
ENDBRANCH  11  19
BRANCH   1  36
HETATM   36  C2  UNL     1      -6.922   0.361   1.954  1.00  0.00    -0.028 C 
HETATM   37  C1  UNL     1      -7.920  -0.228   2.604  1.00  0.00     0.007 C 
ENDBRANCH   1  36
TORSDOF 10
