REMARK  9 active torsions:
REMARK  status: ('A' for Active; 'I' for Inactive)
REMARK    1  A    between atoms: N1_2  and  C2_3 
REMARK    2  A    between atoms: N1_2  and  C8_16 
REMARK    3  A    between atoms: C3_8  and  N4_9 
REMARK    4  A    between atoms: C10_25  and  N9_26 
REMARK    5  A    between atoms: N9_26  and  N10_28 
REMARK    6  A    between atoms: N10_28  and  N11_30 
REMARK    7  A    between atoms: N11_30  and  N12_32 
REMARK    8  A    between atoms: N12_32  and  N13_34 
REMARK    9  A    between atoms: N13_34  and  O2_36 
ROOT
HETATM    1  C8  UNL     1       1.462  -1.763   0.364  1.00  0.00     0.183 A 
HETATM    2  N6  UNL     1       0.714  -2.858   0.384  1.00  0.00    -0.278 N 
ATOM      3  H6  UNL     1      -0.225  -2.819   0.780  1.00  0.00     0.189 HD
HETATM    4  N7  UNL     1       1.165  -3.984  -0.096  1.00  0.00    -0.250 N 
ATOM      5  H7  UNL     1       0.580  -4.819  -0.074  1.00  0.00     0.192 HD
HETATM    6  C9  UNL     1       2.389  -4.043  -0.615  1.00  0.00     0.340 A 
HETATM    7  O1  UNL     1       2.848  -5.110  -1.082  1.00  0.00    -0.245 OA
HETATM    8  N8  UNL     1       3.206  -2.961  -0.667  1.00  0.00    -0.289 N 
ATOM      9  H8  UNL     1       4.142  -3.024  -1.067  1.00  0.00     0.172 HD
HETATM   10  C10 UNL     1       2.741  -1.816  -0.177  1.00  0.00     0.172 A 
ENDROOT
BRANCH   1  11
HETATM   11  N1  UNL     1       0.943  -0.568   0.912  1.00  0.00    -0.166 N 
HETATM   12  C1  UNL     1       1.576  -0.024   2.090  1.00  0.00     0.177 C 
BRANCH  11  13
HETATM   13  C2  UNL     1      -0.162   0.091   0.321  1.00  0.00     0.715 A 
HETATM   14  N2  UNL     1      -0.125   0.998  -0.694  1.00  0.00    -0.117 N 
HETATM   15  N3  UNL     1      -1.342   1.407  -0.971  1.00  0.00    -0.117 N 
ATOM     16  H2  UNL     1       0.721   1.313  -1.168  1.00  0.00     0.206 HD
HETATM   17  C3  UNL     1      -2.218   0.796  -0.164  1.00  0.00     0.709 A 
ATOM     18  H3  UNL     1      -1.583   2.087  -1.692  1.00  0.00     0.206 HD
HETATM   19  N5  UNL     1      -1.466  -0.015   0.628  1.00  0.00    -0.019 N 
ATOM     20  H5  UNL     1      -1.841  -0.622   1.357  1.00  0.00     0.203 HD
BRANCH  17  21
HETATM   21  N4  UNL     1      -3.643   0.959  -0.127  1.00  0.00    -0.216 N 
HETATM   22  C4  UNL     1      -4.462   1.810  -0.942  1.00  0.00     0.141 C 
HETATM   23  C5  UNL     1      -5.855   1.258  -0.816  1.00  0.00     0.022 C 
HETATM   24  C6  UNL     1      -5.882   0.695   0.585  1.00  0.00     0.022 C 
HETATM   25  C7  UNL     1      -4.483   0.232   0.806  1.00  0.00     0.141 C 
ENDBRANCH  17  21
ENDBRANCH  11  13
ENDBRANCH   1  11
BRANCH  10  26
HETATM   26  N9  UNL     1       3.382  -0.716  -0.165  1.00  0.00    -0.266 N 
ATOM     27  H9  UNL     1       2.929   0.109   0.229  1.00  0.00     0.190 HD
BRANCH  26  28
HETATM   28  N10 UNL     1       4.662  -0.593  -0.662  1.00  0.00    -0.225 N 
ATOM     29  H10 UNL     1       5.021  -1.273  -1.333  1.00  0.00     0.210 HD
BRANCH  28  30
HETATM   30  N11 UNL     1       5.485   0.499  -0.228  1.00  0.00    -0.212 N 
ATOM     31  H11 UNL     1       6.500   0.419  -0.163  1.00  0.00     0.211 HD
BRANCH  30  32
HETATM   32  N12 UNL     1       4.863   1.590   0.075  1.00  0.00    -0.207 N 
ATOM     33  H12 UNL     1       3.847   1.627  -0.004  1.00  0.00     0.212 HD
BRANCH  32  34
HETATM   34  N13 UNL     1       5.557   2.713   0.507  1.00  0.00    -0.194 N 
ATOM     35  H13 UNL     1       5.344   3.151   1.403  1.00  0.00     0.217 HD
BRANCH  34  36
HETATM   36  O2  UNL     1       6.523   3.207  -0.299  1.00  0.00    -0.273 OA
ATOM     37  H2  UNL     1       6.998   3.975  -0.004  1.00  0.00     0.246 HD
ENDBRANCH  34  36
ENDBRANCH  32  34
ENDBRANCH  30  32
ENDBRANCH  28  30
ENDBRANCH  26  28
ENDBRANCH  10  26
TORSDOF 9
