REMARK  2 active torsions:
REMARK  status: ('A' for Active; 'I' for Inactive)
REMARK    1  A    between atoms: N1_2  and  C2_4 
REMARK    2  A    between atoms: C2_4  and  C3_5 
ROOT
HETATM    1  C3  UNL     1      -0.024   0.054  -0.911  1.00  0.00     0.128 C 
HETATM    2  N2  UNL     1       0.216  -1.361  -0.763  1.00  0.00    -0.359 N 
ATOM      3  H2  UNL     1       0.766  -1.937  -1.400  1.00  0.00     0.162 HD
HETATM    4  C4  UNL     1      -0.448  -1.831   0.431  1.00  0.00     0.168 C 
HETATM    5  S1  UNL     1      -0.624  -3.374   0.939  1.00  0.00    -0.041 SA
HETATM    6  N3  UNL     1      -0.920  -0.670   1.089  1.00  0.00    -0.357 N 
ATOM      7  H3  UNL     1      -1.095  -0.560   2.088  1.00  0.00     0.162 HD
HETATM    8  C5  UNL     1      -1.104   0.332   0.055  1.00  0.00     0.047 C 
HETATM    9  C6  UNL     1      -1.228   1.683   0.614  1.00  0.00     0.040 C 
HETATM   10  C7  UNL     1      -2.421  -0.074  -0.637  1.00  0.00     0.040 C 
ENDROOT
BRANCH   1  11
HETATM   11  C2  UNL     1       1.222   0.814  -0.841  1.00  0.00     0.141 C 
BRANCH  11  12
HETATM   12  N1  UNL     1       2.032   0.750   0.313  1.00  0.00    -0.423 N 
HETATM   13  C1  UNL     1       2.720  -0.474   0.573  1.00  0.00     0.139 C 
ATOM     14  H1  UNL     1       2.123   1.550   0.939  1.00  0.00     0.152 HD
ENDBRANCH  11  12
ENDBRANCH   1  11
TORSDOF 2
