REMARK  4 active torsions:
REMARK  status: ('A' for Active; 'I' for Inactive)
REMARK       I    between atoms: C1_4  and  N3_6 
REMARK    1  A    between atoms: N3_6  and  C2_8 
REMARK    2  A    between atoms: C2_8  and  C3_9 
REMARK    3  A    between atoms: C2_8  and  C9_20 
REMARK       I    between atoms: C3_9  and  N4_11 
REMARK    4  A    between atoms: N4_11  and  C4_13 
ROOT
HETATM    1  C2  UNL     1      -1.595   0.332  -0.782  1.00  0.00     0.190 C 
ENDROOT
BRANCH   1   2
HETATM    2  N3  UNL     1      -2.352  -0.750  -0.300  1.00  0.00    -0.350 N 
HETATM    3  C1  UNL     1      -3.438  -1.514  -0.704  1.00  0.00     0.182 C 
HETATM    4  N1  UNL     1      -4.660  -1.356  -0.432  1.00  0.00    -0.374 N 
HETATM    5  N2  UNL     1      -3.190  -2.714  -1.538  1.00  0.00    -0.064 NA
ATOM      6  H12 UNL     1      -5.458  -1.917  -0.729  1.00  0.00     0.158 HD
ATOM      7  H11 UNL     1      -4.831  -0.530   0.142  1.00  0.00     0.158 HD
ATOM      8  H3  UNL     1      -2.003  -1.063   0.606  1.00  0.00     0.163 HD
ENDBRANCH   1   2
BRANCH   1   9
HETATM    9  C3  UNL     1      -0.100   0.146  -0.841  1.00  0.00     0.242 C 
HETATM   10  O1  UNL     1       0.410   0.230  -1.989  1.00  0.00    -0.271 OA
HETATM   11  N4  UNL     1       0.559  -0.102   0.353  1.00  0.00    -0.350 N 
ATOM     12  H4  UNL     1      -0.038  -0.216   1.172  1.00  0.00     0.163 HD
BRANCH  11  13
HETATM   13  C4  UNL     1       1.944  -0.218   0.586  1.00  0.00     0.122 C 
HETATM   14  C5  UNL     1       2.733   0.593  -0.472  1.00  0.00     0.032 C 
HETATM   15  C6  UNL     1       4.091   0.783   0.188  1.00  0.00     0.022 C 
HETATM   16  C7  UNL     1       4.699  -0.583   0.223  1.00  0.00     0.119 C 
HETATM   17  N5  UNL     1       3.925  -1.638   0.750  1.00  0.00    -0.400 N 
HETATM   18  C8  UNL     1       2.495  -1.557   0.645  1.00  0.00     0.080 C 
ATOM     19  H5  UNL     1       4.371  -2.440   1.195  1.00  0.00     0.158 HD
ENDBRANCH  11  13
ENDBRANCH   1   9
BRANCH   1  20
HETATM   20  C9  UNL     1      -1.754   1.671  -0.082  1.00  0.00     0.080 C 
HETATM   21  C10 UNL     1      -3.092   2.283  -0.110  1.00  0.00     0.028 C 
HETATM   22  C11 UNL     1      -3.458   1.995   1.311  1.00  0.00     0.075 C 
HETATM   23  S1  UNL     1      -1.710   1.623   1.728  1.00  0.00    -0.162 SA
ENDBRANCH   1  20
TORSDOF 4
