REMARK  12 active torsions:
REMARK  status: ('A' for Active; 'I' for Inactive)
REMARK    1  A    between atoms: O1_2  and  C2_3 
REMARK    2  A    between atoms: C4_5  and  C5_6 
REMARK    3  A    between atoms: C5_6  and  N1_7 
REMARK    4  A    between atoms: N1_7  and  C7_9 
REMARK    5  A    between atoms: C7_9  and  C8_10 
REMARK    6  A    between atoms: C8_10  and  O2_11 
REMARK    7  A    between atoms: C8_10  and  C9_13 
REMARK    8  A    between atoms: C9_13  and  S1_14 
REMARK    9  A    between atoms: S1_14  and  C10_15 
REMARK   10  A    between atoms: C15_21  and  N2_22 
REMARK       I    between atoms: N2_22  and  C16_24 
REMARK   11  A    between atoms: C16_24  and  C17_26 
REMARK   12  A    between atoms: C27_38  and  O4_39 
ROOT
HETATM    1  C10 UNL     1      -2.513  -2.721  -0.459  1.00  0.00     0.027 A 
HETATM    2  C11 UNL     1      -1.758  -3.865  -0.307  1.00  0.00     0.022 A 
HETATM    3  C12 UNL     1      -1.882  -4.642   0.817  1.00  0.00     0.025 A 
HETATM    4  C13 UNL     1      -2.772  -4.273   1.803  1.00  0.00     0.036 A 
HETATM    5 CL1  UNL     1      -2.962  -5.232   3.250  1.00  0.00    -0.084 Cl
HETATM    6  C14 UNL     1      -3.552  -3.119   1.678  1.00  0.00     0.054 A 
HETATM    7  C15 UNL     1      -3.413  -2.364   0.557  1.00  0.00     0.053 A 
ENDROOT
BRANCH   1   8
HETATM    8  S1  UNL     1      -2.361  -1.706  -1.914  1.00  0.00    -0.125 SA
BRANCH   8   9
HETATM    9  C9  UNL     1      -1.153  -0.395  -1.674  1.00  0.00     0.113 C 
BRANCH   9  10
HETATM   10  C8  UNL     1       0.263  -0.864  -1.530  1.00  0.00     0.145 C 
BRANCH  10  11
HETATM   11  C7  UNL     1       1.210   0.335  -1.343  1.00  0.00     0.154 C 
BRANCH  11  12
HETATM   12  N1  UNL     1       2.530  -0.175  -1.219  1.00  0.00    -0.391 N 
HETATM   13  C6  UNL     1       2.844  -1.303  -2.014  1.00  0.00     0.148 C 
BRANCH  12  14
HETATM   14  C5  UNL     1       3.555   0.768  -1.007  1.00  0.00     0.096 C 
BRANCH  14  15
HETATM   15  C4  UNL     1       4.758   0.333  -0.317  1.00  0.00    -0.017 A 
HETATM   16  C3  UNL     1       5.826   1.237  -0.306  1.00  0.00     0.052 A 
HETATM   17  C2  UNL     1       7.017   0.970   0.305  1.00  0.00     0.104 A 
HETATM   18  C27 UNL     1       7.192  -0.251   0.950  1.00  0.00     0.123 A 
HETATM   19  C26 UNL     1       6.150  -1.137   0.941  1.00  0.00     0.071 A 
HETATM   20  C25 UNL     1       4.953  -0.867   0.327  1.00  0.00     0.039 A 
HETATM   21 CL3  UNL     1       6.339  -2.688   1.747  1.00  0.00    -0.081 Cl
BRANCH  17  22
HETATM   22  O1  UNL     1       8.103   1.832   0.342  1.00  0.00    -0.353 OA
HETATM   23  C1  UNL     1       8.149   3.104  -0.236  1.00  0.00     0.210 C 
ENDBRANCH  17  22
BRANCH  18  24
HETATM   24  O4  UNL     1       8.363  -0.599   1.590  1.00  0.00    -0.351 OA
HETATM   25  C28 UNL     1       8.543  -0.292   2.949  1.00  0.00     0.210 C 
ENDBRANCH  18  24
ENDBRANCH  14  15
ENDBRANCH  12  14
ENDBRANCH  11  12
ENDBRANCH  10  11
BRANCH  10  26
HETATM   26  O2  UNL     1       0.363  -1.698  -0.416  1.00  0.00    -0.393 OA
ATOM     27  H2  UNL     1      -0.221  -2.438  -0.531  1.00  0.00     0.210 HD
ENDBRANCH  10  26
ENDBRANCH   9  10
ENDBRANCH   8   9
ENDBRANCH   1   8
BRANCH   7  28
HETATM   28  N2  UNL     1      -4.159  -1.186   0.348  1.00  0.00    -0.322 N 
HETATM   29  C16 UNL     1      -5.126  -0.581   1.155  1.00  0.00     0.258 C 
HETATM   30  O3  UNL     1      -5.419  -1.102   2.275  1.00  0.00    -0.267 OA
ATOM     31  H2  UNL     1      -3.962  -0.701  -0.527  1.00  0.00     0.169 HD
BRANCH  29  32
HETATM   32  C17 UNL     1      -5.880   0.640   0.866  1.00  0.00     0.059 A 
HETATM   33  C18 UNL     1      -6.247   1.085  -0.359  1.00  0.00    -0.044 A 
HETATM   34  C19 UNL     1      -6.045   0.280  -1.596  1.00  0.00     0.049 C 
HETATM   35  C20 UNL     1      -6.901   2.326  -0.495  1.00  0.00     0.014 A 
HETATM   36  C21 UNL     1      -7.196   3.123   0.572  1.00  0.00    -0.060 A 
HETATM   37  C22 UNL     1      -7.894   4.438   0.381  1.00  0.00     0.048 C 
HETATM   38  C23 UNL     1      -6.833   2.684   1.823  1.00  0.00     0.031 A 
HETATM   39  C24 UNL     1      -6.199   1.486   1.954  1.00  0.00     0.050 A 
HETATM   40 CL2  UNL     1      -5.751   0.961   3.563  1.00  0.00    -0.083 Cl
ENDBRANCH  29  32
ENDBRANCH   7  28
TORSDOF 12
