REMARK  16 active torsions:
REMARK  status: ('A' for Active; 'I' for Inactive)
REMARK    1  A    between atoms: C2_2  and  C4_4 
REMARK    2  A    between atoms: C4_4  and  C5_5 
REMARK    3  A    between atoms: C5_5  and  C7_7 
REMARK    4  A    between atoms: C7_7  and  C8_8 
REMARK    5  A    between atoms: C8_8  and  C9_9 
REMARK    6  A    between atoms: C9_9  and  C12_12 
REMARK    7  A    between atoms: C18_18  and  O1_19 
REMARK    8  A    between atoms: C22_24  and  C23_25 
REMARK    9  A    between atoms: C26_28  and  O2_29 
REMARK   10  A    between atoms: C28_32  and  O3_33 
REMARK   11  A    between atoms: C28_32  and  C29_35 
REMARK   12  A    between atoms: C29_35  and  C30_37 
REMARK   13  A    between atoms: C30_37  and  O5_38 
REMARK   14  A    between atoms: C30_37  and  N1_40 
REMARK   15  A    between atoms: N1_40  and  C31_42 
REMARK   16  A    between atoms: C31_42  and  C33_44 
ROOT
HETATM    1  C23 UNL     1       0.882   0.713  -1.074  1.00  0.00     0.013 C 
HETATM    2  C24 UNL     1       1.894   1.536  -0.784  1.00  0.00     0.012 C 
HETATM    3  C25 UNL     1       1.965   2.058   0.598  1.00  0.00     0.076 C 
HETATM    4  C26 UNL     1       3.144   2.980   0.720  1.00  0.00     0.127 C 
HETATM    5  C27 UNL     1       4.405   2.160   0.550  1.00  0.00     0.101 C 
HETATM    6  C28 UNL     1       5.060   2.434  -0.789  1.00  0.00     0.203 C 
HETATM    7  N2  UNL     1       4.220   2.100  -1.888  1.00  0.00    -0.319 N 
ATOM      8  H2  UNL     1       4.676   2.062  -2.800  1.00  0.00     0.166 HD
HETATM    9  C36 UNL     1       2.811   1.809  -1.880  1.00  0.00     0.250 C 
HETATM   10  O6  UNL     1       2.296   1.790  -3.049  1.00  0.00    -0.268 OA
ENDROOT
BRANCH   1  11
HETATM   11  C22 UNL     1      -0.112   0.340  -0.088  1.00  0.00     0.005 C 
HETATM   12  C21 UNL     1      -1.152  -0.474  -0.275  1.00  0.00    -0.066 C 
HETATM   13  C12 UNL     1      -2.079  -0.739   0.880  1.00  0.00    -0.013 C 
HETATM   14  C20 UNL     1      -1.243  -1.083  -1.595  1.00  0.00     0.022 C 
HETATM   15  C13 UNL     1      -1.085  -0.810   2.093  1.00  0.00     0.021 C 
HETATM   16  C14 UNL     1      -2.515  -2.157   0.795  1.00  0.00     0.015 C 
HETATM   17  C15 UNL     1      -2.632  -2.864  -0.469  1.00  0.00     0.006 C 
HETATM   18  C16 UNL     1      -1.943  -2.393  -1.677  1.00  0.00    -0.004 C 
HETATM   19  C17 UNL     1      -3.011  -2.248  -2.786  1.00  0.00     0.037 C 
HETATM   20  C18 UNL     1      -2.508  -1.097  -3.629  1.00  0.00     0.119 C 
HETATM   21  C19 UNL     1      -1.866  -0.160  -2.607  1.00  0.00     0.041 C 
BRANCH  13  22
HETATM   22  C9  UNL     1      -3.042   0.261   1.271  1.00  0.00    -0.036 C 
HETATM   23  C10 UNL     1      -3.548  -0.023   2.709  1.00  0.00     0.016 C 
HETATM   24  C11 UNL     1      -2.328   1.639   1.540  1.00  0.00     0.016 C 
BRANCH  22  25
HETATM   25  C8  UNL     1      -4.230   0.669   0.508  1.00  0.00     0.010 C 
BRANCH  25  26
HETATM   26  C7  UNL     1      -5.384  -0.350   0.468  1.00  0.00     0.005 C 
BRANCH  26  27
HETATM   27  C5  UNL     1      -6.479   0.332  -0.311  1.00  0.00    -0.018 C 
HETATM   28  C6  UNL     1      -5.960   0.810  -1.667  1.00  0.00     0.010 C 
BRANCH  27  29
HETATM   29  C4  UNL     1      -7.726  -0.406  -0.541  1.00  0.00     0.008 C 
BRANCH  29  30
HETATM   30  C2  UNL     1      -8.458  -0.977   0.599  1.00  0.00    -0.023 C 
HETATM   31  C1  UNL     1      -7.811  -2.010   1.437  1.00  0.00     0.009 C 
HETATM   32  C3  UNL     1      -8.936   0.123   1.554  1.00  0.00     0.009 C 
ENDBRANCH  29  30
ENDBRANCH  27  29
ENDBRANCH  26  27
ENDBRANCH  25  26
ENDBRANCH  22  25
ENDBRANCH  13  22
BRANCH  20  33
HETATM   33  O1  UNL     1      -3.520  -0.401  -4.255  1.00  0.00    -0.396 OA
ATOM     34  H1  UNL     1      -3.204   0.322  -4.784  1.00  0.00     0.210 HD
ENDBRANCH  20  33
ENDBRANCH   1  11
BRANCH   4  35
HETATM   35  O2  UNL     1       3.071   3.947  -0.286  1.00  0.00    -0.395 OA
ATOM     36  H2  UNL     1       3.817   4.530  -0.209  1.00  0.00     0.210 HD
ENDBRANCH   4  35
BRANCH   6  37
HETATM   37  O3  UNL     1       5.380   3.796  -0.782  1.00  0.00    -0.364 OA
ATOM     38  H3  UNL     1       5.791   3.968  -1.621  1.00  0.00     0.213 HD
ENDBRANCH   6  37
BRANCH   6  39
HETATM   39  C29 UNL     1       6.308   1.635  -0.855  1.00  0.00     0.229 C 
HETATM   40  O4  UNL     1       7.364   2.256  -0.810  1.00  0.00    -0.288 OA
BRANCH  39  41
HETATM   41  C30 UNL     1       6.264   0.165  -0.971  1.00  0.00     0.290 C 
BRANCH  41  42
HETATM   42  O5  UNL     1       4.954  -0.318  -1.091  1.00  0.00    -0.370 OA
ATOM     43  H5  UNL     1       4.926  -1.265  -1.166  1.00  0.00     0.212 HD
ENDBRANCH  41  42
BRANCH  41  44
HETATM   44  N1  UNL     1       6.857  -0.499   0.131  1.00  0.00    -0.387 N 
ATOM     45  H1  UNL     1       6.307  -1.109   0.735  1.00  0.00     0.156 HD
BRANCH  44  46
HETATM   46  C31 UNL     1       8.241  -0.289   0.368  1.00  0.00     0.078 C 
HETATM   47  C32 UNL     1       9.104  -0.740  -0.801  1.00  0.00     0.032 C 
BRANCH  46  48
HETATM   48  C33 UNL     1       8.626  -1.253   1.508  1.00  0.00    -0.001 C 
HETATM   49  C34 UNL     1       7.775  -0.888   2.695  1.00  0.00     0.011 C 
HETATM   50  C35 UNL     1      10.103  -1.190   1.797  1.00  0.00     0.011 C 
ENDBRANCH  46  48
ENDBRANCH  44  46
ENDBRANCH  41  44
ENDBRANCH  39  41
ENDBRANCH   6  39
TORSDOF 16
