REMARK  4 active torsions:
REMARK  status: ('A' for Active; 'I' for Inactive)
REMARK    1  A    between atoms: N1_3  and  C3_5 
REMARK    2  A    between atoms: C9_14  and  O1_15 
REMARK    3  A    between atoms: C11_18  and  C12_19 
REMARK    4  A    between atoms: N3_23  and  C14_24 
ROOT
HETATM    1  C3  UNL     1      -1.761  -0.688  -0.768  1.00  0.00     0.064 A 
HETATM    2  C4  UNL     1      -2.632  -1.741  -1.166  1.00  0.00     0.062 A 
HETATM    3 BR1  UNL     1      -4.348  -1.348  -1.891  1.00  0.00    -0.047 Br
HETATM    4  C5  UNL     1      -2.236  -3.035  -1.102  1.00  0.00     0.076 A 
HETATM    5 CL1  UNL     1      -3.341  -4.313  -1.616  1.00  0.00    -0.081 Cl
HETATM    6  C6  UNL     1      -1.001  -3.366  -0.659  1.00  0.00     0.068 A 
HETATM    7 CL2  UNL     1      -0.444  -5.030  -0.549  1.00  0.00    -0.082 Cl
HETATM    8  C7  UNL     1      -0.139  -2.371  -0.277  1.00  0.00     0.005 A 
HETATM    9  C8  UNL     1       1.127  -2.720   0.121  1.00  0.00     0.051 A 
HETATM   10  C9  UNL     1       2.051  -1.775   0.456  1.00  0.00     0.081 A 
HETATM   11  C10 UNL     1       1.693  -0.469   0.382  1.00  0.00     0.050 A 
HETATM   12  C11 UNL     1       2.420   0.693   0.532  1.00  0.00     0.041 A 
HETATM   13  N2  UNL     1       1.624   1.683   0.240  1.00  0.00    -0.301 N 
ATOM     14  H2  UNL     1       1.900   2.665   0.264  1.00  0.00     0.187 HD
HETATM   15  N3  UNL     1       0.352   1.240  -0.109  1.00  0.00    -0.291 N 
HETATM   16  C16 UNL     1       0.406  -0.048  -0.015  1.00  0.00     0.079 A 
HETATM   17  C17 UNL     1      -0.539  -1.027  -0.345  1.00  0.00     0.033 A 
ENDROOT
BRANCH   1  18
HETATM   18  N1  UNL     1      -2.456   0.514  -0.699  1.00  0.00    -0.368 N 
HETATM   19  C2  UNL     1      -3.604   0.587  -0.044  1.00  0.00     0.057 C 
HETATM   20  C1  UNL     1      -4.338   1.845   0.020  1.00  0.00     0.054 C 
ATOM     21  H1  UNL     1      -2.079   1.345  -1.156  1.00  0.00     0.165 HD
ENDBRANCH   1  18
BRANCH  15  22
HETATM   22  C14 UNL     1      -0.515   2.310  -0.378  1.00  0.00     0.145 C 
HETATM   23  C15 UNL     1      -0.869   3.021   0.970  1.00  0.00     0.028 C 
ENDBRANCH  15  22
BRANCH  10  24
HETATM   24  O1  UNL     1       3.323  -2.129   0.862  1.00  0.00    -0.360 OA
ATOM     25  H1  UNL     1       3.967  -1.471   1.095  1.00  0.00     0.217 HD
ENDBRANCH  10  24
BRANCH  12  26
HETATM   26  C12 UNL     1       3.849   0.708   0.950  1.00  0.00     0.055 C 
HETATM   27  C13 UNL     1       4.761   0.332  -0.182  1.00  0.00     0.011 C 
ENDBRANCH  12  26
TORSDOF 4
