REMARK  16 active torsions:
REMARK  status: ('A' for Active; 'I' for Inactive)
REMARK    1  A    between atoms: C2_2  and  C3_3 
REMARK    2  A    between atoms: C3_3  and  C4_4 
REMARK    3  A    between atoms: C4_4  and  C5_5 
REMARK    4  A    between atoms: C5_5  and  C6_6 
REMARK    5  A    between atoms: C6_6  and  O1_8 
REMARK    6  A    between atoms: C6_6  and  C8_10 
REMARK    7  A    between atoms: C8_10  and  O2_11 
REMARK    8  A    between atoms: C8_10  and  C9_13 
REMARK    9  A    between atoms: C9_13  and  C11_15 
REMARK   10  A    between atoms: C9_13  and  C17_23 
REMARK   11  A    between atoms: C14_18  and  O3_19 
REMARK   12  A    between atoms: C19_26  and  O5_27 
REMARK   13  A    between atoms: C20_29  and  O6_30 
REMARK   14  A    between atoms: C21_32  and  O7_33 
REMARK   15  A    between atoms: C21_32  and  C22_35 
REMARK   16  A    between atoms: C22_35  and  O8_36 
ROOT
HETATM    1  C9  UNL     1      -0.126   0.540  -0.741  1.00  0.00     0.042 C 
HETATM    2  C10 UNL     1      -0.500   0.974  -2.139  1.00  0.00     0.024 C 
ENDROOT
BRANCH   1   3
HETATM    3  C8  UNL     1       1.274   0.309  -0.463  1.00  0.00     0.165 C 
BRANCH   3   4
HETATM    4  C6  UNL     1       2.214  -0.549  -1.165  1.00  0.00     0.081 C 
HETATM    5  C7  UNL     1       1.718  -1.775  -1.847  1.00  0.00     0.049 C 
BRANCH   4   6
HETATM    6  C5  UNL     1       3.291  -1.007  -0.160  1.00  0.00     0.040 C 
BRANCH   6   7
HETATM    7  C4  UNL     1       4.441  -1.695  -0.786  1.00  0.00     0.003 C 
BRANCH   7   8
HETATM    8  C3  UNL     1       5.435  -2.102   0.274  1.00  0.00    -0.000 C 
BRANCH   8   9
HETATM    9  C2  UNL     1       5.949  -0.907   1.020  1.00  0.00    -0.005 C 
HETATM   10  C1  UNL     1       6.973  -1.331   2.088  1.00  0.00     0.005 C 
ENDBRANCH   8   9
ENDBRANCH   7   8
ENDBRANCH   6   7
ENDBRANCH   4   6
BRANCH   4  11
HETATM   11  O1  UNL     1       2.999   0.121  -2.133  1.00  0.00    -0.388 OA
ATOM     12  H1  UNL     1       2.336   0.403  -2.752  1.00  0.00     0.210 HD
ENDBRANCH   4  11
ENDBRANCH   3   4
BRANCH   3  13
HETATM   13  O2  UNL     1       1.977   1.340   0.154  1.00  0.00    -0.392 OA
ATOM     14  H2  UNL     1       1.363   1.901   0.613  1.00  0.00     0.210 HD
ENDBRANCH   3  13
ENDBRANCH   1   3
BRANCH   1  15
HETATM   15  C11 UNL     1      -0.402   1.922   0.021  1.00  0.00     0.023 C 
HETATM   16  C12 UNL     1       0.365   2.979  -0.622  1.00  0.00    -0.022 C 
HETATM   17  C13 UNL     1       0.050   4.260  -0.374  1.00  0.00     0.001 C 
HETATM   18  C14 UNL     1      -1.042   4.638   0.523  1.00  0.00     0.140 C 
HETATM   19  C15 UNL     1      -1.822   3.528   1.108  1.00  0.00     0.036 C 
HETATM   20  C16 UNL     1      -1.793   2.231   0.254  1.00  0.00     0.012 C 
BRANCH  18  21
HETATM   21  O3  UNL     1      -1.869   5.534  -0.194  1.00  0.00    -0.392 OA
ATOM     22  H3  UNL     1      -2.578   5.779   0.389  1.00  0.00     0.210 HD
ENDBRANCH  18  21
ENDBRANCH   1  15
BRANCH   1  23
HETATM   23  C17 UNL     1      -1.176  -0.341  -0.182  1.00  0.00     0.272 C 
HETATM   24  O4  UNL     1      -1.011  -1.655  -0.528  1.00  0.00    -0.350 OA
HETATM   25  C18 UNL     1      -2.250  -2.276  -0.412  1.00  0.00     0.188 C 
HETATM   26  C19 UNL     1      -2.632  -2.378   1.035  1.00  0.00     0.181 C 
HETATM   27  C23 UNL     1      -3.143  -1.150  -0.960  1.00  0.00     0.195 C 
HETATM   28  C20 UNL     1      -3.843  -1.461   1.245  1.00  0.00     0.188 C 
HETATM   29  C21 UNL     1      -4.382  -1.379  -0.161  1.00  0.00     0.136 C 
HETATM   30  O9  UNL     1      -2.454  -0.006  -0.708  1.00  0.00    -0.349 OA
BRANCH  26  31
HETATM   31  O5  UNL     1      -3.045  -3.682   1.301  1.00  0.00    -0.390 OA
ATOM     32  H5  UNL     1      -3.287  -3.747   2.217  1.00  0.00     0.210 HD
ENDBRANCH  26  31
BRANCH  28  33
HETATM   33  O6  UNL     1      -4.772  -2.102   2.072  1.00  0.00    -0.390 OA
ATOM     34  H6  UNL     1      -5.522  -1.534   2.202  1.00  0.00     0.210 HD
ENDBRANCH  28  33
BRANCH  29  35
HETATM   35  O7  UNL     1      -4.892  -2.630  -0.515  1.00  0.00    -0.382 OA
ATOM     36  H7  UNL     1      -5.232  -2.578  -1.401  1.00  0.00     0.210 HD
ENDBRANCH  29  35
BRANCH  29  37
HETATM   37  C22 UNL     1      -5.472  -0.385  -0.355  1.00  0.00     0.207 C 
BRANCH  37  38
HETATM   38  O8  UNL     1      -5.163   0.916  -0.054  1.00  0.00    -0.398 OA
ATOM     39  H8  UNL     1      -5.859   1.551  -0.178  1.00  0.00     0.209 HD
ENDBRANCH  37  38
ENDBRANCH  29  37
ENDBRANCH   1  23
TORSDOF 16
