REMARK  16 active torsions:
REMARK  status: ('A' for Active; 'I' for Inactive)
REMARK    1  A    between atoms: C4_4  and  C5_5 
REMARK    2  A    between atoms: C5_5  and  C6_6 
REMARK    3  A    between atoms: C6_6  and  C7_7 
REMARK    4  A    between atoms: C9_9  and  C10_10 
REMARK    5  A    between atoms: C10_10  and  O1_11 
REMARK    6  A    between atoms: O1_11  and  C11_12 
REMARK    7  A    between atoms: C12_13  and  O2_14 
REMARK    8  A    between atoms: C13_16  and  C14_17 
REMARK    9  A    between atoms: C13_16  and  C15_20 
REMARK   10  A    between atoms: C14_17  and  O3_18 
REMARK   11  A    between atoms: C15_20  and  O4_21 
REMARK   12  A    between atoms: C16_23  and  O5_24 
REMARK   13  A    between atoms: C22_31  and  C23_32 
REMARK   14  A    between atoms: C22_31  and  O7_35 
REMARK   15  A    between atoms: C23_32  and  O6_33 
REMARK   16  A    between atoms: O7_35  and  N1_36 
ROOT
HETATM    1  C11 UNL     1      -0.748   0.414   0.267  1.00  0.00     0.159 C 
HETATM    2  C12 UNL     1      -0.857   1.901  -0.206  1.00  0.00     0.162 C 
HETATM    3  C13 UNL     1      -2.155   2.493   0.146  1.00  0.00     0.057 C 
HETATM    4  C16 UNL     1      -3.036   1.728   1.061  1.00  0.00     0.138 C 
HETATM    5  C17 UNL     1      -3.150   0.251   0.834  1.00  0.00     0.025 C 
HETATM    6  C18 UNL     1      -4.473  -0.108   0.285  1.00  0.00     0.008 C 
HETATM    7  C19 UNL     1      -4.590  -1.446  -0.353  1.00  0.00     0.008 C 
HETATM    8  C20 UNL     1      -3.363  -2.062  -0.875  1.00  0.00     0.021 C 
HETATM    9  C21 UNL     1      -3.076  -1.697  -2.317  1.00  0.00     0.013 C 
HETATM   10  C22 UNL     1      -2.097  -1.742  -0.063  1.00  0.00     0.119 C 
HETATM   11  C24 UNL     1      -2.016  -0.263  -0.038  1.00  0.00     0.063 C 
ENDROOT
BRANCH   1  12
HETATM   12  O1  UNL     1      -0.426   0.455   1.597  1.00  0.00    -0.379 OA
BRANCH  12  13
HETATM   13  C10 UNL     1       0.861   0.253   1.979  1.00  0.00     0.196 C 
BRANCH  13  14
HETATM   14  C9  UNL     1       1.364  -1.068   1.579  1.00  0.00     0.001 C 
HETATM   15  C7  UNL     1       2.377  -1.270   0.799  1.00  0.00    -0.085 C 
HETATM   16  C8  UNL     1       2.757  -2.714   0.492  1.00  0.00     0.043 C 
BRANCH  15  17
HETATM   17  C6  UNL     1       3.191  -0.220   0.185  1.00  0.00     0.037 C 
BRANCH  17  18
HETATM   18  C5  UNL     1       4.640  -0.402   0.668  1.00  0.00     0.031 C 
BRANCH  18  19
HETATM   19  C4  UNL     1       5.432   0.675   0.027  1.00  0.00    -0.024 C 
HETATM   20  C2  UNL     1       6.448   0.393  -0.777  1.00  0.00    -0.091 C 
HETATM   21  C1  UNL     1       7.226   1.508  -1.408  1.00  0.00     0.042 C 
HETATM   22  C3  UNL     1       6.831  -1.010  -1.065  1.00  0.00     0.042 C 
ENDBRANCH  18  19
ENDBRANCH  17  18
ENDBRANCH  15  17
ENDBRANCH  13  14
ENDBRANCH  12  13
ENDBRANCH   1  12
BRANCH   2  23
HETATM   23  O2  UNL     1      -0.696   1.894  -1.596  1.00  0.00    -0.392 OA
ATOM     24  H2  UNL     1      -0.762   2.797  -1.883  1.00  0.00     0.210 HD
ENDBRANCH   2  23
BRANCH   3  25
HETATM   25  C14 UNL     1      -2.930   2.992  -1.079  1.00  0.00     0.181 C 
BRANCH  25  26
HETATM   26  O3  UNL     1      -2.244   3.962  -1.784  1.00  0.00    -0.400 OA
ATOM     27  H3  UNL     1      -2.724   4.271  -2.543  1.00  0.00     0.209 HD
ENDBRANCH  25  26
ENDBRANCH   3  25
BRANCH   3  28
HETATM   28  C15 UNL     1      -1.831   3.804   0.913  1.00  0.00     0.181 C 
BRANCH  28  29
HETATM   29  O4  UNL     1      -1.103   4.679   0.148  1.00  0.00    -0.400 OA
ATOM     30  H4  UNL     1      -0.905   5.481   0.617  1.00  0.00     0.209 HD
ENDBRANCH  28  29
ENDBRANCH   3  28
BRANCH  10  31
HETATM   31  C23 UNL     1      -2.261  -2.445   1.228  1.00  0.00     0.205 C 
BRANCH  31  32
HETATM   32  O6  UNL     1      -2.413  -3.828   0.954  1.00  0.00    -0.398 OA
ATOM     33  H6  UNL     1      -2.518  -4.280   1.783  1.00  0.00     0.209 HD
ENDBRANCH  31  32
ENDBRANCH  10  31
BRANCH  10  34
HETATM   34  O7  UNL     1      -0.989  -2.207  -0.757  1.00  0.00    -0.273 OA
BRANCH  34  35
HETATM   35  N1  UNL     1      -0.967  -3.511  -1.003  1.00  0.00    -0.310 N 
ATOM     36  H12 UNL     1      -1.725  -4.120  -0.694  1.00  0.00     0.184 HD
ATOM     37  H11 UNL     1      -0.153  -3.853  -1.513  1.00  0.00     0.184 HD
ENDBRANCH  34  35
ENDBRANCH  10  34
BRANCH   4  38
HETATM   38  O5  UNL     1      -2.666   2.037   2.392  1.00  0.00    -0.394 OA
ATOM     39  H5  UNL     1      -3.230   1.547   2.978  1.00  0.00     0.210 HD
ENDBRANCH   4  38
TORSDOF 16
