REMARK  6 active torsions:
REMARK  status: ('A' for Active; 'I' for Inactive)
REMARK    1  A    between atoms: C2_2  and  N1_4 
REMARK    2  A    between atoms: N1_4  and  C4_6 
REMARK    3  A    between atoms: C4_6  and  C5_7 
REMARK    4  A    between atoms: C5_7  and  N2_8 
REMARK    5  A    between atoms: C5_7  and  C14_24 
REMARK    6  A    between atoms: C8_16  and  C9_17 
ROOT
HETATM    1  N2  UNL     1      -1.072  -1.265  -0.651  1.00  0.00    -0.220 N 
ATOM      2  H2  UNL     1      -1.643  -1.613  -1.421  1.00  0.00     0.178 HD
HETATM    3  C6  UNL     1       0.178  -1.217  -0.883  1.00  0.00     0.676 A 
HETATM    4  N3  UNL     1       0.624  -1.652  -2.179  1.00  0.00    -0.210 N 
ATOM      5  H3  UNL     1      -0.065  -1.971  -2.860  1.00  0.00     0.179 HD
HETATM    6  C7  UNL     1       2.018  -1.649  -2.540  1.00  0.00     0.263 A 
HETATM    7  N4  UNL     1       2.879  -1.166  -1.509  1.00  0.00    -0.362 N 
ATOM      8  H4  UNL     1       3.876  -1.134  -1.723  1.00  0.00     0.162 HD
HETATM    9  C8  UNL     1       2.530  -0.771  -0.350  1.00  0.00     0.098 A 
HETATM   10  N5  UNL     1       1.171  -0.772   0.032  1.00  0.00    -0.181 N 
ATOM     11  H5  UNL     1       0.902  -0.454   0.963  1.00  0.00     0.185 HD
ENDROOT
BRANCH   1  12
HETATM   12  C5  UNL     1      -1.789  -0.907   0.519  1.00  0.00     0.120 C 
BRANCH  12  13
HETATM   13  C4  UNL     1      -2.875   0.116   0.221  1.00  0.00     0.140 C 
BRANCH  13  14
HETATM   14  N1  UNL     1      -2.257   1.283  -0.316  1.00  0.00    -0.416 N 
ATOM     15  H1  UNL     1      -1.248   1.354  -0.449  1.00  0.00     0.153 HD
BRANCH  14  16
HETATM   16  C2  UNL     1      -3.148   2.345  -0.655  1.00  0.00     0.068 C 
HETATM   17  C1  UNL     1      -4.135   2.010  -1.732  1.00  0.00     0.031 C 
HETATM   18  C3  UNL     1      -2.320   3.519  -1.133  1.00  0.00     0.031 C 
ENDBRANCH  14  16
ENDBRANCH  13  14
ENDBRANCH  12  13
BRANCH  12  19
HETATM   19  C14 UNL     1      -2.537  -2.135   1.059  1.00  0.00     0.002 C 
HETATM   20  C15 UNL     1      -1.559  -3.242   1.400  1.00  0.00     0.011 C 
HETATM   21  C16 UNL     1      -3.290  -1.804   2.325  1.00  0.00     0.011 C 
ENDBRANCH  12  19
ENDBRANCH   1  12
BRANCH   9  22
HETATM   22  C9  UNL     1       3.544  -0.281   0.654  1.00  0.00     0.054 C 
HETATM   23  C10 UNL     1       3.303   1.146   1.046  1.00  0.00     0.012 C 
HETATM   24  C11 UNL     1       4.467   1.952   0.511  1.00  0.00     0.001 C 
HETATM   25  C12 UNL     1       5.013   1.070  -0.579  1.00  0.00     0.001 C 
HETATM   26  C13 UNL     1       4.917  -0.317   0.056  1.00  0.00     0.012 C 
ENDBRANCH   9  22
TORSDOF 6
