REMARK  8 active torsions:
REMARK  status: ('A' for Active; 'I' for Inactive)
REMARK    1  A    between atoms: C7_13  and  C8_14 
REMARK    2  A    between atoms: C8_14  and  C9_15 
REMARK    3  A    between atoms: C10_18  and  C11_19 
REMARK       I    between atoms: C11_19  and  N2_21 
REMARK    4  A    between atoms: N2_21  and  C12_23 
REMARK    5  A    between atoms: C12_23  and  C13_24 
REMARK    6  A    between atoms: C13_24  and  N3_25 
REMARK    7  A    between atoms: N4_29  and  C14_30 
REMARK    8  A    between atoms: C14_30  and  C15_31 
ROOT
HETATM    1  N1  UNL     1      -1.549   0.679   3.230  1.00  0.00    -0.388 N 
ATOM      2  H11 UNL     1      -1.432  -0.333   3.184  1.00  0.00     0.157 HD
ATOM      3  H12 UNL     1      -2.037   1.156   3.988  1.00  0.00     0.157 HD
HETATM    4  C1  UNL     1      -1.039   1.357   2.256  1.00  0.00     0.087 C 
HETATM    5  C2  UNL     1      -1.209   2.831   2.323  1.00  0.00     0.216 C 
HETATM    6  S1  UNL     1       0.475   3.311   2.581  1.00  0.00     0.153 S 
HETATM    7  O1  UNL     1       0.694   3.239   4.098  1.00  0.00    -0.227 OA
HETATM    8  O2  UNL     1       0.817   4.683   2.216  1.00  0.00    -0.227 OA
HETATM    9  C3  UNL     1       1.436   2.017   1.922  1.00  0.00     0.172 C 
HETATM   10  C4  UNL     1       0.806   1.342   0.649  1.00  0.00     0.059 C 
HETATM   11  C5  UNL     1       0.557   2.513  -0.258  1.00  0.00     0.033 C 
HETATM   12  C6  UNL     1       1.344   2.316  -1.538  1.00  0.00     0.008 C 
HETATM   13  C7  UNL     1       2.076   1.031  -1.418  1.00  0.00     0.011 C 
HETATM   14  C10 UNL     1       1.946   0.655   0.054  1.00  0.00     0.111 C 
HETATM   15  N4  UNL     1      -0.335   0.670   1.163  1.00  0.00    -0.358 N 
ENDROOT
BRANCH  14  16
HETATM   16  C11 UNL     1       2.182  -0.760   0.137  1.00  0.00     0.224 C 
HETATM   17  O5  UNL     1       2.058  -1.509  -0.859  1.00  0.00    -0.273 OA
HETATM   18  N2  UNL     1       2.569  -1.420   1.338  1.00  0.00    -0.359 N 
ATOM     19  H2  UNL     1       2.688  -0.867   2.187  1.00  0.00     0.162 HD
BRANCH  18  20
HETATM   20  C12 UNL     1       2.803  -2.868   1.397  1.00  0.00     0.150 C 
BRANCH  20  21
HETATM   21  C13 UNL     1       3.197  -3.270   2.792  1.00  0.00     0.249 C 
BRANCH  21  22
HETATM   22  N3  UNL     1       4.429  -2.548   3.142  1.00  0.00    -0.078 N 
ATOM     23  H33 UNL     1       5.177  -2.692   2.464  1.00  0.00     0.274 HD
ATOM     24  H32 UNL     1       4.339  -1.538   3.033  1.00  0.00     0.274 HD
ATOM     25  H31 UNL     1       4.696  -2.821   4.088  1.00  0.00     0.274 HD
ENDBRANCH  21  22
ENDBRANCH  20  21
ENDBRANCH  18  20
ENDBRANCH  14  16
BRANCH  15  26
HETATM   26  C14 UNL     1      -1.036  -0.529   0.865  1.00  0.00     0.134 C 
BRANCH  26  27
HETATM   27  C15 UNL     1      -1.944  -0.628  -0.317  1.00  0.00    -0.023 C 
HETATM   28  C16 UNL     1      -2.476  -2.089  -0.221  1.00  0.00     0.015 C 
HETATM   29  C17 UNL     1      -3.517  -2.389  -1.232  1.00  0.00    -0.013 C 
HETATM   30  C18 UNL     1      -4.707  -1.504  -0.998  1.00  0.00     0.009 C 
HETATM   31  C22 UNL     1      -2.910  -2.185  -2.606  1.00  0.00     0.009 C 
HETATM   32  C19 UNL     1      -4.219  -0.083  -1.159  1.00  0.00    -0.013 C 
HETATM   33  C20 UNL     1      -3.664   0.158  -2.545  1.00  0.00     0.009 C 
HETATM   34  C24 UNL     1      -3.182   0.274  -0.121  1.00  0.00     0.015 C 
HETATM   35  C21 UNL     1      -2.468  -0.768  -2.709  1.00  0.00    -0.013 C 
HETATM   36  C23 UNL     1      -1.464  -0.340  -1.662  1.00  0.00     0.015 C 
ENDBRANCH  26  27
ENDBRANCH  15  26
BRANCH  13  37
HETATM   37  C8  UNL     1       3.509   1.075  -1.874  1.00  0.00     0.118 C 
BRANCH  37  38
HETATM   38  C9  UNL     1       3.631   1.461  -3.305  1.00  0.00     0.172 C 
HETATM   39  O3  UNL     1       2.588   1.694  -3.962  1.00  0.00    -0.648 OA
HETATM   40  O4  UNL     1       4.851   1.571  -3.934  1.00  0.00    -0.648 OA
ENDBRANCH  37  38
ENDBRANCH  13  37
TORSDOF 8
