REMARK  3 active torsions:
REMARK  status: ('A' for Active; 'I' for Inactive)
REMARK    1  A    between atoms: C1_2  and  C2_4 
REMARK    2  A    between atoms: C2_4  and  C3_5 
REMARK       I    between atoms: N1_10  and  C8_11 
REMARK       I    between atoms: C8_11  and  N2_13 
REMARK    3  A    between atoms: N2_13  and  C9_15 
ROOT
HETATM    1  C3  UNL     1      -2.917   0.759  -0.650  1.00  0.00     0.013 C 
HETATM    2  C4  UNL     1      -3.838  -0.312  -1.115  1.00  0.00     0.007 C 
HETATM    3  C5  UNL     1      -3.386  -1.044  -2.329  1.00  0.00     0.002 C 
HETATM    4  C6  UNL     1      -1.965  -1.496  -2.328  1.00  0.00     0.020 C 
HETATM    5  C7  UNL     1      -1.601  -1.954  -0.934  1.00  0.00     0.127 C 
HETATM    6  N1  UNL     1      -1.027  -0.788  -0.256  1.00  0.00    -0.334 N 
HETATM    7  C8  UNL     1       0.375  -0.803  -0.158  1.00  0.00     0.318 C 
HETATM    8  O3  UNL     1       0.982  -1.809  -0.671  1.00  0.00    -0.247 OA
HETATM    9  N2  UNL     1       1.197   0.164   0.440  1.00  0.00    -0.338 N 
ATOM     10  H2  UNL     1       0.748   0.979   0.858  1.00  0.00     0.164 HD
HETATM   11  C15 UNL     1      -1.814   0.291   0.273  1.00  0.00     0.132 C 
ENDROOT
BRANCH   9  12
HETATM   12  C9  UNL     1       2.636   0.082   0.502  1.00  0.00     0.086 C 
HETATM   13  C10 UNL     1       3.310   1.210  -0.247  1.00  0.00     0.025 C 
HETATM   14  C11 UNL     1       4.755   0.793  -0.440  1.00  0.00     0.002 C 
HETATM   15  C12 UNL     1       5.440   0.505   0.868  1.00  0.00     0.000 C 
HETATM   16  C13 UNL     1       4.635  -0.299   1.825  1.00  0.00     0.002 C 
HETATM   17  C14 UNL     1       3.176   0.094   1.902  1.00  0.00     0.025 C 
ENDBRANCH   9  12
BRANCH   1  18
HETATM   18  C2  UNL     1      -3.739   1.770   0.131  1.00  0.00     0.119 C 
BRANCH  18  19
HETATM   19  C1  UNL     1      -4.387   1.123   1.300  1.00  0.00     0.172 C 
HETATM   20  O1  UNL     1      -5.407   0.395   1.211  1.00  0.00    -0.648 OA
HETATM   21  O2  UNL     1      -3.857   1.318   2.567  1.00  0.00    -0.648 OA
ENDBRANCH  18  19
ENDBRANCH   1  18
TORSDOF 3
