REMARK  5 active torsions:
REMARK  status: ('A' for Active; 'I' for Inactive)
REMARK    1  A    between atoms: C4_8  and  C5_9 
REMARK       I    between atoms: C5_9  and  N3_11 
REMARK    2  A    between atoms: N3_11  and  N4_13 
REMARK    3  A    between atoms: N4_13  and  C6_15 
REMARK    4  A    between atoms: C6_15  and  N5_17 
REMARK    5  A    between atoms: N5_17  and  N6_19 
REMARK       I    between atoms: N6_19  and  C7_21 
ROOT
HETATM    1  C5  UNL     1      -0.860   0.051  -0.357  1.00  0.00     0.297 C 
HETATM    2  O1  UNL     1      -0.444   0.639  -1.383  1.00  0.00    -0.267 OA
HETATM    3  N3  UNL     1      -0.148   0.230   0.856  1.00  0.00    -0.264 N 
ATOM      4  H3  UNL     1      -0.481  -0.245   1.695  1.00  0.00     0.190 HD
ENDROOT
BRANCH   3   5
HETATM    5  N4  UNL     1       0.990   1.031   0.946  1.00  0.00    -0.272 N 
ATOM      6  H4  UNL     1       0.863   2.039   1.042  1.00  0.00     0.189 HD
BRANCH   5   7
HETATM    7  C6  UNL     1       2.304   0.527   0.912  1.00  0.00     0.205 C 
HETATM    8  S1  UNL     1       2.514  -1.094   0.758  1.00  0.00    -0.038 SA
BRANCH   7   9
HETATM    9  N5  UNL     1       3.424   1.399   1.008  1.00  0.00    -0.271 N 
ATOM     10  H5  UNL     1       3.261   2.401   1.103  1.00  0.00     0.189 HD
BRANCH   9  11
HETATM   11  N6  UNL     1       4.739   0.930   0.977  1.00  0.00    -0.252 N 
HETATM   12  C7  UNL     1       5.265   0.410  -0.218  1.00  0.00     0.347 C 
HETATM   13  N7  UNL     1       6.599  -0.073  -0.274  1.00  0.00    -0.038 NA
HETATM   14  O2  UNL     1       4.540   0.376  -1.241  1.00  0.00    -0.249 OA
ATOM     15  H6  UNL     1       5.315   0.965   1.818  1.00  0.00     0.191 HD
ENDBRANCH   9  11
ENDBRANCH   7   9
ENDBRANCH   5   7
ENDBRANCH   3   5
BRANCH   1  16
HETATM   16  C4  UNL     1      -2.046  -0.807  -0.367  1.00  0.00     0.511 C 
HETATM   17  N1  UNL     1      -3.137  -0.269   0.431  1.00  0.00     0.126 N 
HETATM   18  C1  UNL     1      -3.489   1.061  -0.025  1.00  0.00     0.313 C 
HETATM   19  C2  UNL     1      -4.222  -1.165   0.070  1.00  0.00     0.302 C 
HETATM   20  C3  UNL     1      -3.930  -1.518  -1.373  1.00  0.00     0.265 C 
HETATM   21  N2  UNL     1      -2.665  -0.891  -1.679  1.00  0.00    -0.033 N 
ATOM     22  H22 UNL     1      -2.108  -1.365  -2.390  1.00  0.00     0.280 HD
ATOM     23  H21 UNL     1      -2.731  -0.007  -2.183  1.00  0.00     0.280 HD
ENDBRANCH   1  16
TORSDOF 5
