REMARK  5 active torsions:
REMARK  status: ('A' for Active; 'I' for Inactive)
REMARK    1  A    between atoms: N1_1  and  N2_4 
REMARK       I    between atoms: C1_6  and  N3_7 
REMARK       I    between atoms: C1_6  and  N7_18 
REMARK    2  A    between atoms: N3_7  and  N4_9 
REMARK       I    between atoms: N4_9  and  C2_11 
REMARK       I    between atoms: C2_11  and  N5_13 
REMARK    3  A    between atoms: N5_13  and  C3_14 
REMARK    4  A    between atoms: C3_14  and  O2_16 
REMARK    5  A    between atoms: C7_22  and  C8_23 
ROOT
HETATM    1  N2  UNL     1      -1.722  -2.299  -0.559  1.00  0.00    -0.137 N 
ATOM      2  H2  UNL     1      -2.633  -2.007  -0.913  1.00  0.00     0.205 HD
HETATM    3  C1  UNL     1      -0.930  -1.373  -0.096  1.00  0.00     0.710 C 
HETATM    4  N3  UNL     1       0.348  -1.773   0.398  1.00  0.00    -0.126 N 
ATOM      5  H3  UNL     1       0.382  -2.408   1.196  1.00  0.00     0.206 HD
HETATM    6  N7  UNL     1      -1.271  -0.018  -0.077  1.00  0.00    -0.200 N 
HETATM    7  C4  UNL     1      -0.641   0.998  -0.941  1.00  0.00     0.142 C 
HETATM    8  C5  UNL     1      -1.766   1.929  -1.332  1.00  0.00     0.023 C 
HETATM    9  C6  UNL     1      -2.978   1.388  -0.542  1.00  0.00     0.038 C 
HETATM   10  C7  UNL     1      -2.244   0.772   0.655  1.00  0.00     0.203 C 
ENDROOT
BRANCH   1  11
HETATM   11  N1  UNL     1      -1.422  -3.642  -0.607  1.00  0.00    -0.331 N 
ATOM     12  H12 UNL     1      -0.507  -3.916  -0.249  1.00  0.00     0.177 HD
ATOM     13  H11 UNL     1      -2.042  -4.367  -0.969  1.00  0.00     0.177 HD
ENDBRANCH   1  11
BRANCH   4  14
HETATM   14  N4  UNL     1       1.527  -1.348  -0.144  1.00  0.00    -0.225 N 
HETATM   15  C2  UNL     1       2.376  -0.448   0.600  1.00  0.00     0.416 C 
HETATM   16  O1  UNL     1       1.931  -0.126   1.751  1.00  0.00    -0.228 OA
HETATM   17  N5  UNL     1       3.564   0.025   0.105  1.00  0.00    -0.311 NA
ATOM     18  H4  UNL     1       1.807  -1.666  -1.072  1.00  0.00     0.193 HD
BRANCH  17  19
HETATM   19  C3  UNL     1       4.720   0.486  -0.376  1.00  0.00     0.310 C 
HETATM   20  N6  UNL     1       5.666   1.392   0.213  1.00  0.00    -0.042 NA
BRANCH  19  21
HETATM   21  O2  UNL     1       5.120   0.094  -1.574  1.00  0.00    -0.324 OA
ATOM     22  H2  UNL     1       5.943   0.422  -1.916  1.00  0.00     0.221 HD
ENDBRANCH  19  21
ENDBRANCH  17  19
ENDBRANCH   4  14
BRANCH  10  23
HETATM   23  C8  UNL     1      -3.102   0.059   1.582  1.00  0.00     0.197 C 
HETATM   24  O3  UNL     1      -2.973  -1.144   1.856  1.00  0.00    -0.646 OA
HETATM   25  O4  UNL     1      -4.145   0.758   2.217  1.00  0.00    -0.646 OA
ENDBRANCH  10  23
TORSDOF 5
