REMARK  15 active torsions:
REMARK  status: ('A' for Active; 'I' for Inactive)
REMARK    1  A    between atoms: O1_2  and  C2_3 
REMARK    2  A    between atoms: C2_3  and  C3_5 
REMARK    3  A    between atoms: C3_5  and  O3_6 
REMARK    4  A    between atoms: C3_5  and  C4_8 
REMARK    5  A    between atoms: C3_5  and  C21_44 
REMARK    6  A    between atoms: C4_8  and  S1_9 
REMARK    7  A    between atoms: S1_9  and  C5_10 
REMARK    8  A    between atoms: C5_10  and  C6_11 
REMARK       I    between atoms: N4_23  and  C12_24 
REMARK    9  A    between atoms: C15_30  and  C16_31 
REMARK       I    between atoms: C16_31  and  N5_33 
REMARK   10  A    between atoms: N5_33  and  C17_35 
REMARK   11  A    between atoms: C17_35  and  C19_37 
REMARK   12  A    between atoms: C21_44  and  C22_45 
REMARK   13  A    between atoms: C21_44  and  O11_48 
REMARK   14  A    between atoms: C22_45  and  O10_46 
REMARK   15  A    between atoms: O11_48  and  C23_49 
ROOT
HETATM    1  C6  UNL     1      -1.311  -2.374  -0.532  1.00  0.00     0.071 A 
HETATM    2  N1  UNL     1      -2.182  -3.115  -1.273  1.00  0.00    -0.262 N 
ATOM      3  H1  UNL     1      -3.069  -3.506  -0.954  1.00  0.00     0.194 HD
HETATM    4  O4  UNL     1      -1.670  -3.230  -2.463  1.00  0.00    -0.239 OA
HETATM    5  C7  UNL     1      -0.546  -2.643  -2.593  1.00  0.00     0.112 A 
HETATM    6  C8  UNL     1      -0.229  -2.021  -1.288  1.00  0.00     0.092 A 
HETATM    7  N2  UNL     1       0.990  -1.332  -1.311  1.00  0.00    -0.323 N 
HETATM    8  C9  UNL     1       2.309  -1.963  -1.286  1.00  0.00     0.211 C 
HETATM    9  N3  UNL     1       2.657  -2.068  -2.739  1.00  0.00    -0.356 N 
ATOM     10  H3  UNL     1       3.543  -2.416  -3.107  1.00  0.00     0.163 HD
HETATM   11  C10 UNL     1       1.535  -1.597  -3.552  1.00  0.00     0.095 C 
HETATM   12  C11 UNL     1       0.387  -2.510  -3.743  1.00  0.00     0.146 C 
HETATM   13  N4  UNL     1       1.288  -0.229  -3.243  1.00  0.00    -0.249 N 
HETATM   14  C12 UNL     1       1.134   0.871  -4.075  1.00  0.00     0.293 C 
HETATM   15  O5  UNL     1       1.213   0.695  -5.322  1.00  0.00    -0.629 OA
HETATM   16  O6  UNL     1       0.895   2.167  -3.646  1.00  0.00    -0.629 OA
HETATM   17  C13 UNL     1       1.182   0.050  -1.740  1.00  0.00     0.266 C 
HETATM   18  S2  UNL     1       2.663   0.887  -1.334  1.00  0.00    -0.109 SA
HETATM   19  C14 UNL     1       4.059  -0.178  -0.953  1.00  0.00     0.132 C 
HETATM   20  C15 UNL     1       4.674   0.311   0.304  1.00  0.00     0.105 C 
HETATM   21  N6  UNL     1       3.957  -0.107   1.313  1.00  0.00    -0.301 N 
ATOM     22  H6  UNL     1       4.154   0.085   2.295  1.00  0.00     0.182 HD
HETATM   23  N7  UNL     1       2.862  -0.869   0.831  1.00  0.00    -0.131 NA
HETATM   24  C20 UNL     1       3.340  -1.423  -0.421  1.00  0.00     0.161 C 
ENDROOT
BRANCH   1  25
HETATM   25  C5  UNL     1      -1.426  -1.972   0.895  1.00  0.00     0.135 C 
BRANCH  25  26
HETATM   26  S1  UNL     1      -2.979  -2.620   1.518  1.00  0.00    -0.159 SA
BRANCH  26  27
HETATM   27  C4  UNL     1      -4.447  -1.921   0.781  1.00  0.00     0.125 C 
BRANCH  27  28
HETATM   28  C3  UNL     1      -4.696  -0.475   1.102  1.00  0.00     0.182 C 
BRANCH  28  29
HETATM   29  C2  UNL     1      -4.864  -0.233   2.547  1.00  0.00     0.296 C 
HETATM   30  O2  UNL     1      -4.038   0.462   3.227  1.00  0.00    -0.262 OA
BRANCH  29  31
HETATM   31  O1  UNL     1      -5.933  -0.744   3.268  1.00  0.00    -0.324 OA
HETATM   32  C1  UNL     1      -6.082  -0.500   4.666  1.00  0.00     0.213 C 
ENDBRANCH  29  31
ENDBRANCH  28  29
BRANCH  28  33
HETATM   33  O3  UNL     1      -3.502   0.202   0.721  1.00  0.00    -0.376 OA
ATOM     34  H3  UNL     1      -3.394   0.046  -0.210  1.00  0.00     0.211 HD
ENDBRANCH  28  33
BRANCH  28  35
HETATM   35  C21 UNL     1      -5.765   0.171   0.247  1.00  0.00     0.200 C 
BRANCH  35  36
HETATM   36  C22 UNL     1      -7.124  -0.428   0.363  1.00  0.00     0.200 C 
BRANCH  36  37
HETATM   37  O10 UNL     1      -7.221  -1.770   0.052  1.00  0.00    -0.398 OA
ATOM     38  H10 UNL     1      -8.088  -2.152   0.126  1.00  0.00     0.209 HD
ENDBRANCH  36  37
ENDBRANCH  35  36
BRANCH  35  39
HETATM   39  O11 UNL     1      -5.794   1.571   0.549  1.00  0.00    -0.310 OA
BRANCH  39  40
HETATM   40  C23 UNL     1      -5.435   2.479  -0.411  1.00  0.00     0.255 C 
HETATM   41  C24 UNL     1      -5.459   3.932  -0.121  1.00  0.00     0.126 C 
HETATM   42  O12 UNL     1      -5.088   2.073  -1.532  1.00  0.00    -0.266 OA
ENDBRANCH  39  40
ENDBRANCH  35  39
ENDBRANCH  28  35
ENDBRANCH  27  28
ENDBRANCH  26  27
ENDBRANCH  25  26
ENDBRANCH   1  25
BRANCH  20  43
HETATM   43  C16 UNL     1       5.878   1.121   0.382  1.00  0.00     0.267 C 
HETATM   44  O7  UNL     1       6.471   1.454  -0.673  1.00  0.00    -0.266 OA
HETATM   45  N5  UNL     1       6.421   1.561   1.616  1.00  0.00    -0.342 N 
ATOM     46  H5  UNL     1       5.957   1.304   2.487  1.00  0.00     0.163 HD
BRANCH  45  47
HETATM   47  C17 UNL     1       7.606   2.357   1.661  1.00  0.00     0.181 C 
HETATM   48  C18 UNL     1       8.728   1.505   2.267  1.00  0.00     0.043 C 
BRANCH  47  49
HETATM   49  C19 UNL     1       7.437   3.618   2.409  1.00  0.00     0.196 C 
HETATM   50  O8  UNL     1       6.346   3.930   2.936  1.00  0.00    -0.646 OA
HETATM   51  O9  UNL     1       8.522   4.481   2.530  1.00  0.00    -0.646 OA
ENDBRANCH  47  49
ENDBRANCH  45  47
ENDBRANCH  20  43
TORSDOF 15
