REMARK  7 active torsions:
REMARK  status: ('A' for Active; 'I' for Inactive)
REMARK    1  A    between atoms: O1_1  and  C1_3 
REMARK    2  A    between atoms: C3_5  and  C4_6 
REMARK    3  A    between atoms: N1_7  and  N2_9 
REMARK    4  A    between atoms: N2_9  and  C5_11 
REMARK    5  A    between atoms: C5_11  and  N3_13 
REMARK    6  A    between atoms: N3_13  and  C6_15 
REMARK    7  A    between atoms: C12_22  and  C13_23 
ROOT
HETATM    1  C1  UNL     1       4.256  -0.328   0.825  1.00  0.00     0.087 A 
HETATM    2  C2  UNL     1       3.035  -0.840   1.044  1.00  0.00     0.058 A 
HETATM    3  C3  UNL     1       2.284  -1.164  -0.056  1.00  0.00     0.025 A 
HETATM    4  S2  UNL     1       3.300  -0.745  -1.353  1.00  0.00    -0.082 SA
HETATM    5  C12 UNL     1       4.649  -0.172  -0.477  1.00  0.00     0.083 A 
ENDROOT
BRANCH   3   6
HETATM    6  C4  UNL     1       0.920  -1.738  -0.075  1.00  0.00     0.126 C 
HETATM    7  N1  UNL     1       0.306  -1.989   1.011  1.00  0.00    -0.308 N 
ATOM      8  H1  UNL     1       0.779  -1.784   1.891  1.00  0.00     0.186 HD
BRANCH   7   9
HETATM    9  N2  UNL     1      -0.972  -2.526   1.061  1.00  0.00    -0.277 N 
ATOM     10  H2  UNL     1      -1.085  -3.516   1.279  1.00  0.00     0.189 HD
BRANCH   9  11
HETATM   11  C5  UNL     1      -2.144  -1.725   0.813  1.00  0.00     0.186 C 
HETATM   12  S1  UNL     1      -3.581  -2.519   0.904  1.00  0.00    -0.040 SA
BRANCH  11  13
HETATM   13  N3  UNL     1      -2.030  -0.356   0.507  1.00  0.00    -0.361 N 
ATOM     14  H3  UNL     1      -1.082   0.020   0.471  1.00  0.00     0.162 HD
BRANCH  13  15
HETATM   15  C6  UNL     1      -3.091   0.574   0.239  1.00  0.00     0.083 C 
HETATM   16  C7  UNL     1      -3.956   0.721   1.447  1.00  0.00     0.025 C 
HETATM   17  C8  UNL     1      -5.280   1.409   1.169  1.00  0.00     0.002 C 
HETATM   18  C9  UNL     1      -6.007   0.569   0.140  1.00  0.00     0.000 C 
HETATM   19  C10 UNL     1      -5.199   0.733  -1.144  1.00  0.00     0.002 C 
HETATM   20  C11 UNL     1      -3.823   0.171  -1.017  1.00  0.00     0.025 C 
ENDBRANCH  13  15
ENDBRANCH  11  13
ENDBRANCH   9  11
ENDBRANCH   7   9
ENDBRANCH   3   6
BRANCH   1  21
HETATM   21  O1  UNL     1       5.129   0.046   1.887  1.00  0.00    -0.359 OA
ATOM     22  H1  UNL     1       5.993   0.408   1.732  1.00  0.00     0.217 HD
ENDBRANCH   1  21
BRANCH   5  23
HETATM   23  C13 UNL     1       5.928   0.363  -1.001  1.00  0.00     0.126 A 
HETATM   24  N4  UNL     1       6.181   0.460  -2.317  1.00  0.00    -0.331 N 
HETATM   25  C14 UNL     1       7.412   0.977  -2.478  1.00  0.00     0.120 A 
ATOM     26  H4  UNL     1       5.546   0.187  -3.068  1.00  0.00     0.168 HD
HETATM   27 CL1  UNL     1       8.245   1.318  -3.994  1.00  0.00    -0.063 Cl
HETATM   28  C15 UNL     1       7.898   1.190  -1.210  1.00  0.00     0.132 A 
HETATM   29  N5  UNL     1       6.951   0.797  -0.300  1.00  0.00    -0.348 N 
ATOM     30  H5  UNL     1       7.026   0.834   0.717  1.00  0.00     0.167 HD
ENDBRANCH   5  23
TORSDOF 7
