REMARK  6 active torsions:
REMARK  status: ('A' for Active; 'I' for Inactive)
REMARK    1  A    between atoms: O1_2  and  C2_3 
REMARK    2  A    between atoms: C2_3  and  C3_5 
REMARK    3  A    between atoms: C3_5  and  S1_6 
REMARK    4  A    between atoms: S1_6  and  C4_7 
REMARK    5  A    between atoms: C4_7  and  C16_21 
REMARK    6  A    between atoms: N1_8  and  C5_10 
ROOT
HETATM    1  C4  UNL     1       1.843   1.066   0.498  1.00  0.00     0.061 C 
HETATM    2  N1  UNL     1       0.674   0.839   0.191  1.00  0.00    -0.382 N 
ATOM      3  H1  UNL     1       0.323   1.619  -0.365  1.00  0.00     0.160 HD
ENDROOT
BRANCH   1   4
HETATM    4  S1  UNL     1       2.995   0.119   1.439  1.00  0.00    -0.106 SA
BRANCH   4   5
HETATM    5  C3  UNL     1       2.552  -1.549   1.817  1.00  0.00     0.191 C 
BRANCH   5   6
HETATM    6  C2  UNL     1       2.546  -2.452   0.629  1.00  0.00     0.268 C 
HETATM    7  O2  UNL     1       2.873  -1.978  -0.480  1.00  0.00    -0.264 OA
BRANCH   6   8
HETATM    8  O1  UNL     1       2.194  -3.785   0.702  1.00  0.00    -0.326 OA
HETATM    9  C1  UNL     1       2.198  -4.616  -0.443  1.00  0.00     0.213 C 
ENDBRANCH   6   8
ENDBRANCH   5   6
ENDBRANCH   4   5
ENDBRANCH   1   4
BRANCH   1  10
HETATM   10  C16 UNL     1       2.390   2.416   0.026  1.00  0.00     0.181 C 
HETATM   11  C17 UNL     1       3.580   2.204  -0.845  1.00  0.00     0.144 C 
HETATM   12  O3  UNL     1       3.480   1.829  -2.000  1.00  0.00    -0.297 OA
HETATM   13  C18 UNL     1       4.911   2.479  -0.220  1.00  0.00     0.080 C 
HETATM   14  C19 UNL     1       4.984   3.917   0.262  1.00  0.00     0.015 C 
HETATM   15  C20 UNL     1       3.716   4.395   0.888  1.00  0.00     0.080 C 
HETATM   16  C21 UNL     1       2.859   3.215   1.193  1.00  0.00     0.144 C 
HETATM   17  O4  UNL     1       2.561   2.924   2.342  1.00  0.00    -0.297 OA
ENDBRANCH   1  10
BRANCH   2  18
HETATM   18  C5  UNL     1      -0.334  -0.096   0.331  1.00  0.00     0.082 C 
HETATM   19  C6  UNL     1      -1.613   0.484   0.929  1.00  0.00     0.025 C 
HETATM   20  C7  UNL     1      -2.394   1.364   0.042  1.00  0.00     0.002 C 
HETATM   21  C8  UNL     1      -3.743   1.604   0.698  1.00  0.00     0.000 C 
HETATM   22  C9  UNL     1      -4.593   0.377   0.770  1.00  0.00     0.000 C 
HETATM   23  C10 UNL     1      -4.852  -0.294  -0.536  1.00  0.00     0.000 C 
HETATM   24  C11 UNL     1      -4.264  -1.711  -0.596  1.00  0.00     0.000 C 
HETATM   25  C12 UNL     1      -3.447  -1.926  -1.825  1.00  0.00     0.000 C 
HETATM   26  C13 UNL     1      -2.194  -2.706  -1.632  1.00  0.00     0.000 C 
HETATM   27  C14 UNL     1      -1.273  -2.155  -0.576  1.00  0.00     0.002 C 
HETATM   28  C15 UNL     1      -0.642  -0.860  -0.949  1.00  0.00     0.025 C 
ENDBRANCH   2  18
TORSDOF 6
