REMARK  6 active torsions:
REMARK  status: ('A' for Active; 'I' for Inactive)
REMARK    1  A    between atoms: C2_2  and  C4_5 
REMARK    2  A    between atoms: C12_17  and  O5_18 
REMARK    3  A    between atoms: O5_18  and  C13_19 
REMARK    4  A    between atoms: C13_19  and  C14_21 
REMARK    5  A    between atoms: C14_21  and  C15_22 
REMARK    6  A    between atoms: C15_22  and  C16_23 
ROOT
HETATM    1  C1  UNL     1      -2.907   1.898  -2.474  1.00  0.00     0.033 C 
HETATM    2  C2  UNL     1      -3.325   1.632  -1.253  1.00  0.00     0.047 C 
HETATM    3  C3  UNL     1      -3.955   2.693  -0.515  1.00  0.00     0.097 C 
HETATM    4  N1  UNL     1      -4.454   3.536   0.094  1.00  0.00    -0.192 NA
ENDROOT
BRANCH   2   5
HETATM    5  C4  UNL     1      -3.122   0.283  -0.728  1.00  0.00     0.235 C 
HETATM    6  O1  UNL     1      -4.367  -0.215  -0.347  1.00  0.00    -0.339 OA
HETATM    7  C5  UNL     1      -4.200  -0.961   0.789  1.00  0.00     0.162 C 
HETATM    8  C6  UNL     1      -4.367  -2.432   0.387  1.00  0.00     0.078 C 
HETATM    9  C7  UNL     1      -5.282  -0.680   1.808  1.00  0.00     0.078 C 
HETATM   10  O2  UNL     1      -2.934  -0.804   1.277  1.00  0.00    -0.312 OA
HETATM   11  C8  UNL     1      -2.294   0.176   0.492  1.00  0.00     0.234 C 
HETATM   12  O3  UNL     1      -2.233   1.340   1.271  1.00  0.00    -0.275 OA
HETATM   13  C20 UNL     1      -0.944  -0.359   0.179  1.00  0.00     0.012 C 
HETATM   14  C9  UNL     1      -1.248   1.513   2.204  1.00  0.00     0.272 C 
HETATM   15  O4  UNL     1      -1.348   2.436   3.041  1.00  0.00    -0.264 OA
HETATM   16  C10 UNL     1      -0.092   0.629   2.222  1.00  0.00     0.139 C 
HETATM   17  C11 UNL     1      -0.090  -0.325   3.406  1.00  0.00     0.027 C 
HETATM   18  C12 UNL     1       0.090  -0.154   0.979  1.00  0.00     0.077 C 
HETATM   19  C21 UNL     1      -0.757  -1.157  -1.084  1.00  0.00     0.052 C 
BRANCH  18  20
HETATM   20  O5  UNL     1       1.361  -0.642   0.710  1.00  0.00    -0.282 OA
BRANCH  20  21
HETATM   21  C13 UNL     1       2.286   0.110  -0.026  1.00  0.00     0.264 C 
HETATM   22  O6  UNL     1       1.868   1.243  -0.413  1.00  0.00    -0.265 OA
BRANCH  21  23
HETATM   23  C14 UNL     1       3.638  -0.363  -0.335  1.00  0.00     0.118 C 
BRANCH  23  24
HETATM   24  C15 UNL     1       4.349   0.698  -1.136  1.00  0.00     0.075 C 
BRANCH  24  25
HETATM   25  C16 UNL     1       5.731   0.310  -1.498  1.00  0.00     0.053 A 
HETATM   26  C17 UNL     1       6.851   0.572  -0.731  1.00  0.00     0.034 A 
HETATM   27  C18 UNL     1       7.958   0.059  -1.392  1.00  0.00     0.027 A 
HETATM   28  C19 UNL     1       7.427  -0.499  -2.555  1.00  0.00     0.142 A 
HETATM   29  O7  UNL     1       6.116  -0.321  -2.561  1.00  0.00    -0.327 OA
ENDBRANCH  24  25
ENDBRANCH  23  24
ENDBRANCH  21  23
ENDBRANCH  20  21
ENDBRANCH  18  20
ENDBRANCH   2   5
TORSDOF 6
