REMARK  10 active torsions:
REMARK  status: ('A' for Active; 'I' for Inactive)
REMARK    1  A    between atoms: C2_2  and  C3_3 
REMARK    2  A    between atoms: C6_6  and  O1_7 
REMARK    3  A    between atoms: O1_7  and  C7_8 
REMARK    4  A    between atoms: C14_16  and  O3_17 
REMARK    5  A    between atoms: O3_17  and  C15_18 
REMARK    6  A    between atoms: C15_18  and  C16_20 
REMARK    7  A    between atoms: C16_20  and  N1_21 
REMARK    8  A    between atoms: C19_24  and  O5_25 
REMARK    9  A    between atoms: O5_25  and  C20_26 
REMARK   10  A    between atoms: C20_26  and  O7_28 
ROOT
HETATM    1  C3  UNL     1      -3.250  -1.568  -0.814  1.00  0.00     0.004 A 
HETATM    2  C4  UNL     1      -3.676  -1.825  -2.229  1.00  0.00     0.025 C 
HETATM    3  C5  UNL     1      -3.813  -0.274  -0.358  1.00  0.00     0.026 A 
HETATM    4  C6  UNL     1      -2.834   0.546  -0.004  1.00  0.00     0.090 A 
HETATM    5  C9  UNL     1      -1.536  -0.098  -0.182  1.00  0.00     0.042 A 
HETATM    6  C10 UNL     1      -1.803  -1.363  -0.667  1.00  0.00    -0.029 A 
HETATM    7  C11 UNL     1      -0.723  -2.196  -0.926  1.00  0.00     0.019 A 
HETATM    8  C12 UNL     1       0.557  -1.741  -0.694  1.00  0.00    -0.025 A 
HETATM    9  C13 UNL     1       1.680  -2.665  -0.985  1.00  0.00     0.051 C 
HETATM   10  C14 UNL     1       0.807  -0.475  -0.209  1.00  0.00     0.120 A 
HETATM   11  C19 UNL     1      -0.248   0.353   0.049  1.00  0.00     0.129 A 
ENDROOT
BRANCH  10  12
HETATM   12  O3  UNL     1       2.131  -0.110  -0.009  1.00  0.00    -0.274 OA
BRANCH  12  13
HETATM   13  C15 UNL     1       2.775  -0.342   1.216  1.00  0.00     0.292 C 
HETATM   14  O4  UNL     1       2.073  -0.894   2.101  1.00  0.00    -0.263 OA
BRANCH  13  15
HETATM   15  C16 UNL     1       4.173   0.024   1.482  1.00  0.00     0.382 C 
BRANCH  15  16
HETATM   16  N1  UNL     1       4.820   0.648   0.362  1.00  0.00     0.089 N 
HETATM   17  C17 UNL     1       6.192   0.980   0.699  1.00  0.00     0.310 C 
HETATM   18  C18 UNL     1       4.876  -0.248  -0.778  1.00  0.00     0.310 C 
ENDBRANCH  15  16
ENDBRANCH  13  15
ENDBRANCH  12  13
ENDBRANCH  10  12
BRANCH  11  19
HETATM   19  O5  UNL     1       0.010   1.614   0.533  1.00  0.00    -0.252 OA
BRANCH  19  20
HETATM   20  C20 UNL     1       0.210   2.730  -0.257  1.00  0.00     0.411 C 
HETATM   21  O6  UNL     1       0.155   2.606  -1.508  1.00  0.00    -0.229 OA
BRANCH  20  22
HETATM   22  O7  UNL     1       0.469   3.995   0.259  1.00  0.00    -0.303 OA
HETATM   23  C21 UNL     1       0.674   5.139  -0.518  1.00  0.00     0.215 C 
ENDBRANCH  20  22
ENDBRANCH  19  20
ENDBRANCH  11  19
BRANCH   4  24
HETATM   24  O1  UNL     1      -2.992   1.854   0.477  1.00  0.00    -0.279 OA
BRANCH  24  25
HETATM   25  C7  UNL     1      -3.125   2.091   1.839  1.00  0.00     0.260 C 
HETATM   26  C8  UNL     1      -3.295   3.432   2.425  1.00  0.00     0.126 C 
HETATM   27  O2  UNL     1      -3.100   1.103   2.610  1.00  0.00    -0.265 OA
ENDBRANCH  24  25
ENDBRANCH   4  24
BRANCH   1  28
HETATM   28  C2  UNL     1      -3.797  -2.639   0.103  1.00  0.00     0.014 C 
HETATM   29  C1  UNL     1      -3.324  -4.018  -0.260  1.00  0.00     0.006 C 
ENDBRANCH   1  28
TORSDOF 10
