REMARK  4 active torsions:
REMARK  status: ('A' for Active; 'I' for Inactive)
REMARK    1  A    between atoms: C3_3  and  O1_4 
REMARK    2  A    between atoms: C4_6  and  C15_21 
REMARK    3  A    between atoms: C7_11  and  C8_13 
REMARK    4  A    between atoms: C9_15  and  C10_16 
ROOT
HETATM    1  C1  UNL     1      -2.451   0.480   3.196  1.00  0.00     0.015 C 
HETATM    2  C2  UNL     1      -2.469   0.081   2.055  1.00  0.00    -0.076 C 
HETATM    3  C3  UNL     1      -2.522  -0.385   0.706  1.00  0.00     0.158 C 
HETATM    4  C4  UNL     1      -2.180   0.712  -0.328  1.00  0.00     0.069 C 
HETATM    5 BR1  UNL     1      -3.415   2.130  -0.362  1.00  0.00    -0.081 Br
HETATM    6  C5  UNL     1      -2.166  -0.172  -1.554  1.00  0.00     0.047 C 
HETATM    7  C6  UNL     1      -1.621  -1.490  -1.100  1.00  0.00     0.109 C 
HETATM    8 CL1  UNL     1      -2.846  -2.803  -1.180  1.00  0.00    -0.123 Cl
HETATM    9  C7  UNL     1      -1.304  -1.241   0.383  1.00  0.00     0.100 C 
HETATM   10 BR2  UNL     1      -1.187  -2.828   1.404  1.00  0.00    -0.077 Br
ENDROOT
BRANCH   3  11
HETATM   11  O1  UNL     1      -3.721  -0.998   0.370  1.00  0.00    -0.374 OA
ATOM     12  H1  UNL     1      -3.756  -1.308  -0.527  1.00  0.00     0.212 HD
ENDBRANCH   3  11
BRANCH   4  13
HETATM   13  C15 UNL     1      -0.801   1.060   0.186  1.00  0.00     0.035 A 
HETATM   14  C8  UNL     1      -0.186  -0.273   0.556  1.00  0.00     0.069 A 
HETATM   15 CL2  UNL     1       0.539  -0.407   2.157  1.00  0.00    -0.116 Cl
HETATM   16  C9  UNL     1       0.815  -0.055  -0.512  1.00  0.00     0.019 A 
HETATM   17  C14 UNL     1       0.241   1.302  -0.863  1.00  0.00     0.015 A 
BRANCH  16  18
HETATM   18  C10 UNL     1       2.261   0.090  -0.063  1.00  0.00    -0.046 C 
HETATM   19  C11 UNL     1       2.528   1.218   0.858  1.00  0.00     0.015 C 
HETATM   20  C12 UNL     1       2.784  -1.225   0.477  1.00  0.00     0.015 C 
HETATM   21  C13 UNL     1       3.051   0.357  -1.354  1.00  0.00     0.015 C 
ENDBRANCH  16  18
ENDBRANCH   4  13
TORSDOF 4
