REMARK  5 active torsions:
REMARK  status: ('A' for Active; 'I' for Inactive)
REMARK    1  A    between atoms: N1_1  and  C1_4 
REMARK    2  A    between atoms: C4_12  and  S1_13 
REMARK    3  A    between atoms: S1_13  and  C5_14 
REMARK    4  A    between atoms: C5_14  and  C6_15 
REMARK    5  A    between atoms: C9_20  and  N5_21 
ROOT
HETATM    1  S1  UNL     1       1.502   0.846  -1.079  1.00  0.00    -0.088 SA
ENDROOT
BRANCH   1   2
HETATM    2  C4  UNL     1       3.207   0.444  -0.731  1.00  0.00     0.146 A 
HETATM    3  N3  UNL     1       4.282   1.249  -0.665  1.00  0.00    -0.329 N 
HETATM    4  C3  UNL     1       5.382   0.498  -0.369  1.00  0.00     0.148 A 
ATOM      5  H3  UNL     1       4.276   2.258  -0.812  1.00  0.00     0.168 HD
HETATM    6  C2  UNL     1       6.720   0.803  -0.186  1.00  0.00     0.290 A 
HETATM    7  C14 UNL     1       4.972  -0.795  -0.252  1.00  0.00     0.155 A 
HETATM    8  N2  UNL     1       7.602  -0.177   0.105  1.00  0.00    -0.154 N 
HETATM    9  O1  UNL     1       7.134   1.982  -0.286  1.00  0.00    -0.265 OA
HETATM   10  C1  UNL     1       7.192  -1.451   0.220  1.00  0.00     0.680 A 
ATOM     11  H2  UNL     1       8.587   0.052   0.239  1.00  0.00     0.187 HD
HETATM   12  N9  UNL     1       5.888  -1.730   0.039  1.00  0.00    -0.174 N 
ATOM     13  H9  UNL     1       5.582  -2.699   0.127  1.00  0.00     0.186 HD
HETATM   14  N8  UNL     1       3.630  -0.806  -0.478  1.00  0.00    -0.320 N 
ATOM     15  H8  UNL     1       3.037  -1.635  -0.458  1.00  0.00     0.169 HD
BRANCH  10  16
HETATM   16  N1  UNL     1       8.059  -2.356   0.498  1.00  0.00    -0.234 N 
ATOM     17  H12 UNL     1       9.047  -2.145   0.635  1.00  0.00     0.174 HD
ATOM     18  H11 UNL     1       7.748  -3.323   0.585  1.00  0.00     0.174 HD
ENDBRANCH  10  16
ENDBRANCH   1   2
BRANCH   1  19
HETATM   19  C5  UNL     1       0.687   1.213   0.483  1.00  0.00     0.140 C 
BRANCH  19  20
HETATM   20  C6  UNL     1      -0.740   1.563   0.326  1.00  0.00     0.037 A 
HETATM   21  C7  UNL     1      -1.078   2.888   0.138  1.00  0.00     0.044 A 
HETATM   22  C8  UNL     1      -2.393   3.299  -0.018  1.00  0.00     0.108 A 
HETATM   23  N4  UNL     1      -3.327   2.332   0.025  1.00  0.00    -0.202 N 
HETATM   24  C9  UNL     1      -3.050   1.031   0.205  1.00  0.00     0.680 A 
ATOM     25  H4  UNL     1      -4.304   2.604  -0.086  1.00  0.00     0.183 HD
HETATM   26  N7  UNL     1      -1.746   0.671   0.353  1.00  0.00    -0.195 N 
ATOM     27  H7  UNL     1      -1.523  -0.315   0.490  1.00  0.00     0.184 HD
BRANCH  24  28
HETATM   28  N5  UNL     1      -4.088   0.039   0.242  1.00  0.00    -0.214 N 
HETATM   29  C10 UNL     1      -5.438   0.480   0.080  1.00  0.00     0.168 C 
HETATM   30  C11 UNL     1      -6.359  -0.524  -0.520  1.00  0.00     0.252 C 
HETATM   31  N6  UNL     1      -5.889  -1.871  -0.497  1.00  0.00    -0.072 N 
HETATM   32  C12 UNL     1      -5.066  -2.082   0.704  1.00  0.00     0.252 C 
ATOM     33  H62 UNL     1      -6.650  -2.546  -0.566  1.00  0.00     0.277 HD
ATOM     34  H61 UNL     1      -5.394  -2.121  -1.353  1.00  0.00     0.277 HD
HETATM   35  C13 UNL     1      -3.759  -1.362   0.440  1.00  0.00     0.168 C 
ENDBRANCH  24  28
ENDBRANCH  19  20
ENDBRANCH   1  19
TORSDOF 5
