REMARK  10 active torsions:
REMARK  status: ('A' for Active; 'I' for Inactive)
REMARK    1  A    between atoms: O1_2  and  C2_3 
REMARK    2  A    between atoms: C3_5  and  O3_6 
REMARK    3  A    between atoms: O3_6  and  C4_7 
REMARK    4  A    between atoms: C9_12  and  C10_13 
REMARK    5  A    between atoms: C10_13  and  C11_18 
REMARK    6  A    between atoms: N1_14  and  O4_16 
REMARK       I    between atoms: C11_18  and  N2_20 
REMARK    7  A    between atoms: N2_20  and  C12_22 
REMARK    8  A    between atoms: C12_22  and  C13_23 
REMARK    9  A    between atoms: C18_29  and  N3_30 
REMARK   10  A    between atoms: N3_30  and  C19_32 
ROOT
HETATM    1  C4  UNL     1      -0.126   1.824  -0.107  1.00  0.00     0.084 A 
HETATM    2  C5  UNL     1      -0.681   3.020  -0.530  1.00  0.00     0.038 A 
HETATM    3  C6  UNL     1       0.101   4.138  -0.727  1.00  0.00     0.003 A 
HETATM    4  C7  UNL     1       1.439   4.066  -0.501  1.00  0.00     0.001 A 
HETATM    5  C8  UNL     1       1.988   2.838  -0.070  1.00  0.00     0.017 A 
HETATM    6  C9  UNL     1       1.270   1.717   0.138  1.00  0.00     0.032 A 
ENDROOT
BRANCH   1   7
HETATM    7  O3  UNL     1      -0.867   0.692   0.100  1.00  0.00    -0.319 OA
BRANCH   7   8
HETATM    8  C3  UNL     1      -2.221   0.581  -0.076  1.00  0.00     0.271 C 
HETATM    9  O2  UNL     1      -2.891   0.191   1.120  1.00  0.00    -0.329 OA
HETATM   10  C2  UNL     1      -4.207   0.085   0.593  1.00  0.00     0.285 C 
HETATM   11  C18 UNL     1      -3.990  -0.963  -0.452  1.00  0.00     0.142 C 
HETATM   12  C17 UNL     1      -2.617  -0.573  -0.991  1.00  0.00     0.091 C 
BRANCH  10  13
HETATM   13  O1  UNL     1      -5.109  -0.236   1.576  1.00  0.00    -0.364 OA
HETATM   14  C1  UNL     1      -5.999   0.824   1.732  1.00  0.00     0.204 C 
ENDBRANCH  10  13
BRANCH  11  15
HETATM   15  N3  UNL     1      -4.975  -1.021  -1.483  1.00  0.00    -0.371 N 
ATOM     16  H3  UNL     1      -4.697  -0.860  -2.451  1.00  0.00     0.161 HD
BRANCH  15  17
HETATM   17  C19 UNL     1      -6.334  -1.298  -1.185  1.00  0.00     0.066 C 
HETATM   18  C20 UNL     1      -6.673  -2.487  -0.338  1.00  0.00     0.088 C 
HETATM   19  N4  UNL     1      -7.306  -0.551  -1.626  1.00  0.00    -0.389 N 
ATOM     20  H42 UNL     1      -7.075   0.258  -2.202  1.00  0.00     0.157 HD
ATOM     21  H41 UNL     1      -8.283  -0.750  -1.412  1.00  0.00     0.157 HD
ENDBRANCH  15  17
ENDBRANCH  11  15
ENDBRANCH   7   8
ENDBRANCH   1   7
BRANCH   6  22
HETATM   22  C10 UNL     1       1.751   0.408   0.582  1.00  0.00     0.135 C 
HETATM   23  N1  UNL     1       0.901  -0.530   0.717  1.00  0.00    -0.263 N 
ATOM     24  H1  UNL     1      -0.031  -0.192   0.478  1.00  0.00     0.194 HD
BRANCH  23  25
HETATM   25  O4  UNL     1       0.846  -1.757   1.056  1.00  0.00    -0.289 OA
ATOM     26  H4  UNL     1       0.212  -2.457   1.157  1.00  0.00     0.244 HD
ENDBRANCH  23  25
BRANCH  22  27
HETATM   27  C11 UNL     1       3.175   0.202   0.860  1.00  0.00     0.274 C 
HETATM   28  O5  UNL     1       3.947   1.153   0.707  1.00  0.00    -0.266 OA
HETATM   29  N2  UNL     1       3.737  -1.023   1.294  1.00  0.00    -0.333 N 
ATOM     30  H2  UNL     1       3.047  -1.765   1.413  1.00  0.00     0.168 HD
BRANCH  29  31
HETATM   31  C12 UNL     1       5.043  -1.426   1.593  1.00  0.00     0.096 C 
BRANCH  31  32
HETATM   32  C13 UNL     1       6.101  -1.470   0.548  1.00  0.00     0.159 C 
HETATM   33  C14 UNL     1       6.762  -0.248   0.099  1.00  0.00     0.039 C 
HETATM   34  C15 UNL     1       6.466  -0.233  -1.410  1.00  0.00     0.029 C 
HETATM   35  C16 UNL     1       6.405  -1.746  -1.639  1.00  0.00     0.168 C 
HETATM   36  O6  UNL     1       5.717  -2.237  -0.556  1.00  0.00    -0.381 OA
ENDBRANCH  31  32
ENDBRANCH  29  31
ENDBRANCH  22  27
ENDBRANCH   6  22
TORSDOF 10
