REMARK  8 active torsions:
REMARK  status: ('A' for Active; 'I' for Inactive)
REMARK    1  A    between atoms: C2_2  and  C3_3 
REMARK    2  A    between atoms: C3_3  and  N1_4 
REMARK    3  A    between atoms: C7_10  and  C8_11 
REMARK    4  A    between atoms: C8_11  and  O2_12 
REMARK    5  A    between atoms: C9_14  and  O3_15 
REMARK    6  A    between atoms: C10_17  and  O4_18 
REMARK    7  A    between atoms: C12_21  and  O5_22 
REMARK    8  A    between atoms: O5_22  and  C13_23 
ROOT
HETATM    1  N1  UNL     1       3.171  -0.308   1.022  1.00  0.00    -0.387 N 
HETATM    2  C4  UNL     1       2.520   0.946   1.129  1.00  0.00     0.142 C 
HETATM    3  C5  UNL     1       1.670   1.113  -0.141  1.00  0.00     0.145 C 
HETATM    4  N2  UNL     1       0.693   0.163  -0.153  1.00  0.00    -0.356 N 
HETATM    5  C6  UNL     1      -0.597   0.188   0.110  1.00  0.00     0.158 C 
HETATM    6  O1  UNL     1      -1.166  -1.075   0.321  1.00  0.00    -0.326 OA
HETATM    7  C7  UNL     1      -2.105  -1.269   1.241  1.00  0.00     0.186 C 
HETATM    8  C9  UNL     1      -3.571  -1.462   0.808  1.00  0.00     0.189 C 
HETATM    9  C10 UNL     1      -4.036  -0.264  -0.081  1.00  0.00     0.218 C 
HETATM   10  C11 UNL     1      -2.901   0.486  -0.449  1.00  0.00    -0.109 C 
HETATM   11  C12 UNL     1      -1.609   1.028  -0.730  1.00  0.00     0.264 C 
HETATM   12  C15 UNL     1       1.248  -1.154  -0.296  1.00  0.00     0.169 C 
HETATM   13  C16 UNL     1       2.454  -1.412   0.549  1.00  0.00     0.078 C 
ENDROOT
BRANCH  11  14
HETATM   14  O5  UNL     1      -1.252   1.051  -2.081  1.00  0.00    -0.367 OA
BRANCH  14  15
HETATM   15  C13 UNL     1      -0.987   2.294  -2.580  1.00  0.00     0.165 C 
HETATM   16  C14 UNL     1      -2.167   3.248  -2.483  1.00  0.00     0.033 C 
ENDBRANCH  14  15
ENDBRANCH  11  14
BRANCH   7  17
HETATM   17  C8  UNL     1      -1.787  -2.618   1.926  1.00  0.00     0.199 C 
BRANCH  17  18
HETATM   18  O2  UNL     1      -0.539  -2.588   2.523  1.00  0.00    -0.398 OA
ATOM     19  H2  UNL     1      -0.344  -3.417   2.944  1.00  0.00     0.209 HD
ENDBRANCH  17  18
ENDBRANCH   7  17
BRANCH   8  20
HETATM   20  O3  UNL     1      -3.616  -2.649   0.102  1.00  0.00    -0.389 OA
ATOM     21  H3  UNL     1      -4.520  -2.768  -0.165  1.00  0.00     0.210 HD
ENDBRANCH   8  20
BRANCH   9  22
HETATM   22  O4  UNL     1      -4.786  -0.893  -1.114  1.00  0.00    -0.381 OA
ATOM     23  H4  UNL     1      -5.069  -0.165  -1.654  1.00  0.00     0.211 HD
ENDBRANCH   9  22
BRANCH   1  24
HETATM   24  C3  UNL     1       4.580  -0.308   0.946  1.00  0.00     0.148 C 
BRANCH  24  25
HETATM   25  C2  UNL     1       5.156   0.251  -0.279  1.00  0.00    -0.018 C 
HETATM   26  C1  UNL     1       5.967   1.301  -0.213  1.00  0.00     0.008 C 
ENDBRANCH  24  25
ENDBRANCH   1  24
TORSDOF 8
