REMARK  3 active torsions:
REMARK  status: ('A' for Active; 'I' for Inactive)
REMARK       I    between atoms: N1_2  and  C2_4 
REMARK       I    between atoms: C2_4  and  N3_8 
REMARK       I    between atoms: N4_11  and  C5_12 
REMARK       I    between atoms: C5_12  and  N5_14 
REMARK    1  A    between atoms: N5_14  and  C6_16 
REMARK    2  A    between atoms: C6_16  and  C8_18 
REMARK       I    between atoms: C8_18  and  N6_20 
REMARK    3  A    between atoms: N6_20  and  N7_21 
ROOT
HETATM    1  C1  UNL     1      -5.507   1.652   1.018  1.00  0.00     0.165 C 
HETATM    2  N1  UNL     1      -4.764   0.449   1.286  1.00  0.00    -0.231 N 
ATOM      3  H1  UNL     1      -4.559   0.204   2.255  1.00  0.00     0.177 HD
HETATM    4  C2  UNL     1      -4.308  -0.404   0.259  1.00  0.00     0.669 C 
HETATM    5  N2  UNL     1      -5.118  -1.101  -0.400  1.00  0.00    -0.235 N 
ATOM      6  H21 UNL     1      -4.788  -1.718  -1.143  1.00  0.00     0.174 HD
ATOM      7  H22 UNL     1      -6.122  -1.073  -0.221  1.00  0.00     0.174 HD
HETATM    8  N3  UNL     1      -2.898  -0.444   0.008  1.00  0.00    -0.215 N 
HETATM    9  C3  UNL     1      -2.317  -1.738  -0.161  1.00  0.00     0.161 C 
HETATM   10  C4  UNL     1      -0.848  -1.833  -0.233  1.00  0.00     0.148 C 
HETATM   11  N4  UNL     1      -0.125  -0.588  -0.042  1.00  0.00    -0.331 N 
HETATM   12  C5  UNL     1       1.250  -0.553  -0.365  1.00  0.00     0.319 C 
HETATM   13  O1  UNL     1       1.737  -1.649  -0.829  1.00  0.00    -0.247 OA
HETATM   14  N5  UNL     1       2.119   0.553  -0.224  1.00  0.00    -0.329 N 
ATOM     15  H5  UNL     1       1.779   1.445   0.136  1.00  0.00     0.165 HD
HETATM   16  C9  UNL     1      -0.755   0.598   0.461  1.00  0.00     0.148 C 
HETATM   17  C10 UNL     1      -2.162   0.761  -0.065  1.00  0.00     0.161 C 
ENDROOT
BRANCH  14  18
HETATM   18  C6  UNL     1       3.514   0.383  -0.608  1.00  0.00     0.191 C 
HETATM   19  C7  UNL     1       3.913   1.581  -1.419  1.00  0.00     0.043 C 
BRANCH  18  20
HETATM   20  C8  UNL     1       4.363   0.326   0.657  1.00  0.00     0.334 C 
HETATM   21  O2  UNL     1       3.932   1.174   1.519  1.00  0.00    -0.253 OA
HETATM   22  N6  UNL     1       5.394  -0.517   0.782  1.00  0.00    -0.292 NA
BRANCH  22  23
HETATM   23  N7  UNL     1       6.417  -1.356   0.906  1.00  0.00    -0.277 N 
ATOM     24  H72 UNL     1       5.586  -0.774   0.804  1.00  0.00     0.191 HD
ATOM     25  H71 UNL     1       7.203  -1.999   1.001  1.00  0.00     0.191 HD
ENDBRANCH  22  23
ENDBRANCH  18  20
ENDBRANCH  14  18
TORSDOF 3
