REMARK  9 active torsions:
REMARK  status: ('A' for Active; 'I' for Inactive)
REMARK    1  A    between atoms: N1_1  and  C1_4 
REMARK    2  A    between atoms: C2_7  and  O1_8 
REMARK    3  A    between atoms: O1_8  and  C3_9 
REMARK    4  A    between atoms: N3_16  and  C9_17 
REMARK    5  A    between atoms: N4_20  and  C12_21 
REMARK    6  A    between atoms: C12_21  and  C13_22 
REMARK    7  A    between atoms: C13_22  and  C14_23 
REMARK    8  A    between atoms: C14_23  and  O2_24 
REMARK    9  A    between atoms: O2_24  and  C15_25 
ROOT
HETATM    1  C1  UNL     1      -5.238  -1.466   0.006  1.00  0.00     0.111 A 
HETATM    2  N2  UNL     1      -4.840  -0.335  -0.544  1.00  0.00    -0.307 N 
ATOM      3  H2  UNL     1      -5.556   0.232  -0.999  1.00  0.00     0.171 HD
HETATM    4  C2  UNL     1      -3.565   0.151  -0.564  1.00  0.00     0.238 A 
HETATM    5  N3  UNL     1      -2.627  -0.605   0.033  1.00  0.00    -0.278 N 
HETATM    6  C23 UNL     1      -3.013  -1.798   0.623  1.00  0.00     0.089 A 
HETATM    7  C24 UNL     1      -4.281  -2.275   0.644  1.00  0.00     0.020 A 
HETATM    8  C25 UNL     1      -4.481  -3.563   1.324  1.00  0.00     0.056 C 
HETATM    9  C26 UNL     1      -3.242  -4.405   1.207  1.00  0.00     0.086 C 
HETATM   10  S1  UNL     1      -2.010  -3.049   1.484  1.00  0.00    -0.111 SA
ENDROOT
BRANCH   5  11
HETATM   11  C9  UNL     1      -1.233  -0.415   0.003  1.00  0.00     0.002 C 
HETATM   12  C10 UNL     1      -0.619   0.477  -1.013  1.00  0.00     0.083 C 
HETATM   13  C11 UNL     1       0.749  -0.073  -1.298  1.00  0.00     0.278 C 
HETATM   14  N4  UNL     1       1.459  -0.718  -0.264  1.00  0.00     0.089 N 
HETATM   15  C21 UNL     1       0.940  -0.689   1.051  1.00  0.00     0.278 C 
HETATM   16  C22 UNL     1      -0.468  -0.207   1.261  1.00  0.00     0.083 C 
BRANCH  14  17
HETATM   17  C12 UNL     1       1.906  -2.060  -0.646  1.00  0.00     0.274 C 
BRANCH  17  18
HETATM   18  C13 UNL     1       2.945  -2.633   0.265  1.00  0.00     0.057 C 
BRANCH  18  19
HETATM   19  C14 UNL     1       4.236  -1.841   0.226  1.00  0.00     0.177 C 
BRANCH  19  20
HETATM   20  O2  UNL     1       4.125  -0.503   0.570  1.00  0.00    -0.348 OA
BRANCH  20  21
HETATM   21  C15 UNL     1       5.212   0.346   0.553  1.00  0.00     0.112 A 
HETATM   22  C16 UNL     1       5.993   0.520   1.689  1.00  0.00     0.070 A 
HETATM   23 CL1  UNL     1       5.642  -0.325   3.195  1.00  0.00    -0.081 Cl
HETATM   24  C17 UNL     1       7.083   1.360   1.695  1.00  0.00     0.050 A 
HETATM   25  C18 UNL     1       7.416   2.049   0.553  1.00  0.00     0.037 A 
HETATM   26 CL2  UNL     1       8.809   3.132   0.527  1.00  0.00    -0.084 Cl
HETATM   27  C19 UNL     1       6.657   1.888  -0.574  1.00  0.00     0.050 A 
HETATM   28  C20 UNL     1       5.568   1.048  -0.578  1.00  0.00     0.070 A 
HETATM   29 CL3  UNL     1       4.654   0.904  -2.057  1.00  0.00    -0.081 Cl
ENDBRANCH  20  21
ENDBRANCH  19  20
ENDBRANCH  18  19
ENDBRANCH  17  18
ENDBRANCH  14  17
ENDBRANCH   5  11
BRANCH   4  30
HETATM   30  O1  UNL     1      -3.269   1.310  -1.158  1.00  0.00    -0.276 OA
BRANCH  30  31
HETATM   31  C3  UNL     1      -3.349   2.628  -0.838  1.00  0.00     0.117 A 
HETATM   32  C4  UNL     1      -3.892   3.462  -1.865  1.00  0.00     0.040 A 
HETATM   33  C5  UNL     1      -4.040   4.813  -1.687  1.00  0.00     0.003 A 
HETATM   34  C6  UNL     1      -3.672   5.429  -0.512  1.00  0.00     0.003 A 
HETATM   35  C7  UNL     1      -3.153   4.671   0.488  1.00  0.00     0.045 A 
HETATM   36  C8  UNL     1      -3.012   3.299   0.291  1.00  0.00     0.150 A 
HETATM   37  F1  UNL     1      -2.561   2.629   1.365  1.00  0.00    -0.203 F 
ENDBRANCH  30  31
ENDBRANCH   4  30
BRANCH   1  38
HETATM   38  N1  UNL     1      -6.471  -1.887  -0.009  1.00  0.00    -0.385 N 
ATOM     39  H12 UNL     1      -7.165  -1.300  -0.472  1.00  0.00     0.157 HD
ATOM     40  H11 UNL     1      -6.779  -2.762   0.416  1.00  0.00     0.157 HD
ENDBRANCH   1  38
TORSDOF 9
