REMARK  8 active torsions:
REMARK  status: ('A' for Active; 'I' for Inactive)
REMARK       I    between atoms: N1_1  and  C1_5 
REMARK       I    between atoms: C1_5  and  N2_6 
REMARK       I    between atoms: C1_5  and  N3_10 
REMARK    1  A    between atoms: N4_12  and  N5_14 
REMARK       I    between atoms: N5_14  and  C2_16 
REMARK       I    between atoms: C2_16  and  N6_18 
REMARK    2  A    between atoms: N6_18  and  N7_20 
REMARK       I    between atoms: N7_20  and  C3_22 
REMARK    3  A    between atoms: C3_22  and  C4_24 
REMARK    4  A    between atoms: C4_24  and  C5_25 
REMARK    5  A    between atoms: C4_24  and  N8_27 
REMARK    6  A    between atoms: N8_27  and  O3_28 
REMARK    7  A    between atoms: N8_27  and  C6_30 
REMARK    8  A    between atoms: C7_33  and  N10_34 
ROOT
HETATM    1  N7  UNL     1       0.742  -1.009   1.029  1.00  0.00    -0.264 N 
ATOM      2  H7  UNL     1       0.318  -1.134   1.948  1.00  0.00     0.190 HD
HETATM    3  C3  UNL     1      -0.139  -0.638   0.014  1.00  0.00     0.262 C 
HETATM    4  O2  UNL     1       0.148  -0.425  -1.174  1.00  0.00    -0.269 OA
ENDROOT
BRANCH   1   5
HETATM    5  N6  UNL     1       2.075  -1.227   0.974  1.00  0.00    -0.248 N 
HETATM    6  C2  UNL     1       2.967  -1.235  -0.100  1.00  0.00     0.354 C 
HETATM    7  N5  UNL     1       4.352  -1.505   0.161  1.00  0.00    -0.236 N 
HETATM    8  O1  UNL     1       2.659  -1.028  -1.266  1.00  0.00    -0.244 OA
ATOM      9  H5  UNL     1       4.681  -1.690   1.108  1.00  0.00     0.193 HD
ATOM     10  H6  UNL     1       2.506  -1.420   1.878  1.00  0.00     0.192 HD
BRANCH   7  11
HETATM   11  N4  UNL     1       5.232  -1.507  -0.916  1.00  0.00    -0.240 N 
HETATM   12  N3  UNL     1       6.174  -0.716  -1.068  1.00  0.00    -0.269 N 
HETATM   13  C1  UNL     1       6.484   0.327  -0.129  1.00  0.00     0.495 C 
ATOM     14  H3  UNL     1       6.757  -0.810  -1.899  1.00  0.00     0.185 HD
HETATM   15  N1  UNL     1       7.191   1.369  -0.891  1.00  0.00    -0.032 N 
HETATM   16  N2  UNL     1       5.323   0.849   0.518  1.00  0.00    -0.032 N 
ATOM     17  H13 UNL     1       6.570   1.832  -1.555  1.00  0.00     0.279 HD
ATOM     18  H12 UNL     1       7.420   2.171  -0.303  1.00  0.00     0.279 HD
ATOM     19  H11 UNL     1       8.020   0.996  -1.353  1.00  0.00     0.279 HD
ATOM     20  H23 UNL     1       5.552   1.651   1.106  1.00  0.00     0.279 HD
ATOM     21  H22 UNL     1       4.702   1.312  -0.146  1.00  0.00     0.279 HD
ATOM     22  H21 UNL     1       4.833   0.127   1.046  1.00  0.00     0.279 HD
ATOM     23  H4  UNL     1       5.091  -2.215  -1.637  1.00  0.00     0.208 HD
ENDBRANCH   7  11
ENDBRANCH   1   5
BRANCH   3  24
HETATM   24  C4  UNL     1      -1.593  -0.470   0.362  1.00  0.00     0.221 C 
BRANCH  24  25
HETATM   25  C5  UNL     1      -2.251  -1.861   0.357  1.00  0.00     0.123 C 
HETATM   26  S1  UNL     1      -1.526  -2.991   1.535  1.00  0.00    -0.095 SA
ENDBRANCH  24  25
BRANCH  24  27
HETATM   27  N8  UNL     1      -2.282   0.326  -0.624  1.00  0.00    -0.215 N 
BRANCH  27  28
HETATM   28  O3  UNL     1      -1.688   0.746  -1.749  1.00  0.00    -0.284 OA
ATOM     29  H3  UNL     1      -2.142   1.270  -2.398  1.00  0.00     0.245 HD
ENDBRANCH  27  28
BRANCH  27  30
HETATM   30  C6  UNL     1      -3.662   0.694  -0.403  1.00  0.00     0.200 C 
HETATM   31  N9  UNL     1      -4.423   1.286  -1.279  1.00  0.00    -0.332 N 
HETATM   32  C7  UNL     1      -5.734   1.505  -0.728  1.00  0.00     0.302 C 
ATOM     33  H9  UNL     1      -4.132   1.555  -2.219  1.00  0.00     0.164 HD
HETATM   34  C8  UNL     1      -5.785   0.472   0.390  1.00  0.00     0.177 C 
HETATM   35  N11 UNL     1      -4.391   0.469   0.792  1.00  0.00    -0.357 N 
ATOM     36  H11 UNL     1      -4.016   0.334   1.731  1.00  0.00     0.162 HD
BRANCH  32  37
HETATM   37  N10 UNL     1      -5.779   2.804  -0.028  1.00  0.00    -0.057 N 
ATOM     38 3H10 UNL     1      -5.049   2.881   0.680  1.00  0.00     0.276 HD
ATOM     39 2H10 UNL     1      -5.485   3.573  -0.630  1.00  0.00     0.276 HD
ATOM     40 1H10 UNL     1      -6.708   2.959   0.363  1.00  0.00     0.276 HD
ENDBRANCH  32  37
ENDBRANCH  27  30
ENDBRANCH  24  27
ENDBRANCH   3  24
TORSDOF 8
