REMARK  5 active torsions:
REMARK  status: ('A' for Active; 'I' for Inactive)
REMARK       I    between atoms: C1_4  and  N2_5 
REMARK       I    between atoms: C1_4  and  N4_10 
REMARK    1  A    between atoms: N2_5  and  N3_7 
REMARK    2  A    between atoms: N4_10  and  S1_12 
REMARK    3  A    between atoms: S1_12  and  C2_15 
REMARK    4  A    between atoms: C4_17  and  N5_18 
REMARK       I    between atoms: N6_20  and  C5_22 
REMARK       I    between atoms: C5_22  and  N7_23 
REMARK       I    between atoms: C5_22  and  N8_27 
REMARK    5  A    between atoms: N10_35  and  N11_36 
ROOT
HETATM    1  C2  UNL     1       0.646  -0.530  -0.469  1.00  0.00     0.153 C 
HETATM    2  C3  UNL     1      -0.447  -1.474  -0.458  1.00  0.00     0.092 A 
HETATM    3  C4  UNL     1      -1.537  -1.173   0.377  1.00  0.00     0.140 A 
HETATM    4  N9  UNL     1      -2.595  -1.972   0.470  1.00  0.00    -0.291 N 
ATOM      5  H9  UNL     1      -3.363  -1.713   1.089  1.00  0.00     0.172 HD
HETATM    6  C6  UNL     1      -2.673  -3.111  -0.233  1.00  0.00     0.349 A 
HETATM    7  O3  UNL     1      -3.702  -3.853  -0.119  1.00  0.00    -0.244 OA
HETATM    8  N10 UNL     1      -1.655  -3.430  -1.036  1.00  0.00    -0.174 N 
HETATM    9  C7  UNL     1      -0.552  -2.634  -1.158  1.00  0.00     0.284 A 
HETATM   10  O4  UNL     1       0.351  -3.046  -1.955  1.00  0.00    -0.265 OA
ENDROOT
BRANCH   1  11
HETATM   11  S1  UNL     1       2.025  -0.822  -1.482  1.00  0.00     0.267 S 
HETATM   12  O1  UNL     1       2.830  -2.043  -1.119  1.00  0.00    -0.201 OA
HETATM   13  O2  UNL     1       1.723  -0.857  -2.953  1.00  0.00    -0.201 OA
BRANCH  11  14
HETATM   14  N4  UNL     1       3.129   0.519  -1.214  1.00  0.00    -0.112 N 
HETATM   15  C1  UNL     1       3.680   0.761   0.067  1.00  0.00     0.699 C 
HETATM   16  N1  UNL     1       3.927  -0.239   0.825  1.00  0.00    -0.233 N 
HETATM   17  N2  UNL     1       3.952   2.084   0.496  1.00  0.00    -0.138 N 
ATOM     18  H12 UNL     1       4.324  -0.065   1.748  1.00  0.00     0.174 HD
ATOM     19  H11 UNL     1       3.731  -1.191   0.516  1.00  0.00     0.174 HD
ATOM     20  H2  UNL     1       4.893   2.315   0.816  1.00  0.00     0.205 HD
ATOM     21  H4  UNL     1       3.376   1.131  -1.992  1.00  0.00     0.197 HD
BRANCH  17  22
HETATM   22  N3  UNL     1       2.973   3.084   0.495  1.00  0.00    -0.331 N 
ATOM     23  H32 UNL     1       2.038   2.836   0.172  1.00  0.00     0.177 HD
ATOM     24  H31 UNL     1       3.169   4.036   0.804  1.00  0.00     0.177 HD
ENDBRANCH  17  22
ENDBRANCH  11  14
ENDBRANCH   1  11
BRANCH   3  25
HETATM   25  N5  UNL     1      -1.508   0.008   1.136  1.00  0.00    -0.286 N 
HETATM   26  N6  UNL     1      -2.196   1.012   0.814  1.00  0.00    -0.282 N 
HETATM   27  C5  UNL     1      -2.240   2.252   1.511  1.00  0.00     0.494 C 
ATOM     28  H6  UNL     1      -2.774   0.929  -0.022  1.00  0.00     0.184 HD
HETATM   29  N7  UNL     1      -3.503   2.949   1.374  1.00  0.00    -0.032 N 
HETATM   30  N8  UNL     1      -1.195   3.180   1.135  1.00  0.00    -0.032 N 
ATOM     31  H73 UNL     1      -3.738   3.080   0.390  1.00  0.00     0.279 HD
ATOM     32  H72 UNL     1      -4.278   2.349   1.656  1.00  0.00     0.279 HD
ATOM     33  H71 UNL     1      -3.535   3.838   1.874  1.00  0.00     0.279 HD
ATOM     34  H83 UNL     1      -0.278   2.745   1.237  1.00  0.00     0.279 HD
ATOM     35  H82 UNL     1      -1.202   3.336   0.127  1.00  0.00     0.279 HD
ATOM     36  H81 UNL     1      -1.227   4.069   1.635  1.00  0.00     0.279 HD
ATOM     37  H5  UNL     1      -0.917   0.053   1.966  1.00  0.00     0.188 HD
ENDBRANCH   3  25
BRANCH   8  38
HETATM   38  N11 UNL     1      -1.726  -4.628  -1.782  1.00  0.00    -0.332 N 
ATOM     39 2H11 UNL     1      -2.550  -5.223  -1.691  1.00  0.00     0.177 HD
ATOM     40 1H11 UNL     1      -0.948  -4.872  -2.395  1.00  0.00     0.177 HD
ENDBRANCH   8  38
TORSDOF 5
