REMARK  10 active torsions:
REMARK  status: ('A' for Active; 'I' for Inactive)
REMARK    1  A    between atoms: C2_2  and  C3_3 
REMARK    2  A    between atoms: C3_3  and  C4_4 
REMARK    3  A    between atoms: C4_4  and  C5_5 
REMARK    4  A    between atoms: C5_5  and  C6_6 
REMARK    5  A    between atoms: N1_9  and  C9_10 
REMARK    6  A    between atoms: C9_10  and  C10_11 
REMARK    7  A    between atoms: C10_11  and  N2_12 
REMARK    8  A    between atoms: N2_12  and  C11_14 
REMARK    9  A    between atoms: C11_14  and  N3_16 
REMARK   10  A    between atoms: N3_16  and  C12_18 
ROOT
HETATM    1  N2  UNL     1      -1.398   1.629   0.464  1.00  0.00    -0.366 N 
ATOM      2  H2  UNL     1      -1.643   2.377   1.113  1.00  0.00     0.161 HD
ENDROOT
BRANCH   1   3
HETATM    3  C10 UNL     1      -0.007   1.448   0.154  1.00  0.00     0.141 C 
BRANCH   3   4
HETATM    4  C9  UNL     1       0.531   0.208   0.791  1.00  0.00     0.136 C 
BRANCH   4   5
HETATM    5  N1  UNL     1       1.908  -0.020   0.559  1.00  0.00    -0.411 N 
HETATM    6  C8  UNL     1       2.837   0.884   1.140  1.00  0.00     0.117 C 
HETATM    7  C7  UNL     1       3.822   1.401   0.090  1.00  0.00     0.024 C 
HETATM    8  C6  UNL     1       4.602   0.221  -0.489  1.00  0.00    -0.012 C 
HETATM    9  C23 UNL     1       3.754  -1.023  -0.598  1.00  0.00     0.024 C 
HETATM   10  C22 UNL     1       2.302  -0.577  -0.675  1.00  0.00     0.117 C 
BRANCH   8  11
HETATM   11  C5  UNL     1       5.757  -0.042   0.449  1.00  0.00     0.005 C 
BRANCH  11  12
HETATM   12  C4  UNL     1       6.551  -1.198  -0.083  1.00  0.00     0.000 C 
BRANCH  12  13
HETATM   13  C3  UNL     1       7.730  -1.532   0.784  1.00  0.00    -0.000 C 
BRANCH  13  14
HETATM   14  C2  UNL     1       8.720  -0.396   0.921  1.00  0.00    -0.005 C 
HETATM   15  C1  UNL     1       9.275  -0.011  -0.426  1.00  0.00     0.005 C 
ENDBRANCH  13  14
ENDBRANCH  12  13
ENDBRANCH  11  12
ENDBRANCH   8  11
ENDBRANCH   4   5
ENDBRANCH   3   4
ENDBRANCH   1   3
BRANCH   1  16
HETATM   16  C11 UNL     1      -2.456   0.848  -0.063  1.00  0.00     0.168 C 
HETATM   17  S1  UNL     1      -2.079  -0.303  -1.158  1.00  0.00    -0.041 SA
BRANCH  16  18
HETATM   18  N3  UNL     1      -3.784   1.115   0.345  1.00  0.00    -0.358 N 
ATOM     19  H3  UNL     1      -3.894   1.876   1.016  1.00  0.00     0.162 HD
BRANCH  18  20
HETATM   20  C12 UNL     1      -4.983   0.470  -0.051  1.00  0.00     0.033 C 
HETATM   21  C13 UNL     1      -4.966  -0.974   0.312  1.00  0.00     0.035 C 
HETATM   22  C14 UNL     1      -6.198  -1.704  -0.236  1.00  0.00    -0.012 C 
HETATM   23  C15 UNL     1      -6.323  -1.431  -1.699  1.00  0.00     0.009 C 
HETATM   24  C19 UNL     1      -7.375  -1.135   0.555  1.00  0.00     0.009 C 
HETATM   25  C16 UNL     1      -6.560   0.054  -1.927  1.00  0.00    -0.012 C 
HETATM   26  C17 UNL     1      -7.743   0.560  -1.147  1.00  0.00     0.009 C 
HETATM   27  C21 UNL     1      -5.307   0.755  -1.502  1.00  0.00     0.035 C 
HETATM   28  C18 UNL     1      -7.420   0.353   0.320  1.00  0.00    -0.012 C 
HETATM   29  C20 UNL     1      -6.174   1.076   0.724  1.00  0.00     0.035 C 
ENDBRANCH  18  20
ENDBRANCH  16  18
ENDBRANCH   1  16
TORSDOF 10
