REMARK  7 active torsions:
REMARK  status: ('A' for Active; 'I' for Inactive)
REMARK    1  A    between atoms: C2_2  and  C3_3 
REMARK    2  A    between atoms: N1_6  and  C6_7 
REMARK    3  A    between atoms: C9_11  and  O1_12 
REMARK    4  A    between atoms: C10_14  and  O2_16 
REMARK    5  A    between atoms: O2_16  and  C12_17 
REMARK    6  A    between atoms: C14_19  and  O3_20 
REMARK    7  A    between atoms: C16_23  and  O4_24 
ROOT
HETATM    1  C6  UNL     1       2.221  -1.287   0.298  1.00  0.00     0.090 C 
HETATM    2  C7  UNL     1       1.024  -0.963  -0.146  1.00  0.00    -0.041 C 
HETATM    3  C8  UNL     1       0.502   0.392  -0.461  1.00  0.00     0.120 C 
HETATM    4 BR1  UNL     1       1.412   1.183  -1.974  1.00  0.00    -0.084 Br
HETATM    5  C9  UNL     1      -0.976   0.155  -0.805  1.00  0.00     0.172 C 
HETATM    6  C10 UNL     1      -1.270  -1.098  -0.015  1.00  0.00     0.098 C 
HETATM    7  C11 UNL     1      -1.132  -0.740   1.450  1.00  0.00     0.050 C 
HETATM    8  C19 UNL     1      -0.080  -1.957  -0.414  1.00  0.00     0.050 C 
HETATM    9  C20 UNL     1       0.078  -3.165   0.452  1.00  0.00     0.018 C 
ENDROOT
BRANCH   6  10
HETATM   10  O2  UNL     1      -2.498  -1.692  -0.289  1.00  0.00    -0.337 OA
BRANCH  10  11
HETATM   11  C12 UNL     1      -3.665  -0.975  -0.072  1.00  0.00     0.075 A 
HETATM   12  C13 UNL     1      -4.239  -1.082   1.199  1.00  0.00     0.073 A 
HETATM   13  C14 UNL     1      -5.397  -0.377   1.429  1.00  0.00     0.070 A 
HETATM   14  C15 UNL     1      -5.997   0.412   0.477  1.00  0.00     0.073 A 
HETATM   15  C16 UNL     1      -5.445   0.528  -0.779  1.00  0.00     0.073 A 
HETATM   16  C18 UNL     1      -4.270  -0.183  -1.024  1.00  0.00     0.073 A 
BRANCH  13  17
HETATM   17  O3  UNL     1      -5.962  -0.491   2.704  1.00  0.00    -0.361 OA
ATOM     18  H3  UNL     1      -6.762  -0.004   2.863  1.00  0.00     0.217 HD
ENDBRANCH  13  17
BRANCH  15  19
HETATM   19  O4  UNL     1      -5.985   1.295  -1.781  1.00  0.00    -0.356 OA
HETATM   20  C17 UNL     1      -7.192   2.009  -1.486  1.00  0.00     0.210 C 
ENDBRANCH  15  19
ENDBRANCH  10  11
ENDBRANCH   6  10
BRANCH   5  21
HETATM   21  O1  UNL     1      -0.967  -0.117  -2.189  1.00  0.00    -0.391 OA
ATOM     22  H1  UNL     1      -1.881  -0.264  -2.402  1.00  0.00     0.210 HD
ENDBRANCH   5  21
BRANCH   1  23
HETATM   23  N1  UNL     1       3.266  -0.361   0.564  1.00  0.00    -0.389 N 
HETATM   24  C5  UNL     1       3.307   0.599   1.644  1.00  0.00     0.122 C 
HETATM   25  C4  UNL     1       4.125   1.720   1.040  1.00  0.00     0.026 C 
HETATM   26  C3  UNL     1       5.211   0.964   0.315  1.00  0.00     0.005 C 
HETATM   27  C21 UNL     1       4.479  -0.242  -0.215  1.00  0.00     0.126 C 
BRANCH  26  28
HETATM   28  C2  UNL     1       5.796   1.824  -0.772  1.00  0.00     0.002 C 
HETATM   29  C1  UNL     1       6.885   1.086  -1.509  1.00  0.00     0.005 C 
ENDBRANCH  26  28
ENDBRANCH   1  23
TORSDOF 7
