REMARK  7 active torsions:
REMARK  status: ('A' for Active; 'I' for Inactive)
REMARK    1  A    between atoms: C2_2  and  C3_3 
REMARK    2  A    between atoms: C3_3  and  N1_4 
REMARK    3  A    between atoms: N1_4  and  C4_6 
REMARK    4  A    between atoms: N3_10  and  C6_12 
REMARK    5  A    between atoms: C6_12  and  C7_13 
REMARK    6  A    between atoms: C14_23  and  S2_24 
REMARK    7  A    between atoms: S2_24  and  N5_25 
ROOT
HETATM    1  C4  UNL     1       0.501   0.280   0.246  1.00  0.00     0.117 A 
HETATM    2  N2  UNL     1      -0.848   0.170   0.159  1.00  0.00    -0.322 N 
ATOM      3  H2  UNL     1      -1.370   1.033   0.310  1.00  0.00     0.169 HD
HETATM    4  C5  UNL     1      -1.576  -0.895  -0.093  1.00  0.00     0.148 A 
HETATM    5  N3  UNL     1      -2.863  -0.902  -0.157  1.00  0.00    -0.370 N 
ATOM      6  H3  UNL     1      -3.352  -1.774  -0.358  1.00  0.00     0.161 HD
HETATM    7  S1  UNL     1      -0.683  -2.314  -0.339  1.00  0.00    -0.035 SA
HETATM    8  C11 UNL     1       1.004  -2.053  -0.204  1.00  0.00     0.093 A 
HETATM    9  N4  UNL     1       2.068  -2.860  -0.317  1.00  0.00    -0.349 N 
ATOM     10  H4  UNL     1       2.036  -3.859  -0.522  1.00  0.00     0.166 HD
HETATM   11  C12 UNL     1       3.178  -2.142  -0.117  1.00  0.00     0.047 A 
HETATM   12  C13 UNL     1       4.512  -2.492  -0.123  1.00  0.00     0.055 A 
HETATM   13  C14 UNL     1       5.509  -1.576   0.111  1.00  0.00     0.083 A 
HETATM   14  C15 UNL     1       5.119  -0.303   0.351  1.00  0.00     0.050 A 
HETATM   15  C16 UNL     1       3.785   0.122   0.374  1.00  0.00     0.049 A 
HETATM   16 CL1  UNL     1       3.478   1.798   0.700  1.00  0.00    -0.083 Cl
HETATM   17  C17 UNL     1       2.802  -0.801   0.138  1.00  0.00     0.029 A 
HETATM   18  C18 UNL     1       1.396  -0.739   0.083  1.00  0.00     0.056 A 
ENDROOT
BRANCH   5  19
HETATM   19  C6  UNL     1      -3.625   0.312   0.053  1.00  0.00     0.130 C 
BRANCH  19  20
HETATM   20  C7  UNL     1      -5.107   0.075  -0.029  1.00  0.00    -0.035 C 
HETATM   21  C8  UNL     1      -5.583  -0.921   1.010  1.00  0.00     0.016 C 
HETATM   22  C9  UNL     1      -5.804   1.394   0.237  1.00  0.00     0.016 C 
HETATM   23  C10 UNL     1      -5.512  -0.426  -1.382  1.00  0.00     0.016 C 
ENDBRANCH  19  20
ENDBRANCH   5  19
BRANCH   1  24
HETATM   24  N1  UNL     1       0.869   1.484   0.509  1.00  0.00    -0.372 N 
ATOM     25  H1  UNL     1       1.873   1.644   0.590  1.00  0.00     0.161 HD
BRANCH  24  26
HETATM   26  C3  UNL     1       0.019   2.631   0.702  1.00  0.00     0.147 C 
BRANCH  26  27
HETATM   27  C2  UNL     1      -0.319   3.231  -0.597  1.00  0.00    -0.018 C 
HETATM   28  C1  UNL     1      -0.007   4.500  -0.917  1.00  0.00     0.008 C 
ENDBRANCH  26  27
ENDBRANCH  24  26
ENDBRANCH   1  24
BRANCH  13  29
HETATM   29  S2  UNL     1       7.157  -2.088   0.087  1.00  0.00     0.256 S 
HETATM   30  O1  UNL     1       7.276  -3.524   0.564  1.00  0.00    -0.201 OA
HETATM   31  O2  UNL     1       8.002  -1.272   1.039  1.00  0.00    -0.201 OA
BRANCH  29  32
HETATM   32  N5  UNL     1       7.872  -1.970  -1.474  1.00  0.00    -0.324 N 
ATOM     33  H52 UNL     1       7.362  -1.631  -2.290  1.00  0.00     0.169 HD
ATOM     34  H51 UNL     1       8.846  -2.273  -1.488  1.00  0.00     0.169 HD
ENDBRANCH  29  32
ENDBRANCH  13  29
TORSDOF 7
