REMARK  11 active torsions:
REMARK  status: ('A' for Active; 'I' for Inactive)
REMARK    1  A    between atoms: C1_2  and  C2_4 
REMARK    2  A    between atoms: C2_4  and  N2_5 
REMARK    3  A    between atoms: C2_4  and  C3_9 
REMARK    4  A    between atoms: C3_9  and  O2_10 
REMARK    5  A    between atoms: C3_9  and  O3_12 
REMARK    6  A    between atoms: C3_9  and  C4_14 
REMARK    7  A    between atoms: C5_15  and  S1_16 
REMARK    8  A    between atoms: S1_16  and  N3_17 
REMARK    9  A    between atoms: C7_23  and  O6_24 
REMARK   10  A    between atoms: C8_26  and  O7_27 
REMARK   11  A    between atoms: C10_31  and  O9_32 
ROOT
HETATM    1  C4  UNL     1       0.189  -0.142  -0.326  1.00  0.00     0.066 C 
HETATM    2  C5  UNL     1       0.998   0.886   0.075  1.00  0.00     0.096 C 
HETATM    3  C6  UNL     1       2.416   0.830   0.137  1.00  0.00     0.065 C 
HETATM    4  C7  UNL     1       3.289  -0.237   0.131  1.00  0.00     0.104 C 
HETATM    5  C8  UNL     1       2.960  -1.545   0.350  1.00  0.00     0.152 C 
HETATM    6  C9  UNL     1       1.758  -2.129   0.005  1.00  0.00     0.241 C 
HETATM    7  O8  UNL     1       1.801  -3.379  -0.058  1.00  0.00    -0.282 OA
HETATM    8  C10 UNL     1       0.559  -1.508  -0.268  1.00  0.00     0.132 C 
ENDROOT
BRANCH   1   9
HETATM    9  C3  UNL     1      -1.127   0.224  -0.826  1.00  0.00     0.230 C 
BRANCH   9  10
HETATM   10  C2  UNL     1      -2.224   0.524   0.158  1.00  0.00     0.338 C 
BRANCH  10  11
HETATM   11  C1  UNL     1      -3.548   0.206  -0.546  1.00  0.00     0.267 C 
HETATM   12  N1  UNL     1      -4.352  -0.904  -0.192  1.00  0.00    -0.060 NA
HETATM   13  O1  UNL     1      -3.975   0.931  -1.478  1.00  0.00    -0.274 OA
ENDBRANCH  10  11
BRANCH  10  14
HETATM   14  N2  UNL     1      -2.147  -0.517   1.178  1.00  0.00    -0.061 N 
ATOM     15  H23 UNL     1      -2.957  -0.572   1.795  1.00  0.00     0.275 HD
ATOM     16  H22 UNL     1      -2.225  -1.470   0.824  1.00  0.00     0.275 HD
ATOM     17  H21 UNL     1      -1.266  -0.305   1.646  1.00  0.00     0.275 HD
ENDBRANCH  10  14
ENDBRANCH   9  10
BRANCH   9  18
HETATM   18  O2  UNL     1      -1.641  -1.089  -1.228  1.00  0.00    -0.360 OA
ATOM     19  H2  UNL     1      -0.948  -1.279  -1.850  1.00  0.00     0.213 HD
ENDBRANCH   9  18
BRANCH   9  20
HETATM   20  O3  UNL     1      -1.162   0.863  -2.019  1.00  0.00    -0.360 OA
ATOM     21  H3  UNL     1      -0.469   0.673  -2.641  1.00  0.00     0.213 HD
ENDBRANCH   9  20
ENDBRANCH   1   9
BRANCH   2  22
HETATM   22  S1  UNL     1       0.294   2.345   0.524  1.00  0.00     0.257 S 
HETATM   23  O4  UNL     1      -0.290   2.382   1.940  1.00  0.00    -0.201 OA
HETATM   24  O5  UNL     1      -0.419   3.168  -0.454  1.00  0.00    -0.201 OA
BRANCH  22  25
HETATM   25  N3  UNL     1       1.647   3.486   0.865  1.00  0.00    -0.324 N 
ATOM     26  H32 UNL     1       2.642   3.273   0.795  1.00  0.00     0.169 HD
ATOM     27  H31 UNL     1       1.220   4.371   1.137  1.00  0.00     0.169 HD
ENDBRANCH  22  25
ENDBRANCH   2  22
BRANCH   8  28
HETATM   28  O9  UNL     1      -0.502  -2.360  -0.541  1.00  0.00    -0.356 OA
ATOM     29  H9  UNL     1      -0.254  -3.276  -0.502  1.00  0.00     0.218 HD
ENDBRANCH   8  28
BRANCH   4  30
HETATM   30  O6  UNL     1       4.607   0.090  -0.126  1.00  0.00    -0.358 OA
ATOM     31  H6  UNL     1       5.209  -0.645  -0.130  1.00  0.00     0.217 HD
ENDBRANCH   4  30
BRANCH   5  32
HETATM   32  O7  UNL     1       3.921  -2.314   0.965  1.00  0.00    -0.355 OA
ATOM     33  H7  UNL     1       3.692  -3.223   1.117  1.00  0.00     0.218 HD
ENDBRANCH   5  32
TORSDOF 11
