REMARK  4 active torsions:
REMARK  status: ('A' for Active; 'I' for Inactive)
REMARK    1  A    between atoms: N1_1  and  S1_4 
REMARK    2  A    between atoms: S1_4  and  N2_7 
REMARK    3  A    between atoms: N3_14  and  C6_15 
REMARK    4  A    between atoms: C6_15  and  C7_16 
ROOT
HETATM    1  N2  UNL     1      -3.257   0.202  -0.017  1.00  0.00    -0.272 N 
HETATM    2  C1  UNL     1      -3.719  -1.067   0.320  1.00  0.00     0.088 C 
HETATM    3  C2  UNL     1      -2.990  -2.224  -0.314  1.00  0.00     0.120 C 
HETATM    4  S2  UNL     1      -1.667  -1.530  -1.342  1.00  0.00    -0.152 SA
HETATM    5  C3  UNL     1      -0.860  -0.237  -0.320  1.00  0.00     0.029 C 
HETATM    6  C4  UNL     1       0.006  -0.944   0.721  1.00  0.00     0.052 C 
HETATM    7  C5  UNL     1       1.195  -1.525   0.025  1.00  0.00     0.274 C 
HETATM    8  N3  UNL     1       2.087  -0.488  -0.458  1.00  0.00     0.088 N 
HETATM    9  C10 UNL     1       1.380   0.786  -0.567  1.00  0.00     0.274 C 
HETATM   10  C11 UNL     1       0.051   0.566  -1.225  1.00  0.00     0.052 C 
HETATM   11  C12 UNL     1      -1.928   0.551   0.348  1.00  0.00     0.162 C 
ENDROOT
BRANCH   1  12
HETATM   12  S1  UNL     1      -4.321   1.396  -0.479  1.00  0.00     0.318 S 
HETATM   13  O1  UNL     1      -3.639   2.711  -0.823  1.00  0.00    -0.183 OA
HETATM   14  O2  UNL     1      -5.071   0.993  -1.706  1.00  0.00    -0.183 OA
BRANCH  12  15
HETATM   15  N1  UNL     1      -5.420   1.742   0.802  1.00  0.00    -0.311 N 
ATOM     16  H12 UNL     1      -5.572   2.654   1.234  1.00  0.00     0.170 HD
ATOM     17  H11 UNL     1      -5.877   0.860   1.033  1.00  0.00     0.170 HD
ENDBRANCH  12  15
ENDBRANCH   1  12
BRANCH   8  18
HETATM   18  C6  UNL     1       3.161  -0.259   0.532  1.00  0.00     0.277 C 
BRANCH  18  19
HETATM   19  C7  UNL     1       4.257   0.600  -0.059  1.00  0.00     0.014 A 
HETATM   20  C8  UNL     1       5.443   0.991   0.735  1.00  0.00     0.007 A 
HETATM   21  C9  UNL     1       5.571  -0.177  -0.189  1.00  0.00     0.007 A 
ENDBRANCH  18  19
ENDBRANCH   8  18
TORSDOF 4
