REMARK  6 active torsions:
REMARK  status: ('A' for Active; 'I' for Inactive)
REMARK    1  A    between atoms: C1_2  and  C2_4 
REMARK    2  A    between atoms: N1_8  and  C5_9 
REMARK    3  A    between atoms: C5_9  and  O3_10 
REMARK    4  A    between atoms: C5_9  and  C6_12 
REMARK    5  A    between atoms: C6_12  and  O4_13 
REMARK    6  A    between atoms: C11_21  and  O5_22 
ROOT
HETATM    1  C6  UNL     1      -0.715   0.134   0.254  1.00  0.00     0.148 C 
HETATM    2  C7  UNL     1      -1.625  -1.042   0.596  1.00  0.00     0.055 C 
HETATM    3  C8  UNL     1      -2.927  -0.595   1.197  1.00  0.00     0.082 C 
HETATM    4  C9  UNL     1      -3.651   0.408   0.331  1.00  0.00     0.246 C 
HETATM    5  F1  UNL     1      -4.910  -0.056  -0.046  1.00  0.00    -0.206 F 
HETATM    6  F2  UNL     1      -3.868   1.607   0.983  1.00  0.00    -0.206 F 
HETATM    7  C10 UNL     1      -2.852   0.719  -0.924  1.00  0.00     0.114 C 
HETATM    8  C11 UNL     1      -1.501   1.206  -0.496  1.00  0.00     0.166 C 
ENDROOT
BRANCH   1   9
HETATM    9  C5  UNL     1       0.263  -0.396  -0.705  1.00  0.00     0.153 C 
BRANCH   9  10
HETATM   10  N1  UNL     1       1.668  -0.470  -0.607  1.00  0.00    -0.338 N 
HETATM   11  C2  UNL     1       2.520  -0.078   0.448  1.00  0.00     0.197 C 
HETATM   12  C3  UNL     1       3.487  -1.204   0.793  1.00  0.00     0.112 C 
HETATM   13  S1  UNL     1       3.664  -2.020  -0.811  1.00  0.00    -0.147 SA
HETATM   14  C4  UNL     1       2.472  -1.008  -1.729  1.00  0.00     0.200 C 
BRANCH  11  15
HETATM   15  C1  UNL     1       3.301   1.157   0.203  1.00  0.00     0.197 C 
HETATM   16  O1  UNL     1       4.128   1.552   1.047  1.00  0.00    -0.646 OA
HETATM   17  O2  UNL     1       3.107   1.861  -0.956  1.00  0.00    -0.646 OA
ENDBRANCH  11  15
ENDBRANCH   9  10
BRANCH   9  18
HETATM   18  O3  UNL     1      -0.323  -0.846  -1.783  1.00  0.00    -0.347 OA
ATOM     19  H3  UNL     1      -1.269  -0.796  -1.849  1.00  0.00     0.219 HD
ENDBRANCH   9  18
ENDBRANCH   1   9
BRANCH   1  20
HETATM   20  O4  UNL     1      -0.259   0.691   1.402  1.00  0.00    -0.379 OA
ATOM     21  H4  UNL     1      -0.892   1.034   2.022  1.00  0.00     0.211 HD
ENDBRANCH   1  20
BRANCH   8  22
HETATM   22  O5  UNL     1      -1.687   2.340   0.298  1.00  0.00    -0.392 OA
ATOM     23  H5  UNL     1      -2.176   3.007  -0.169  1.00  0.00     0.210 HD
ENDBRANCH   8  22
TORSDOF 6
