REMARK  7 active torsions:
REMARK  status: ('A' for Active; 'I' for Inactive)
REMARK    1  A    between atoms: N1_2  and  C2_3 
REMARK    2  A    between atoms: N1_2  and  N2_7 
REMARK    3  A    between atoms: C2_3  and  C3_4 
REMARK    4  A    between atoms: C9_18  and  O2_19 
REMARK    5  A    between atoms: C9_18  and  C10_21 
REMARK    6  A    between atoms: C11_22  and  C12_23 
REMARK    7  A    between atoms: C12_23  and  O3_24 
ROOT
HETATM    1  N2  UNL     1       0.975   0.854  -0.506  1.00  0.00    -0.288 N 
ATOM      2  H2  UNL     1       0.815   1.859  -0.430  1.00  0.00     0.188 HD
HETATM    3  C4  UNL     1      -0.050   0.111  -0.569  1.00  0.00     0.144 C 
HETATM    4  N3  UNL     1       0.015  -1.319  -0.679  1.00  0.00    -0.342 N 
ATOM      5  H3  UNL     1       0.853  -1.853  -0.908  1.00  0.00     0.164 HD
HETATM    6  C5  UNL     1      -1.289  -1.887  -0.415  1.00  0.00     0.158 A 
HETATM    7  C6  UNL     1      -1.356  -3.234   0.187  1.00  0.00     0.089 A 
HETATM    8  C7  UNL     1      -2.133  -3.555  -1.091  1.00  0.00     0.176 A 
HETATM    9  O1  UNL     1      -2.015  -2.240  -1.548  1.00  0.00    -0.359 OA
HETATM   10  C8  UNL     1      -1.971  -0.760   0.331  1.00  0.00     0.192 C 
HETATM   11 CL1  UNL     1      -1.218  -0.486   1.915  1.00  0.00    -0.115 Cl
HETATM   12  C9  UNL     1      -1.496   0.411  -0.552  1.00  0.00     0.202 C 
ENDROOT
BRANCH   1  13
HETATM   13  N1  UNL     1       2.283   0.429  -0.531  1.00  0.00    -0.326 N 
HETATM   14  C1  UNL     1       3.182   1.029  -1.519  1.00  0.00     0.171 C 
BRANCH  13  15
HETATM   15  C2  UNL     1       2.861  -0.562   0.337  1.00  0.00     0.213 C 
BRANCH  15  16
HETATM   16  C3  UNL     1       3.866   0.090   1.296  1.00  0.00     0.372 C 
HETATM   17  F1  UNL     1       4.853   0.684   0.553  1.00  0.00    -0.213 F 
HETATM   18  F2  UNL     1       4.363  -0.835   2.181  1.00  0.00    -0.213 F 
ENDBRANCH  15  16
ENDBRANCH  13  15
ENDBRANCH   1  13
BRANCH  12  19
HETATM   19  O2  UNL     1      -2.064   0.313  -1.806  1.00  0.00    -0.369 OA
ATOM     20  H2  UNL     1      -2.994   0.506  -1.795  1.00  0.00     0.212 HD
ENDBRANCH  12  19
BRANCH  12  21
HETATM   21  C10 UNL     1      -1.692   1.696   0.076  1.00  0.00    -0.056 C 
HETATM   22  C11 UNL     1      -1.877   2.770   0.597  1.00  0.00    -0.077 C 
BRANCH  22  23
HETATM   23  C12 UNL     1      -2.129   4.082   1.230  1.00  0.00     0.257 C 
BRANCH  23  24
HETATM   24  O3  UNL     1      -2.383   3.943   2.572  1.00  0.00    -0.389 OA
ATOM     25  H3  UNL     1      -2.545   4.786   2.979  1.00  0.00     0.210 HD
ENDBRANCH  23  24
ENDBRANCH  22  23
ENDBRANCH  12  21
TORSDOF 7
