REMARK  17 active torsions:
REMARK  status: ('A' for Active; 'I' for Inactive)
REMARK    1  A    between atoms: N1_1  and  C1_4 
REMARK    2  A    between atoms: N3_8  and  C3_9 
REMARK    3  A    between atoms: C3_9  and  C4_10 
REMARK    4  A    between atoms: C3_9  and  C7_14 
REMARK    5  A    between atoms: C4_10  and  C5_11 
REMARK    6  A    between atoms: C5_11  and  C6_12 
REMARK    7  A    between atoms: C7_14  and  C8_15 
REMARK    8  A    between atoms: C8_15  and  C9_16 
REMARK    9  A    between atoms: C9_16  and  C10_17 
REMARK   10  A    between atoms: C10_17  and  O1_18 
REMARK   11  A    between atoms: C10_17  and  C11_20 
REMARK   12  A    between atoms: C12_23  and  N5_24 
REMARK   13  A    between atoms: C13_29  and  N7_30 
REMARK   14  A    between atoms: C14_33  and  C15_34 
REMARK   15  A    between atoms: C15_34  and  N8_35 
REMARK   16  A    between atoms: C15_34  and  N9_39 
REMARK   17  A    between atoms: C17_47  and  N12_48 
ROOT
HETATM    1  C9  UNL     1      -1.575  -0.305   0.106  1.00  0.00     0.067 C 
ENDROOT
BRANCH   1   2
HETATM    2  C8  UNL     1      -0.107  -0.211  -0.456  1.00  0.00     0.013 C 
BRANCH   2   3
HETATM    3  C7  UNL     1       0.832  -0.746   0.545  1.00  0.00     0.058 C 
BRANCH   3   4
HETATM    4  C3  UNL     1       2.262  -0.776   0.070  1.00  0.00     0.031 C 
BRANCH   4   5
HETATM    5  N3  UNL     1       2.982   0.420  -0.217  1.00  0.00    -0.143 N 
HETATM    6  C2  UNL     1       4.229   0.752   0.228  1.00  0.00     0.741 A 
HETATM    7  N2  UNL     1       5.067   0.196   1.125  1.00  0.00    -0.019 N 
HETATM    8  N11 UNL     1       4.644   1.908  -0.353  1.00  0.00     0.092 N 
HETATM    9  C1  UNL     1       6.246   0.745   1.430  1.00  0.00     0.705 A 
ATOM     10  H2  UNL     1       4.792  -0.672   1.586  1.00  0.00     0.203 HD
HETATM   11  N13 UNL     1       6.635   1.898   0.832  1.00  0.00    -0.020 N 
HETATM   12  C17 UNL     1       5.838   2.489  -0.064  1.00  0.00     0.727 A 
ATOM     13  H13 UNL     1       7.536   2.315   1.066  1.00  0.00     0.203 HD
HETATM   14  N10 UNL     1       3.702   2.316  -1.148  1.00  0.00    -0.259 N 
HETATM   15  C16 UNL     1       2.677   1.412  -1.073  1.00  0.00     0.225 A 
ATOM     16  H10 UNL     1       3.722   3.158  -1.724  1.00  0.00     0.189 HD
BRANCH   9  17
HETATM   17  N1  UNL     1       7.047   0.189   2.304  1.00  0.00    -0.234 N 
ATOM     18  H12 UNL     1       6.754  -0.678   2.754  1.00  0.00     0.174 HD
ATOM     19  H11 UNL     1       7.947   0.608   2.537  1.00  0.00     0.174 HD
ENDBRANCH   9  17
BRANCH  12  20
HETATM   20  N12 UNL     1       6.194   3.583  -0.638  1.00  0.00    -0.232 N 
ATOM     21 2H12 UNL     1       5.586   4.034  -1.322  1.00  0.00     0.174 HD
ATOM     22 1H12 UNL     1       7.090   4.019  -0.421  1.00  0.00     0.174 HD
ENDBRANCH  12  20
ENDBRANCH   4   5
BRANCH   4  23
HETATM   23  C4  UNL     1       2.781  -1.975   0.029  1.00  0.00     0.002 C 
BRANCH  23  24
HETATM   24  C5  UNL     1       4.136  -2.397  -0.311  1.00  0.00     0.060 C 
BRANCH  24  25
HETATM   25  C6  UNL     1       3.988  -3.570  -1.337  1.00  0.00     0.226 C 
HETATM   26  F1  UNL     1       5.230  -4.019  -1.704  1.00  0.00    -0.255 F 
ENDBRANCH  24  25
ENDBRANCH  23  24
ENDBRANCH   4  23
ENDBRANCH   3   4
ENDBRANCH   2   3
ENDBRANCH   1   2
BRANCH   1  27
HETATM   27  C10 UNL     1      -2.462   0.232  -0.914  1.00  0.00     0.071 C 
BRANCH  27  28
HETATM   28  O1  UNL     1      -1.847   0.591  -2.005  1.00  0.00    -0.363 OA
ATOM     29  H1  UNL     1      -2.426   0.942  -2.671  1.00  0.00     0.217 HD
ENDBRANCH  27  28
BRANCH  27  30
HETATM   30  C11 UNL     1      -3.883   0.444  -0.949  1.00  0.00     0.092 A 
HETATM   31  N4  UNL     1      -4.427   0.990  -2.095  1.00  0.00    -0.189 N 
HETATM   32  C12 UNL     1      -5.733   1.241  -2.215  1.00  0.00     0.678 A 
ATOM     33  H4  UNL     1      -3.810   1.209  -2.877  1.00  0.00     0.184 HD
HETATM   34  N6  UNL     1      -6.604   0.978  -1.229  1.00  0.00    -0.177 N 
HETATM   35  C13 UNL     1      -6.111   0.449  -0.109  1.00  0.00     0.127 A 
ATOM     36  H6  UNL     1      -7.600   1.174  -1.332  1.00  0.00     0.186 HD
HETATM   37  C14 UNL     1      -4.750   0.164   0.075  1.00  0.00     0.072 A 
BRANCH  32  38
HETATM   38  N5  UNL     1      -6.194   1.756  -3.318  1.00  0.00    -0.234 N 
ATOM     39  H52 UNL     1      -5.532   1.956  -4.068  1.00  0.00     0.174 HD
ATOM     40  H51 UNL     1      -7.192   1.948  -3.410  1.00  0.00     0.174 HD
ENDBRANCH  32  38
BRANCH  35  41
HETATM   41  N7  UNL     1      -6.946   0.192   0.851  1.00  0.00    -0.384 N 
ATOM     42  H72 UNL     1      -7.936   0.399   0.717  1.00  0.00     0.157 HD
ATOM     43  H71 UNL     1      -6.569  -0.213   1.708  1.00  0.00     0.157 HD
ENDBRANCH  35  41
BRANCH  37  44
HETATM   44  C15 UNL     1      -4.437  -0.422   1.376  1.00  0.00     0.417 C 
BRANCH  44  45
HETATM   45  N8  UNL     1      -5.517  -1.441   1.610  1.00  0.00    -0.046 N 
ATOM     46  H83 UNL     1      -6.463  -1.065   1.542  1.00  0.00     0.277 HD
ATOM     47  H82 UNL     1      -5.610  -2.125   0.859  1.00  0.00     0.277 HD
ATOM     48  H81 UNL     1      -5.298  -1.850   2.518  1.00  0.00     0.277 HD
ENDBRANCH  44  45
BRANCH  44  49
HETATM   49  N9  UNL     1      -4.781   0.625   2.368  1.00  0.00    -0.046 N 
ATOM     50  H93 UNL     1      -4.322   1.520   2.198  1.00  0.00     0.277 HD
ATOM     51  H92 UNL     1      -5.739   0.967   2.290  1.00  0.00     0.277 HD
ATOM     52  H91 UNL     1      -4.562   0.216   3.276  1.00  0.00     0.277 HD
ENDBRANCH  44  49
ENDBRANCH  37  44
ENDBRANCH  27  30
ENDBRANCH   1  27
TORSDOF 17
