REMARK  14 active torsions:
REMARK  status: ('A' for Active; 'I' for Inactive)
REMARK    1  A    between atoms: N1_1  and  C1_4 
REMARK    2  A    between atoms: N5_15  and  C5_16 
REMARK    3  A    between atoms: C5_16  and  C6_17 
REMARK    4  A    between atoms: C6_17  and  O1_18 
REMARK    5  A    between atoms: C6_17  and  C7_20 
REMARK    6  A    between atoms: C7_20  and  N6_21 
REMARK    7  A    between atoms: C7_20  and  C10_27 
REMARK    8  A    between atoms: N6_21  and  O2_23 
REMARK    9  A    between atoms: O2_23  and  C8_24 
REMARK   10  A    between atoms: C8_24  and  C9_25 
REMARK   11  A    between atoms: C10_27  and  O3_28 
REMARK   12  A    between atoms: C10_27  and  O4_30 
REMARK   13  A    between atoms: O4_30  and  N7_31 
REMARK   14  A    between atoms: N7_31  and  C11_33 
ROOT
HETATM    1  C6  UNL     1      -1.123  -0.728   0.682  1.00  0.00     0.166 C 
ENDROOT
BRANCH   1   2
HETATM    2  C5  UNL     1      -1.772   0.655   0.746  1.00  0.00     0.165 C 
BRANCH   2   3
HETATM    3  N5  UNL     1      -3.177   0.532   1.153  1.00  0.00    -0.324 N 
HETATM    4  C4  UNL     1      -3.636   0.506   2.424  1.00  0.00     0.185 A 
HETATM    5  N4  UNL     1      -4.964   0.372   2.372  1.00  0.00    -0.346 N 
HETATM    6  C3  UNL     1      -5.364   0.312   1.091  1.00  0.00     0.123 A 
ATOM      7  H4  UNL     1      -5.581   0.323   3.183  1.00  0.00     0.167 HD
HETATM    8  C2  UNL     1      -6.590   0.184   0.471  1.00  0.00     0.145 A 
HETATM    9  C15 UNL     1      -4.207   0.417   0.323  1.00  0.00     0.155 A 
HETATM   10  N2  UNL     1      -6.662   0.160  -0.870  1.00  0.00    -0.175 N 
HETATM   11  N3  UNL     1      -7.630   0.090   1.226  1.00  0.00    -0.383 N 
HETATM   12  C1  UNL     1      -5.558   0.260  -1.626  1.00  0.00     0.679 A 
ATOM     13  H2  UNL     1      -7.572   0.064  -1.321  1.00  0.00     0.186 HD
HETATM   14  N10 UNL     1      -4.368   0.384  -1.023  1.00  0.00    -0.174 N 
ATOM     15  H10 UNL     1      -3.537   0.458  -1.609  1.00  0.00     0.186 HD
ATOM     16  H32 UNL     1      -8.536  -0.005   0.768  1.00  0.00     0.157 HD
ATOM     17  H31 UNL     1      -7.575   0.108   2.244  1.00  0.00     0.157 HD
BRANCH  12  18
HETATM   18  N1  UNL     1      -5.658   0.234  -2.931  1.00  0.00    -0.234 N 
ATOM     19  H12 UNL     1      -6.564   0.140  -3.390  1.00  0.00     0.174 HD
ATOM     20  H11 UNL     1      -4.819   0.310  -3.506  1.00  0.00     0.174 HD
ENDBRANCH  12  18
ENDBRANCH   2   3
ENDBRANCH   1   2
BRANCH   1  21
HETATM   21  O1  UNL     1      -1.833  -1.457  -0.245  1.00  0.00    -0.392 OA
ATOM     22  H1  UNL     1      -1.430  -2.316  -0.285  1.00  0.00     0.210 HD
ENDBRANCH   1  21
BRANCH   1  23
HETATM   23  C7  UNL     1       0.308  -0.633   0.303  1.00  0.00     0.193 C 
BRANCH  23  24
HETATM   24  N6  UNL     1       1.079  -1.791   0.215  1.00  0.00    -0.290 N 
ATOM     25  H6  UNL     1       1.735  -1.902   0.989  1.00  0.00     0.188 HD
BRANCH  24  26
HETATM   26  O2  UNL     1       1.130  -2.701  -0.600  1.00  0.00    -0.283 OA
BRANCH  26  27
HETATM   27  C8  UNL     1       0.325  -3.351  -1.401  1.00  0.00     0.215 C 
BRANCH  27  28
HETATM   28  C9  UNL     1       1.050  -4.459  -2.209  1.00  0.00     0.143 C 
HETATM   29 CL1  UNL     1       1.767  -5.633  -1.106  1.00  0.00    -0.128 Cl
ENDBRANCH  27  28
ENDBRANCH  26  27
ENDBRANCH  24  26
ENDBRANCH  23  24
BRANCH  23  30
HETATM   30  C10 UNL     1       1.075   0.323   1.249  1.00  0.00     0.313 C 
BRANCH  30  31
HETATM   31  O3  UNL     1       1.235  -0.219   2.508  1.00  0.00    -0.367 OA
ATOM     32  H3  UNL     1       1.706   0.368   3.088  1.00  0.00     0.212 HD
ENDBRANCH  30  31
BRANCH  30  33
HETATM   33  O4  UNL     1       2.379   0.341   0.685  1.00  0.00    -0.231 OA
BRANCH  33  34
HETATM   34  N7  UNL     1       2.708   1.578   0.294  1.00  0.00    -0.094 N 
ATOM     35  H7  UNL     1       1.966   2.242   0.072  1.00  0.00     0.213 HD
BRANCH  34  36
HETATM   36  C11 UNL     1       4.066   1.992   0.180  1.00  0.00     0.693 C 
HETATM   37  N8  UNL     1       4.362   2.806  -0.771  1.00  0.00    -0.225 N 
HETATM   38  C12 UNL     1       5.753   3.225  -0.882  1.00  0.00     0.139 C 
ATOM     39  H8  UNL     1       3.652   3.144  -1.421  1.00  0.00     0.177 HD
HETATM   40  C13 UNL     1       6.677   2.050  -0.643  1.00  0.00     0.040 C 
HETATM   41  C14 UNL     1       6.447   1.395   0.678  1.00  0.00     0.139 C 
HETATM   42  N9  UNL     1       5.073   1.540   1.069  1.00  0.00    -0.225 N 
ATOM     43  H9  UNL     1       4.811   1.308   2.027  1.00  0.00     0.177 HD
ENDBRANCH  34  36
ENDBRANCH  33  34
ENDBRANCH  30  33
ENDBRANCH  23  30
ENDBRANCH   1  23
TORSDOF 14
