REMARK  2 active torsions:
REMARK  status: ('A' for Active; 'I' for Inactive)
REMARK    1  A    between atoms: N1_2  and  C3_4 
REMARK       I    between atoms: N2_5  and  C4_7 
REMARK       I    between atoms: C4_7  and  N3_9 
REMARK    2  A    between atoms: N3_9  and  C5_11 
ROOT
HETATM    1  C3  UNL     1      -1.393   0.281   0.422  1.00  0.00     0.181 C 
HETATM    2  N2  UNL     1      -0.526   1.167   0.016  1.00  0.00    -0.305 N 
ATOM      3  H2  UNL     1      -0.847   1.966  -0.530  1.00  0.00     0.171 HD
HETATM    4  C4  UNL     1       0.852   1.042   0.318  1.00  0.00     0.321 C 
HETATM    5  O1  UNL     1       1.410   1.865   1.089  1.00  0.00    -0.247 OA
HETATM    6  N3  UNL     1       1.648  -0.001  -0.228  1.00  0.00    -0.338 N 
ATOM      7  H3  UNL     1       1.200  -0.671  -0.854  1.00  0.00     0.164 HD
ENDROOT
BRANCH   6   8
HETATM    8  C5  UNL     1       3.044  -0.165   0.051  1.00  0.00     0.086 A 
HETATM    9  C6  UNL     1       3.530  -1.589   0.203  1.00  0.00     0.027 A 
HETATM   10  C7  UNL     1       3.974  -0.755  -0.933  1.00  0.00     0.027 A 
ENDBRANCH   6   8
BRANCH   1  11
HETATM   11  N1  UNL     1      -2.772   0.393   0.128  1.00  0.00    -0.386 N 
HETATM   12  C1  UNL     1      -3.524   1.395   0.889  1.00  0.00     0.149 C 
HETATM   13  C2  UNL     1      -3.448  -0.416  -0.863  1.00  0.00     0.149 C 
ENDBRANCH   1  11
TORSDOF 2
