REMARK  2 active torsions:
REMARK  status: ('A' for Active; 'I' for Inactive)
REMARK    1  A    between atoms: N1_1  and  C1_5 
REMARK    2  A    between atoms: C1_5  and  C2_6 
ROOT
HETATM    1  C2  UNL     1       0.952   0.120  -0.498  1.00  0.00     0.215 C 
HETATM    2  C3  UNL     1       1.819   0.895   0.505  1.00  0.00     0.037 C 
HETATM    3  C4  UNL     1       0.748   1.839   1.066  1.00  0.00     0.030 C 
HETATM    4  C5  UNL     1      -0.384   0.856   1.268  1.00  0.00     0.238 C 
HETATM    5  N2  UNL     1      -0.359   0.096   0.040  1.00  0.00    -0.061 N 
HETATM    6  C6  UNL     1      -1.275   0.714  -0.922  1.00  0.00     0.238 C 
HETATM    7  C7  UNL     1      -2.631   0.302  -0.405  1.00  0.00     0.029 C 
HETATM    8  C8  UNL     1      -2.405  -1.105   0.037  1.00  0.00     0.029 C 
HETATM    9  C9  UNL     1      -0.916  -1.189   0.325  1.00  0.00     0.238 C 
ENDROOT
BRANCH   1  10
HETATM   10  C1  UNL     1       1.604  -1.213  -0.685  1.00  0.00     0.263 C 
BRANCH  10  11
HETATM   11  N1  UNL     1       2.952  -1.081  -1.195  1.00  0.00    -0.077 N 
ATOM     12  H13 UNL     1       2.973  -0.533  -2.055  1.00  0.00     0.274 HD
ATOM     13  H12 UNL     1       3.516  -0.471  -0.603  1.00  0.00     0.274 HD
ATOM     14  H11 UNL     1       3.397  -1.990  -1.323  1.00  0.00     0.274 HD
ENDBRANCH  10  11
ENDBRANCH   1  10
TORSDOF 2
