REMARK  9 active torsions:
REMARK  status: ('A' for Active; 'I' for Inactive)
REMARK    1  A    between atoms: C2_2  and  C3_3 
REMARK    2  A    between atoms: C3_3  and  C4_4 
REMARK    3  A    between atoms: C4_4  and  C5_5 
REMARK    4  A    between atoms: C5_5  and  O1_6 
REMARK    5  A    between atoms: C5_5  and  C6_9 
REMARK    6  A    between atoms: C5_5  and  C9_12 
REMARK    7  A    between atoms: O1_6  and  O2_7 
REMARK    8  A    between atoms: C11_14  and  O3_15 
REMARK    9  A    between atoms: C16_21  and  O4_22 
ROOT
HETATM    1  C9  UNL     1      -1.610  -0.349  -0.273  1.00  0.00     0.027 C 
HETATM    2  C10 UNL     1      -1.054   0.596  -1.328  1.00  0.00     0.039 C 
HETATM    3  C11 UNL     1       0.451   0.444  -1.444  1.00  0.00     0.124 C 
HETATM    4  C12 UNL     1       0.998   0.256  -0.051  1.00  0.00     0.034 C 
HETATM    5  C13 UNL     1       2.448   0.576  -0.026  1.00  0.00    -0.002 C 
HETATM    6  C14 UNL     1       2.761   1.741   0.925  1.00  0.00     0.008 C 
HETATM    7  C15 UNL     1       4.153   2.238   0.730  1.00  0.00     0.033 C 
HETATM    8  C16 UNL     1       5.142   1.111   0.831  1.00  0.00     0.126 C 
HETATM    9  C17 UNL     1       4.793  -0.068  -0.039  1.00  0.00    -0.017 C 
HETATM   10  C18 UNL     1       4.885   0.355  -1.477  1.00  0.00     0.018 C 
HETATM   11  C19 UNL     1       5.806  -1.154   0.207  1.00  0.00     0.018 C 
HETATM   12  C20 UNL     1       3.376  -0.525   0.329  1.00  0.00     0.007 C 
HETATM   13  C21 UNL     1       3.042  -1.841  -0.284  1.00  0.00     0.085 C 
HETATM   14  C22 UNL     1       1.616  -2.107  -0.077  1.00  0.00     0.136 C 
HETATM   15  O5  UNL     1       1.220  -3.251  -0.342  1.00  0.00    -0.297 OA
HETATM   16  C23 UNL     1       0.623  -1.097   0.427  1.00  0.00     0.024 C 
HETATM   17  C24 UNL     1       0.626  -1.233   1.927  1.00  0.00     0.024 C 
HETATM   18  C25 UNL     1      -0.750  -1.527  -0.159  1.00  0.00     0.025 C 
ENDROOT
BRANCH   1  19
HETATM   19  C5  UNL     1      -3.101  -0.477  -0.296  1.00  0.00     0.102 C 
BRANCH  19  20
HETATM   20  C4  UNL     1      -3.702   0.904  -0.001  1.00  0.00     0.042 C 
BRANCH  20  21
HETATM   21  C3  UNL     1      -5.155   0.985   0.244  1.00  0.00     0.003 C 
BRANCH  21  22
HETATM   22  C2  UNL     1      -5.462   2.461   0.583  1.00  0.00    -0.004 C 
HETATM   23  C1  UNL     1      -4.706   2.894   1.797  1.00  0.00     0.005 C 
ENDBRANCH  21  22
ENDBRANCH  20  21
ENDBRANCH  19  20
BRANCH  19  24
HETATM   24  O1  UNL     1      -3.440  -1.192   0.889  1.00  0.00    -0.231 OA
BRANCH  24  25
HETATM   25  O2  UNL     1      -2.944  -0.652   1.954  1.00  0.00    -0.250 OA
ATOM     26  H2  UNL     1      -3.170  -1.129   2.744  1.00  0.00     0.253 HD
ENDBRANCH  24  25
ENDBRANCH  19  24
BRANCH  19  27
HETATM   27  C6  UNL     1      -3.723  -1.211  -1.403  1.00  0.00     0.016 C 
HETATM   28  C7  UNL     1      -5.170  -1.582  -1.288  1.00  0.00     0.012 C 
HETATM   29  C8  UNL     1      -3.000  -2.469  -1.830  1.00  0.00     0.012 C 
ENDBRANCH  19  27
ENDBRANCH   1  19
BRANCH   3  30
HETATM   30  O3  UNL     1       0.851  -0.500  -2.347  1.00  0.00    -0.395 OA
ATOM     31  H3  UNL     1       1.793  -0.595  -2.420  1.00  0.00     0.210 HD
ENDBRANCH   3  30
BRANCH   8  32
HETATM   32  O4  UNL     1       6.393   1.612   0.450  1.00  0.00    -0.395 OA
ATOM     33  H4  UNL     1       7.018   0.900   0.514  1.00  0.00     0.210 HD
ENDBRANCH   8  32
TORSDOF 9
