REMARK  9 active torsions:
REMARK  status: ('A' for Active; 'I' for Inactive)
REMARK    1  A    between atoms: C2_2  and  S1_3 
REMARK    2  A    between atoms: S1_3  and  C3_4 
REMARK    3  A    between atoms: C3_4  and  C4_5 
REMARK    4  A    between atoms: C3_4  and  C14_24 
REMARK    5  A    between atoms: C5_6  and  C6_7 
REMARK    6  A    between atoms: C9_10  and  C10_11 
REMARK    7  A    between atoms: C12_13  and  N1_14 
REMARK    8  A    between atoms: C14_24  and  C15_25 
REMARK    9  A    between atoms: C15_25  and  N4_26 
ROOT
HETATM    1  C6  UNL     1       2.481   0.371  -0.050  1.00  0.00     0.059 A 
HETATM    2  C7  UNL     1       3.052   1.602   0.141  1.00  0.00     0.029 A 
HETATM    3  C8  UNL     1       4.387   1.664   0.153  1.00  0.00     0.023 A 
HETATM    4  C9  UNL     1       5.083   0.499  -0.026  1.00  0.00     0.033 A 
HETATM    5  S3  UNL     1       3.829  -0.657  -0.207  1.00  0.00    -0.079 SA
ENDROOT
BRANCH   1   6
HETATM    6  C5  UNL     1       1.057   0.057  -0.087  1.00  0.00    -0.058 C 
HETATM    7  C4  UNL     1      -0.115  -0.216  -0.090  1.00  0.00    -0.085 C 
BRANCH   7   8
HETATM    8  C3  UNL     1      -1.549  -0.567  -0.064  1.00  0.00     0.131 C 
BRANCH   8   9
HETATM    9  S1  UNL     1      -1.758  -2.261   0.597  1.00  0.00    -0.152 SA
BRANCH   9  10
HETATM   10  C2  UNL     1      -1.241  -2.288   2.347  1.00  0.00     0.070 C 
HETATM   11  C1  UNL     1      -2.195  -1.449   3.134  1.00  0.00     0.016 C 
ENDBRANCH   9  10
ENDBRANCH   8   9
BRANCH   8  12
HETATM   12  C14 UNL     1      -2.035  -0.574  -1.486  1.00  0.00     0.073 C 
BRANCH  12  13
HETATM   13  C15 UNL     1      -3.497  -0.973  -1.609  1.00  0.00     0.070 C 
BRANCH  13  14
HETATM   14  N4  UNL     1      -4.403  -0.164  -0.943  1.00  0.00    -0.354 N 
HETATM   15  C16 UNL     1      -4.586   1.144  -1.421  1.00  0.00     0.068 C 
HETATM   16  C17 UNL     1      -6.030   1.514  -1.672  1.00  0.00     0.045 C 
HETATM   17  C18 UNL     1      -6.923   0.645  -0.853  1.00  0.00     0.010 C 
HETATM   18  C19 UNL     1      -6.320   0.296   0.489  1.00  0.00     0.045 C 
HETATM   19  C20 UNL     1      -5.094  -0.567   0.194  1.00  0.00     0.068 C 
ENDBRANCH  13  14
ENDBRANCH  12  13
ENDBRANCH   8  12
ENDBRANCH   7   8
ENDBRANCH   1   6
BRANCH   4  20
HETATM   20  C10 UNL     1       6.535   0.294  -0.033  1.00  0.00     0.055 A 
HETATM   21  C11 UNL     1       7.357   1.336   0.214  1.00  0.00     0.079 A 
HETATM   22  C12 UNL     1       8.735   1.075   0.216  1.00  0.00     0.102 A 
HETATM   23  N2  UNL     1       9.219  -0.158  -0.018  1.00  0.00    -0.320 N 
HETATM   24  C13 UNL     1       8.367  -1.168  -0.260  1.00  0.00     0.177 A 
ATOM     25  H2  UNL     1      10.225  -0.325  -0.012  1.00  0.00     0.169 HD
HETATM   26  S2  UNL     1       8.958  -2.662  -0.543  1.00  0.00    -0.040 SA
HETATM   27  N3  UNL     1       7.021  -0.926  -0.264  1.00  0.00    -0.332 N 
ATOM     28  H3  UNL     1       6.376  -1.694  -0.447  1.00  0.00     0.168 HD
BRANCH  22  29
HETATM   29  N1  UNL     1       9.604   1.999   0.444  1.00  0.00    -0.385 N 
ATOM     30  H12 UNL     1       9.237   2.934   0.621  1.00  0.00     0.157 HD
ATOM     31  H11 UNL     1      10.606   1.809   0.445  1.00  0.00     0.157 HD
ENDBRANCH  22  29
ENDBRANCH   4  20
TORSDOF 9
