REMARK  13 active torsions:
REMARK  status: ('A' for Active; 'I' for Inactive)
REMARK    1  A    between atoms: C2_2  and  C3_3 
REMARK    2  A    between atoms: C4_4  and  C5_5 
REMARK    3  A    between atoms: C6_6  and  C7_7 
REMARK       I    between atoms: C7_7  and  N1_9 
REMARK    4  A    between atoms: N1_9  and  C8_11 
REMARK    5  A    between atoms: C8_11  and  C9_12 
REMARK    6  A    between atoms: C8_11  and  C11_14 
REMARK       I    between atoms: C11_14  and  N2_16 
REMARK    7  A    between atoms: N2_16  and  C12_18 
REMARK    8  A    between atoms: C12_18  and  C13_19 
REMARK    9  A    between atoms: C12_18  and  C16_23 
REMARK   10  A    between atoms: C13_19  and  C14_20 
REMARK   11  A    between atoms: C14_20  and  S1_21 
REMARK   12  A    between atoms: C16_23  and  C17_25 
REMARK   13  A    between atoms: C18_28  and  O5_29 
ROOT
HETATM    1  C7  UNL     1      -1.815  -0.120  -0.698  1.00  0.00     0.257 C 
HETATM    2  O1  UNL     1      -1.523  -0.030  -1.948  1.00  0.00    -0.267 OA
HETATM    3  N1  UNL     1      -0.844   0.374   0.196  1.00  0.00    -0.344 N 
ATOM      4  H1  UNL     1      -1.019   0.332   1.200  1.00  0.00     0.163 HD
ENDROOT
BRANCH   3   5
HETATM    5  C8  UNL     1       0.390   0.936  -0.283  1.00  0.00     0.176 C 
BRANCH   5   6
HETATM    6  C9  UNL     1       0.464   2.404   0.069  1.00  0.00     0.030 C 
HETATM    7  C10 UNL     1       0.395   2.539   1.556  1.00  0.00     0.007 C 
ENDBRANCH   5   6
BRANCH   5   8
HETATM    8  C11 UNL     1       1.591   0.186   0.144  1.00  0.00     0.241 C 
HETATM    9  O2  UNL     1       1.397  -0.834   0.854  1.00  0.00    -0.271 OA
HETATM   10  N2  UNL     1       2.899   0.552  -0.200  1.00  0.00    -0.347 N 
ATOM     11  H2  UNL     1       3.059   1.379  -0.775  1.00  0.00     0.163 HD
BRANCH  10  12
HETATM   12  C12 UNL     1       4.036  -0.244   0.260  1.00  0.00     0.164 C 
BRANCH  12  13
HETATM   13  C13 UNL     1       4.936   0.632   1.129  1.00  0.00     0.043 C 
BRANCH  13  14
HETATM   14  C14 UNL     1       6.110  -0.150   1.614  1.00  0.00     0.076 C 
BRANCH  14  15
HETATM   15  S1  UNL     1       7.194   0.859   2.680  1.00  0.00    -0.173 SA
HETATM   16  C15 UNL     1       7.911   2.155   1.642  1.00  0.00     0.089 C 
ENDBRANCH  14  15
ENDBRANCH  13  14
ENDBRANCH  12  13
BRANCH  12  17
HETATM   17  C16 UNL     1       4.838  -0.733  -0.882  1.00  0.00     0.236 C 
HETATM   18  O3  UNL     1       4.973   0.021  -1.908  1.00  0.00    -0.285 OA
BRANCH  17  19
HETATM   19  C17 UNL     1       5.498  -2.024  -0.945  1.00  0.00     0.302 C 
HETATM   20  N3  UNL     1       6.287  -2.440  -2.046  1.00  0.00    -0.054 NA
HETATM   21  O4  UNL     1       5.369  -2.813   0.017  1.00  0.00    -0.268 OA
ENDBRANCH  17  19
ENDBRANCH  12  17
ENDBRANCH  10  12
ENDBRANCH   5   8
ENDBRANCH   3   5
BRANCH   1  22
HETATM   22  C6  UNL     1      -3.080  -0.701  -0.294  1.00  0.00     0.092 A 
HETATM   23  C5  UNL     1      -4.262  -0.489  -0.914  1.00  0.00     0.052 A 
HETATM   24  N4  UNL     1      -5.369  -1.265  -0.580  1.00  0.00    -0.354 N 
HETATM   25  C21 UNL     1      -5.317  -2.215   0.340  1.00  0.00     0.010 A 
HETATM   26  C23 UNL     1      -6.602  -0.997  -1.281  1.00  0.00     0.156 C 
HETATM   27  C20 UNL     1      -4.119  -2.428   0.976  1.00  0.00     0.062 A 
HETATM   28  C22 UNL     1      -6.508  -3.047   0.697  1.00  0.00     0.068 C 
HETATM   29  C18 UNL     1      -2.988  -1.699   0.690  1.00  0.00     0.088 A 
BRANCH  23  30
HETATM   30  C4  UNL     1      -4.518   0.637  -1.791  1.00  0.00     0.031 C 
HETATM   31  C3  UNL     1      -3.861   1.764  -1.827  1.00  0.00     0.002 C 
BRANCH  31  32
HETATM   32  C2  UNL     1      -4.221   2.833  -2.778  1.00  0.00    -0.010 C 
HETATM   33  C1  UNL     1      -3.558   3.947  -2.803  1.00  0.00     0.011 C 
ENDBRANCH  31  32
ENDBRANCH  23  30
BRANCH  29  34
HETATM   34  O5  UNL     1      -1.785  -1.897   1.312  1.00  0.00    -0.355 OA
HETATM   35  C19 UNL     1      -1.679  -2.896   2.303  1.00  0.00     0.210 C 
ENDBRANCH  29  34
ENDBRANCH   1  22
TORSDOF 13
