REMARK  5 active torsions:
REMARK  status: ('A' for Active; 'I' for Inactive)
REMARK    1  A    between atoms: C2_3  and  C3_4 
REMARK    2  A    between atoms: C3_4  and  N2_5 
REMARK    3  A    between atoms: C3_4  and  O1_9 
REMARK    4  A    between atoms: C4_11  and  N3_12 
REMARK    5  A    between atoms: C6_17  and  N4_18 
ROOT
HETATM    1  N1  UNL     1      -0.067  -2.141  -1.002  1.00  0.00    -0.104 NA
HETATM    2  C1  UNL     1       0.277  -0.896  -0.391  1.00  0.00     0.063 C 
HETATM    3  C2  UNL     1      -0.536   0.105  -0.095  1.00  0.00     0.027 C 
HETATM    4  C4  UNL     1       0.235   1.223   0.545  1.00  0.00     0.220 C 
HETATM    5  C5  UNL     1       1.385   0.410   1.167  1.00  0.00     0.076 C 
HETATM    6  C6  UNL     1       1.648  -0.526   0.009  1.00  0.00     0.233 C 
ENDROOT
BRANCH   3   7
HETATM    7  C3  UNL     1      -1.990   0.097  -0.359  1.00  0.00     0.350 C 
BRANCH   7   8
HETATM    8  N2  UNL     1      -2.777   0.234   0.840  1.00  0.00    -0.049 N 
ATOM      9  H23 UNL     1      -2.526  -0.479   1.525  1.00  0.00     0.277 HD
ATOM     10  H22 UNL     1      -2.505   1.067   1.362  1.00  0.00     0.277 HD
ATOM     11  H21 UNL     1      -3.781   0.228   0.658  1.00  0.00     0.277 HD
ENDBRANCH   7   8
BRANCH   7  12
HETATM   12  O1  UNL     1      -2.260   1.248  -1.138  1.00  0.00    -0.366 OA
ATOM     13  H1  UNL     1      -3.195   1.243  -1.308  1.00  0.00     0.212 HD
ENDBRANCH   7  12
ENDBRANCH   3   7
BRANCH   4  14
HETATM   14  N3  UNL     1       0.824   2.092  -0.453  1.00  0.00    -0.071 N 
ATOM     15  H33 UNL     1       1.400   1.569  -1.113  1.00  0.00     0.275 HD
ATOM     16  H32 UNL     1       0.122   2.445  -1.104  1.00  0.00     0.275 HD
ATOM     17  H31 UNL     1       1.348   2.852  -0.018  1.00  0.00     0.275 HD
ENDBRANCH   4  14
BRANCH   6  18
HETATM   18  N4  UNL     1       2.455  -1.657   0.389  1.00  0.00    -0.070 N 
ATOM     19  H43 UNL     1       1.997  -2.199   1.122  1.00  0.00     0.275 HD
ATOM     20  H42 UNL     1       2.470  -2.357  -0.353  1.00  0.00     0.275 HD
ATOM     21  H41 UNL     1       3.403  -1.401   0.666  1.00  0.00     0.275 HD
ENDBRANCH   6  18
TORSDOF 5
