REMARK  4 active torsions:
REMARK  status: ('A' for Active; 'I' for Inactive)
REMARK    1  A    between atoms: N1_1  and  C1_4 
REMARK    2  A    between atoms: N6_15  and  C4_16 
REMARK    3  A    between atoms: C4_16  and  C5_17 
REMARK    4  A    between atoms: C5_17  and  O1_18 
ROOT
HETATM    1  C1  UNL     1      -2.573   0.294  -0.741  1.00  0.00     0.146 A 
HETATM    2  N2  UNL     1      -2.541   0.563   0.572  1.00  0.00    -0.282 N 
ATOM      3  H2  UNL     1      -3.313   0.962   1.106  1.00  0.00     0.188 HD
HETATM    4  N3  UNL     1      -1.352   0.233   1.078  1.00  0.00    -0.281 N 
ATOM      5  H3  UNL     1      -1.083   0.344   2.056  1.00  0.00     0.188 HD
HETATM    6  C2  UNL     1      -0.560  -0.266   0.115  1.00  0.00     0.170 A 
HETATM    7  C3  UNL     1      -1.330  -0.228  -1.036  1.00  0.00     0.141 A 
HETATM    8  N4  UNL     1      -0.531  -0.729  -1.996  1.00  0.00    -0.279 N 
ATOM      9  H4  UNL     1      -0.781  -0.848  -2.978  1.00  0.00     0.189 HD
HETATM   10  N5  UNL     1       0.643  -1.044  -1.446  1.00  0.00    -0.238 N 
ATOM     11  H5  UNL     1       1.430  -1.444  -1.958  1.00  0.00     0.208 HD
HETATM   12  N6  UNL     1       0.655  -0.774  -0.165  1.00  0.00    -0.257 N 
ENDROOT
BRANCH  12  13
HETATM   13  C4  UNL     1       1.773  -0.994   0.733  1.00  0.00     0.178 C 
BRANCH  13  14
HETATM   14  C5  UNL     1       2.675   0.248   0.782  1.00  0.00     0.186 C 
BRANCH  14  15
HETATM   15  O1  UNL     1       1.918   1.318   1.235  1.00  0.00    -0.399 OA
ATOM     16  H1  UNL     1       2.476   2.086   1.265  1.00  0.00     0.209 HD
ENDBRANCH  14  15
ENDBRANCH  13  14
ENDBRANCH  12  13
BRANCH   1  17
HETATM   17  N1  UNL     1      -3.569   0.491  -1.534  1.00  0.00    -0.382 N 
ATOM     18  H12 UNL     1      -4.488   0.877  -1.316  1.00  0.00     0.157 HD
ATOM     19  H11 UNL     1      -3.593   0.286  -2.533  1.00  0.00     0.157 HD
ENDBRANCH   1  17
TORSDOF 4
