REMARK  9 active torsions:
REMARK  status: ('A' for Active; 'I' for Inactive)
REMARK    1  A    between atoms: O1_2  and  C2_3 
REMARK    2  A    between atoms: C4_5  and  O2_6 
REMARK    3  A    between atoms: C5_8  and  C6_9 
REMARK    4  A    between atoms: C8_12  and  O4_13 
REMARK    5  A    between atoms: C9_15  and  C10_16 
REMARK    6  A    between atoms: C10_16  and  O5_17 
REMARK    7  A    between atoms: C10_16  and  C11_19 
REMARK    8  A    between atoms: C11_19  and  C12_20 
REMARK    9  A    between atoms: C12_20  and  C13_21 
ROOT
HETATM    1  C2  UNL     1      -1.981  -1.418   0.312  1.00  0.00     0.086 A 
HETATM    2  C3  UNL     1      -3.221  -2.061   0.410  1.00  0.00     0.075 A 
HETATM    3  C4  UNL     1      -4.383  -1.407   0.172  1.00  0.00     0.085 A 
HETATM    4  C5  UNL     1      -4.407  -0.076  -0.179  1.00  0.00     0.077 A 
HETATM    5  C8  UNL     1      -3.182   0.593  -0.285  1.00  0.00     0.098 A 
HETATM    6  C9  UNL     1      -1.950  -0.099  -0.033  1.00  0.00     0.065 A 
ENDROOT
BRANCH   6   7
HETATM    7  C10 UNL     1      -0.738   0.665  -0.165  1.00  0.00     0.081 C 
BRANCH   7   8
HETATM    8  O5  UNL     1      -1.027   1.942  -0.517  1.00  0.00    -0.360 OA
ATOM      9  H5  UNL     1      -0.227   2.446  -0.604  1.00  0.00     0.217 HD
ENDBRANCH   7   8
BRANCH   7  10
HETATM   10  C11 UNL     1       0.659   0.491  -0.040  1.00  0.00     0.039 C 
BRANCH  10  11
HETATM   11  C12 UNL     1       1.542  -0.381   0.240  1.00  0.00     0.021 C 
BRANCH  11  12
HETATM   12  C13 UNL     1       2.995  -0.016   0.227  1.00  0.00     0.005 A 
HETATM   13  C14 UNL     1       3.611   1.162  -0.048  1.00  0.00     0.026 A 
HETATM   14  C15 UNL     1       4.960   1.195   0.020  1.00  0.00    -0.048 A 
HETATM   15  C16 UNL     1       5.774   2.446  -0.262  1.00  0.00     0.049 C 
HETATM   16  C17 UNL     1       5.600   0.041   0.360  1.00  0.00    -0.015 A 
HETATM   17  C18 UNL     1       7.073  -0.212   0.510  1.00  0.00     0.057 C 
HETATM   18  S1  UNL     1       4.320  -1.059   0.576  1.00  0.00    -0.095 SA
ENDBRANCH  11  12
ENDBRANCH  10  11
ENDBRANCH   7  10
ENDBRANCH   6   7
BRANCH   1  19
HETATM   19  O1  UNL     1      -0.856  -2.170   0.574  1.00  0.00    -0.355 OA
HETATM   20  C1  UNL     1      -0.936  -3.516   0.923  1.00  0.00     0.210 C 
ENDBRANCH   1  19
BRANCH   5  21
HETATM   21  O4  UNL     1      -3.216   1.867  -0.622  1.00  0.00    -0.359 OA
ATOM     22  H4  UNL     1      -2.385   2.321  -0.694  1.00  0.00     0.217 HD
ENDBRANCH   5  21
BRANCH   4  23
HETATM   23  C6  UNL     1      -5.676   0.592  -0.427  1.00  0.00     0.161 C 
HETATM   24  C7  UNL     1      -5.790   2.000  -0.803  1.00  0.00     0.097 C 
HETATM   25  O3  UNL     1      -6.729  -0.080  -0.311  1.00  0.00    -0.293 OA
ENDBRANCH   4  23
BRANCH   3  26
HETATM   26  O2  UNL     1      -5.623  -2.066   0.275  1.00  0.00    -0.360 OA
ATOM     27  H2  UNL     1      -6.438  -1.607   0.108  1.00  0.00     0.217 HD
ENDBRANCH   3  26
TORSDOF 9
