REMARK  7 active torsions:
REMARK  status: ('A' for Active; 'I' for Inactive)
REMARK    1  A    between atoms: C2_2  and  C3_3 
REMARK    2  A    between atoms: C3_3  and  C4_4 
REMARK    3  A    between atoms: C5_5  and  C6_6 
REMARK    4  A    between atoms: C7_8  and  O2_9 
REMARK    5  A    between atoms: C9_13  and  C10_14 
REMARK    6  A    between atoms: C15_22  and  C16_23 
REMARK    7  A    between atoms: C18_26  and  O6_27 
ROOT
HETATM    1  C4  UNL     1       2.605  -0.062  -0.551  1.00  0.00    -0.008 A 
HETATM    2  C5  UNL     1       2.245  -0.382  -1.839  1.00  0.00     0.047 A 
HETATM    3  C7  UNL     1       0.922  -0.493  -2.169  1.00  0.00     0.114 A 
HETATM    4  C8  UNL     1      -0.097  -0.294  -1.244  1.00  0.00     0.124 A 
HETATM    5  O3  UNL     1      -1.382  -0.338  -1.307  1.00  0.00    -0.303 OA
HETATM    6  C9  UNL     1      -1.960  -0.065  -0.121  1.00  0.00     0.126 A 
HETATM    7  C15 UNL     1      -0.942   0.162   0.735  1.00  0.00     0.054 A 
HETATM    8  C17 UNL     1       0.256   0.025   0.041  1.00  0.00     0.051 A 
HETATM    9  C18 UNL     1       1.584   0.141   0.386  1.00  0.00     0.087 A 
ENDROOT
BRANCH   6  10
HETATM   10  C10 UNL     1      -3.396  -0.063   0.050  1.00  0.00     0.134 A 
HETATM   11  O4  UNL     1      -4.155  -0.772  -0.809  1.00  0.00    -0.293 OA
HETATM   12  C11 UNL     1      -5.408  -0.657  -0.485  1.00  0.00     0.120 A 
HETATM   13  C12 UNL     1      -6.567  -1.299  -1.198  1.00  0.00     0.098 C 
HETATM   14  N1  UNL     1      -5.506   0.127   0.590  1.00  0.00    -0.342 N 
HETATM   15  C13 UNL     1      -4.229   0.498   0.920  1.00  0.00     0.044 A 
ATOM     16  H1  UNL     1      -6.363   0.397   1.072  1.00  0.00     0.167 HD
HETATM   17  C14 UNL     1      -3.991   1.439   2.056  1.00  0.00     0.071 C 
ENDBRANCH   6  10
BRANCH   7  18
HETATM   18  C16 UNL     1      -0.932   0.457   2.155  1.00  0.00     0.273 C 
HETATM   19  O5  UNL     1      -0.911  -0.496   2.964  1.00  0.00    -0.301 OA
ENDBRANCH   7  18
BRANCH   3  20
HETATM   20  O2  UNL     1       0.533  -0.811  -3.450  1.00  0.00    -0.357 OA
ATOM     21  H2  UNL     1      -0.386  -0.888  -3.679  1.00  0.00     0.217 HD
ENDBRANCH   3  20
BRANCH   9  22
HETATM   22  O6  UNL     1       1.992   0.454   1.627  1.00  0.00    -0.359 OA
ATOM     23  H6  UNL     1       1.299   0.592   2.263  1.00  0.00     0.217 HD
ENDBRANCH   9  22
BRANCH   2  24
HETATM   24  C6  UNL     1       3.291  -0.605  -2.864  1.00  0.00     0.273 C 
HETATM   25  O1  UNL     1       2.949  -0.892  -4.018  1.00  0.00    -0.301 OA
ENDBRANCH   2  24
BRANCH   1  26
HETATM   26  C3  UNL     1       4.022   0.042  -0.258  1.00  0.00     0.042 C 
BRANCH  26  27
HETATM   27  C2  UNL     1       4.453   0.392   1.109  1.00  0.00     0.000 C 
HETATM   28  C1  UNL     1       6.000   0.412   1.066  1.00  0.00     0.005 C 
ENDBRANCH  26  27
ENDBRANCH   1  26
TORSDOF 7
