REMARK  8 active torsions:
REMARK  status: ('A' for Active; 'I' for Inactive)
REMARK    1  A    between atoms: O1_2  and  C2_3 
REMARK    2  A    between atoms: C2_3  and  C3_5 
REMARK    3  A    between atoms: C5_7  and  O3_8 
REMARK    4  A    between atoms: C6_10  and  C7_11 
REMARK    5  A    between atoms: C8_12  and  C9_13 
REMARK    6  A    between atoms: C11_15  and  O4_16 
REMARK    7  A    between atoms: C15_22  and  O6_23 
REMARK    8  A    between atoms: O6_23  and  C16_24 
ROOT
HETATM    1  C9  UNL     1      -1.875  -0.869  -0.411  1.00  0.00     0.033 C 
HETATM    2  C10 UNL     1      -1.885  -1.893  -1.537  1.00  0.00     0.025 C 
HETATM    3  C11 UNL     1      -2.528  -1.503   0.771  1.00  0.00     0.133 C 
HETATM    4  C12 UNL     1      -3.913  -1.960   0.359  1.00  0.00     0.040 C 
HETATM    5  C13 UNL     1      -4.749  -0.843  -0.180  1.00  0.00     0.083 C 
HETATM    6  C14 UNL     1      -4.002   0.050  -1.084  1.00  0.00     0.157 C 
HETATM    7  O5  UNL     1      -4.619   0.560  -2.011  1.00  0.00    -0.295 OA
HETATM    8  C15 UNL     1      -2.578   0.350  -0.927  1.00  0.00     0.215 C 
ENDROOT
BRANCH   1   9
HETATM    9  C8  UNL     1      -0.411  -0.595  -0.139  1.00  0.00    -0.015 C 
HETATM   10  C7  UNL     1       0.466  -1.581  -0.122  1.00  0.00    -0.022 C 
BRANCH  10  11
HETATM   11  C6  UNL     1       1.895  -1.370   0.136  1.00  0.00     0.045 C 
HETATM   12  C5  UNL     1       2.740  -1.681  -1.088  1.00  0.00     0.149 C 
HETATM   13  C4  UNL     1       3.984  -0.956  -0.846  1.00  0.00     0.018 C 
HETATM   14  C3  UNL     1       3.751   0.047  -0.020  1.00  0.00     0.017 C 
HETATM   15  C18 UNL     1       2.288   0.072   0.372  1.00  0.00     0.056 C 
BRANCH  12  16
HETATM   16  O3  UNL     1       2.919  -3.058  -1.201  1.00  0.00    -0.391 OA
ATOM     17  H3  UNL     1       2.110  -3.530  -1.358  1.00  0.00     0.210 HD
ENDBRANCH  12  16
BRANCH  14  18
HETATM   18  C2  UNL     1       4.741   1.001   0.462  1.00  0.00     0.288 C 
HETATM   19  O2  UNL     1       5.946   0.950   0.119  1.00  0.00    -0.260 OA
BRANCH  18  20
HETATM   20  O1  UNL     1       4.340   1.997   1.325  1.00  0.00    -0.323 OA
HETATM   21  C1  UNL     1       5.222   2.973   1.851  1.00  0.00     0.213 C 
ENDBRANCH  18  20
ENDBRANCH  14  18
ENDBRANCH  10  11
ENDBRANCH   1   9
BRANCH   3  22
HETATM   22  O4  UNL     1      -2.545  -0.719   1.906  1.00  0.00    -0.394 OA
ATOM     23  H4  UNL     1      -2.961  -1.123   2.659  1.00  0.00     0.210 HD
ENDBRANCH   3  22
BRANCH   8  24
HETATM   24  O6  UNL     1      -2.393   1.490  -0.144  1.00  0.00    -0.307 OA
BRANCH  24  25
HETATM   25  C16 UNL     1      -1.775   2.623  -0.655  1.00  0.00     0.255 C 
HETATM   26  C17 UNL     1      -1.558   3.857   0.141  1.00  0.00     0.126 C 
HETATM   27  O7  UNL     1      -1.395   2.556  -1.858  1.00  0.00    -0.266 OA
ENDBRANCH  24  25
ENDBRANCH   8  24
TORSDOF 8
