REMARK  8 active torsions:
REMARK  status: ('A' for Active; 'I' for Inactive)
REMARK       I    between atoms: C1_2  and  N1_3 
REMARK    1  A    between atoms: C1_2  and  C7_16 
REMARK    2  A    between atoms: N1_3  and  N2_5 
REMARK    3  A    between atoms: C2_7  and  C3_8 
REMARK    4  A    between atoms: C6_11  and  N3_12 
REMARK    5  A    between atoms: C7_16  and  C8_17 
REMARK    6  A    between atoms: C7_16  and  C9_24 
REMARK    7  A    between atoms: C8_17  and  O5_18 
REMARK    8  A    between atoms: N4_20  and  O6_22 
ROOT
HETATM    1  O1  UNL     1      -0.639  -1.588  -1.927  1.00  0.00    -0.271 OA
HETATM    2  C1  UNL     1      -0.412  -0.796  -0.955  1.00  0.00     0.248 C 
HETATM    3  N1  UNL     1       0.645  -1.134  -0.051  1.00  0.00    -0.270 N 
ATOM      4  H1  UNL     1       0.851  -0.518   0.735  1.00  0.00     0.190 HD
ENDROOT
BRANCH   2   5
HETATM    5  C7  UNL     1      -1.249   0.430  -0.810  1.00  0.00     0.160 C 
BRANCH   5   6
HETATM    6  C8  UNL     1      -0.450   1.657  -0.979  1.00  0.00     0.149 C 
HETATM    7  N4  UNL     1       0.836   1.618  -1.222  1.00  0.00    -0.250 N 
ATOM      8  H4  UNL     1       1.277   0.701  -1.292  1.00  0.00     0.196 HD
BRANCH   6   9
HETATM    9  O5  UNL     1      -0.984   2.932  -0.897  1.00  0.00    -0.347 OA
ATOM     10  H5  UNL     1      -0.469   3.723  -1.006  1.00  0.00     0.219 HD
ENDBRANCH   6   9
BRANCH   7  11
HETATM   11  O6  UNL     1       1.620   2.704  -1.386  1.00  0.00    -0.288 OA
ATOM     12  H6  UNL     1       2.553   2.676  -1.562  1.00  0.00     0.244 HD
ENDBRANCH   7  11
ENDBRANCH   5   6
BRANCH   5  13
HETATM   13  C9  UNL     1      -1.973   0.316   0.491  1.00  0.00     0.006 C 
HETATM   14  C10 UNL     1      -2.882   1.444   0.836  1.00  0.00     0.006 C 
HETATM   15  C11 UNL     1      -4.016   1.607  -0.145  1.00  0.00     0.000 C 
HETATM   16  C12 UNL     1      -4.712   0.275  -0.317  1.00  0.00     0.000 C 
HETATM   17  C13 UNL     1      -4.244  -0.752   0.669  1.00  0.00     0.000 C 
HETATM   18  C14 UNL     1      -2.766  -0.981   0.450  1.00  0.00     0.006 C 
ENDBRANCH   5  13
ENDBRANCH   2   5
BRANCH   3  19
HETATM   19  N2  UNL     1       1.374  -2.260  -0.226  1.00  0.00    -0.307 N 
HETATM   20  C2  UNL     1       2.575  -2.575  -0.201  1.00  0.00     0.144 C 
ATOM     21  H2  UNL     1       0.780  -3.063  -0.433  1.00  0.00     0.186 HD
BRANCH  20  22
HETATM   22  C3  UNL     1       3.741  -1.754   0.052  1.00  0.00     0.095 A 
HETATM   23  C4  UNL     1       3.825  -0.411   0.331  1.00  0.00     0.043 A 
HETATM   24  C5  UNL     1       5.160  -0.117   0.489  1.00  0.00     0.065 A 
HETATM   25  C6  UNL     1       5.849  -1.291   0.302  1.00  0.00     0.215 A 
HETATM   26  O4  UNL     1       4.984  -2.224   0.048  1.00  0.00    -0.287 OA
BRANCH  25  27
HETATM   27  N3  UNL     1       7.288  -1.426   0.380  1.00  0.00    -0.090 N 
HETATM   28  O2  UNL     1       7.839  -2.523   0.198  1.00  0.00    -0.530 OA
HETATM   29  O3  UNL     1       8.080  -0.342   0.659  1.00  0.00    -0.530 OA
ENDBRANCH  25  27
ENDBRANCH  20  22
ENDBRANCH   3  19
TORSDOF 8
