REMARK  14 active torsions:
REMARK  status: ('A' for Active; 'I' for Inactive)
REMARK    1  A    between atoms: C2_2  and  C3_3 
REMARK    2  A    between atoms: C3_3  and  C4_4 
REMARK    3  A    between atoms: C4_4  and  C5_5 
REMARK    4  A    between atoms: C5_5  and  O1_6 
REMARK    5  A    between atoms: C5_5  and  N1_8 
REMARK    6  A    between atoms: C8_11  and  C9_12 
REMARK    7  A    between atoms: C15_21  and  C16_22 
REMARK    8  A    between atoms: C16_22  and  N4_23 
REMARK       I    between atoms: N4_23  and  C17_24 
REMARK    9  A    between atoms: C17_24  and  C18_26 
REMARK   10  A    between atoms: C21_29  and  O4_30 
REMARK   11  A    between atoms: C23_33  and  C24_34 
REMARK   12  A    between atoms: C25_38  and  C26_39 
REMARK   13  A    between atoms: C26_39  and  C27_40 
REMARK   14  A    between atoms: C27_40  and  C29_42 
ROOT
HETATM    1  C9  UNL     1      -0.598  -1.527  -0.796  1.00  0.00     0.237 C 
HETATM    2  N2  UNL     1      -0.476  -2.511  -1.844  1.00  0.00    -0.310 N 
HETATM    3  C10 UNL     1      -0.877  -2.585  -3.222  1.00  0.00     0.157 C 
HETATM    4  C11 UNL     1       0.291  -3.539  -1.150  1.00  0.00     0.340 C 
HETATM    5  O2  UNL     1       0.145  -4.774  -1.274  1.00  0.00    -0.245 OA
HETATM    6  N3  UNL     1       1.216  -2.857  -0.326  1.00  0.00    -0.242 N 
HETATM    7  C12 UNL     1       2.480  -3.063   0.340  1.00  0.00     0.154 C 
HETATM    8  C13 UNL     1       3.492  -2.236  -0.477  1.00  0.00     0.024 C 
HETATM    9  C14 UNL     1       2.712  -1.189  -1.294  1.00  0.00     0.031 C 
HETATM   10  C15 UNL     1       1.682  -0.615  -0.351  1.00  0.00     0.136 C 
HETATM   11  N5  UNL     1       0.676  -1.539  -0.196  1.00  0.00    -0.287 N 
ENDROOT
BRANCH   1  12
HETATM   12  C8  UNL     1      -1.558  -1.854   0.308  1.00  0.00    -0.027 C 
HETATM   13  C7  UNL     1      -1.335  -0.828   1.406  1.00  0.00     0.058 C 
HETATM   14  C6  UNL     1      -2.367   0.290   1.403  1.00  0.00     0.130 C 
HETATM   15  N1  UNL     1      -3.594  -0.354   1.756  1.00  0.00    -0.358 N 
HETATM   16  C31 UNL     1      -3.745  -1.721   1.389  1.00  0.00     0.163 C 
HETATM   17  C25 UNL     1      -2.949  -2.177   0.139  1.00  0.00    -0.037 C 
BRANCH  15  18
HETATM   18  C5  UNL     1      -4.655   0.309   2.387  1.00  0.00     0.137 C 
BRANCH  18  19
HETATM   19  C4  UNL     1      -4.932   1.667   2.650  1.00  0.00     0.052 C 
BRANCH  19  20
HETATM   20  C3  UNL     1      -4.238   2.716   2.316  1.00  0.00    -0.023 C 
BRANCH  20  21
HETATM   21  C2  UNL     1      -4.659   4.122   2.678  1.00  0.00     0.023 C 
HETATM   22  C1  UNL     1      -5.934   4.157   3.461  1.00  0.00     0.009 C 
ENDBRANCH  20  21
ENDBRANCH  19  20
ENDBRANCH  18  19
BRANCH  18  23
HETATM   23  O1  UNL     1      -5.577  -0.537   2.820  1.00  0.00    -0.346 OA
ATOM     24  H1  UNL     1      -5.390  -1.452   2.643  1.00  0.00     0.219 HD
ENDBRANCH  18  23
ENDBRANCH  15  18
BRANCH  17  25
HETATM   25  C26 UNL     1      -3.723  -2.157  -1.099  1.00  0.00    -0.013 C 
BRANCH  25  26
HETATM   26  C27 UNL     1      -4.018  -1.039  -1.967  1.00  0.00     0.004 C 
HETATM   27  C28 UNL     1      -4.844   0.102  -1.482  1.00  0.00     0.014 C 
BRANCH  26  28
HETATM   28  C29 UNL     1      -4.580  -1.512  -3.295  1.00  0.00     0.003 C 
HETATM   29  C30 UNL     1      -5.822  -2.321  -3.230  1.00  0.00     0.006 C 
ENDBRANCH  26  28
ENDBRANCH  25  26
ENDBRANCH  17  25
ENDBRANCH   1  12
BRANCH  10  30
HETATM   30  C16 UNL     1       1.435   0.842  -0.618  1.00  0.00     0.248 C 
BRANCH  30  31
HETATM   31  N4  UNL     1       2.642   1.567  -0.462  1.00  0.00    -0.413 NA
HETATM   32  C17 UNL     1       3.750   2.313  -0.325  1.00  0.00     0.291 C 
HETATM   33  O3  UNL     1       3.834   3.563  -0.401  1.00  0.00    -0.257 OA
BRANCH  32  34
HETATM   34  C18 UNL     1       5.111   1.680  -0.044  1.00  0.00     0.107 C 
HETATM   35  C19 UNL     1       6.029   2.087  -1.171  1.00  0.00     0.019 C 
HETATM   36  C20 UNL     1       7.369   2.586  -0.661  1.00  0.00     0.032 C 
HETATM   37  C21 UNL     1       7.997   1.622   0.308  1.00  0.00     0.119 C 
HETATM   38  C22 UNL     1       7.027   1.339   1.411  1.00  0.00     0.048 C 
HETATM   39  C23 UNL     1       5.712   2.093   1.238  1.00  0.00     0.103 C 
BRANCH  37  40
HETATM   40  O4  UNL     1       8.415   0.487  -0.357  1.00  0.00    -0.396 OA
ATOM     41  H4  UNL     1       8.812  -0.122   0.255  1.00  0.00     0.210 HD
ENDBRANCH  37  40
BRANCH  39  42
HETATM   42  C24 UNL     1       4.912   1.856   2.451  1.00  0.00     0.177 C 
HETATM   43  O5  UNL     1       5.161   2.435   3.549  1.00  0.00    -0.648 OA
HETATM   44  O6  UNL     1       3.857   0.977   2.410  1.00  0.00    -0.648 OA
ENDBRANCH  39  42
ENDBRANCH  32  34
ENDBRANCH  30  31
ENDBRANCH  10  30
TORSDOF 14
