REMARK  1 active torsions:
REMARK  status: ('A' for Active; 'I' for Inactive)
REMARK       I    between atoms: C1_4  and  N3_6 
REMARK    1  A    between atoms: C3_13  and  C4_14 
ROOT
HETATM    1  N1  UNL     1      -2.026  -0.042  -1.482  1.00  0.00    -0.372 N 
ATOM      2  H11 UNL     1      -1.561   0.553  -2.167  1.00  0.00     0.158 HD
ATOM      3  H12 UNL     1      -2.856  -0.592  -1.704  1.00  0.00     0.158 HD
HETATM    4  C1  UNL     1      -1.555  -0.108  -0.292  1.00  0.00     0.209 C 
HETATM    5  N2  UNL     1      -2.201  -0.935   0.660  1.00  0.00    -0.062 NA
HETATM    6  N3  UNL     1      -0.394   0.661   0.019  1.00  0.00    -0.202 N 
HETATM    7  N4  UNL     1      -0.304   1.928   0.383  1.00  0.00    -0.240 N 
ATOM      8  H4  UNL     1      -1.104   2.551   0.493  1.00  0.00     0.192 HD
HETATM    9  C2  UNL     1       0.967   2.294   0.590  1.00  0.00     0.341 A 
HETATM   10  O1  UNL     1       1.401   3.431   0.945  1.00  0.00    -0.245 OA
HETATM   11  N5  UNL     1       1.696   1.192   0.340  1.00  0.00    -0.288 N 
ATOM     12  H5  UNL     1       2.712   1.128   0.406  1.00  0.00     0.172 HD
HETATM   13  C3  UNL     1       0.860   0.172  -0.016  1.00  0.00     0.200 A 
ENDROOT
BRANCH  13  14
HETATM   14  C4  UNL     1       1.242  -1.177  -0.363  1.00  0.00     0.300 C 
HETATM   15  N6  UNL     1       2.603  -1.533  -0.352  1.00  0.00    -0.054 NA
HETATM   16  O2  UNL     1       0.377  -2.015  -0.669  1.00  0.00    -0.268 OA
ENDBRANCH  13  14
TORSDOF 1
