REMARK  4 active torsions:
REMARK  status: ('A' for Active; 'I' for Inactive)
REMARK    1  A    between atoms: C3_5  and  C4_6 
REMARK    2  A    between atoms: C8_10  and  N2_11 
REMARK    3  A    between atoms: N2_11  and  C9_13 
REMARK    4  A    between atoms: C9_13  and  C10_14 
ROOT
HETATM    1  C4  UNL     1       2.250  -0.871   0.079  1.00  0.00     0.079 A 
HETATM    2  C5  UNL     1       2.386  -2.228   0.220  1.00  0.00     0.033 A 
HETATM    3  C6  UNL     1       1.247  -3.004   0.242  1.00  0.00     0.006 A 
HETATM    4  C7  UNL     1      -0.012  -2.442   0.126  1.00  0.00     0.048 A 
HETATM    5  C8  UNL     1      -0.084  -1.064  -0.014  1.00  0.00     0.101 A 
HETATM    6  N3  UNL     1       1.044  -0.335  -0.033  1.00  0.00    -0.340 N 
ATOM      7  H3  UNL     1       0.968   0.677  -0.138  1.00  0.00     0.167 HD
ENDROOT
BRANCH   1   8
HETATM    8  C3  UNL     1       3.481  -0.054   0.057  1.00  0.00     0.148 A 
HETATM    9  N1  UNL     1       3.553   1.286  -0.073  1.00  0.00    -0.328 N 
HETATM   10  C2  UNL     1       4.839   1.659  -0.048  1.00  0.00     0.093 A 
ATOM     11  H1  UNL     1       2.756   1.915  -0.174  1.00  0.00     0.169 HD
HETATM   12  C1  UNL     1       5.381   3.049  -0.160  1.00  0.00     0.090 C 
HETATM   13  N5  UNL     1       5.577   0.545   0.098  1.00  0.00    -0.288 N 
HETATM   14  N4  UNL     1       4.739  -0.475   0.159  1.00  0.00    -0.282 N 
ATOM     15  H5  UNL     1       6.594   0.496   0.152  1.00  0.00     0.188 HD
ATOM     16  H4  UNL     1       5.018  -1.450   0.269  1.00  0.00     0.188 HD
ENDBRANCH   1   8
BRANCH   5  17
HETATM   17  N2  UNL     1      -1.240  -0.516  -0.124  1.00  0.00    -0.372 N 
ATOM     18  H2  UNL     1      -1.284   0.498  -0.226  1.00  0.00     0.161 HD
BRANCH  17  19
HETATM   19  C9  UNL     1      -2.476  -1.250  -0.111  1.00  0.00     0.159 C 
BRANCH  19  20
HETATM   20  C10 UNL     1      -3.608  -0.300  -0.065  1.00  0.00    -0.041 A 
HETATM   21  C11 UNL     1      -4.905  -0.773  -0.044  1.00  0.00     0.009 A 
HETATM   22  C12 UNL     1      -5.998   0.065  -0.001  1.00  0.00     0.001 A 
HETATM   23  C13 UNL     1      -5.742   1.429   0.021  1.00  0.00     0.000 A 
HETATM   24  C14 UNL     1      -4.458   1.932   0.001  1.00  0.00     0.001 A 
HETATM   25  C15 UNL     1      -3.391   1.056  -0.042  1.00  0.00     0.009 A 
ENDBRANCH  19  20
ENDBRANCH  17  19
ENDBRANCH   5  17
TORSDOF 4
