REMARK  3 active torsions:
REMARK  status: ('A' for Active; 'I' for Inactive)
REMARK    1  A    between atoms: N1_2  and  N2_4 
REMARK    2  A    between atoms: N2_4  and  C3_6 
REMARK    3  A    between atoms: C3_6  and  N3_8 
ROOT
HETATM    1  C3  UNL     1      -0.420  -0.026   0.456  1.00  0.00     0.184 C 
HETATM    2  S1  UNL     1      -0.920  -0.154   2.013  1.00  0.00    -0.040 SA
ENDROOT
BRANCH   1   3
HETATM    3  N2  UNL     1      -1.337   0.025  -0.620  1.00  0.00    -0.296 N 
ATOM      4  H2  UNL     1      -0.955   0.105  -1.562  1.00  0.00     0.183 HD
BRANCH   3   5
HETATM    5  N1  UNL     1      -2.712  -0.026  -0.490  1.00  0.00    -0.238 NA
HETATM    6  C1  UNL     1      -3.182   1.306  -0.179  1.00  0.00     0.135 C 
HETATM    7  C2  UNL     1      -3.200  -0.999   0.418  1.00  0.00     0.135 C 
ENDBRANCH   3   5
ENDBRANCH   1   3
BRANCH   1   8
HETATM    8  N3  UNL     1       0.962   0.034   0.198  1.00  0.00    -0.353 N 
HETATM    9  C4  UNL     1       1.881  -0.020   1.315  1.00  0.00     0.151 C 
HETATM   10  C5  UNL     1       3.227  -0.465   0.812  1.00  0.00     0.187 C 
HETATM   11  O1  UNL     1       3.598   0.424  -0.203  1.00  0.00    -0.388 OA
HETATM   12  C6  UNL     1       2.890   0.034  -1.339  1.00  0.00     0.187 C 
HETATM   13  C7  UNL     1       1.412   0.147  -1.168  1.00  0.00     0.151 C 
ENDBRANCH   1   8
TORSDOF 3
