REMARK  15 active torsions:
REMARK  status: ('A' for Active; 'I' for Inactive)
REMARK    1  A    between atoms: C2_2  and  N1_3 
REMARK       I    between atoms: N1_3  and  C3_5 
REMARK    2  A    between atoms: C3_5  and  C4_7 
REMARK       I    between atoms: N2_12  and  C9_13 
REMARK    3  A    between atoms: C9_13  and  C10_15 
REMARK    4  A    between atoms: C10_15  and  C11_17 
REMARK    5  A    between atoms: C11_17  and  N3_18 
REMARK    6  A    between atoms: C11_17  and  C25_36 
REMARK       I    between atoms: N3_18  and  C12_20 
REMARK       I    between atoms: C12_20  and  N4_22 
REMARK    7  A    between atoms: N4_22  and  C13_24 
REMARK    8  A    between atoms: C13_24  and  C14_25 
REMARK    9  A    between atoms: C14_25  and  C15_26 
REMARK   10  A    between atoms: C15_26  and  C16_27 
REMARK   11  A    between atoms: C16_27  and  C17_28 
REMARK   12  A    between atoms: C17_28  and  C18_29 
REMARK   13  A    between atoms: C18_29  and  C19_30 
REMARK   14  A    between atoms: C19_30  and  C20_31 
REMARK       I    between atoms: C25_36  and  N5_38 
REMARK   15  A    between atoms: N5_38  and  C26_40 
ROOT
HETATM    1  C11 UNL     1      -0.682  -0.341   0.473  1.00  0.00     0.258 C 
ENDROOT
BRANCH   1   2
HETATM    2  C10 UNL     1      -1.629   0.338   1.420  1.00  0.00     0.248 C 
HETATM    3  O3  UNL     1      -1.710  -0.065   2.599  1.00  0.00    -0.284 OA
BRANCH   2   4
HETATM    4  C9  UNL     1      -2.435   1.468   0.925  1.00  0.00     0.293 C 
HETATM    5  N2  UNL     1      -3.348   2.220   1.661  1.00  0.00    -0.332 N 
HETATM    6  C4  UNL     1      -4.246   3.184   1.167  1.00  0.00     0.179 C 
HETATM    7  C8  UNL     1      -3.329   2.076   3.129  1.00  0.00     0.127 C 
HETATM    8  C5  UNL     1      -5.497   3.057   2.103  1.00  0.00     0.035 C 
HETATM    9  C6  UNL     1      -5.119   3.804   3.356  1.00  0.00     0.004 C 
HETATM   10  C7  UNL     1      -3.721   3.396   3.790  1.00  0.00     0.020 C 
HETATM   11  O2  UNL     1      -2.190   1.688  -0.331  1.00  0.00    -0.264 OA
BRANCH   6  12
HETATM   12  C3  UNL     1      -4.720   3.171  -0.201  1.00  0.00     0.240 C 
HETATM   13  N1  UNL     1      -5.465   4.321  -0.627  1.00  0.00    -0.360 N 
ATOM     14  H1  UNL     1      -5.623   5.069   0.048  1.00  0.00     0.162 HD
HETATM   15  O1  UNL     1      -4.554   2.289  -1.032  1.00  0.00    -0.271 OA
BRANCH  13  16
HETATM   16  C2  UNL     1      -5.998   4.478  -1.944  1.00  0.00     0.118 C 
HETATM   17  C1  UNL     1      -4.966   4.481  -3.045  1.00  0.00     0.026 C 
ENDBRANCH  13  16
ENDBRANCH   6  12
ENDBRANCH   2   4
ENDBRANCH   1   2
BRANCH   1  18
HETATM   18  N3  UNL     1       0.520  -0.672   1.165  1.00  0.00    -0.323 N 
HETATM   19  C12 UNL     1       1.683   0.130   1.079  1.00  0.00     0.317 C 
HETATM   20  O4  UNL     1       1.546   1.174   0.342  1.00  0.00    -0.247 OA
HETATM   21  N4  UNL     1       2.848  -0.210   1.746  1.00  0.00    -0.334 N 
ATOM     22  H4  UNL     1       2.839  -1.072   2.292  1.00  0.00     0.165 HD
ATOM     23  H3  UNL     1       0.542  -1.514   1.741  1.00  0.00     0.165 HD
BRANCH  21  24
HETATM   24  C13 UNL     1       4.063   0.544   1.735  1.00  0.00     0.035 A 
HETATM   25  C23 UNL     1       4.374   1.504   0.679  1.00  0.00     0.033 A 
HETATM   26  C24 UNL     1       3.868   2.065   1.929  1.00  0.00     0.033 A 
BRANCH  24  27
HETATM   27  C14 UNL     1       5.217  -0.007   2.600  1.00  0.00     0.031 C 
BRANCH  27  28
HETATM   28  C15 UNL     1       5.665  -1.362   2.195  1.00  0.00     0.002 C 
BRANCH  28  29
HETATM   29  C16 UNL     1       6.243  -1.462   0.803  1.00  0.00     0.000 C 
BRANCH  29  30
HETATM   30  C17 UNL     1       7.474  -0.604   0.643  1.00  0.00     0.000 C 
BRANCH  30  31
HETATM   31  C18 UNL     1       7.971  -0.779  -0.790  1.00  0.00     0.000 C 
BRANCH  31  32
HETATM   32  C19 UNL     1       9.212   0.085  -0.983  1.00  0.00     0.004 C 
BRANCH  32  33
HETATM   33  C20 UNL     1       9.697  -0.082  -2.383  1.00  0.00    -0.023 C 
HETATM   34  C21 UNL     1      10.937   0.779  -2.601  1.00  0.00     0.009 C 
HETATM   35  C22 UNL     1      10.073  -1.537  -2.630  1.00  0.00     0.009 C 
ENDBRANCH  32  33
ENDBRANCH  31  32
ENDBRANCH  30  31
ENDBRANCH  29  30
ENDBRANCH  28  29
ENDBRANCH  27  28
ENDBRANCH  24  27
ENDBRANCH  21  24
ENDBRANCH   1  18
BRANCH   1  36
HETATM   36  C25 UNL     1      -1.308  -1.507  -0.178  1.00  0.00     0.248 C 
HETATM   37  O5  UNL     1      -0.581  -2.407  -0.636  1.00  0.00    -0.271 OA
HETATM   38  N5  UNL     1      -2.696  -1.617  -0.282  1.00  0.00    -0.354 N 
ATOM     39  H5  UNL     1      -3.264  -0.863   0.105  1.00  0.00     0.163 HD
BRANCH  38  40
HETATM   40  C26 UNL     1      -3.386  -2.735  -0.905  1.00  0.00     0.092 C 
HETATM   41  C27 UNL     1      -4.285  -2.363  -2.031  1.00  0.00     0.009 C 
HETATM   42  C28 UNL     1      -4.668  -3.673  -2.737  1.00  0.00     0.011 C 
HETATM   43  C32 UNL     1      -5.597  -1.742  -1.613  1.00  0.00     0.011 C 
HETATM   44  C29 UNL     1      -5.414  -4.528  -1.741  1.00  0.00    -0.013 C 
HETATM   45  C30 UNL     1      -6.678  -3.884  -1.230  1.00  0.00     0.009 C 
HETATM   46  C35 UNL     1      -4.516  -4.855  -0.571  1.00  0.00     0.011 C 
HETATM   47  C31 UNL     1      -6.281  -2.569  -0.546  1.00  0.00    -0.013 C 
HETATM   48  C33 UNL     1      -5.385  -2.908   0.610  1.00  0.00     0.011 C 
HETATM   49  C34 UNL     1      -4.129  -3.565   0.124  1.00  0.00     0.009 C 
ENDBRANCH  38  40
ENDBRANCH   1  36
TORSDOF 15
