REMARK  10 active torsions:
REMARK  status: ('A' for Active; 'I' for Inactive)
REMARK    1  A    between atoms: N1_1  and  S1_4 
REMARK    2  A    between atoms: S1_4  and  N2_7 
REMARK    3  A    between atoms: N2_7  and  C1_9 
REMARK    4  A    between atoms: C1_9  and  C2_10 
REMARK    5  A    between atoms: C5_13  and  C6_14 
REMARK    6  A    between atoms: C6_14  and  N3_15 
REMARK       I    between atoms: N3_15  and  C7_17 
REMARK    7  A    between atoms: C7_17  and  C8_19 
REMARK    8  A    between atoms: C12_25  and  C13_26 
REMARK    9  A    between atoms: C17_30  and  C18_31 
REMARK   10  A    between atoms: C18_31  and  N5_32 
ROOT
HETATM    1  C8  UNL     1       2.736   0.188   1.972  1.00  0.00     0.033 A 
HETATM    2  C9  UNL     1       2.383  -1.111   2.257  1.00  0.00     0.019 A 
HETATM    3  C10 UNL     1       1.114  -1.618   1.949  1.00  0.00     0.031 A 
HETATM    4  C11 UNL     1       0.163  -0.828   1.344  1.00  0.00     0.043 A 
HETATM    5  N4  UNL     1      -1.102  -1.056   0.947  1.00  0.00    -0.354 N 
ATOM      6  H4  UNL     1      -1.592  -1.945   1.050  1.00  0.00     0.166 HD
HETATM    7  C12 UNL     1      -1.630   0.049   0.397  1.00  0.00     0.060 A 
HETATM    8  C26 UNL     1      -0.640   1.002   0.460  1.00  0.00     0.045 A 
HETATM    9  C27 UNL     1       0.494   0.471   1.050  1.00  0.00    -0.006 A 
HETATM   10  C28 UNL     1       1.741   0.960   1.356  1.00  0.00     0.030 A 
ENDROOT
BRANCH   1  11
HETATM   11  C7  UNL     1       4.036   0.757   2.272  1.00  0.00     0.251 C 
HETATM   12  N3  UNL     1       4.999   0.031   3.009  1.00  0.00    -0.353 N 
ATOM     13  H3  UNL     1       4.766  -0.908   3.332  1.00  0.00     0.163 HD
HETATM   14  O3  UNL     1       4.322   1.910   1.876  1.00  0.00    -0.268 OA
BRANCH  12  15
HETATM   15  C6  UNL     1       6.309   0.576   3.322  1.00  0.00     0.161 C 
BRANCH  15  16
HETATM   16  C5  UNL     1       7.174   0.513   2.142  1.00  0.00    -0.041 A 
HETATM   17  C4  UNL     1       8.416   1.140   2.234  1.00  0.00     0.009 A 
HETATM   18  C3  UNL     1       9.250   1.089   1.135  1.00  0.00     0.009 A 
HETATM   19  C2  UNL     1       8.899   0.448  -0.031  1.00  0.00    -0.040 A 
HETATM   20  C30 UNL     1       7.678  -0.155  -0.088  1.00  0.00     0.009 A 
HETATM   21  C29 UNL     1       6.806  -0.130   0.992  1.00  0.00     0.009 A 
BRANCH  19  22
HETATM   22  C1  UNL     1       9.858   0.431  -1.188  1.00  0.00     0.172 C 
BRANCH  22  23
HETATM   23  N2  UNL     1      10.672  -0.760  -1.017  1.00  0.00    -0.299 N 
ATOM     24  H2  UNL     1      10.558  -1.411  -0.240  1.00  0.00     0.174 HD
BRANCH  23  25
HETATM   25  S1  UNL     1      11.838  -0.959  -2.248  1.00  0.00     0.313 S 
HETATM   26  O1  UNL     1      12.178  -2.411  -2.478  1.00  0.00    -0.183 OA
HETATM   27  O2  UNL     1      11.322  -0.316  -3.506  1.00  0.00    -0.183 OA
BRANCH  25  28
HETATM   28  N1  UNL     1      13.291  -0.150  -1.733  1.00  0.00    -0.312 N 
ATOM     29  H12 UNL     1      14.202  -0.592  -1.613  1.00  0.00     0.170 HD
ATOM     30  H11 UNL     1      13.061   0.832  -1.578  1.00  0.00     0.170 HD
ENDBRANCH  25  28
ENDBRANCH  23  25
ENDBRANCH  22  23
ENDBRANCH  19  22
ENDBRANCH  15  16
ENDBRANCH  12  15
ENDBRANCH   1  11
BRANCH   7  31
HETATM   31  C13 UNL     1      -2.976   0.178  -0.146  1.00  0.00     0.060 A 
HETATM   32  C14 UNL     1      -3.927  -0.834  -0.185  1.00  0.00     0.045 A 
HETATM   33  C15 UNL     1      -5.080  -0.356  -0.765  1.00  0.00    -0.007 A 
HETATM   34  C16 UNL     1      -6.305  -0.912  -1.050  1.00  0.00     0.022 A 
HETATM   35  C25 UNL     1      -4.822   0.962  -1.080  1.00  0.00     0.043 A 
HETATM   36  C17 UNL     1      -7.319  -0.190  -1.655  1.00  0.00    -0.029 A 
HETATM   37  C23 UNL     1      -7.046   1.122  -1.963  1.00  0.00     0.011 A 
HETATM   38  C24 UNL     1      -5.817   1.707  -1.685  1.00  0.00     0.031 A 
HETATM   39  N6  UNL     1      -3.552   1.259  -0.699  1.00  0.00    -0.354 N 
ATOM     40  H6  UNL     1      -3.103   2.167  -0.815  1.00  0.00     0.166 HD
BRANCH  36  41
HETATM   41  C18 UNL     1      -8.619  -0.788  -1.961  1.00  0.00     0.311 C 
BRANCH  41  42
HETATM   42  N5  UNL     1      -9.572  -0.798  -0.900  1.00  0.00     0.096 N 
HETATM   43  C19 UNL     1      -9.958   0.470  -0.381  1.00  0.00     0.299 C 
HETATM   44  C20 UNL     1     -11.270   0.970  -0.949  1.00  0.00     0.198 C 
HETATM   45  O4  UNL     1     -12.324   0.114  -0.645  1.00  0.00    -0.388 OA
HETATM   46  C21 UNL     1     -11.953  -1.208  -0.571  1.00  0.00     0.198 C 
HETATM   47  C22 UNL     1     -10.740  -1.547  -1.388  1.00  0.00     0.299 C 
ENDBRANCH  41  42
ENDBRANCH  36  41
ENDBRANCH   7  31
TORSDOF 10
