REMARK  1 active torsions:
REMARK  status: ('A' for Active; 'I' for Inactive)
REMARK    1  A    between atoms: C2_2  and  C3_3 
ROOT
HETATM    1  C3  UNL     1      -0.071   0.054  -0.447  1.00  0.00     0.134 C 
HETATM    2  F1  UNL     1       0.082   0.874  -1.515  1.00  0.00    -0.240 F 
HETATM    3  C4  UNL     1      -0.634   0.799   0.745  1.00  0.00     0.049 C 
HETATM    4  C5  UNL     1      -1.984   0.686   0.019  1.00  0.00     0.044 C 
HETATM    5  C6  UNL     1      -1.434  -0.648  -0.509  1.00  0.00     0.209 C 
HETATM    6  F2  UNL     1      -1.610  -1.594   0.479  1.00  0.00    -0.246 F 
ENDROOT
BRANCH   1   7
HETATM    7  C2  UNL     1       1.075  -0.865  -0.146  1.00  0.00     0.042 C 
HETATM    8  C1  UNL     1       2.298  -0.017   0.126  1.00  0.00     0.008 C 
ENDBRANCH   1   7
TORSDOF 1
