REMARK  10 active torsions:
REMARK  status: ('A' for Active; 'I' for Inactive)
REMARK    1  A    between atoms: C2_2  and  N1_4 
REMARK    2  A    between atoms: N1_4  and  O1_6 
REMARK    3  A    between atoms: O1_6  and  C4_7 
REMARK    4  A    between atoms: C4_7  and  C5_9 
REMARK    5  A    between atoms: C6_12  and  C7_13 
REMARK    6  A    between atoms: C7_13  and  O4_15 
REMARK    7  A    between atoms: C9_17  and  C10_18 
REMARK    8  A    between atoms: C10_18  and  O6_20 
REMARK       I    between atoms: N3_22  and  C12_23 
REMARK       I    between atoms: C12_23  and  N5_28 
REMARK    9  A    between atoms: N4_24  and  O7_26 
REMARK   10  A    between atoms: N5_28  and  N6_30 
ROOT
HETATM    1  C5  UNL     1       0.515   0.938   1.186  1.00  0.00     0.311 C 
HETATM    2  N2  UNL     1      -0.116   0.156   2.224  1.00  0.00    -0.353 N 
ATOM      3  H2  UNL     1       0.130   0.131   3.214  1.00  0.00     0.162 HD
HETATM    4  C6  UNL     1      -1.171  -0.585   1.565  1.00  0.00     0.140 C 
HETATM    5  C9  UNL     1      -1.489   0.087   0.485  1.00  0.00     0.162 C 
HETATM    6  N3  UNL     1      -0.654   1.273   0.404  1.00  0.00    -0.140 N 
HETATM    7  C12 UNL     1      -0.994   2.441  -0.301  1.00  0.00     0.721 C 
HETATM    8  N4  UNL     1      -1.987   3.155   0.106  1.00  0.00    -0.097 N 
ATOM      9  H4  UNL     1      -2.492   2.838   0.934  1.00  0.00     0.213 HD
HETATM   10  N5  UNL     1      -0.309   2.903  -1.451  1.00  0.00    -0.137 N 
ATOM     11  H5  UNL     1      -0.505   2.517  -2.375  1.00  0.00     0.205 HD
ENDROOT
BRANCH   1  12
HETATM   12  C4  UNL     1       1.435   0.032   0.457  1.00  0.00     0.324 C 
HETATM   13  O2  UNL     1       1.576  -1.185   0.756  1.00  0.00    -0.259 OA
BRANCH  12  14
HETATM   14  O1  UNL     1       2.209   0.489  -0.624  1.00  0.00    -0.196 OA
BRANCH  14  15
HETATM   15  N1  UNL     1       3.045  -0.353  -1.280  1.00  0.00    -0.263 N 
ATOM     16  H1  UNL     1       2.641  -0.958  -1.994  1.00  0.00     0.194 HD
BRANCH  15  17
HETATM   17  C2  UNL     1       4.437  -0.454  -1.047  1.00  0.00     0.019 C 
HETATM   18  C1  UNL     1       5.235  -0.649  -2.078  1.00  0.00     0.039 C 
HETATM   19  C3  UNL     1       4.997  -0.345   0.315  1.00  0.00     0.069 C 
ENDBRANCH  15  17
ENDBRANCH  14  15
ENDBRANCH  12  14
ENDBRANCH   1  12
BRANCH   5  20
HETATM   20  C10 UNL     1      -2.481  -0.202  -0.534  1.00  0.00     0.313 C 
HETATM   21  O5  UNL     1      -2.633   0.605  -1.527  1.00  0.00    -0.258 OA
BRANCH  20  22
HETATM   22  O6  UNL     1      -3.329  -1.282  -0.588  1.00  0.00    -0.321 OA
HETATM   23  C11 UNL     1      -4.272  -1.497  -1.615  1.00  0.00     0.213 C 
ENDBRANCH  20  22
ENDBRANCH   5  20
BRANCH   4  24
HETATM   24  C7  UNL     1      -1.690  -1.824   2.113  1.00  0.00     0.311 C 
HETATM   25  O3  UNL     1      -1.221  -2.294   3.205  1.00  0.00    -0.258 OA
BRANCH  24  26
HETATM   26  O4  UNL     1      -2.681  -2.590   1.561  1.00  0.00    -0.321 OA
HETATM   27  C8  UNL     1      -3.179  -3.791   2.097  1.00  0.00     0.213 C 
ENDBRANCH  24  26
ENDBRANCH   4  24
BRANCH   8  28
HETATM   28  O7  UNL     1      -2.408   4.304  -0.494  1.00  0.00    -0.276 OA
ATOM     29  H7  UNL     1      -3.140   4.830  -0.194  1.00  0.00     0.245 HD
ENDBRANCH   8  28
BRANCH  10  30
HETATM   30  N6  UNL     1       0.646   3.908  -1.271  1.00  0.00    -0.331 N 
ATOM     31  H62 UNL     1       0.830   4.283  -0.341  1.00  0.00     0.177 HD
ATOM     32  H61 UNL     1       1.139   4.241  -2.099  1.00  0.00     0.177 HD
ENDBRANCH  10  30
TORSDOF 10
