REMARK  12 active torsions:
REMARK  status: ('A' for Active; 'I' for Inactive)
REMARK    1  A    between atoms: C2_2  and  N1_3 
REMARK    2  A    between atoms: N1_3  and  C4_5 
REMARK    3  A    between atoms: C4_5  and  C5_6 
REMARK    4  A    between atoms: C5_6  and  C8_9 
REMARK    5  A    between atoms: C8_9  and  C9_10 
REMARK    6  A    between atoms: C9_10  and  C10_12 
REMARK    7  A    between atoms: C12_14  and  O2_15 
REMARK    8  A    between atoms: C21_25  and  C23_27 
REMARK    9  A    between atoms: C24_29  and  C25_30 
REMARK   10  A    between atoms: C25_30  and  O3_31 
REMARK   11  A    between atoms: C26_33  and  O4_34 
REMARK   12  A    between atoms: O4_34  and  S1_35 
ROOT
HETATM    1  C10 UNL     1       2.100   1.333  -0.392  1.00  0.00     0.091 C 
HETATM    2  C11 UNL     1       2.754   2.512  -1.146  1.00  0.00     0.049 C 
HETATM    3  C12 UNL     1       2.795   3.632  -0.140  1.00  0.00     0.123 C 
HETATM    4  C13 UNL     1       1.758   3.472   0.933  1.00  0.00     0.066 C 
HETATM    5  C14 UNL     1       0.534   2.756   0.471  1.00  0.00    -0.073 C 
HETATM    6  C15 UNL     1       0.653   1.597  -0.254  1.00  0.00    -0.057 C 
HETATM    7  C16 UNL     1      -0.548   0.957  -0.746  1.00  0.00    -0.015 C 
HETATM    8  C17 UNL     1      -0.490   1.101  -2.299  1.00  0.00     0.020 C 
HETATM    9  C18 UNL     1      -0.703  -0.512  -0.549  1.00  0.00     0.014 C 
HETATM   10  C19 UNL     1      -1.950  -1.128  -1.032  1.00  0.00     0.007 C 
HETATM   11  C20 UNL     1      -3.110  -0.228  -1.357  1.00  0.00     0.005 C 
HETATM   12  C21 UNL     1      -4.329  -1.118  -1.470  1.00  0.00    -0.006 C 
HETATM   13  C22 UNL     1      -3.838  -2.490  -2.065  1.00  0.00     0.018 C 
HETATM   14  C24 UNL     1      -4.996  -1.462  -0.203  1.00  0.00     0.050 C 
HETATM   15  C26 UNL     1      -4.356  -0.919   1.050  1.00  0.00     0.153 C 
HETATM   16  C27 UNL     1      -3.467   0.237   0.997  1.00  0.00     0.044 C 
HETATM   17  C28 UNL     1      -3.101   0.829  -0.347  1.00  0.00    -0.033 C 
HETATM   18  C29 UNL     1      -4.128   1.945  -0.532  1.00  0.00     0.016 C 
HETATM   19  C30 UNL     1      -1.815   1.596  -0.293  1.00  0.00     0.007 C 
HETATM   20  C31 UNL     1      -1.609   2.111   1.122  1.00  0.00     0.011 C 
HETATM   21  C32 UNL     1      -0.744   3.370   0.883  1.00  0.00     0.035 C 
ENDROOT
BRANCH   1  22
HETATM   22  C9  UNL     1       2.652   0.113  -0.917  1.00  0.00     0.154 C 
HETATM   23  O1  UNL     1       2.935   0.090  -2.121  1.00  0.00    -0.293 OA
BRANCH  22  24
HETATM   24  C8  UNL     1       2.892  -1.092  -0.134  1.00  0.00     0.034 C 
BRANCH  24  25
HETATM   25  C5  UNL     1       4.039  -1.365   0.681  1.00  0.00    -0.000 C 
HETATM   26  C6  UNL     1       4.002  -0.514   2.012  1.00  0.00     0.021 C 
HETATM   27  C7  UNL     1       3.676  -2.783   1.320  1.00  0.00     0.021 C 
BRANCH  25  28
HETATM   28  C4  UNL     1       5.431  -1.507   0.322  1.00  0.00     0.284 C 
BRANCH  28  29
HETATM   29  N1  UNL     1       6.275  -0.361   0.070  1.00  0.00     0.084 N 
HETATM   30  C3  UNL     1       6.280   0.003  -1.373  1.00  0.00     0.309 C 
BRANCH  29  31
HETATM   31  C2  UNL     1       7.696  -0.784   0.244  1.00  0.00     0.267 C 
HETATM   32  C1  UNL     1       7.998  -2.049  -0.488  1.00  0.00     0.037 C 
ENDBRANCH  29  31
ENDBRANCH  28  29
ENDBRANCH  25  28
ENDBRANCH  24  25
ENDBRANCH  22  24
ENDBRANCH   1  22
BRANCH   3  33
HETATM   33  O2  UNL     1       2.564   4.829  -0.809  1.00  0.00    -0.395 OA
ATOM     34  H2  UNL     1       2.590   5.535  -0.174  1.00  0.00     0.210 HD
ENDBRANCH   3  33
BRANCH  12  35
HETATM   35  C23 UNL     1      -5.204  -0.746  -2.648  1.00  0.00     0.232 C 
HETATM   36  F1  UNL     1      -5.736   0.462  -2.744  1.00  0.00    -0.255 F 
ENDBRANCH  12  35
BRANCH  15  37
HETATM   37  O4  UNL     1      -5.441  -0.708   1.944  1.00  0.00    -0.251 OA
BRANCH  37  38
HETATM   38  S1  UNL     1      -5.365  -1.587   3.332  1.00  0.00     0.251 S 
HETATM   39  O5  UNL     1      -4.369  -2.715   3.270  1.00  0.00    -0.572 OA
HETATM   40  O6  UNL     1      -4.891  -0.671   4.440  1.00  0.00    -0.572 OA
HETATM   41  O7  UNL     1      -6.820  -2.236   3.826  1.00  0.00    -0.572 OA
ENDBRANCH  37  38
ENDBRANCH  15  37
BRANCH  14  42
HETATM   42  C25 UNL     1      -6.498  -1.430  -0.164  1.00  0.00     0.172 C 
BRANCH  42  43
HETATM   43  O3  UNL     1      -7.166  -0.306  -0.412  1.00  0.00    -0.400 OA
ATOM     44  H3  UNL     1      -8.115  -0.286  -0.387  1.00  0.00     0.209 HD
ENDBRANCH  42  43
ENDBRANCH  14  42
TORSDOF 12
