REMARK  7 active torsions:
REMARK  status: ('A' for Active; 'I' for Inactive)
REMARK    1  A    between atoms: C5_5  and  N1_6 
REMARK    2  A    between atoms: C6_9  and  C7_10 
REMARK    3  A    between atoms: C7_10  and  C8_11 
REMARK    4  A    between atoms: C18_23  and  C19_24 
REMARK    5  A    between atoms: C19_24  and  N4_25 
REMARK    6  A    between atoms: N4_25  and  C20_28 
REMARK    7  A    between atoms: C27_36  and  C28_37 
ROOT
HETATM    1  N1  UNL     1       1.356   0.142  -1.295  1.00  0.00    -0.254 N 
HETATM    2  N2  UNL     1       0.791   1.212  -1.828  1.00  0.00    -0.296 N 
ATOM      3  H2  UNL     1       1.290   1.945  -2.331  1.00  0.00     0.187 HD
HETATM    4  C6  UNL     1      -0.561   1.195  -1.608  1.00  0.00     0.043 A 
HETATM    5  C16 UNL     1      -0.789   0.041  -0.903  1.00  0.00     0.018 A 
HETATM    6  C17 UNL     1      -1.940  -0.523  -0.403  1.00  0.00     0.024 A 
HETATM    7  C18 UNL     1      -1.888  -1.734   0.287  1.00  0.00    -0.032 A 
HETATM    8  C23 UNL     1      -0.693  -2.363   0.467  1.00  0.00     0.011 A 
HETATM    9  C24 UNL     1       0.473  -1.822  -0.023  1.00  0.00     0.033 A 
HETATM   10  C25 UNL     1       0.426  -0.628  -0.704  1.00  0.00     0.069 A 
ENDROOT
BRANCH   1  11
HETATM   11  C5  UNL     1       2.745  -0.196  -1.313  1.00  0.00     0.079 A 
HETATM   12  C4  UNL     1       3.392  -0.551  -2.479  1.00  0.00     0.034 A 
HETATM   13  C3  UNL     1       4.719  -0.882  -2.551  1.00  0.00     0.010 A 
HETATM   14  C2  UNL     1       5.465  -0.863  -1.389  1.00  0.00    -0.046 A 
HETATM   15  C1  UNL     1       6.927  -1.222  -1.428  1.00  0.00     0.049 C 
HETATM   16  C27 UNL     1       4.857  -0.514  -0.204  1.00  0.00     0.039 A 
HETATM   17  C26 UNL     1       3.512  -0.182  -0.156  1.00  0.00     0.077 A 
HETATM   18 CL1  UNL     1       2.778   0.257   1.374  1.00  0.00    -0.081 Cl
BRANCH  16  19
HETATM   19  C28 UNL     1       5.626  -0.485   1.052  1.00  0.00     0.133 A 
HETATM   20  N5  UNL     1       5.773  -1.503   1.893  1.00  0.00    -0.336 N 
HETATM   21  C29 UNL     1       6.536  -1.098   2.918  1.00  0.00     0.199 A 
ATOM     22  H5  UNL     1       5.373  -2.434   1.778  1.00  0.00     0.168 HD
HETATM   23  N6  UNL     1       6.868   0.204   2.705  1.00  0.00    -0.295 N 
HETATM   24  N7  UNL     1       6.307   0.555   1.569  1.00  0.00    -0.284 N 
ATOM     25  H6  UNL     1       7.441   0.793   3.309  1.00  0.00     0.187 HD
ATOM     26  H7  UNL     1       6.377   1.479   1.142  1.00  0.00     0.188 HD
ENDBRANCH  16  19
ENDBRANCH   1  11
BRANCH   4  27
HETATM   27  C7  UNL     1      -1.528   2.235  -2.041  1.00  0.00     0.098 C 
BRANCH  27  28
HETATM   28  C8  UNL     1      -1.929   3.167  -0.982  1.00  0.00    -0.052 A 
HETATM   29  C9  UNL     1      -3.035   3.055  -0.174  1.00  0.00     0.010 A 
HETATM   30  C10 UNL     1      -3.323   4.001   0.811  1.00  0.00     0.031 A 
HETATM   31  C11 UNL     1      -2.467   5.085   0.977  1.00  0.00     0.042 A 
HETATM   32  N3  UNL     1      -2.508   6.133   1.842  1.00  0.00    -0.365 N 
HETATM   33  C14 UNL     1      -1.353   5.222   0.182  1.00  0.00    -0.008 A 
HETATM   34  C12 UNL     1      -1.459   6.948   1.638  1.00  0.00     0.089 A 
ATOM     35  H3  UNL     1      -3.232   6.280   2.546  1.00  0.00     0.165 HD
HETATM   36  C13 UNL     1      -0.739   6.382   0.605  1.00  0.00     0.030 A 
HETATM   37  C15 UNL     1      -1.111   4.268  -0.771  1.00  0.00     0.021 A 
ENDBRANCH  27  28
ENDBRANCH   4  27
BRANCH   7  38
HETATM   38  C19 UNL     1      -3.169  -2.296   0.802  1.00  0.00     0.271 C 
BRANCH  38  39
HETATM   39  N4  UNL     1      -3.729  -3.172  -0.180  1.00  0.00    -0.068 N 
ATOM     40  H42 UNL     1      -3.831  -2.692  -1.074  1.00  0.00     0.277 HD
ATOM     41  H41 UNL     1      -3.056  -3.890  -0.448  1.00  0.00     0.277 HD
BRANCH  39  42
HETATM   42  C20 UNL     1      -4.970  -3.766   0.220  1.00  0.00     0.178 C 
HETATM   43  C21 UNL     1      -4.830  -4.657   1.454  1.00  0.00     0.039 C 
HETATM   44  C22 UNL     1      -5.528  -4.677  -0.874  1.00  0.00     0.039 C 
ENDBRANCH  39  42
ENDBRANCH  38  39
ENDBRANCH   7  38
TORSDOF 7
