REMARK  12 active torsions:
REMARK  status: ('A' for Active; 'I' for Inactive)
REMARK    1  A    between atoms: O1_2  and  C2_3 
REMARK    2  A    between atoms: C2_3  and  C3_5 
REMARK    3  A    between atoms: C3_5  and  C4_6 
REMARK    4  A    between atoms: C4_6  and  C6_8 
REMARK    5  A    between atoms: C6_8  and  C7_9 
REMARK    6  A    between atoms: C7_9  and  C9_11 
REMARK    7  A    between atoms: C9_11  and  C10_12 
REMARK    8  A    between atoms: C11_13  and  C12_14 
REMARK    9  A    between atoms: C12_14  and  C14_16 
REMARK   10  A    between atoms: C22_25  and  O3_27 
REMARK   11  A    between atoms: C24_29  and  O4_30 
REMARK   12  A    between atoms: C25_32  and  O5_33 
ROOT
HETATM    1  C14 UNL     1      -2.117  -0.576  -0.774  1.00  0.00     0.047 C 
HETATM    2  C15 UNL     1      -3.000  -1.513  -1.417  1.00  0.00    -0.012 C 
HETATM    3  C16 UNL     1      -4.228  -1.222  -2.104  1.00  0.00    -0.069 C 
HETATM    4  C17 UNL     1      -4.669  -2.339  -3.045  1.00  0.00     0.047 C 
HETATM    5  C18 UNL     1      -5.067  -0.240  -2.106  1.00  0.00    -0.017 C 
HETATM    6  C19 UNL     1      -5.056   1.027  -1.344  1.00  0.00     0.056 C 
HETATM    7  C20 UNL     1      -6.011   0.944  -0.209  1.00  0.00    -0.000 C 
HETATM    8  C21 UNL     1      -5.762   0.817   1.075  1.00  0.00     0.044 C 
HETATM    9 CL1  UNL     1      -7.189   0.749   2.174  1.00  0.00    -0.086 Cl
HETATM   10  C22 UNL     1      -4.417   0.721   1.722  1.00  0.00     0.120 C 
HETATM   11  C23 UNL     1      -3.811   2.090   1.764  1.00  0.00     0.055 C 
HETATM   12  C24 UNL     1      -3.595  -0.428   1.321  1.00  0.00     0.187 C 
HETATM   13  C25 UNL     1      -2.283  -0.300   0.698  1.00  0.00     0.158 C 
ENDROOT
BRANCH   1  14
HETATM   14  C12 UNL     1      -0.688  -1.153  -0.939  1.00  0.00     0.014 C 
HETATM   15  C13 UNL     1      -0.385  -1.414  -2.415  1.00  0.00     0.015 C 
BRANCH  14  16
HETATM   16  C11 UNL     1       0.364  -0.344  -0.347  1.00  0.00    -0.026 C 
HETATM   17  C10 UNL     1       1.197  -0.734   0.612  1.00  0.00    -0.030 C 
BRANCH  17  18
HETATM   18  C9  UNL     1       2.255   0.147   1.175  1.00  0.00     0.031 C 
BRANCH  18  19
HETATM   19  C7  UNL     1       3.587  -0.476   0.953  1.00  0.00    -0.015 C 
HETATM   20  C8  UNL     1       3.580  -1.876   1.518  1.00  0.00     0.010 C 
BRANCH  19  21
HETATM   21  C6  UNL     1       4.731   0.346   1.483  1.00  0.00     0.009 C 
BRANCH  21  22
HETATM   22  C4  UNL     1       4.739   1.745   0.921  1.00  0.00    -0.009 C 
HETATM   23  C5  UNL     1       5.904   2.524   1.481  1.00  0.00     0.010 C 
BRANCH  22  24
HETATM   24  C3  UNL     1       4.863   1.719  -0.583  1.00  0.00     0.115 C 
BRANCH  24  25
HETATM   25  C2  UNL     1       6.122   1.084  -1.030  1.00  0.00     0.258 C 
HETATM   26  O2  UNL     1       7.244   1.501  -0.668  1.00  0.00    -0.265 OA
BRANCH  25  27
HETATM   27  O1  UNL     1       6.086  -0.027  -1.889  1.00  0.00    -0.326 OA
HETATM   28  C1  UNL     1       7.291  -0.630  -2.313  1.00  0.00     0.213 C 
ENDBRANCH  25  27
ENDBRANCH  24  25
ENDBRANCH  22  24
ENDBRANCH  21  22
ENDBRANCH  19  21
ENDBRANCH  18  19
ENDBRANCH  17  18
ENDBRANCH  14  16
ENDBRANCH   1  14
BRANCH  13  29
HETATM   29  O5  UNL     1      -1.692   0.902   1.068  1.00  0.00    -0.392 OA
ATOM     30  H5  UNL     1      -1.797   1.076   1.996  1.00  0.00     0.210 HD
ENDBRANCH  13  29
BRANCH  12  31
HETATM   31  O4  UNL     1      -3.405  -1.273   2.469  1.00  0.00    -0.390 OA
ATOM     32  H4  UNL     1      -2.873  -2.016   2.210  1.00  0.00     0.210 HD
ENDBRANCH  12  31
BRANCH  10  33
HETATM   33  O3  UNL     1      -4.667   0.569   3.135  1.00  0.00    -0.382 OA
ATOM     34  H3  UNL     1      -3.813   0.508   3.546  1.00  0.00     0.211 HD
ENDBRANCH  10  33
TORSDOF 12
