REMARK  12 active torsions:
REMARK  status: ('A' for Active; 'I' for Inactive)
REMARK    1  A    between atoms: O1_2  and  C2_3 
REMARK    2  A    between atoms: C5_6  and  N1_7 
REMARK    3  A    between atoms: C6_9  and  C7_10 
REMARK    4  A    between atoms: C7_10  and  N2_11 
REMARK    5  A    between atoms: N2_11  and  C8_12 
REMARK    6  A    between atoms: N5_21  and  C13_22 
REMARK    7  A    between atoms: C13_22  and  C14_23 
REMARK    8  A    between atoms: C24_37  and  O2_38 
REMARK    9  A    between atoms: O2_38  and  C25_39 
REMARK   10  A    between atoms: C25_39  and  C26_40 
REMARK   11  A    between atoms: C26_40  and  C27_41 
REMARK   12  A    between atoms: C27_41  and  N8_42 
ROOT
HETATM    1  C2  UNL     1       3.457  -1.328   1.318  1.00  0.00     0.102 A 
HETATM    2  C3  UNL     1       2.156  -1.025   1.034  1.00  0.00     0.057 A 
HETATM    3  C4  UNL     1       1.811   0.092   0.300  1.00  0.00     0.037 A 
HETATM    4  C5  UNL     1       0.484   0.390   0.004  1.00  0.00     0.118 A 
HETATM    5  N6  UNL     1       0.315   1.535  -0.750  1.00  0.00    -0.338 N 
ATOM      6  H6  UNL     1      -0.635   1.808  -1.003  1.00  0.00     0.168 HD
HETATM    7  C21 UNL     1       1.309   2.294  -1.161  1.00  0.00     0.182 A 
HETATM    8  N7  UNL     1       2.584   2.014  -0.880  1.00  0.00    -0.351 N 
ATOM      9  H7  UNL     1       3.344   2.611  -1.206  1.00  0.00     0.166 HD
HETATM   10  C22 UNL     1       2.822   0.913  -0.150  1.00  0.00     0.050 A 
HETATM   11  C23 UNL     1       4.160   0.620   0.130  1.00  0.00     0.070 A 
HETATM   12  C24 UNL     1       4.506  -0.500   0.864  1.00  0.00     0.104 A 
ENDROOT
BRANCH   4  13
HETATM   13  N1  UNL     1      -0.471  -0.257   0.384  1.00  0.00    -0.349 N 
HETATM   14  C6  UNL     1      -1.096  -1.259   1.029  1.00  0.00     0.121 C 
ATOM     15  H1  UNL     1      -1.253   0.258  -0.020  1.00  0.00     0.167 HD
BRANCH  14  16
HETATM   16  C7  UNL     1      -2.640  -1.156   1.083  1.00  0.00     0.202 C 
BRANCH  16  17
HETATM   17  N2  UNL     1      -3.318  -1.149  -0.050  1.00  0.00    -0.398 NA
BRANCH  17  18
HETATM   18  C8  UNL     1      -3.930  -1.142  -1.080  1.00  0.00     0.189 A 
HETATM   19  N3  UNL     1      -3.373  -0.823  -2.308  1.00  0.00    -0.327 N 
HETATM   20  C9  UNL     1      -4.157  -0.834  -3.379  1.00  0.00     0.183 A 
ATOM     21  H3  UNL     1      -2.384  -0.585  -2.387  1.00  0.00     0.169 HD
HETATM   22  N4  UNL     1      -5.482  -1.143  -3.323  1.00  0.00    -0.355 N 
HETATM   23  C10 UNL     1      -6.067  -1.457  -2.162  1.00  0.00     0.024 A 
ATOM     24  H4  UNL     1      -6.037  -1.135  -4.179  1.00  0.00     0.166 HD
HETATM   25  C11 UNL     1      -5.307  -1.463  -1.023  1.00  0.00     0.051 A 
HETATM   26  C20 UNL     1      -7.524  -1.775  -2.062  1.00  0.00     0.088 C 
HETATM   27  C12 UNL     1      -5.896  -1.796   0.283  1.00  0.00     0.318 C 
HETATM   28  N5  UNL     1      -7.234  -1.257   0.353  1.00  0.00     0.093 N 
HETATM   29  C19 UNL     1      -8.003  -1.969  -0.662  1.00  0.00     0.279 C 
BRANCH  28  30
HETATM   30  C13 UNL     1      -7.338   0.144   0.118  1.00  0.00     0.277 C 
BRANCH  30  31
HETATM   31  C14 UNL     1      -8.749   0.668   0.456  1.00  0.00     0.014 C 
HETATM   32  C15 UNL     1      -9.030   0.419   1.925  1.00  0.00     0.006 C 
HETATM   33  C16 UNL     1      -8.023   1.377   2.570  1.00  0.00     0.000 C 
HETATM   34  C17 UNL     1      -7.841   2.525   1.598  1.00  0.00     0.000 C 
HETATM   35  C18 UNL     1      -8.675   2.175   0.385  1.00  0.00     0.006 C 
ENDBRANCH  30  31
ENDBRANCH  28  30
ENDBRANCH  17  18
ENDBRANCH  16  17
ENDBRANCH  14  16
ENDBRANCH   4  13
BRANCH   1  36
HETATM   36  O1  UNL     1       3.742  -2.476   2.070  1.00  0.00    -0.353 OA
HETATM   37  C1  UNL     1       2.681  -3.285   2.532  1.00  0.00     0.210 C 
ENDBRANCH   1  36
BRANCH  12  38
HETATM   38  O2  UNL     1       5.739  -0.904   1.205  1.00  0.00    -0.348 OA
BRANCH  38  39
HETATM   39  C25 UNL     1       6.995  -0.412   0.962  1.00  0.00     0.177 C 
BRANCH  39  40
HETATM   40  C26 UNL     1       7.362  -0.392  -0.474  1.00  0.00     0.057 C 
BRANCH  40  41
HETATM   41  C27 UNL     1       8.734   0.072  -0.829  1.00  0.00     0.274 C 
BRANCH  41  42
HETATM   42  N8  UNL     1       9.125   1.377  -0.465  1.00  0.00     0.092 N 
HETATM   43  C28 UNL     1       9.357   1.648   0.903  1.00  0.00     0.298 C 
HETATM   44  C29 UNL     1      10.710   2.350   1.125  1.00  0.00     0.198 C 
HETATM   45  O3  UNL     1      11.726   1.648   0.519  1.00  0.00    -0.388 OA
HETATM   46  C30 UNL     1      11.502   1.401  -0.819  1.00  0.00     0.198 C 
HETATM   47  C31 UNL     1      10.174   1.924  -1.293  1.00  0.00     0.298 C 
ENDBRANCH  41  42
ENDBRANCH  40  41
ENDBRANCH  39  40
ENDBRANCH  38  39
ENDBRANCH  12  38
TORSDOF 12
