REMARK  6 active torsions:
REMARK  status: ('A' for Active; 'I' for Inactive)
REMARK    1  A    between atoms: C2_2  and  O1_3 
REMARK    2  A    between atoms: C2_2  and  C3_5 
REMARK    3  A    between atoms: C8_10  and  C9_11 
REMARK    4  A    between atoms: C9_11  and  O2_12 
REMARK    5  A    between atoms: C9_11  and  C10_14 
REMARK    6  A    between atoms: C13_17  and  O3_18 
ROOT
HETATM    1  C3  UNL     1       1.820  -1.499   0.091  1.00  0.00     0.033 A 
HETATM    2  C4  UNL     1       0.632  -2.185   0.125  1.00  0.00    -0.036 A 
HETATM    3  C5  UNL     1       0.612  -3.662   0.136  1.00  0.00     0.050 C 
HETATM    4  C6  UNL     1      -0.603  -1.524   0.064  1.00  0.00    -0.021 A 
HETATM    5  C7  UNL     1      -0.662  -0.166  -0.044  1.00  0.00    -0.017 A 
HETATM    6  C8  UNL     1       0.528   0.592  -0.082  1.00  0.00     0.013 A 
HETATM    7  C13 UNL     1       1.733  -0.080  -0.017  1.00  0.00     0.088 A 
HETATM    8  C14 UNL     1      -1.987   0.482  -0.320  1.00  0.00     0.138 C 
HETATM    9  C15 UNL     1      -2.205   0.463  -1.803  1.00  0.00     0.070 C 
HETATM   10  N1  UNL     1      -2.368   0.429  -2.939  1.00  0.00    -0.197 NA
HETATM   11  C16 UNL     1      -3.131  -0.237   0.314  1.00  0.00    -0.010 C 
HETATM   12  C17 UNL     1      -4.405   0.068  -0.489  1.00  0.00     0.021 C 
HETATM   13  C18 UNL     1      -3.427   0.324   1.705  1.00  0.00     0.021 C 
HETATM   14  C19 UNL     1      -3.028  -1.686   0.400  1.00  0.00    -0.015 C 
HETATM   15  C20 UNL     1      -1.827  -2.283   0.285  1.00  0.00     0.009 C 
ENDROOT
BRANCH   6  16
HETATM   16  C9  UNL     1       0.348   2.017  -0.154  1.00  0.00     0.158 C 
BRANCH  16  17
HETATM   17  O2  UNL     1      -0.409   2.278   1.108  1.00  0.00    -0.390 OA
ATOM     18  H2  UNL     1      -0.528   3.219   1.060  1.00  0.00     0.210 HD
ENDBRANCH  16  17
BRANCH  16  19
HETATM   19  C10 UNL     1       1.356   3.062  -0.207  1.00  0.00     0.011 C 
HETATM   20  C11 UNL     1       2.269   3.229   0.975  1.00  0.00     0.012 C 
HETATM   21  C12 UNL     1       2.187   3.121  -1.471  1.00  0.00     0.012 C 
ENDBRANCH  16  19
ENDBRANCH   6  16
BRANCH   7  22
HETATM   22  O3  UNL     1       2.902   0.550  -0.058  1.00  0.00    -0.359 OA
ATOM     23  H3  UNL     1       2.844   1.495  -0.130  1.00  0.00     0.217 HD
ENDBRANCH   7  22
BRANCH   1  24
HETATM   24  C2  UNL     1       3.119  -2.118   0.194  1.00  0.00     0.053 C 
HETATM   25  C1  UNL     1       3.531  -3.502   0.337  1.00  0.00     0.077 C 
BRANCH  24  26
HETATM   26  O1  UNL     1       4.138  -1.308   0.158  1.00  0.00    -0.364 OA
ATOM     27  H1  UNL     1       3.868  -0.402   0.064  1.00  0.00     0.217 HD
ENDBRANCH  24  26
ENDBRANCH   1  24
TORSDOF 6
