REMARK  3 active torsions:
REMARK  status: ('A' for Active; 'I' for Inactive)
REMARK    1  A    between atoms: C5_6  and  C6_7 
REMARK       I    between atoms: C6_7  and  N1_9 
REMARK    2  A    between atoms: N1_9  and  C7_11 
REMARK    3  A    between atoms: C10_15  and  C11_16 
ROOT
HETATM    1  C7  UNL     1      -0.042   0.531  -0.452  1.00  0.00     0.084 A 
HETATM    2  S2  UNL     1      -0.771   1.698  -1.419  1.00  0.00    -0.074 SA
HETATM    3  C8  UNL     1      -2.386   1.357  -1.131  1.00  0.00     0.017 A 
HETATM    4  C9  UNL     1      -2.344   0.269  -0.227  1.00  0.00    -0.032 A 
HETATM    5  C10 UNL     1      -1.127  -0.157   0.124  1.00  0.00    -0.013 A 
HETATM    6  C14 UNL     1      -3.790  -0.106   0.061  1.00  0.00     0.068 C 
HETATM    7  C15 UNL     1      -4.409   1.175   0.604  1.00  0.00     0.237 C 
HETATM    8  N2  UNL     1      -4.584   2.154  -0.444  1.00  0.00    -0.070 N 
ATOM      9  H21 UNL     1      -4.459   3.101  -0.087  1.00  0.00     0.277 HD
ATOM     10  H22 UNL     1      -5.561   2.215  -0.731  1.00  0.00     0.277 HD
HETATM   11  C16 UNL     1      -3.724   1.908  -1.577  1.00  0.00     0.279 C 
ENDROOT
BRANCH   1  12
HETATM   12  N1  UNL     1       1.362   0.251  -0.226  1.00  0.00    -0.316 N 
HETATM   13  C6  UNL     1       2.303   1.046  -0.889  1.00  0.00     0.264 C 
HETATM   14  O1  UNL     1       1.789   1.962  -1.644  1.00  0.00    -0.267 OA
ATOM     15  H1  UNL     1       1.655  -0.502   0.397  1.00  0.00     0.169 HD
BRANCH  13  16
HETATM   16  C5  UNL     1       3.751   0.955  -0.822  1.00  0.00     0.078 A 
HETATM   17  C2  UNL     1       4.640   0.160  -0.182  1.00  0.00    -0.039 A 
HETATM   18  C1  UNL     1       4.185  -0.965   0.730  1.00  0.00     0.050 C 
HETATM   19  C3  UNL     1       5.962   0.389  -0.379  1.00  0.00     0.015 A 
HETATM   20  C4  UNL     1       6.303   1.416  -1.217  1.00  0.00     0.051 A 
HETATM   21  S1  UNL     1       4.796   2.027  -1.702  1.00  0.00    -0.096 SA
ENDBRANCH  13  16
ENDBRANCH   1  12
BRANCH   5  22
HETATM   22  C11 UNL     1      -0.809  -1.298   1.049  1.00  0.00     0.014 C 
HETATM   23  C12 UNL     1      -1.893  -1.847   1.886  1.00  0.00     0.015 C 
HETATM   24  C13 UNL     1      -0.182  -2.442   0.292  1.00  0.00     0.015 C 
ENDBRANCH   5  22
TORSDOF 3
