REMARK  14 active torsions:
REMARK  status: ('A' for Active; 'I' for Inactive)
REMARK    1  A    between atoms: O1_2  and  C2_3 
REMARK       I    between atoms: N1_5  and  C4_6 
REMARK    2  A    between atoms: C4_6  and  C5_8 
REMARK    3  A    between atoms: C5_8  and  C6_9 
REMARK    4  A    between atoms: C6_9  and  C7_10 
REMARK    5  A    between atoms: C6_9  and  N2_14 
REMARK    6  A    between atoms: C7_10  and  C8_11 
REMARK    7  A    between atoms: N2_14  and  C9_16 
REMARK    8  A    between atoms: C9_16  and  C10_17 
REMARK    9  A    between atoms: C9_16  and  C23_32 
REMARK   10  A    between atoms: C10_17  and  C11_18 
REMARK   11  A    between atoms: C10_17  and  N3_25 
REMARK   12  A    between atoms: C11_18  and  C12_19 
REMARK   13  A    between atoms: C25_37  and  O6_38 
REMARK   14  A    between atoms: C27_40  and  O7_41 
ROOT
HETATM    1  N2  UNL     1       0.838   1.466  -0.393  1.00  0.00    -0.403 N 
ATOM      2  H2  UNL     1       1.426   2.297  -0.332  1.00  0.00     0.154 HD
ENDROOT
BRANCH   1   3
HETATM    3  C6  UNL     1      -0.507   1.556  -0.013  1.00  0.00     0.096 C 
BRANCH   3   4
HETATM    4  C5  UNL     1      -0.959   0.635   1.081  1.00  0.00     0.128 C 
BRANCH   4   5
HETATM    5  C4  UNL     1      -2.342   0.920   1.461  1.00  0.00     0.221 C 
HETATM    6  N1  UNL     1      -3.447   0.445   0.728  1.00  0.00    -0.347 N 
HETATM    7  C3  UNL     1      -4.827   0.784   1.121  1.00  0.00     0.160 C 
HETATM    8  C24 UNL     1      -3.362  -0.401  -0.446  1.00  0.00     0.160 C 
HETATM    9  C2  UNL     1      -5.654  -0.432   1.438  1.00  0.00     0.170 C 
HETATM   10  C27 UNL     1      -5.003  -1.671   0.887  1.00  0.00     0.179 C 
HETATM   11  C25 UNL     1      -4.498  -1.419  -0.508  1.00  0.00     0.170 C 
HETATM   12  O2  UNL     1      -2.623   1.624   2.490  1.00  0.00    -0.273 OA
BRANCH   9  13
HETATM   13  O1  UNL     1      -6.919  -0.329   0.872  1.00  0.00    -0.386 OA
HETATM   14  C1  UNL     1      -7.949  -0.326   1.805  1.00  0.00     0.202 C 
ENDBRANCH   9  13
BRANCH  10  15
HETATM   15  O7  UNL     1      -5.864  -2.768   0.922  1.00  0.00    -0.390 OA
ATOM     16  H7  UNL     1      -5.453  -3.551   0.574  1.00  0.00     0.210 HD
ENDBRANCH  10  15
BRANCH  11  17
HETATM   17  O6  UNL     1      -5.488  -1.027  -1.377  1.00  0.00    -0.386 OA
HETATM   18  C26 UNL     1      -5.608  -1.926  -2.433  1.00  0.00     0.202 C 
ENDBRANCH  11  17
ENDBRANCH   4   5
ENDBRANCH   3   4
BRANCH   3  19
HETATM   19  C7  UNL     1      -0.666   2.968   0.599  1.00  0.00     0.138 C 
BRANCH  19  20
HETATM   20  C8  UNL     1      -0.243   4.044  -0.309  1.00  0.00     0.174 C 
HETATM   21  O3  UNL     1       0.193   3.802  -1.434  1.00  0.00    -0.648 OA
HETATM   22  O4  UNL     1      -0.338   5.358   0.117  1.00  0.00    -0.648 OA
ENDBRANCH  19  20
ENDBRANCH   3  19
ENDBRANCH   1   3
BRANCH   1  23
HETATM   23  C9  UNL     1       1.404   0.260  -0.858  1.00  0.00     0.208 C 
BRANCH  23  24
HETATM   24  C10 UNL     1       2.837   0.194  -0.412  1.00  0.00     0.118 C 
BRANCH  24  25
HETATM   25  C11 UNL     1       3.621  -1.009  -0.742  1.00  0.00     0.032 C 
BRANCH  25  26
HETATM   26  C12 UNL     1       3.052  -2.293  -0.101  1.00  0.00    -0.013 C 
HETATM   27  C13 UNL     1       3.095  -2.083   1.370  1.00  0.00     0.005 C 
HETATM   28  C14 UNL     1       3.213  -3.260   2.249  1.00  0.00     0.000 C 
HETATM   29  C15 UNL     1       3.616  -4.555   1.641  1.00  0.00     0.000 C 
HETATM   30  C16 UNL     1       3.309  -4.692   0.186  1.00  0.00     0.000 C 
HETATM   31  C17 UNL     1       3.920  -3.467  -0.484  1.00  0.00     0.005 C 
ENDBRANCH  25  26
ENDBRANCH  24  25
BRANCH  24  32
HETATM   32  N3  UNL     1       3.601   1.387  -0.671  1.00  0.00    -0.345 N 
HETATM   33  C18 UNL     1       4.091   2.416   0.267  1.00  0.00     0.127 C 
HETATM   34  C19 UNL     1       4.016   3.707  -0.464  1.00  0.00     0.033 C 
HETATM   35  C20 UNL     1       3.997   3.367  -1.912  1.00  0.00     0.075 C 
HETATM   36  C21 UNL     1       5.255   3.880  -2.578  1.00  0.00     0.020 C 
HETATM   37  C22 UNL     1       4.072   1.874  -1.930  1.00  0.00     0.224 C 
HETATM   38  O5  UNL     1       4.492   1.233  -2.924  1.00  0.00    -0.273 OA
ENDBRANCH  24  32
ENDBRANCH  23  24
BRANCH  23  39
HETATM   39  C23 UNL     1       1.097   0.055  -2.288  1.00  0.00     0.409 C 
HETATM   40  F1  UNL     1       1.632  -1.107  -2.849  1.00  0.00    -0.169 F 
HETATM   41  F2  UNL     1       1.186   1.119  -3.123  1.00  0.00    -0.169 F 
HETATM   42  F3  UNL     1      -0.292  -0.250  -2.338  1.00  0.00    -0.169 F 
ENDBRANCH  23  39
ENDBRANCH   1  23
TORSDOF 14
