REMARK  15 active torsions:
REMARK  status: ('A' for Active; 'I' for Inactive)
REMARK    1  A    between atoms: C2_2  and  C3_3 
REMARK    2  A    between atoms: C10_11  and  O2_12 
REMARK    3  A    between atoms: C11_14  and  O3_15 
REMARK    4  A    between atoms: O3_15  and  C12_16 
REMARK    5  A    between atoms: C12_16  and  C13_18 
REMARK    6  A    between atoms: C13_18  and  C14_19 
REMARK    7  A    between atoms: C14_19  and  C15_20 
REMARK       I    between atoms: C15_20  and  N1_22 
REMARK    8  A    between atoms: C20_27  and  C21_28 
REMARK       I    between atoms: C21_28  and  N2_30 
REMARK    9  A    between atoms: N2_30  and  C22_32 
REMARK   10  A    between atoms: C22_32  and  C23_33 
REMARK   11  A    between atoms: C23_33  and  C24_34 
REMARK   12  A    between atoms: C24_34  and  C25_35 
REMARK   13  A    between atoms: C25_35  and  C26_36 
REMARK   14  A    between atoms: C26_36  and  C27_37 
REMARK   15  A    between atoms: C27_37  and  C28_38 
ROOT
HETATM    1  C15 UNL     1      -0.565  -1.382  -0.927  1.00  0.00     0.221 C 
HETATM    2  O5  UNL     1      -0.713  -1.865   0.215  1.00  0.00    -0.273 OA
HETATM    3  N1  UNL     1      -1.521  -1.617  -1.958  1.00  0.00    -0.339 N 
HETATM    4  C16 UNL     1      -1.375  -1.074  -3.288  1.00  0.00     0.127 C 
HETATM    5  C17 UNL     1      -1.977  -2.035  -4.300  1.00  0.00     0.020 C 
HETATM    6  C18 UNL     1      -1.857  -3.444  -3.760  1.00  0.00     0.004 C 
HETATM    7  C19 UNL     1      -2.665  -3.683  -2.520  1.00  0.00     0.035 C 
HETATM    8  C20 UNL     1      -2.657  -2.431  -1.676  1.00  0.00     0.179 C 
ENDROOT
BRANCH   1   9
HETATM    9  C14 UNL     1       0.639  -0.546  -1.201  1.00  0.00     0.112 C 
BRANCH   9  10
HETATM   10  C13 UNL     1       1.582  -0.594  -0.015  1.00  0.00     0.120 C 
BRANCH  10  11
HETATM   11  C12 UNL     1       2.762   0.244  -0.322  1.00  0.00     0.259 C 
HETATM   12  O4  UNL     1       2.831   0.881  -1.395  1.00  0.00    -0.265 OA
BRANCH  11  13
HETATM   13  O3  UNL     1       3.842   0.361   0.558  1.00  0.00    -0.312 OA
BRANCH  13  14
HETATM   14  C11 UNL     1       4.963   1.156   0.265  1.00  0.00     0.177 C 
HETATM   15  C10 UNL     1       5.366   2.141   1.274  1.00  0.00     0.163 C 
HETATM   16  C6  UNL     1       5.824   1.407   2.483  1.00  0.00     0.085 C 
HETATM   17  C7  UNL     1       4.465   2.768   2.234  1.00  0.00     0.100 C 
HETATM   18  C5  UNL     1       6.560   0.334   2.301  1.00  0.00     0.022 C 
HETATM   19  O1  UNL     1       5.198   2.282   3.349  1.00  0.00    -0.339 OA
HETATM   20  C3  UNL     1       6.974  -0.205   0.979  1.00  0.00    -0.004 C 
HETATM   21  C4  UNL     1       6.964  -1.739   1.027  1.00  0.00     0.024 C 
HETATM   22  C29 UNL     1       6.135   0.247  -0.155  1.00  0.00     0.053 C 
HETATM   23  C8  UNL     1       4.604   4.307   2.264  1.00  0.00     0.050 C 
HETATM   24  C9  UNL     1       3.005   2.447   2.266  1.00  0.00     0.050 C 
BRANCH  15  25
HETATM   25  O2  UNL     1       6.317   3.077   0.813  1.00  0.00    -0.377 OA
ATOM     26  H2  UNL     1       6.024   3.546   0.040  1.00  0.00     0.211 HD
ENDBRANCH  15  25
BRANCH  20  27
HETATM   27  C2  UNL     1       8.430   0.165   0.785  1.00  0.00    -0.024 C 
HETATM   28  C1  UNL     1       9.004   0.043  -0.386  1.00  0.00     0.008 C 
ENDBRANCH  20  27
ENDBRANCH  13  14
ENDBRANCH  11  13
ENDBRANCH  10  11
ENDBRANCH   9  10
ENDBRANCH   1   9
BRANCH   8  29
HETATM   29  C21 UNL     1      -3.939  -1.676  -1.858  1.00  0.00     0.240 C 
HETATM   30  O6  UNL     1      -3.929  -0.471  -2.178  1.00  0.00    -0.271 OA
HETATM   31  N2  UNL     1      -5.173  -2.342  -1.665  1.00  0.00    -0.359 N 
ATOM     32  H2  UNL     1      -5.173  -3.326  -1.397  1.00  0.00     0.162 HD
BRANCH  31  33
HETATM   33  C22 UNL     1      -6.409  -1.669  -1.836  1.00  0.00     0.122 C 
BRANCH  33  34
HETATM   34  C23 UNL     1      -6.677  -0.493  -0.972  1.00  0.00     0.020 C 
BRANCH  34  35
HETATM   35  C24 UNL     1      -6.674  -0.786   0.516  1.00  0.00     0.002 C 
BRANCH  35  36
HETATM   36  C25 UNL     1      -6.984   0.546   1.202  1.00  0.00     0.001 C 
BRANCH  36  37
HETATM   37  C26 UNL     1      -7.020   0.433   2.689  1.00  0.00     0.010 C 
BRANCH  37  38
HETATM   38  C27 UNL     1      -7.348   1.813   3.240  1.00  0.00     0.113 C 
BRANCH  38  39
HETATM   39  C28 UNL     1      -6.297   2.745   2.807  1.00  0.00     0.172 C 
HETATM   40  O7  UNL     1      -5.183   2.716   3.392  1.00  0.00    -0.648 OA
HETATM   41  O8  UNL     1      -6.464   3.655   1.787  1.00  0.00    -0.648 OA
ENDBRANCH  38  39
ENDBRANCH  37  38
ENDBRANCH  36  37
ENDBRANCH  35  36
ENDBRANCH  34  35
ENDBRANCH  33  34
ENDBRANCH  31  33
ENDBRANCH   8  29
TORSDOF 15
