REMARK  15 active torsions:
REMARK  status: ('A' for Active; 'I' for Inactive)
REMARK    1  A    between atoms: C2_2  and  C3_3 
REMARK    2  A    between atoms: C2_2  and  C29_34 
REMARK    3  A    between atoms: C3_3  and  C4_4 
REMARK    4  A    between atoms: C4_4  and  C5_5 
REMARK    5  A    between atoms: C5_5  and  C6_6 
REMARK    6  A    between atoms: C6_6  and  O2_27 
REMARK    7  A    between atoms: C7_7  and  C8_8 
REMARK    8  A    between atoms: C8_8  and  C9_9 
REMARK    9  A    between atoms: C9_9  and  C10_10 
REMARK   10  A    between atoms: O2_27  and  C26_28 
REMARK   11  A    between atoms: C26_28  and  C27_29 
REMARK   12  A    between atoms: C27_29  and  O3_30 
REMARK   13  A    between atoms: O3_30  and  C28_31 
REMARK       I    between atoms: C29_34  and  N2_36 
REMARK   14  A    between atoms: C30_38  and  O6_39 
REMARK   15  A    between atoms: C30_38  and  C31_41 
ROOT
HETATM    1  C6  UNL     1       2.105  -1.837   0.753  1.00  0.00     0.106 C 
HETATM    2  C7  UNL     1       1.215  -1.043   0.064  1.00  0.00     0.019 C 
ENDROOT
BRANCH   1   3
HETATM    3  C5  UNL     1       3.237  -1.241   1.219  1.00  0.00    -0.120 C 
BRANCH   3   4
HETATM    4  C4  UNL     1       4.283  -0.691   1.648  1.00  0.00     0.088 C 
BRANCH   4   5
HETATM    5  C3  UNL     1       4.475   0.806   1.295  1.00  0.00     0.025 C 
BRANCH   5   6
HETATM    6  C2  UNL     1       5.736   0.857   0.481  1.00  0.00     0.075 C 
HETATM    7  C1  UNL     1       6.919   0.380   1.280  1.00  0.00     0.020 C 
BRANCH   6   8
HETATM    8  C29 UNL     1       5.943   2.092  -0.251  1.00  0.00     0.227 C 
HETATM    9  O5  UNL     1       5.580   2.153  -1.470  1.00  0.00    -0.273 OA
HETATM   10  N2  UNL     1       6.524   3.275   0.267  1.00  0.00    -0.302 N 
HETATM   11  C30 UNL     1       7.237   4.025  -0.546  1.00  0.00     0.221 C 
ATOM     12  H2  UNL     1       6.393   3.539   1.244  1.00  0.00     0.171 HD
BRANCH  11  13
HETATM   13  O6  UNL     1       7.385   3.639  -1.841  1.00  0.00    -0.341 OA
ATOM     14  H6  UNL     1       7.900   4.180  -2.428  1.00  0.00     0.219 HD
ENDBRANCH  11  13
BRANCH  11  15
HETATM   15  C31 UNL     1       7.830   5.225  -0.033  1.00  0.00     0.252 C 
HETATM   16  O7  UNL     1       8.512   5.966  -0.775  1.00  0.00    -0.641 OA
HETATM   17  O8  UNL     1       7.691   5.636   1.299  1.00  0.00    -0.641 OA
ENDBRANCH  11  15
ENDBRANCH   6   8
ENDBRANCH   5   6
ENDBRANCH   4   5
ENDBRANCH   3   4
ENDBRANCH   1   3
BRANCH   1  18
HETATM   18  O2  UNL     1       1.714  -3.168   0.872  1.00  0.00    -0.342 OA
BRANCH  18  19
HETATM   19  C26 UNL     1       2.546  -4.238   1.228  1.00  0.00     0.203 C 
BRANCH  19  20
HETATM   20  C27 UNL     1       3.713  -4.474   0.330  1.00  0.00     0.207 C 
BRANCH  20  21
HETATM   21  O3  UNL     1       4.482  -5.544   0.784  1.00  0.00    -0.304 OA
BRANCH  21  22
HETATM   22  C28 UNL     1       4.136  -6.847   0.941  1.00  0.00     0.372 C 
HETATM   23  N1  UNL     1       5.119  -7.771   1.434  1.00  0.00    -0.032 NA
HETATM   24  O4  UNL     1       3.004  -7.252   0.670  1.00  0.00    -0.242 OA
ENDBRANCH  21  22
ENDBRANCH  20  21
ENDBRANCH  19  20
ENDBRANCH  18  19
ENDBRANCH   1  18
BRANCH   2  25
HETATM   25  C8  UNL     1      -0.026  -1.609  -0.479  1.00  0.00     0.034 C 
BRANCH  25  26
HETATM   26  C9  UNL     1      -1.210  -1.054   0.322  1.00  0.00     0.031 C 
BRANCH  26  27
HETATM   27  C10 UNL     1      -2.473  -1.580  -0.178  1.00  0.00    -0.019 C 
HETATM   28  C11 UNL     1      -3.630  -1.030  -0.418  1.00  0.00    -0.055 C 
HETATM   29  C12 UNL     1      -4.742  -1.900  -0.960  1.00  0.00     0.039 C 
HETATM   30  C17 UNL     1      -3.969   0.358  -0.136  1.00  0.00    -0.047 C 
HETATM   31  C13 UNL     1      -6.055  -1.255  -1.071  1.00  0.00     0.006 C 
HETATM   32  C14 UNL     1      -6.213   0.190  -0.846  1.00  0.00     0.015 C 
HETATM   33  C15 UNL     1      -4.942   1.001  -1.078  1.00  0.00    -0.009 C 
HETATM   34  C16 UNL     1      -4.564   0.773  -2.529  1.00  0.00     0.021 C 
HETATM   35  C24 UNL     1      -5.100   2.448  -0.849  1.00  0.00    -0.024 C 
HETATM   36  C20 UNL     1      -4.897   2.969   0.528  1.00  0.00     0.030 C 
HETATM   37  C23 UNL     1      -6.478   2.974  -1.169  1.00  0.00     0.045 C 
HETATM   38  C25 UNL     1      -4.099   3.192  -1.743  1.00  0.00     0.017 C 
HETATM   39  C19 UNL     1      -3.762   2.358   1.288  1.00  0.00     0.035 C 
HETATM   40  C21 UNL     1      -6.222   2.811   1.182  1.00  0.00     0.156 A 
HETATM   41  C18 UNL     1      -3.491   0.960   0.908  1.00  0.00    -0.018 C 
HETATM   42  O1  UNL     1      -7.132   3.883   1.063  1.00  0.00    -0.375 OA
HETATM   43  C22 UNL     1      -7.270   2.898   0.104  1.00  0.00     0.152 A 
ENDBRANCH  26  27
ENDBRANCH  25  26
ENDBRANCH   2  25
TORSDOF 15
