REMARK  16 active torsions:
REMARK  status: ('A' for Active; 'I' for Inactive)
REMARK    1  A    between atoms: C2_2  and  O1_3 
REMARK    2  A    between atoms: O1_3  and  C3_4 
REMARK       I    between atoms: C3_4  and  N1_6 
REMARK    3  A    between atoms: N2_9  and  C6_10 
REMARK    4  A    between atoms: C6_10  and  O3_11 
REMARK    5  A    between atoms: C7_13  and  C8_14 
REMARK    6  A    between atoms: C7_13  and  N3_22 
REMARK    7  A    between atoms: C8_14  and  C9_15 
REMARK    8  A    between atoms: C9_15  and  C10_16 
REMARK       I    between atoms: N3_22  and  C16_24 
REMARK    9  A    between atoms: C16_24  and  C17_26 
REMARK   10  A    between atoms: C17_26  and  C18_27 
REMARK   11  A    between atoms: C17_26  and  N5_36 
REMARK   12  A    between atoms: C18_27  and  C19_28 
REMARK   13  A    between atoms: C19_28  and  C20_29 
REMARK   14  A    between atoms: C20_29  and  O5_30 
REMARK   15  A    between atoms: N4_32  and  O6_34 
REMARK   16  A    between atoms: N5_36  and  C22_38 
ROOT
HETATM    1  C6  UNL     1       1.279   0.269  -0.917  1.00  0.00     0.161 C 
HETATM    2  C7  UNL     1       0.234   1.139  -0.509  1.00  0.00     0.063 C 
ENDROOT
BRANCH   2   3
HETATM    3  C8  UNL     1       0.560   2.472   0.079  1.00  0.00     0.062 C 
BRANCH   3   4
HETATM    4  C9  UNL     1       1.281   3.325  -0.936  1.00  0.00     0.011 C 
BRANCH   4   5
HETATM    5  C10 UNL     1       1.614   4.704  -0.492  1.00  0.00    -0.014 C 
HETATM    6  C11 UNL     1       0.410   5.542  -0.117  1.00  0.00     0.004 C 
HETATM    7  C12 UNL     1       0.836   6.970   0.096  1.00  0.00     0.000 C 
HETATM    8  C13 UNL     1       2.262   7.113   0.522  1.00  0.00     0.000 C 
HETATM    9  C14 UNL     1       2.619   5.953   1.420  1.00  0.00     0.000 C 
HETATM   10  C15 UNL     1       2.647   4.686   0.583  1.00  0.00     0.004 C 
ENDBRANCH   4   5
ENDBRANCH   3   4
ENDBRANCH   2   3
BRANCH   2  11
HETATM   11  N3  UNL     1      -1.084   0.646  -0.218  1.00  0.00    -0.325 N 
HETATM   12  C16 UNL     1      -1.455  -0.685  -0.090  1.00  0.00     0.255 C 
HETATM   13  O4  UNL     1      -0.552  -1.521  -0.187  1.00  0.00    -0.271 OA
ATOM     14  H3  UNL     1      -1.819   1.342  -0.093  1.00  0.00     0.168 HD
BRANCH  12  15
HETATM   15  C17 UNL     1      -2.833  -1.173   0.156  1.00  0.00     0.314 C 
BRANCH  15  16
HETATM   16  C18 UNL     1      -2.760  -2.616   0.486  1.00  0.00     0.054 C 
BRANCH  16  17
HETATM   17  C19 UNL     1      -2.211  -3.483  -0.575  1.00  0.00     0.088 C 
BRANCH  17  18
HETATM   18  C20 UNL     1      -2.251  -4.934  -0.135  1.00  0.00     0.135 C 
HETATM   19  N4  UNL     1      -2.702  -5.317   0.981  1.00  0.00    -0.251 N 
ATOM     20  H4  UNL     1      -3.065  -4.630   1.642  1.00  0.00     0.196 HD
BRANCH  18  21
HETATM   21  O5  UNL     1      -1.751  -5.851  -1.049  1.00  0.00    -0.348 OA
ATOM     22  H5  UNL     1      -1.776  -6.760  -0.773  1.00  0.00     0.219 HD
ENDBRANCH  18  21
BRANCH  19  23
HETATM   23  O6  UNL     1      -2.709  -6.642   1.312  1.00  0.00    -0.288 OA
ATOM     24  H6  UNL     1      -3.048  -6.930   2.151  1.00  0.00     0.244 HD
ENDBRANCH  19  23
ENDBRANCH  17  18
ENDBRANCH  16  17
ENDBRANCH  15  16
BRANCH  15  25
HETATM   25  N5  UNL     1      -3.824  -0.875  -0.801  1.00  0.00     0.102 N 
HETATM   26  C21 UNL     1      -3.940   0.493  -1.257  1.00  0.00     0.311 C 
BRANCH  25  27
HETATM   27  C22 UNL     1      -5.152  -1.225  -0.256  1.00  0.00     0.223 C 
HETATM   28  C23 UNL     1      -5.706  -2.519  -0.686  1.00  0.00     0.036 C 
HETATM   29  C24 UNL     1      -6.659  -3.044   0.410  1.00  0.00     0.002 C 
HETATM   30  C25 UNL     1      -7.284  -1.874   1.081  1.00  0.00     0.000 C 
HETATM   31  C26 UNL     1      -7.514  -0.711   0.142  1.00  0.00     0.002 C 
HETATM   32  C27 UNL     1      -6.170  -0.141  -0.359  1.00  0.00     0.036 C 
ENDBRANCH  25  27
ENDBRANCH  15  25
ENDBRANCH  12  15
ENDBRANCH   2  11
BRANCH   1  33
HETATM   33  N2  UNL     1       2.589  -0.003  -0.477  1.00  0.00    -0.357 N 
HETATM   34  C5  UNL     1       3.176   0.601   0.664  1.00  0.00     0.145 C 
HETATM   35  C4  UNL     1       4.452   0.051   1.185  1.00  0.00     0.148 C 
HETATM   36  N1  UNL     1       4.930  -1.146   0.607  1.00  0.00    -0.325 N 
HETATM   37  C3  UNL     1       6.287  -1.525   0.823  1.00  0.00     0.362 C 
HETATM   38  C29 UNL     1       4.034  -1.950  -0.202  1.00  0.00     0.148 C 
HETATM   39  O2  UNL     1       7.031  -0.776   1.519  1.00  0.00    -0.238 OA
HETATM   40  C28 UNL     1       3.409  -0.987  -1.227  1.00  0.00     0.145 C 
BRANCH  37  41
HETATM   41  O1  UNL     1       6.870  -2.672   0.320  1.00  0.00    -0.304 OA
BRANCH  41  42
HETATM   42  C2  UNL     1       8.231  -3.017   0.547  1.00  0.00     0.176 C 
HETATM   43  C1  UNL     1       8.543  -4.325  -0.104  1.00  0.00     0.034 C 
ENDBRANCH  41  42
ENDBRANCH  37  41
ENDBRANCH   1  33
BRANCH   1  44
HETATM   44  O3  UNL     1       0.980  -0.497  -1.968  1.00  0.00    -0.345 OA
ATOM     45  H3  UNL     1       0.096  -0.314  -2.265  1.00  0.00     0.219 HD
ENDBRANCH   1  44
TORSDOF 16
