REMARK  15 active torsions:
REMARK  status: ('A' for Active; 'I' for Inactive)
REMARK       I    between atoms: C1_2  and  N1_3 
REMARK    1  A    between atoms: C1_2  and  O5_33 
REMARK    2  A    between atoms: N1_3  and  C2_5 
REMARK    3  A    between atoms: C2_5  and  C3_6 
REMARK    4  A    between atoms: C2_5  and  C18_27 
REMARK    5  A    between atoms: C3_6  and  O3_8 
REMARK    6  A    between atoms: O3_8  and  C4_9 
REMARK    7  A    between atoms: C4_9  and  C5_10 
REMARK    8  A    between atoms: C5_10  and  C6_11 
REMARK    9  A    between atoms: C6_11  and  C7_12 
REMARK   10  A    between atoms: C7_12  and  N2_13 
REMARK   11  A    between atoms: C10_18  and  C11_19 
REMARK   12  A    between atoms: C11_19  and  O4_20 
REMARK   13  A    between atoms: O4_20  and  C12_21 
REMARK   14  A    between atoms: O5_33  and  C24_34 
REMARK   15  A    between atoms: C24_34  and  C25_35 
ROOT
HETATM    1  C3  UNL     1      -1.629   1.233  -0.844  1.00  0.00     0.286 C 
HETATM    2  O2  UNL     1      -1.412   1.229  -2.071  1.00  0.00    -0.263 OA
ENDROOT
BRANCH   1   3
HETATM    3  C2  UNL     1      -2.923   0.766  -0.238  1.00  0.00     0.220 C 
BRANCH   3   4
HETATM    4  N1  UNL     1      -3.844   0.319  -1.248  1.00  0.00    -0.319 N 
HETATM    5  C1  UNL     1      -4.222  -1.042  -1.294  1.00  0.00     0.361 C 
HETATM    6  O1  UNL     1      -3.744  -1.834  -0.449  1.00  0.00    -0.238 OA
ATOM      7  H1  UNL     1      -4.222   0.980  -1.927  1.00  0.00     0.166 HD
BRANCH   5   8
HETATM    8  O5  UNL     1      -5.102  -1.562  -2.228  1.00  0.00    -0.299 OA
BRANCH   8   9
HETATM    9  C24 UNL     1      -5.514  -2.891  -2.327  1.00  0.00     0.219 C 
BRANCH   9  10
HETATM   10  C25 UNL     1      -6.215  -3.423  -1.142  1.00  0.00    -0.034 A 
HETATM   11  C26 UNL     1      -6.373  -4.779  -0.980  1.00  0.00     0.009 A 
HETATM   12  C27 UNL     1      -7.041  -5.295   0.137  1.00  0.00     0.001 A 
HETATM   13  C28 UNL     1      -7.545  -4.439   1.082  1.00  0.00     0.000 A 
HETATM   14  C29 UNL     1      -7.390  -3.088   0.926  1.00  0.00     0.001 A 
HETATM   15  C30 UNL     1      -6.731  -2.596  -0.180  1.00  0.00     0.009 A 
ENDBRANCH   9  10
ENDBRANCH   8   9
ENDBRANCH   5   8
ENDBRANCH   3   4
BRANCH   3  16
HETATM   16  C18 UNL     1      -3.507   1.826   0.624  1.00  0.00    -0.026 A 
HETATM   17  C19 UNL     1      -3.345   1.768   1.991  1.00  0.00     0.010 A 
HETATM   18  C20 UNL     1      -3.885   2.750   2.801  1.00  0.00     0.001 A 
HETATM   19  C21 UNL     1      -4.588   3.795   2.247  1.00  0.00     0.000 A 
HETATM   20  C22 UNL     1      -4.741   3.835   0.863  1.00  0.00     0.001 A 
HETATM   21  C23 UNL     1      -4.208   2.864   0.056  1.00  0.00     0.010 A 
ENDBRANCH   3  16
ENDBRANCH   1   3
BRANCH   1  22
HETATM   22  O3  UNL     1      -0.657   1.681   0.015  1.00  0.00    -0.320 OA
BRANCH  22  23
HETATM   23  C4  UNL     1       0.594   2.146  -0.346  1.00  0.00     0.178 C 
BRANCH  23  24
HETATM   24  C5  UNL     1       1.440   1.121  -1.056  1.00  0.00     0.028 C 
BRANCH  24  25
HETATM   25  C6  UNL     1       2.797   1.680  -1.426  1.00  0.00     0.022 C 
BRANCH  25  26
HETATM   26  C7  UNL     1       3.590   2.129  -0.236  1.00  0.00     0.130 C 
BRANCH  26  27
HETATM   27  N2  UNL     1       4.896   2.656  -0.660  1.00  0.00    -0.344 N 
HETATM   28  C8  UNL     1       5.161   3.933  -0.973  1.00  0.00     0.109 A 
HETATM   29  C9  UNL     1       6.488   4.055  -1.323  1.00  0.00     0.106 A 
HETATM   30  N3  UNL     1       7.018   2.830  -1.216  1.00  0.00    -0.352 N 
HETATM   31  C10 UNL     1       6.032   1.978  -0.808  1.00  0.00     0.107 A 
ATOM     32  H3  UNL     1       7.988   2.578  -1.406  1.00  0.00     0.166 HD
BRANCH  31  33
HETATM   33  C11 UNL     1       6.221   0.540  -0.576  1.00  0.00     0.252 C 
BRANCH  33  34
HETATM   34  O4  UNL     1       6.587   0.251   0.761  1.00  0.00    -0.344 OA
BRANCH  34  35
HETATM   35  C12 UNL     1       6.802  -1.054   1.144  1.00  0.00     0.069 A 
HETATM   36  C13 UNL     1       6.671  -2.104   0.254  1.00  0.00     0.037 A 
HETATM   37  C14 UNL     1       6.892  -3.402   0.664  1.00  0.00     0.003 A 
HETATM   38  C15 UNL     1       7.251  -3.678   1.978  1.00  0.00     0.000 A 
HETATM   39  C16 UNL     1       7.378  -2.624   2.855  1.00  0.00     0.003 A 
HETATM   40  C17 UNL     1       7.156  -1.328   2.438  1.00  0.00     0.037 A 
ENDBRANCH  34  35
ENDBRANCH  33  34
ENDBRANCH  31  33
ENDBRANCH  26  27
ENDBRANCH  25  26
ENDBRANCH  24  25
ENDBRANCH  23  24
ENDBRANCH  22  23
ENDBRANCH   1  22
TORSDOF 15
