REMARK  13 active torsions:
REMARK  status: ('A' for Active; 'I' for Inactive)
REMARK       I    between atoms: N1_2  and  C2_4 
REMARK    1  A    between atoms: N3_6  and  C3_8 
REMARK    2  A    between atoms: C3_8  and  C4_9 
REMARK    3  A    between atoms: C4_9  and  C5_10 
REMARK    4  A    between atoms: C5_10  and  N4_11 
REMARK    5  A    between atoms: N4_11  and  C7_13 
REMARK    6  A    between atoms: C7_13  and  C8_14 
REMARK    7  A    between atoms: C8_14  and  C9_15 
REMARK    8  A    between atoms: C9_15  and  N5_16 
REMARK    9  A    between atoms: N5_16  and  C10_17 
REMARK   10  A    between atoms: C17_28  and  N7_29 
REMARK       I    between atoms: N7_29  and  C18_31 
REMARK   11  A    between atoms: N8_34  and  C20_35 
REMARK   12  A    between atoms: C20_35  and  C21_36 
REMARK   13  A    between atoms: C21_36  and  C22_37 
ROOT
HETATM    1  C10 UNL     1      -2.411   0.667   0.516  1.00  0.00     0.207 A 
HETATM    2  C11 UNL     1      -2.716   1.502   1.631  1.00  0.00     0.051 A 
HETATM    3  C12 UNL     1      -1.886   1.551   2.741  1.00  0.00     0.039 A 
HETATM    4  C13 UNL     1      -2.183   2.347   3.829  1.00  0.00     0.029 A 
HETATM    5 BR1  UNL     1      -1.058   2.451   5.351  1.00  0.00    -0.050 Br
HETATM    6  C14 UNL     1      -3.334   3.112   3.813  1.00  0.00     0.030 A 
HETATM    7 BR2  UNL     1      -3.812   4.248   5.296  1.00  0.00    -0.050 Br
HETATM    8  C15 UNL     1      -4.148   3.051   2.697  1.00  0.00     0.051 A 
HETATM    9  C16 UNL     1      -3.849   2.248   1.593  1.00  0.00     0.065 A 
HETATM   10  N6  UNL     1      -4.658   2.205   0.531  1.00  0.00    -0.190 N 
ATOM     11  H6  UNL     1      -5.507   2.770   0.506  1.00  0.00     0.184 HD
HETATM   12  C17 UNL     1      -4.335   1.394  -0.522  1.00  0.00     0.690 A 
HETATM   13  N8  UNL     1      -3.249   0.629  -0.556  1.00  0.00    -0.154 N 
ENDROOT
BRANCH   1  14
HETATM   14  N5  UNL     1      -1.350   0.101   0.597  1.00  0.00    -0.402 NA
BRANCH  14  15
HETATM   15  C9  UNL     1      -0.178  -0.535   0.666  1.00  0.00     0.159 C 
BRANCH  15  16
HETATM   16  C8  UNL     1       1.002   0.198   0.044  1.00  0.00     0.089 C 
BRANCH  16  17
HETATM   17  C7  UNL     1       2.348  -0.330   0.284  1.00  0.00     0.278 C 
BRANCH  17  18
HETATM   18  N4  UNL     1       2.705  -1.656  -0.139  1.00  0.00     0.084 N 
HETATM   19  C6  UNL     1       2.919  -1.697  -1.565  1.00  0.00     0.309 C 
BRANCH  18  20
HETATM   20  C5  UNL     1       4.040  -1.967   0.434  1.00  0.00     0.273 C 
BRANCH  20  21
HETATM   21  C4  UNL     1       5.008  -0.851   0.278  1.00  0.00     0.050 C 
BRANCH  21  22
HETATM   22  C3  UNL     1       6.368  -1.197   0.909  1.00  0.00     0.124 C 
BRANCH  22  23
HETATM   23  N3  UNL     1       7.202  -0.013   0.733  1.00  0.00    -0.365 N 
HETATM   24  C2  UNL     1       8.093   0.083  -0.183  1.00  0.00     0.183 C 
HETATM   25  N1  UNL     1       8.901   1.230  -0.364  1.00  0.00    -0.369 N 
HETATM   26  N2  UNL     1       8.266  -1.038  -1.061  1.00  0.00    -0.064 NA
HETATM   27  C1  UNL     1       9.688   1.818   0.675  1.00  0.00     0.148 C 
ATOM     28  H1  UNL     1       8.923   1.662  -1.288  1.00  0.00     0.161 HD
ATOM     29  H3  UNL     1       7.070   0.774   1.368  1.00  0.00     0.162 HD
ENDBRANCH  22  23
ENDBRANCH  21  22
ENDBRANCH  20  21
ENDBRANCH  18  20
ENDBRANCH  17  18
ENDBRANCH  16  17
ENDBRANCH  15  16
ENDBRANCH  14  15
ENDBRANCH   1  14
BRANCH  13  30
HETATM   30  C20 UNL     1      -2.967  -0.280  -1.668  1.00  0.00     0.151 C 
BRANCH  30  31
HETATM   31  C21 UNL     1      -3.348  -1.689  -1.328  1.00  0.00     0.025 C 
BRANCH  31  32
HETATM   32  C22 UNL     1      -4.742  -1.996  -0.949  1.00  0.00    -0.021 C 
HETATM   33  C23 UNL     1      -4.741  -3.517  -0.599  1.00  0.00     0.009 C 
HETATM   34  C24 UNL     1      -5.770  -1.923  -2.062  1.00  0.00     0.009 C 
ENDBRANCH  31  32
ENDBRANCH  30  31
ENDBRANCH  13  30
BRANCH  12  35
HETATM   35  N7  UNL     1      -5.051   1.488  -1.599  1.00  0.00    -0.160 N 
HETATM   36  C18 UNL     1      -6.141   2.344  -1.823  1.00  0.00     0.231 C 
HETATM   37  C19 UNL     1      -7.535   2.186  -1.438  1.00  0.00     0.118 C 
HETATM   38  O1  UNL     1      -5.853   3.428  -2.469  1.00  0.00    -0.273 OA
ATOM     39  H7  UNL     1      -4.794   0.871  -2.369  1.00  0.00     0.187 HD
ENDBRANCH  12  35
TORSDOF 13
