REMARK  12 active torsions:
REMARK  status: ('A' for Active; 'I' for Inactive)
REMARK    1  A    between atoms: N1_2  and  C2_3 
REMARK    2  A    between atoms: N1_2  and  C4_6 
REMARK    3  A    between atoms: N1_2  and  C6_9 
REMARK    4  A    between atoms: C2_3  and  C3_4 
REMARK    5  A    between atoms: C4_6  and  C5_7 
REMARK    6  A    between atoms: C6_9  and  C7_10 
REMARK    7  A    between atoms: C7_10  and  N2_11 
REMARK       I    between atoms: N3_14  and  C10_15 
REMARK       I    between atoms: C10_15  and  N4_17 
REMARK    8  A    between atoms: N4_17  and  C11_19 
REMARK    9  A    between atoms: N5_22  and  C14_23 
REMARK   10  A    between atoms: C14_23  and  O2_24 
REMARK   11  A    between atoms: C14_23  and  C15_26 
REMARK   12  A    between atoms: C25_36  and  C26_37 
ROOT
HETATM    1  C11 UNL     1      -1.245  -0.506   0.283  1.00  0.00     0.089 C 
HETATM    2  C12 UNL     1      -1.826   0.858   0.198  1.00  0.00     0.045 C 
HETATM    3  C13 UNL     1      -3.266   0.738  -0.243  1.00  0.00     0.127 C 
HETATM    4  N5  UNL     1      -3.961  -0.249   0.521  1.00  0.00    -0.356 N 
HETATM    5  C25 UNL     1      -3.343  -1.178   1.441  1.00  0.00     0.122 C 
HETATM    6  C31 UNL     1      -1.885  -1.311   1.399  1.00  0.00     0.055 C 
ENDROOT
BRANCH   1   7
HETATM    7  N4  UNL     1       0.201  -0.509   0.509  1.00  0.00    -0.338 N 
HETATM    8  C10 UNL     1       1.086  -1.203  -0.326  1.00  0.00     0.319 C 
HETATM    9  N3  UNL     1       2.483  -1.273  -0.209  1.00  0.00    -0.328 N 
HETATM   10  O1  UNL     1       0.570  -1.847  -1.304  1.00  0.00    -0.247 OA
HETATM   11  C9  UNL     1       3.281  -2.061  -1.140  1.00  0.00     0.172 C 
HETATM   12  C32 UNL     1       3.194  -0.539   0.842  1.00  0.00     0.148 C 
HETATM   13  C8  UNL     1       4.713  -1.641  -1.161  1.00  0.00     0.083 C 
HETATM   14  N2  UNL     1       5.047  -0.388  -0.659  1.00  0.00    -0.369 N 
HETATM   15  C33 UNL     1       4.125   0.390   0.050  1.00  0.00     0.147 C 
ATOM     16  H4  UNL     1       0.577   0.012   1.301  1.00  0.00     0.164 HD
BRANCH  14  17
HETATM   17  C7  UNL     1       6.336   0.131  -0.879  1.00  0.00     0.091 C 
BRANCH  17  18
HETATM   18  C6  UNL     1       7.462  -0.541  -0.189  1.00  0.00     0.281 C 
BRANCH  18  19
HETATM   19  N1  UNL     1       8.763   0.033  -0.479  1.00  0.00    -0.065 N 
HETATM   20  C1  UNL     1       9.583  -0.189   0.695  1.00  0.00     0.273 C 
BRANCH  19  21
HETATM   21  C2  UNL     1       9.250  -0.664  -1.644  1.00  0.00     0.252 C 
BRANCH  21  22
HETATM   22  C3  UNL     1      10.673  -1.072  -1.630  1.00  0.00     0.142 C 
HETATM   23 CL1  UNL     1      11.850   0.217  -1.490  1.00  0.00    -0.129 Cl
ENDBRANCH  21  22
ENDBRANCH  19  21
BRANCH  19  24
HETATM   24  C4  UNL     1       8.733   1.432  -0.795  1.00  0.00     0.252 C 
BRANCH  24  25
HETATM   25  C5  UNL     1       8.661   2.356   0.374  1.00  0.00     0.142 C 
HETATM   26 CL2  UNL     1       8.627   4.048  -0.245  1.00  0.00    -0.129 Cl
ENDBRANCH  24  25
ENDBRANCH  19  24
ENDBRANCH  18  19
ENDBRANCH  17  18
ENDBRANCH  14  17
ENDBRANCH   1   7
BRANCH   5  27
HETATM   27  C26 UNL     1      -3.797  -0.875   2.830  1.00  0.00    -0.020 A 
HETATM   28  C27 UNL     1      -4.109  -1.874   3.718  1.00  0.00     0.012 A 
HETATM   29  C28 UNL     1      -4.527  -1.567   4.978  1.00  0.00     0.018 A 
HETATM   30  C29 UNL     1      -4.642  -0.239   5.374  1.00  0.00     0.087 A 
HETATM   31  N6  UNL     1      -4.330   0.709   4.484  1.00  0.00    -0.375 N 
HETATM   32  C30 UNL     1      -3.916   0.427   3.238  1.00  0.00     0.096 A 
ATOM     33  H6  UNL     1      -4.410   1.687   4.763  1.00  0.00     0.164 HD
ENDBRANCH   5  27
BRANCH   4  34
HETATM   34  C14 UNL     1      -5.363  -0.369   0.386  1.00  0.00     0.123 C 
BRANCH  34  35
HETATM   35  O2  UNL     1      -5.869  -1.312   1.133  1.00  0.00    -0.349 OA
ATOM     36  H2  UNL     1      -6.811  -1.393   1.042  1.00  0.00     0.219 HD
ENDBRANCH  34  35
BRANCH  34  37
HETATM   37  C15 UNL     1      -6.338   0.345  -0.412  1.00  0.00     0.026 C 
HETATM   38  C16 UNL     1      -5.905   0.494  -1.841  1.00  0.00     0.022 C 
HETATM   39  C17 UNL     1      -7.051   0.939  -2.763  1.00  0.00    -0.013 C 
HETATM   40  C18 UNL     1      -7.459   2.304  -2.240  1.00  0.00     0.009 C 
HETATM   41  C22 UNL     1      -8.233   0.037  -2.718  1.00  0.00     0.009 C 
HETATM   42  C19 UNL     1      -7.875   2.204  -0.810  1.00  0.00    -0.013 C 
HETATM   43  C20 UNL     1      -9.078   1.284  -0.715  1.00  0.00     0.009 C 
HETATM   44  C24 UNL     1      -6.795   1.673   0.113  1.00  0.00     0.022 C 
HETATM   45  C21 UNL     1      -8.684  -0.056  -1.272  1.00  0.00    -0.013 C 
HETATM   46  C23 UNL     1      -7.565  -0.617  -0.484  1.00  0.00     0.022 C 
ENDBRANCH  34  37
ENDBRANCH   4  34
TORSDOF 12
