REMARK  13 active torsions:
REMARK  status: ('A' for Active; 'I' for Inactive)
REMARK    1  A    between atoms: C2_2  and  C4_4 
REMARK    2  A    between atoms: C4_4  and  C5_5 
REMARK    3  A    between atoms: C5_5  and  C35_45 
REMARK       I    between atoms: N1_6  and  C6_8 
REMARK    4  A    between atoms: C6_8  and  C7_10 
REMARK    5  A    between atoms: C7_10  and  C8_11 
REMARK    6  A    between atoms: C7_10  and  N2_17 
REMARK    7  A    between atoms: C8_11  and  C9_12 
REMARK    8  A    between atoms: C9_12  and  C10_13 
REMARK    9  A    between atoms: N3_20  and  C16_21 
REMARK   10  A    between atoms: C16_21  and  O2_22 
REMARK   11  A    between atoms: C16_21  and  C17_24 
REMARK   12  A    between atoms: C17_24  and  C18_25 
REMARK   13  A    between atoms: C26_35  and  N4_36 
ROOT
HETATM    1  N2  UNL     1       1.739   0.976   0.509  1.00  0.00    -0.377 N 
HETATM    2  C14 UNL     1       1.201   2.163  -0.016  1.00  0.00     0.143 C 
HETATM    3  C15 UNL     1       0.064   2.601   0.930  1.00  0.00     0.145 C 
HETATM    4  N3  UNL     1      -0.926   1.506   0.775  1.00  0.00    -0.358 N 
HETATM    5  C33 UNL     1      -0.500   0.264   1.315  1.00  0.00     0.168 C 
HETATM    6  C34 UNL     1       1.034   0.277   1.495  1.00  0.00     0.079 C 
ENDROOT
BRANCH   4   7
HETATM    7  C16 UNL     1      -2.115   1.785   0.155  1.00  0.00     0.127 C 
BRANCH   7   8
HETATM    8  O2  UNL     1      -2.251   3.039  -0.214  1.00  0.00    -0.349 OA
ATOM      9  H2  UNL     1      -3.076   3.233  -0.644  1.00  0.00     0.219 HD
ENDBRANCH   7   8
BRANCH   7  10
HETATM   10  C17 UNL     1      -3.280   0.964  -0.188  1.00  0.00     0.057 C 
HETATM   11  C24 UNL     1      -2.884   0.128  -1.383  1.00  0.00     0.025 C 
HETATM   12  C25 UNL     1      -3.676  -1.156  -1.279  1.00  0.00     0.035 C 
HETATM   13  C26 UNL     1      -3.769  -1.391   0.215  1.00  0.00     0.191 C 
HETATM   14  C32 UNL     1      -3.720  -0.033   0.854  1.00  0.00     0.056 C 
BRANCH  10  15
HETATM   15  C18 UNL     1      -4.431   1.826  -0.590  1.00  0.00    -0.003 A 
HETATM   16  C19 UNL     1      -5.023   1.796  -1.827  1.00  0.00     0.014 A 
HETATM   17  C20 UNL     1      -6.088   2.647  -2.135  1.00  0.00     0.043 A 
HETATM   18  C21 UNL     1      -6.528   3.510  -1.183  1.00  0.00     0.119 A 
HETATM   19  F1  UNL     1      -7.567   4.379  -1.402  1.00  0.00    -0.206 F 
HETATM   20  C22 UNL     1      -5.950   3.557   0.065  1.00  0.00     0.085 A 
HETATM   21  C23 UNL     1      -4.906   2.717   0.359  1.00  0.00     0.126 A 
HETATM   22  F2  UNL     1      -4.360   2.739   1.582  1.00  0.00    -0.205 F 
ENDBRANCH  10  15
BRANCH  13  23
HETATM   23  N4  UNL     1      -4.853  -2.221   0.622  1.00  0.00    -0.067 N 
HETATM   24  C27 UNL     1      -4.648  -2.508   2.052  1.00  0.00     0.273 C 
HETATM   25  C28 UNL     1      -6.159  -1.697   0.421  1.00  0.00     0.237 C 
HETATM   26  C29 UNL     1      -6.934  -2.610  -0.467  1.00  0.00     0.029 C 
HETATM   27  C30 UNL     1      -5.985  -3.696  -0.860  1.00  0.00     0.029 C 
HETATM   28  C31 UNL     1      -4.753  -3.487  -0.053  1.00  0.00     0.237 C 
ENDBRANCH  13  23
ENDBRANCH   7  10
ENDBRANCH   4   7
BRANCH   1  29
HETATM   29  C7  UNL     1       2.918   0.443  -0.040  1.00  0.00     0.176 C 
BRANCH  29  30
HETATM   30  C6  UNL     1       2.852   0.014  -1.429  1.00  0.00     0.244 C 
HETATM   31  N1  UNL     1       3.984  -0.362  -2.164  1.00  0.00    -0.324 N 
HETATM   32  C5  UNL     1       4.304  -1.595  -2.394  1.00  0.00     0.077 C 
ATOM     33  H1  UNL     1       4.586   0.372  -2.536  1.00  0.00     0.169 HD
HETATM   34  O1  UNL     1       1.736  -0.036  -2.053  1.00  0.00    -0.271 OA
BRANCH  32  35
HETATM   35  C4  UNL     1       3.490  -2.717  -1.889  1.00  0.00     0.066 C 
BRANCH  35  36
HETATM   36  C2  UNL     1       4.249  -3.668  -1.008  1.00  0.00    -0.017 C 
HETATM   37  C1  UNL     1       4.836  -3.014   0.219  1.00  0.00     0.010 C 
HETATM   38  C3  UNL     1       3.277  -4.744  -0.483  1.00  0.00     0.010 C 
ENDBRANCH  35  36
ENDBRANCH  32  35
BRANCH  32  39
HETATM   39  C35 UNL     1       5.501  -1.822  -3.195  1.00  0.00     0.277 C 
HETATM   40  N5  UNL     1       6.248  -0.712  -3.668  1.00  0.00    -0.056 NA
HETATM   41  O3  UNL     1       5.850  -2.993  -3.454  1.00  0.00    -0.270 OA
ENDBRANCH  32  39
ENDBRANCH  29  30
BRANCH  29  42
HETATM   42  C8  UNL     1       4.011   1.512   0.112  1.00  0.00     0.035 C 
BRANCH  42  43
HETATM   43  C9  UNL     1       4.081   1.960   1.554  1.00  0.00     0.011 C 
BRANCH  43  44
HETATM   44  C10 UNL     1       5.129   3.001   1.745  1.00  0.00    -0.051 C 
HETATM   45  C11 UNL     1       4.892   4.240   0.915  1.00  0.00     0.014 C 
HETATM   46  C12 UNL     1       5.103   3.444   3.204  1.00  0.00     0.014 C 
HETATM   47  C13 UNL     1       6.511   2.479   1.425  1.00  0.00     0.014 C 
ENDBRANCH  43  44
ENDBRANCH  42  43
ENDBRANCH  29  42
ENDBRANCH   1  29
TORSDOF 13
