REMARK  5 active torsions:
REMARK  status: ('A' for Active; 'I' for Inactive)
REMARK    1  A    between atoms: C2_2  and  N1_4 
REMARK    2  A    between atoms: N1_4  and  C4_6 
REMARK    3  A    between atoms: C4_6  and  C5_7 
REMARK    4  A    between atoms: C5_7  and  C6_8 
REMARK    5  A    between atoms: C6_8  and  C7_9 
ROOT
HETATM    1  C7  UNL     1       2.125  -0.167  -0.942  1.00  0.00     0.192 C 
HETATM    2  N2  UNL     1       2.122   0.970  -0.091  1.00  0.00    -0.399 N 
ATOM      3  H2  UNL     1       1.263   1.493   0.080  1.00  0.00     0.155 HD
HETATM    4  C8  UNL     1       3.341   1.358   0.513  1.00  0.00     0.137 C 
HETATM    5  C9  UNL     1       4.341   0.273   0.684  1.00  0.00     0.158 C 
HETATM    6  N3  UNL     1       4.456  -0.532  -0.492  1.00  0.00    -0.337 N 
ATOM      7  H3  UNL     1       5.366  -0.821  -0.851  1.00  0.00     0.179 HD
HETATM    8  N4  UNL     1       3.311  -0.894  -1.108  1.00  0.00    -0.318 N 
ATOM      9  H4  UNL     1       3.309  -1.718  -1.710  1.00  0.00     0.182 HD
ENDROOT
BRANCH   1  10
HETATM   10  C6  UNL     1       0.929  -1.035  -0.561  1.00  0.00     0.052 C 
BRANCH  10  11
HETATM   11  C5  UNL     1      -0.381  -0.263  -0.742  1.00  0.00     0.048 C 
BRANCH  11  12
HETATM   12  C4  UNL     1      -1.544  -1.144  -0.343  1.00  0.00     0.056 C 
BRANCH  12  13
HETATM   13  N1  UNL     1      -2.814  -0.590  -0.462  1.00  0.00    -0.398 N 
ATOM     14  H1  UNL     1      -3.448  -0.963  -1.169  1.00  0.00     0.159 HD
BRANCH  13  15
HETATM   15  C2  UNL     1      -3.252   0.454   0.347  1.00  0.00     0.072 C 
HETATM   16  C1  UNL     1      -3.303   0.095   1.828  1.00  0.00     0.031 C 
HETATM   17  C3  UNL     1      -4.683   0.818  -0.062  1.00  0.00     0.031 C 
ENDBRANCH  13  15
ENDBRANCH  12  13
ENDBRANCH  11  12
ENDBRANCH  10  11
ENDBRANCH   1  10
TORSDOF 5
