REMARK  8 active torsions:
REMARK  status: ('A' for Active; 'I' for Inactive)
REMARK    1  A    between atoms: S1_2  and  C2_3 
REMARK    2  A    between atoms: C3_4  and  O1_5 
REMARK    3  A    between atoms: N1_9  and  C5_10 
REMARK    4  A    between atoms: N4_17  and  C7_18 
REMARK    5  A    between atoms: C7_18  and  C8_19 
REMARK    6  A    between atoms: C10_22  and  N5_23 
REMARK    7  A    between atoms: N5_23  and  N6_25 
REMARK    8  A    between atoms: N7_30  and  O5_31 
ROOT
HETATM    1  C5  UNL     1       0.173   0.550   0.509  1.00  0.00     0.181 A 
HETATM    2  N2  UNL     1       0.592   1.742   0.965  1.00  0.00    -0.172 N 
ATOM      3  H2  UNL     1      -0.021   2.521   1.205  1.00  0.00     0.186 HD
HETATM    4  C6  UNL     1       1.929   1.765   1.061  1.00  0.00     0.681 A 
HETATM    5  N3  UNL     1       2.680   2.732   1.457  1.00  0.00    -0.234 N 
ATOM      6  H31 UNL     1       3.697   2.749   1.530  1.00  0.00     0.174 HD
ATOM      7  H32 UNL     1       2.371   3.653   1.768  1.00  0.00     0.174 HD
HETATM    8  N4  UNL     1       2.342   0.534   0.646  1.00  0.00    -0.156 N 
HETATM    9  C10 UNL     1       1.304  -0.230   0.303  1.00  0.00     0.183 A 
ENDROOT
BRANCH   1  10
HETATM   10  N1  UNL     1      -1.182   0.183   0.289  1.00  0.00    -0.206 N 
HETATM   11  C4  UNL     1      -2.012  -0.147   1.306  1.00  0.00     0.293 A 
HETATM   12  C3  UNL     1      -3.327  -0.499   1.035  1.00  0.00     0.171 A 
HETATM   13  O2  UNL     1      -1.572  -0.126   2.465  1.00  0.00    -0.264 OA
HETATM   14  C2  UNL     1      -3.812  -0.522  -0.252  1.00  0.00     0.142 A 
HETATM   15  N7  UNL     1      -2.959  -0.188  -1.238  1.00  0.00    -0.163 N 
HETATM   16  C11 UNL     1      -1.676   0.154  -0.959  1.00  0.00     0.362 A 
HETATM   17  O4  UNL     1      -0.919   0.457  -1.917  1.00  0.00    -0.243 OA
BRANCH  12  18
HETATM   18  O1  UNL     1      -4.190  -0.840   2.072  1.00  0.00    -0.354 OA
ATOM     19  H1  UNL     1      -3.855  -0.824   2.961  1.00  0.00     0.218 HD
ENDBRANCH  12  18
BRANCH  14  20
HETATM   20  S1  UNL     1      -5.511  -0.983  -0.535  1.00  0.00    -0.111 SA
HETATM   21  C1  UNL     1      -6.608   0.447  -0.485  1.00  0.00     0.097 C 
ENDBRANCH  14  20
BRANCH  15  22
HETATM   22  O5  UNL     1      -3.435  -0.208  -2.529  1.00  0.00    -0.278 OA
ATOM     23  H5  UNL     1      -2.833   0.028  -3.225  1.00  0.00     0.245 HD
ENDBRANCH  15  22
ENDBRANCH   1  10
BRANCH   9  24
HETATM   24  N5  UNL     1       1.222  -1.561  -0.186  1.00  0.00    -0.288 N 
ATOM     25  H5  UNL     1       0.290  -1.935  -0.366  1.00  0.00     0.188 HD
BRANCH  24  26
HETATM   26  N6  UNL     1       2.300  -2.396  -0.440  1.00  0.00    -0.344 N 
ATOM     27  H62 UNL     1       3.224  -2.005  -0.254  1.00  0.00     0.176 HD
ATOM     28  H61 UNL     1       2.241  -3.352  -0.791  1.00  0.00     0.176 HD
ENDBRANCH  24  26
ENDBRANCH   9  24
BRANCH   8  29
HETATM   29  C7  UNL     1       3.731   0.142   0.593  1.00  0.00     0.227 C 
BRANCH  29  30
HETATM   30  C8  UNL     1       4.344   0.427  -0.724  1.00  0.00     0.141 C 
HETATM   31  C9  UNL     1       5.771   0.092  -0.973  1.00  0.00     0.092 C 
HETATM   32  O3  UNL     1       3.702   0.935  -1.625  1.00  0.00    -0.297 OA
ENDBRANCH  29  30
ENDBRANCH   8  29
TORSDOF 8
