REMARK  6 active torsions:
REMARK  status: ('A' for Active; 'I' for Inactive)
REMARK       I    between atoms: N1_2  and  C2_4 
REMARK       I    between atoms: C2_4  and  N2_6 
REMARK    1  A    between atoms: N2_6  and  N3_8 
REMARK    2  A    between atoms: C3_10  and  C4_11 
REMARK    3  A    between atoms: N6_18  and  C6_19 
REMARK    4  A    between atoms: C7_20  and  N7_21 
REMARK    5  A    between atoms: N9_29  and  O5_30 
REMARK    6  A    between atoms: C10_32  and  O6_33 
ROOT
HETATM    1  C4  UNL     1       0.460   0.394  -0.732  1.00  0.00     0.117 A 
HETATM    2  N4  UNL     1       0.042   0.444  -2.010  1.00  0.00    -0.186 N 
ATOM      3  H4  UNL     1       0.657   0.537  -2.818  1.00  0.00     0.184 HD
HETATM    4  C5  UNL     1      -1.295   0.354  -2.075  1.00  0.00     0.686 A 
HETATM    5  N5  UNL     1      -2.039   0.368  -3.146  1.00  0.00    -0.234 N 
ATOM      6  H51 UNL     1      -3.056   0.300  -3.195  1.00  0.00     0.174 HD
ATOM      7  H52 UNL     1      -1.691   0.452  -4.101  1.00  0.00     0.174 HD
HETATM    8  N6  UNL     1      -1.757   0.242  -0.806  1.00  0.00    -0.103 N 
HETATM    9  C10 UNL     1      -0.691   0.266   0.016  1.00  0.00     0.194 A 
ENDROOT
BRANCH   8  10
HETATM   10  C6  UNL     1      -3.130   0.122  -0.493  1.00  0.00     0.212 A 
HETATM   11  C7  UNL     1      -4.029   1.163  -0.464  1.00  0.00     0.221 A 
HETATM   12  N8  UNL     1      -5.338   0.956  -0.153  1.00  0.00    -0.339 N 
HETATM   13  C8  UNL     1      -5.794  -0.269   0.135  1.00  0.00     0.167 A 
ATOM     14  H8  UNL     1      -5.982   1.747  -0.139  1.00  0.00     0.167 HD
HETATM   15  C9  UNL     1      -4.900  -1.315   0.108  1.00  0.00     0.288 A 
HETATM   16  O4  UNL     1      -5.336  -2.482   0.383  1.00  0.00    -0.264 OA
HETATM   17  N9  UNL     1      -3.616  -1.102  -0.198  1.00  0.00    -0.164 N 
BRANCH  11  18
HETATM   18  N7  UNL     1      -3.562   2.481  -0.771  1.00  0.00    -0.094 N 
HETATM   19  O2  UNL     1      -4.350   3.317  -1.254  1.00  0.00    -0.530 OA
HETATM   20  O3  UNL     1      -2.265   2.861  -0.551  1.00  0.00    -0.530 OA
ENDBRANCH  11  18
BRANCH  17  21
HETATM   21  O5  UNL     1      -2.758  -2.176  -0.213  1.00  0.00    -0.278 OA
ATOM     22  H5  UNL     1      -3.100  -3.038  -0.005  1.00  0.00     0.245 HD
ENDBRANCH  17  21
ENDBRANCH   8  10
BRANCH   9  23
HETATM   23  O6  UNL     1      -0.778   0.173   1.401  1.00  0.00    -0.344 OA
ATOM     24  H6  UNL     1      -1.571   0.085   1.916  1.00  0.00     0.219 HD
ENDBRANCH   9  23
BRANCH   1  25
HETATM   25  C3  UNL     1       1.836   0.461  -0.255  1.00  0.00     0.141 C 
HETATM   26  N3  UNL     1       2.075   0.399   1.011  1.00  0.00    -0.306 N 
ATOM     27  H3  UNL     1       1.282   0.304   1.646  1.00  0.00     0.186 HD
BRANCH  26  28
HETATM   28  N2  UNL     1       3.345   0.454   1.557  1.00  0.00    -0.252 N 
HETATM   29  C2  UNL     1       4.432  -0.314   1.053  1.00  0.00     0.334 C 
HETATM   30  N1  UNL     1       5.733  -0.250   1.621  1.00  0.00    -0.346 N 
HETATM   31  O1  UNL     1       4.221  -1.071   0.070  1.00  0.00    -0.246 OA
HETATM   32  C1  UNL     1       6.807  -1.050   1.074  1.00  0.00     0.151 C 
ATOM     33  H1  UNL     1       5.910   0.362   2.417  1.00  0.00     0.163 HD
ATOM     34  H2  UNL     1       3.509   1.070   2.353  1.00  0.00     0.191 HD
ENDBRANCH  26  28
ENDBRANCH   1  25
TORSDOF 6
