REMARK  3 active torsions:
REMARK  status: ('A' for Active; 'I' for Inactive)
REMARK    1  A    between atoms: C2_2  and  N1_3 
REMARK    2  A    between atoms: C2_2  and  C3_10 
REMARK    3  A    between atoms: N2_5  and  N3_7 
ROOT
HETATM    1  C3  UNL     1       0.068   0.193  -0.417  1.00  0.00     0.050 A 
HETATM    2  C4  UNL     1       0.477  -1.052  -0.846  1.00  0.00     0.034 A 
HETATM    3  C5  UNL     1       1.800  -1.425  -0.724  1.00  0.00     0.078 A 
HETATM    4  C6  UNL     1       2.739  -0.576  -0.179  1.00  0.00     0.259 A 
HETATM    5  O1  UNL     1       3.964  -0.918  -0.066  1.00  0.00    -0.267 OA
HETATM    6  N4  UNL     1       2.290   0.626   0.223  1.00  0.00    -0.266 N 
ATOM      7  H4  UNL     1       2.952   1.286   0.632  1.00  0.00     0.190 HD
HETATM    8  N5  UNL     1       1.022   0.985   0.108  1.00  0.00    -0.300 N 
ATOM      9  H5  UNL     1       0.752   1.913   0.435  1.00  0.00     0.186 HD
ENDROOT
BRANCH   1  10
HETATM   10  C2  UNL     1      -1.350   0.656  -0.520  1.00  0.00     0.148 C 
HETATM   11  C1  UNL     1      -1.546   1.823   0.424  1.00  0.00     0.040 C 
BRANCH  10  12
HETATM   12  N1  UNL     1      -2.263  -0.396  -0.075  1.00  0.00    -0.312 N 
HETATM   13  N2  UNL     1      -1.958  -1.200   0.853  1.00  0.00    -0.253 N 
ATOM     14  H2  UNL     1      -1.056  -1.142   1.327  1.00  0.00     0.207 HD
ATOM     15  H1  UNL     1      -3.173  -0.484  -0.526  1.00  0.00     0.182 HD
BRANCH  13  16
HETATM   16  N3  UNL     1      -2.892  -2.163   1.204  1.00  0.00    -0.331 N 
ATOM     17  H32 UNL     1      -3.789  -2.208   0.721  1.00  0.00     0.178 HD
ATOM     18  H31 UNL     1      -2.646  -2.811   1.952  1.00  0.00     0.178 HD
ENDBRANCH  13  16
ENDBRANCH  10  12
ENDBRANCH   1  10
TORSDOF 3
