REMARK  4 active torsions:
REMARK  status: ('A' for Active; 'I' for Inactive)
REMARK    1  A    between atoms: C5_8  and  C6_9 
REMARK       I    between atoms: C6_9  and  N3_11 
REMARK    2  A    between atoms: N3_11  and  N4_13 
REMARK    3  A    between atoms: C7_15  and  C8_16 
REMARK    4  A    between atoms: C9_22  and  N7_23 
ROOT
HETATM    1  C1  UNL     1      -5.365  -0.903   0.304  1.00  0.00     0.070 C 
HETATM    2  C2  UNL     1      -3.919  -0.576   0.559  1.00  0.00     0.028 A 
HETATM    3  N1  UNL     1      -3.416  -0.637   1.804  1.00  0.00    -0.348 N 
ATOM      4  H1  UNL     1      -4.019  -0.907   2.581  1.00  0.00     0.166 HD
HETATM    5  C3  UNL     1      -2.098  -0.339   2.038  1.00  0.00     0.146 A 
HETATM    6  C4  UNL     1      -1.581  -0.410   3.372  1.00  0.00     0.120 C 
HETATM    7  N2  UNL     1      -1.180  -0.477   4.480  1.00  0.00    -0.190 NA
HETATM    8  C5  UNL     1      -1.331   0.018   0.964  1.00  0.00     0.140 A 
HETATM    9  N8  UNL     1      -1.849   0.078  -0.300  1.00  0.00    -0.351 N 
ATOM     10  H8  UNL     1      -1.251   0.347  -1.081  1.00  0.00     0.166 HD
HETATM   11  C10 UNL     1      -3.138  -0.215  -0.517  1.00  0.00     0.028 A 
HETATM   12  C11 UNL     1      -3.760  -0.168  -1.866  1.00  0.00     0.070 C 
ENDROOT
BRANCH   8  13
HETATM   13  C6  UNL     1       0.075   0.343   1.168  1.00  0.00     0.289 C 
HETATM   14  O1  UNL     1       0.626   0.311   2.297  1.00  0.00    -0.264 OA
HETATM   15  N3  UNL     1       0.871   0.715   0.040  1.00  0.00    -0.265 N 
ATOM     16  H3  UNL     1       0.438   0.745  -0.883  1.00  0.00     0.190 HD
BRANCH  15  17
HETATM   17  N4  UNL     1       2.219   1.038   0.163  1.00  0.00    -0.307 N 
HETATM   18  C7  UNL     1       3.147   0.415  -0.500  1.00  0.00     0.142 C 
ATOM     19  H4  UNL     1       2.488   1.791   0.796  1.00  0.00     0.186 HD
BRANCH  18  20
HETATM   20  C8  UNL     1       4.552   0.771  -0.356  1.00  0.00     0.118 A 
HETATM   21  N5  UNL     1       5.082   1.722   0.422  1.00  0.00    -0.237 N 
HETATM   22  O2  UNL     1       6.389   1.722   0.264  1.00  0.00    -0.155 OA
ATOM     23  H5  UNL     1       4.559   2.345   1.037  1.00  0.00     0.197 HD
HETATM   24  N6  UNL     1       6.729   0.800  -0.593  1.00  0.00    -0.224 N 
HETATM   25  C9  UNL     1       5.619   0.185  -1.003  1.00  0.00     0.151 A 
ATOM     26  H6  UNL     1       7.679   0.586  -0.897  1.00  0.00     0.198 HD
BRANCH  25  27
HETATM   27  N7  UNL     1       5.558  -0.791  -1.859  1.00  0.00    -0.382 N 
ATOM     28  H72 UNL     1       4.709  -1.261  -2.173  1.00  0.00     0.157 HD
ATOM     29  H71 UNL     1       6.347  -1.225  -2.338  1.00  0.00     0.157 HD
ENDBRANCH  25  27
ENDBRANCH  18  20
ENDBRANCH  15  17
ENDBRANCH   8  13
TORSDOF 4
