REMARK  8 active torsions:
REMARK  status: ('A' for Active; 'I' for Inactive)
REMARK    1  A    between atoms: N1_1  and  C1_4 
REMARK    2  A    between atoms: C4_11  and  N4_12 
REMARK    3  A    between atoms: N5_15  and  C5_16 
REMARK    4  A    between atoms: C5_16  and  C6_17 
REMARK    5  A    between atoms: C6_17  and  C7_18 
REMARK    6  A    between atoms: C7_18  and  C8_19 
REMARK    7  A    between atoms: C9_27  and  S1_28 
REMARK    8  A    between atoms: S1_28  and  N10_29 
ROOT
HETATM    1  C1  UNL     1      -1.708  -0.295  -2.701  1.00  0.00     0.678 A 
HETATM    2  N2  UNL     1      -0.622  -0.036  -1.970  1.00  0.00    -0.174 N 
ATOM      3  H2  UNL     1       0.047   0.660  -2.299  1.00  0.00     0.186 HD
HETATM    4  C2  UNL     1      -0.392  -0.671  -0.814  1.00  0.00     0.169 A 
HETATM    5  C3  UNL     1      -1.307  -1.604  -0.386  1.00  0.00     0.135 A 
HETATM    6  N3  UNL     1      -0.819  -2.078   0.773  1.00  0.00    -0.185 N 
ATOM      7  H3  UNL     1      -1.270  -2.790   1.347  1.00  0.00     0.184 HD
HETATM    8  C4  UNL     1       0.346  -1.481   1.067  1.00  0.00     0.680 A 
HETATM    9  N5  UNL     1       0.631  -0.588   0.077  1.00  0.00    -0.166 N 
HETATM   10  C9  UNL     1      -2.460  -1.902  -1.126  1.00  0.00     0.195 A 
HETATM   11  N11 UNL     1      -2.625  -1.218  -2.290  1.00  0.00    -0.177 N 
ATOM     12  H11 UNL     1      -3.448  -1.398  -2.865  1.00  0.00     0.185 HD
ENDROOT
BRANCH   9  13
HETATM   13  C5  UNL     1       1.796   0.234   0.037  1.00  0.00     0.150 C 
BRANCH  13  14
HETATM   14  C6  UNL     1       1.667   1.567   0.725  1.00  0.00     0.028 C 
BRANCH  14  15
HETATM   15  C7  UNL     1       3.027   2.264   0.489  1.00  0.00     0.080 C 
BRANCH  15  16
HETATM   16  C8  UNL     1       2.991   3.593   1.145  1.00  0.00     0.110 A 
HETATM   17  N6  UNL     1       3.966   4.497   1.130  1.00  0.00    -0.271 N 
HETATM   18  N7  UNL     1       3.583   5.573   1.820  1.00  0.00    -0.005 NA
ATOM     19  H6  UNL     1       4.866   4.385   0.664  1.00  0.00     0.185 HD
HETATM   20  N8  UNL     1       2.360   5.309   2.254  1.00  0.00    -0.225 N 
HETATM   21  N9  UNL     1       2.003   4.123   1.852  1.00  0.00    -0.275 N 
ATOM     22  H8  UNL     1       1.786   5.938   2.816  1.00  0.00     0.205 HD
ATOM     23  H9  UNL     1       1.108   3.675   2.049  1.00  0.00     0.189 HD
ENDBRANCH  15  16
ENDBRANCH  14  15
ENDBRANCH  13  14
ENDBRANCH   9  13
BRANCH   8  24
HETATM   24  N4  UNL     1       1.105  -1.702   2.116  1.00  0.00    -0.234 N 
ATOM     25  H42 UNL     1       0.892  -2.370   2.857  1.00  0.00     0.174 HD
ATOM     26  H41 UNL     1       1.991  -1.248   2.340  1.00  0.00     0.174 HD
ENDBRANCH   8  24
BRANCH   1  27
HETATM   27  N1  UNL     1      -1.963   0.287  -3.783  1.00  0.00    -0.234 N 
ATOM     28  H12 UNL     1      -1.277   0.977  -4.090  1.00  0.00     0.174 HD
ATOM     29  H11 UNL     1      -2.793   0.089  -4.342  1.00  0.00     0.174 HD
ENDBRANCH   1  27
BRANCH  10  30
HETATM   30  S1  UNL     1      -3.606  -3.095  -0.564  1.00  0.00     0.275 S 
HETATM   31  O1  UNL     1      -4.765  -3.079  -1.525  1.00  0.00    -0.199 OA
HETATM   32  O2  UNL     1      -4.170  -2.673   0.786  1.00  0.00    -0.199 OA
BRANCH  30  33
HETATM   33  N10 UNL     1      -2.920  -4.667  -0.435  1.00  0.00    -0.323 N 
ATOM     34 2H10 UNL     1      -1.946  -4.865  -0.666  1.00  0.00     0.169 HD
ATOM     35 1H10 UNL     1      -3.589  -5.363  -0.107  1.00  0.00     0.169 HD
ENDBRANCH  30  33
ENDBRANCH  10  30
TORSDOF 8
