REMARK  8 active torsions:
REMARK  status: ('A' for Active; 'I' for Inactive)
REMARK    1  A    between atoms: N1_1  and  C1_5 
REMARK    2  A    between atoms: C1_5  and  C2_6 
REMARK    3  A    between atoms: C1_5  and  N6_22 
REMARK    4  A    between atoms: C2_6  and  C3_7 
REMARK    5  A    between atoms: C3_7  and  C4_8 
REMARK    6  A    between atoms: C4_8  and  N2_9 
REMARK    7  A    between atoms: N2_9  and  C5_11 
REMARK    8  A    between atoms: N6_22  and  C8_24 
ROOT
HETATM    1  C3  UNL     1      -0.006  -0.868  -0.213  1.00  0.00     0.024 C 
ENDROOT
BRANCH   1   2
HETATM    2  C2  UNL     1      -1.057  -0.605  -1.272  1.00  0.00     0.055 C 
BRANCH   2   3
HETATM    3  C1  UNL     1      -2.320  -1.440  -0.948  1.00  0.00     0.278 C 
BRANCH   3   4
HETATM    4  N1  UNL     1      -3.277  -1.144  -1.964  1.00  0.00    -0.059 N 
ATOM      5  H13 UNL     1      -3.467  -0.147  -2.060  1.00  0.00     0.276 HD
ATOM      6  H12 UNL     1      -2.923  -1.298  -2.908  1.00  0.00     0.276 HD
ATOM      7  H11 UNL     1      -4.109  -1.694  -1.751  1.00  0.00     0.276 HD
ENDBRANCH   3   4
BRANCH   3   8
HETATM    8  N6  UNL     1      -2.748  -1.207   0.378  1.00  0.00    -0.382 N 
ATOM      9  H6  UNL     1      -2.776  -1.948   1.078  1.00  0.00     0.156 HD
BRANCH   8  10
HETATM   10  C8  UNL     1      -3.134   0.118   0.670  1.00  0.00     0.189 A 
HETATM   11  C9  UNL     1      -4.363   0.613   0.003  1.00  0.00     0.157 A 
HETATM   12  N7  UNL     1      -4.902   0.790   1.362  1.00  0.00    -0.357 N 
HETATM   13  C10 UNL     1      -3.713   0.369   2.014  1.00  0.00     0.241 A 
ATOM     14  H7  UNL     1      -5.808   1.104   1.711  1.00  0.00     0.162 HD
HETATM   15  O3  UNL     1      -3.235   0.225   3.175  1.00  0.00    -0.271 OA
ENDBRANCH   8  10
ENDBRANCH   3   8
ENDBRANCH   2   3
ENDBRANCH   1   2
BRANCH   1  16
HETATM   16  C4  UNL     1       1.234  -0.057  -0.512  1.00  0.00     0.138 C 
BRANCH  16  17
HETATM   17  N2  UNL     1       2.246  -0.275   0.497  1.00  0.00    -0.226 N 
ATOM     18  H2  UNL     1       1.994  -0.878   1.280  1.00  0.00     0.177 HD
BRANCH  17  19
HETATM   19  C5  UNL     1       3.425   0.215   0.501  1.00  0.00     0.686 A 
HETATM   20  N3  UNL     1       4.257  -0.078   1.510  1.00  0.00    -0.141 N 
HETATM   21  C6  UNL     1       5.520   0.404   1.584  1.00  0.00     0.342 A 
ATOM     22  H3  UNL     1       3.924  -0.691   2.254  1.00  0.00     0.189 HD
HETATM   23  O1  UNL     1       6.290   0.120   2.540  1.00  0.00    -0.246 OA
HETATM   24  N4  UNL     1       5.968   1.211   0.607  1.00  0.00    -0.260 N 
HETATM   25  C7  UNL     1       5.153   1.522  -0.418  1.00  0.00     0.342 A 
ATOM     26  H4  UNL     1       6.917   1.584   0.642  1.00  0.00     0.175 HD
HETATM   27  O2  UNL     1       5.616   2.284  -1.312  1.00  0.00    -0.246 OA
HETATM   28  N5  UNL     1       3.885   1.020  -0.464  1.00  0.00    -0.141 N 
ATOM     29  H5  UNL     1       3.278   1.262  -1.247  1.00  0.00     0.189 HD
ENDBRANCH  17  19
ENDBRANCH  16  17
ENDBRANCH   1  16
TORSDOF 8
