REMARK  10 active torsions:
REMARK  status: ('A' for Active; 'I' for Inactive)
REMARK    1  A    between atoms: C3_3  and  N1_4 
REMARK    2  A    between atoms: N1_4  and  C6_7 
REMARK    3  A    between atoms: C6_7  and  C7_8 
REMARK    4  A    between atoms: C8_9  and  O1_10 
REMARK    5  A    between atoms: C9_12  and  C10_13 
REMARK    6  A    between atoms: C10_13  and  O2_14 
REMARK    7  A    between atoms: C10_13  and  C11_16 
REMARK    8  A    between atoms: C11_16  and  O3_17 
REMARK    9  A    between atoms: C12_19  and  O4_20 
REMARK   10  A    between atoms: C14_24  and  N3_25 
ROOT
HETATM    1  C1  UNL     1       3.861  -4.145   1.554  1.00  0.00     0.098 C 
HETATM    2  C2  UNL     1       2.872  -3.462   1.304  1.00  0.00    -0.160 C 
HETATM    3  C3  UNL     1       1.679  -2.666   1.023  1.00  0.00     0.315 C 
ENDROOT
BRANCH   3   4
HETATM    4  N1  UNL     1       2.046  -1.583   0.098  1.00  0.00    -0.065 N 
HETATM    5  C4  UNL     1       3.472  -1.326   0.408  1.00  0.00     0.273 C 
HETATM    6  C5  UNL     1       2.000  -2.156  -1.196  1.00  0.00     0.273 C 
BRANCH   4   7
HETATM    7  C6  UNL     1       1.379  -0.354   0.352  1.00  0.00     0.248 C 
BRANCH   7   8
HETATM    8  C7  UNL     1       0.288   0.096  -0.513  1.00  0.00     0.103 C 
HETATM    9  C8  UNL     1      -0.847  -0.903  -0.489  1.00  0.00     0.138 C 
HETATM   10  C9  UNL     1      -2.177  -0.304  -0.160  1.00  0.00     0.105 C 
HETATM   11  C12 UNL     1      -1.988   0.543   1.061  1.00  0.00     0.367 C 
HETATM   12  N2  UNL     1      -1.065   1.625   0.869  1.00  0.00     0.145 N 
HETATM   13  C13 UNL     1      -1.880   2.825   0.875  1.00  0.00     0.316 C 
HETATM   14  C14 UNL     1      -0.231   1.484  -0.311  1.00  0.00     0.433 C 
BRANCH   9  15
HETATM   15  O1  UNL     1      -1.027  -1.541  -1.719  1.00  0.00    -0.394 OA
ATOM     16  H1  UNL     1      -1.740  -2.169  -1.704  1.00  0.00     0.210 HD
ENDBRANCH   9  15
BRANCH  10  17
HETATM   17  C10 UNL     1      -3.146  -1.387   0.203  1.00  0.00     0.152 C 
BRANCH  17  18
HETATM   18  O2  UNL     1      -2.740  -2.130   1.292  1.00  0.00    -0.393 OA
ATOM     19  H2  UNL     1      -3.355  -2.817   1.522  1.00  0.00     0.210 HD
ENDBRANCH  17  18
BRANCH  17  20
HETATM   20  C11 UNL     1      -3.571  -2.285  -0.903  1.00  0.00     0.196 C 
BRANCH  20  21
HETATM   21  O3  UNL     1      -3.975  -1.562  -2.034  1.00  0.00    -0.398 OA
ATOM     22  H3  UNL     1      -4.247  -2.136  -2.741  1.00  0.00     0.209 HD
ENDBRANCH  20  21
ENDBRANCH  17  20
ENDBRANCH  10  17
BRANCH  11  23
HETATM   23  O4  UNL     1      -1.761  -0.199   2.231  1.00  0.00    -0.367 OA
ATOM     24  H4  UNL     1      -1.641   0.338   3.005  1.00  0.00     0.212 HD
ENDBRANCH  11  23
BRANCH  14  25
HETATM   25  N3  UNL     1       0.670   2.568  -0.482  1.00  0.00    -0.046 N 
HETATM   26  C15 UNL     1       1.081   3.154   0.810  1.00  0.00     0.274 C 
HETATM   27  C16 UNL     1       1.885   2.368  -1.202  1.00  0.00     0.274 C 
HETATM   28  C17 UNL     1       0.006   3.674  -1.214  1.00  0.00     0.274 C 
ENDBRANCH  14  25
ENDBRANCH   7   8
ENDBRANCH   4   7
ENDBRANCH   3   4
TORSDOF 10
