REMARK  4 active torsions:
REMARK  status: ('A' for Active; 'I' for Inactive)
REMARK    1  A    between atoms: C3_3  and  C4_4 
REMARK    2  A    between atoms: C4_4  and  S1_5 
REMARK    3  A    between atoms: S1_5  and  C5_6 
REMARK    4  A    between atoms: N3_12  and  C7_14 
ROOT
HETATM    1  C5  UNL     1      -0.336   0.501  -0.635  1.00  0.00     0.130 A 
HETATM    2  N1  UNL     1       0.343  -0.505  -0.114  1.00  0.00    -0.286 N 
ATOM      3  H1  UNL     1      -0.155  -1.299   0.289  1.00  0.00     0.188 HD
HETATM    4  N2  UNL     1       1.614  -0.489  -0.112  1.00  0.00    -0.279 N 
ATOM      5  H2  UNL     1       2.142  -1.264   0.290  1.00  0.00     0.189 HD
HETATM    6  C6  UNL     1       2.246   0.559  -0.645  1.00  0.00     0.162 A 
HETATM    7  N3  UNL     1       3.533   0.792  -0.755  1.00  0.00    -0.365 N 
ATOM      8  H3  UNL     1       3.893   1.642  -1.189  1.00  0.00     0.162 HD
HETATM    9  S2  UNL     1       0.919   1.531  -1.154  1.00  0.00    -0.027 SA
ENDROOT
BRANCH   1  10
HETATM   10  S1  UNL     1      -2.102   0.785  -0.794  1.00  0.00    -0.103 SA
BRANCH  10  11
HETATM   11  C4  UNL     1      -3.057  -0.567  -0.108  1.00  0.00     0.086 C 
BRANCH  11  12
HETATM   12  C3  UNL     1      -4.518  -0.256  -0.279  1.00  0.00    -0.005 A 
HETATM   13  C1  UNL     1      -4.988   1.032   0.414  1.00  0.00     0.006 A 
HETATM   14  C2  UNL     1      -5.427  -0.314   0.922  1.00  0.00     0.006 A 
ENDBRANCH  11  12
ENDBRANCH  10  11
ENDBRANCH   1  10
BRANCH   7  15
HETATM   15  C7  UNL     1       4.409  -0.228  -0.225  1.00  0.00     0.083 A 
HETATM   16  C8  UNL     1       5.850   0.037  -0.033  1.00  0.00     0.027 A 
HETATM   17  C9  UNL     1       4.897   0.030   1.180  1.00  0.00     0.027 A 
ENDBRANCH   7  15
TORSDOF 4
