REMARK  11 active torsions:
REMARK  status: ('A' for Active; 'I' for Inactive)
REMARK    1  A    between atoms: C1_2  and  C2_4 
REMARK    2  A    between atoms: C2_4  and  C3_5 
REMARK    3  A    between atoms: C2_4  and  N3_12 
REMARK    4  A    between atoms: N2_6  and  C4_8 
REMARK    5  A    between atoms: C4_8  and  C5_10 
REMARK       I    between atoms: N3_12  and  C6_14 
REMARK       I    between atoms: C6_14  and  N4_16 
REMARK    6  A    between atoms: N4_16  and  C7_18 
REMARK    7  A    between atoms: C7_18  and  C8_19 
REMARK    8  A    between atoms: C7_18  and  C13_28 
REMARK    9  A    between atoms: C8_19  and  C9_20 
REMARK   10  A    between atoms: C9_20  and  C10_21 
REMARK   11  A    between atoms: C10_21  and  N5_22 
ROOT
HETATM    1  N3  UNL     1       1.576   0.027  -0.316  1.00  0.00    -0.326 N 
ATOM      2  H3  UNL     1       1.580   0.596  -1.163  1.00  0.00     0.165 HD
HETATM    3  C6  UNL     1       0.413  -0.643   0.066  1.00  0.00     0.317 C 
HETATM    4  O2  UNL     1       0.425  -1.352   1.129  1.00  0.00    -0.247 OA
HETATM    5  N4  UNL     1      -0.762  -0.548  -0.702  1.00  0.00    -0.336 N 
ATOM      6  H4  UNL     1      -0.752   0.022  -1.548  1.00  0.00     0.164 HD
ENDROOT
BRANCH   1   7
HETATM    7  C2  UNL     1       2.815  -0.086   0.511  1.00  0.00     0.213 C 
BRANCH   7   8
HETATM    8  C1  UNL     1       3.106   1.285   0.913  1.00  0.00     0.259 C 
HETATM    9  N1  UNL     1       3.982   1.582   1.986  1.00  0.00    -0.060 NA
HETATM   10  O1  UNL     1       2.577   2.281   0.321  1.00  0.00    -0.274 OA
ENDBRANCH   7   8
BRANCH   7  11
HETATM   11  C3  UNL     1       3.809  -0.755  -0.379  1.00  0.00     0.092 C 
HETATM   12  N2  UNL     1       5.111  -0.992  -0.075  1.00  0.00    -0.370 N 
ATOM     13  H2  UNL     1       5.341  -1.970   0.099  1.00  0.00     0.161 HD
BRANCH  12  14
HETATM   14  C4  UNL     1       6.171  -0.115   0.035  1.00  0.00     0.278 C 
HETATM   15  F1  UNL     1       7.349  -0.958   0.121  1.00  0.00    -0.226 F 
BRANCH  14  16
HETATM   16  C5  UNL     1       6.465   0.655  -1.261  1.00  0.00     0.144 C 
HETATM   17 BR1  UNL     1       7.973   1.834  -0.931  1.00  0.00    -0.092 Br
ENDBRANCH  14  16
ENDBRANCH  12  14
ENDBRANCH   7  11
ENDBRANCH   1   7
BRANCH   5  18
HETATM   18  C7  UNL     1      -2.001  -1.240  -0.328  1.00  0.00     0.119 C 
BRANCH  18  19
HETATM   19  C8  UNL     1      -3.018  -0.203  -0.130  1.00  0.00     0.030 C 
BRANCH  19  20
HETATM   20  C9  UNL     1      -4.390  -0.575   0.263  1.00  0.00     0.041 C 
BRANCH  20  21
HETATM   21  C10 UNL     1      -5.179   0.744   0.399  1.00  0.00     0.124 A 
HETATM   22  C11 UNL     1      -6.658   0.622   0.403  1.00  0.00     0.041 A 
HETATM   23  C12 UNL     1      -5.965   1.283  -0.705  1.00  0.00     0.041 A 
BRANCH  21  24
HETATM   24  N5  UNL     1      -4.644   1.653   1.380  1.00  0.00    -0.070 N 
ATOM     25  H53 UNL     1      -4.560   1.192   2.286  1.00  0.00     0.275 HD
ATOM     26  H52 UNL     1      -3.660   1.843   1.191  1.00  0.00     0.275 HD
ATOM     27  H51 UNL     1      -5.166   2.525   1.470  1.00  0.00     0.275 HD
ENDBRANCH  21  24
ENDBRANCH  20  21
ENDBRANCH  19  20
ENDBRANCH  18  19
BRANCH  18  28
HETATM   28  C13 UNL     1      -2.209  -2.272  -1.373  1.00  0.00     0.201 C 
HETATM   29 CL1  UNL     1      -3.630  -3.288  -1.186  1.00  0.00    -0.106 Cl
HETATM   30 CL2  UNL     1      -2.082  -1.606  -3.025  1.00  0.00    -0.106 Cl
ENDBRANCH  18  28
ENDBRANCH   5  18
TORSDOF 11
