REMARK  13 active torsions:
REMARK  status: ('A' for Active; 'I' for Inactive)
REMARK    1  A    between atoms: N1_2  and  C2_4 
REMARK    2  A    between atoms: C2_4  and  N2_6 
REMARK    3  A    between atoms: C4_8  and  C5_9 
REMARK    4  A    between atoms: C5_9  and  N3_10 
REMARK    5  A    between atoms: C10_15  and  C11_16 
REMARK       I    between atoms: C11_16  and  N4_18 
REMARK    6  A    between atoms: N5_21  and  C14_22 
REMARK    7  A    between atoms: C14_22  and  C15_23 
REMARK    8  A    between atoms: C15_23  and  C16_24 
REMARK    9  A    between atoms: C16_24  and  C17_25 
REMARK   10  A    between atoms: C17_25  and  C18_26 
REMARK       I    between atoms: C18_26  and  N6_28 
REMARK   11  A    between atoms: C22_35  and  C23_36 
REMARK   12  A    between atoms: C23_36  and  C24_37 
REMARK       I    between atoms: C24_37  and  N8_39 
REMARK   13  A    between atoms: N8_39  and  C25_41 
ROOT
HETATM    1  C14 UNL     1      -0.323   0.253  -1.331  1.00  0.00     0.272 C 
ENDROOT
BRANCH   1   2
HETATM    2  N5  UNL     1      -0.747  -1.082  -0.954  1.00  0.00     0.091 N 
HETATM    3  C13 UNL     1      -1.191  -1.114   0.418  1.00  0.00     0.292 C 
HETATM    4  C12 UNL     1      -2.395  -1.992   0.658  1.00  0.00     0.156 C 
HETATM    5  N4  UNL     1      -3.453  -1.583  -0.235  1.00  0.00    -0.347 N 
HETATM    6  C11 UNL     1      -4.814  -1.805   0.079  1.00  0.00     0.242 C 
HETATM    7  C32 UNL     1      -3.076  -0.937  -1.466  1.00  0.00     0.156 C 
HETATM    8  O1  UNL     1      -5.124  -2.370   1.184  1.00  0.00    -0.271 OA
HETATM    9  C31 UNL     1      -1.749  -1.530  -1.887  1.00  0.00     0.292 C 
BRANCH   6  10
HETATM   10  C10 UNL     1      -5.931  -1.425  -0.793  1.00  0.00     0.179 C 
HETATM   11  N2  UNL     1      -7.220  -1.825  -0.228  1.00  0.00    -0.344 N 
HETATM   12  C3  UNL     1      -7.887  -0.659   0.311  1.00  0.00     0.132 C 
HETATM   13  C4  UNL     1      -6.922   0.481   0.188  1.00  0.00     0.032 C 
HETATM   14  C9  UNL     1      -6.112   0.033  -1.019  1.00  0.00     0.043 C 
BRANCH  11  15
HETATM   15  C2  UNL     1      -7.770  -3.136  -0.183  1.00  0.00     0.170 C 
HETATM   16  S1  UNL     1      -9.224  -3.395   0.499  1.00  0.00    -0.041 SA
BRANCH  15  17
HETATM   17  N1  UNL     1      -7.070  -4.229  -0.725  1.00  0.00    -0.371 N 
HETATM   18  C1  UNL     1      -7.630  -5.549  -0.676  1.00  0.00     0.148 C 
ATOM     19  H1  UNL     1      -6.157  -4.082  -1.156  1.00  0.00     0.161 HD
ENDBRANCH  15  17
ENDBRANCH  11  15
BRANCH  13  20
HETATM   20  C5  UNL     1      -7.566   1.781  -0.214  1.00  0.00     0.242 C 
BRANCH  20  21
HETATM   21  N3  UNL     1      -8.560   2.284   0.662  1.00  0.00    -0.078 N 
HETATM   22  C6  UNL     1      -9.870   1.906   0.119  1.00  0.00     0.271 C 
HETATM   23  C7  UNL     1      -8.508   3.753   0.577  1.00  0.00     0.271 C 
HETATM   24  C8  UNL     1      -8.428   1.934   2.040  1.00  0.00     0.271 C 
ENDBRANCH  20  21
ENDBRANCH  13  20
ENDBRANCH   6  10
ENDBRANCH   1   2
BRANCH   1  25
HETATM   25  C15 UNL     1       0.955   0.639  -0.593  1.00  0.00     0.031 C 
BRANCH  25  26
HETATM   26  C16 UNL     1       2.008  -0.355  -0.998  1.00  0.00     0.011 C 
BRANCH  26  27
HETATM   27  C17 UNL     1       3.299   0.007  -0.254  1.00  0.00     0.103 C 
BRANCH  27  28
HETATM   28  C18 UNL     1       3.771   1.350  -0.629  1.00  0.00     0.220 C 
HETATM   29  O2  UNL     1       3.444   1.838  -1.767  1.00  0.00    -0.273 OA
HETATM   30  N6  UNL     1       4.580   2.120   0.239  1.00  0.00    -0.337 N 
HETATM   31  C19 UNL     1       4.913   3.465  -0.256  1.00  0.00     0.146 C 
HETATM   32  C22 UNL     1       5.026   1.708   1.508  1.00  0.00     0.188 C 
HETATM   33  C20 UNL     1       4.478   4.427   0.855  1.00  0.00     0.142 C 
HETATM   34  N7  UNL     1       5.395   4.145   1.957  1.00  0.00    -0.358 N 
HETATM   35  C21 UNL     1       5.501   2.818   2.388  1.00  0.00     0.241 C 
ATOM     36  H7  UNL     1       5.938   4.888   2.396  1.00  0.00     0.162 HD
HETATM   37  O3  UNL     1       5.983   2.521   3.498  1.00  0.00    -0.271 OA
BRANCH  32  38
HETATM   38  C23 UNL     1       5.928   0.543   1.542  1.00  0.00     0.138 C 
BRANCH  38  39
HETATM   39  C24 UNL     1       7.210   0.611   0.844  1.00  0.00     0.220 C 
HETATM   40  O4  UNL     1       7.670   1.615   0.285  1.00  0.00    -0.274 OA
HETATM   41  N8  UNL     1       8.021  -0.588   0.790  1.00  0.00    -0.356 N 
ATOM     42  H8  UNL     1       7.701  -1.452   1.229  1.00  0.00     0.162 HD
BRANCH  41  43
HETATM   43  C25 UNL     1       9.286  -0.538   0.106  1.00  0.00     0.084 C 
HETATM   44  C26 UNL     1      10.386  -1.151   0.919  1.00  0.00     0.025 C 
HETATM   45  C27 UNL     1      11.195  -2.125   0.107  1.00  0.00     0.002 C 
HETATM   46  C28 UNL     1      11.552  -1.430  -1.204  1.00  0.00     0.000 C 
HETATM   47  C29 UNL     1      10.327  -1.123  -2.019  1.00  0.00     0.002 C 
HETATM   48  C30 UNL     1       9.080  -1.334  -1.195  1.00  0.00     0.025 C 
ENDBRANCH  41  43
ENDBRANCH  38  39
ENDBRANCH  32  38
ENDBRANCH  27  28
ENDBRANCH  26  27
ENDBRANCH  25  26
ENDBRANCH   1  25
TORSDOF 13
