REMARK  12 active torsions:
REMARK  status: ('A' for Active; 'I' for Inactive)
REMARK    1  A    between atoms: C2_2  and  S1_3 
REMARK    2  A    between atoms: S1_3  and  C4_5 
REMARK    3  A    between atoms: C4_5  and  C5_6 
REMARK    4  A    between atoms: C5_6  and  N1_7 
REMARK    5  A    between atoms: N1_7  and  C8_10 
REMARK    6  A    between atoms: C8_10  and  C9_11 
REMARK    7  A    between atoms: C9_11  and  N2_12 
REMARK    8  A    between atoms: C12_15  and  N3_16 
REMARK       I    between atoms: N3_16  and  C13_18 
REMARK    9  A    between atoms: C13_18  and  C14_20 
REMARK   10  A    between atoms: C14_20  and  C15_21 
REMARK   11  A    between atoms: C27_38  and  C28_39 
REMARK   12  A    between atoms: C28_39  and  C29_40 
ROOT
HETATM    1  C15 UNL     1      -3.152  -0.210   0.489  1.00  0.00     0.086 C 
HETATM    2  C16 UNL     1      -2.924   1.022   1.354  1.00  0.00     0.014 C 
HETATM    3  C17 UNL     1      -3.750   2.192   0.873  1.00  0.00     0.002 C 
HETATM    4  C18 UNL     1      -3.997   3.121   2.023  1.00  0.00     0.020 C 
HETATM    5  C19 UNL     1      -5.433   3.127   2.493  1.00  0.00     0.125 C 
HETATM    6  N4  UNL     1      -6.356   3.586   1.473  1.00  0.00    -0.356 N 
HETATM    7  C20 UNL     1      -5.889   4.698   0.632  1.00  0.00     0.152 C 
HETATM    8  C21 UNL     1      -7.646   3.012   1.274  1.00  0.00     0.219 C 
HETATM    9  O2  UNL     1      -8.104   3.048   0.099  1.00  0.00    -0.273 OA
HETATM   10  C22 UNL     1      -8.441   2.396   2.368  1.00  0.00     0.103 C 
HETATM   11  C23 UNL     1      -8.313   0.908   2.413  1.00  0.00     0.011 C 
HETATM   12  C24 UNL     1      -9.409   0.192   1.670  1.00  0.00     0.020 C 
HETATM   13  C25 UNL     1      -8.862  -1.011   0.891  1.00  0.00     0.122 C 
HETATM   14  N5  UNL     1      -8.193  -0.585  -0.312  1.00  0.00    -0.359 N 
ATOM     15  H5  UNL     1      -8.748  -0.048  -0.978  1.00  0.00     0.162 HD
HETATM   16  C26 UNL     1      -6.856  -0.833  -0.662  1.00  0.00     0.240 C 
HETATM   17  O3  UNL     1      -6.317  -0.070  -1.517  1.00  0.00    -0.271 OA
HETATM   18  C27 UNL     1      -6.014  -1.922  -0.111  1.00  0.00     0.177 C 
HETATM   19  N6  UNL     1      -5.330  -1.476   1.076  1.00  0.00    -0.347 N 
ATOM     20  H6  UNL     1      -5.918  -1.373   1.903  1.00  0.00     0.163 HD
HETATM   21  C32 UNL     1      -3.989  -1.165   1.262  1.00  0.00     0.223 C 
HETATM   22  O4  UNL     1      -3.348  -1.748   2.209  1.00  0.00    -0.273 OA
ENDROOT
BRANCH   1  23
HETATM   23  C14 UNL     1      -1.842  -0.870   0.226  1.00  0.00     0.117 C 
BRANCH  23  24
HETATM   24  C13 UNL     1      -0.845  -0.070  -0.482  1.00  0.00     0.218 C 
HETATM   25  N3  UNL     1       0.445  -0.601  -0.713  1.00  0.00    -0.356 N 
ATOM     26  H3  UNL     1       0.660  -1.540  -0.377  1.00  0.00     0.162 HD
HETATM   27  O1  UNL     1      -1.119   1.074  -0.886  1.00  0.00    -0.274 OA
BRANCH  25  28
HETATM   28  C12 UNL     1       1.481   0.153  -1.418  1.00  0.00     0.087 C 
HETATM   29  C11 UNL     1       1.962  -0.662  -2.621  1.00  0.00     0.055 C 
HETATM   30  C10 UNL     1       3.411  -0.388  -2.882  1.00  0.00     0.274 C 
HETATM   31  N2  UNL     1       4.267  -0.913  -1.825  1.00  0.00     0.090 N 
HETATM   32  C34 UNL     1       3.545  -0.923  -0.591  1.00  0.00     0.274 C 
HETATM   33  C33 UNL     1       2.644   0.304  -0.461  1.00  0.00     0.055 C 
BRANCH  31  34
HETATM   34  C9  UNL     1       5.503  -0.198  -1.798  1.00  0.00     0.300 C 
BRANCH  34  35
HETATM   35  C8  UNL     1       6.480  -0.667  -0.761  1.00  0.00     0.266 C 
BRANCH  35  36
HETATM   36  N1  UNL     1       7.717   0.109  -0.831  1.00  0.00    -0.072 N 
HETATM   37  C6  UNL     1       8.158   0.094  -2.195  1.00  0.00     0.272 C 
HETATM   38  C7  UNL     1       7.552   1.439  -0.286  1.00  0.00     0.272 C 
BRANCH  36  39
HETATM   39  C5  UNL     1       8.710  -0.564  -0.009  1.00  0.00     0.245 C 
BRANCH  39  40
HETATM   40  C4  UNL     1       9.891   0.334   0.255  1.00  0.00     0.091 C 
BRANCH  40  41
HETATM   41  S1  UNL     1      11.100  -0.516   1.276  1.00  0.00    -0.223 SA
HETATM   42  C3  UNL     1      10.346  -0.788   2.871  1.00  0.00     0.078 C 
BRANCH  41  43
HETATM   43  C2  UNL     1      12.448   0.612   1.534  1.00  0.00     0.058 C 
HETATM   44  C1  UNL     1      13.129   0.878   0.203  1.00  0.00     0.015 C 
ENDBRANCH  41  43
ENDBRANCH  40  41
ENDBRANCH  39  40
ENDBRANCH  36  39
ENDBRANCH  35  36
ENDBRANCH  34  35
ENDBRANCH  31  34
ENDBRANCH  25  28
ENDBRANCH  23  24
ENDBRANCH   1  23
BRANCH  18  45
HETATM   45  C28 UNL     1      -5.108  -2.526  -1.149  1.00  0.00     0.038 C 
BRANCH  45  46
HETATM   46  C29 UNL     1      -5.921  -3.119  -2.302  1.00  0.00    -0.020 C 
HETATM   47  C30 UNL     1      -6.857  -4.204  -1.785  1.00  0.00     0.009 C 
HETATM   48  C31 UNL     1      -4.936  -3.839  -3.223  1.00  0.00     0.009 C 
ENDBRANCH  45  46
ENDBRANCH  18  45
TORSDOF 12
