REMARK  13 active torsions:
REMARK  status: ('A' for Active; 'I' for Inactive)
REMARK    1  A    between atoms: C2_2  and  C3_3 
REMARK    2  A    between atoms: C3_3  and  C5_5 
REMARK       I    between atoms: C5_5  and  N1_7 
REMARK       I    between atoms: N2_10  and  C8_11 
REMARK    3  A    between atoms: C8_11  and  C9_13 
REMARK    4  A    between atoms: C9_13  and  C10_14 
REMARK    5  A    between atoms: C9_13  and  N3_18 
REMARK    6  A    between atoms: C10_14  and  C11_15 
REMARK       I    between atoms: N3_18  and  C14_20 
REMARK    7  A    between atoms: C14_20  and  C15_22 
REMARK    8  A    between atoms: C15_22  and  N4_23 
REMARK    9  A    between atoms: C15_22  and  C24_38 
REMARK       I    between atoms: N4_23  and  C16_25 
REMARK   10  A    between atoms: C16_25  and  C17_27 
REMARK   11  A    between atoms: C17_27  and  N5_29 
REMARK       I    between atoms: N5_29  and  C19_31 
REMARK   12  A    between atoms: C19_31  and  O6_33 
REMARK   13  A    between atoms: O6_33  and  C20_34 
ROOT
HETATM    1  N3  UNL     1       0.318  -2.101  -0.524  1.00  0.00    -0.343 N 
ATOM      2  H3  UNL     1       0.098  -3.089  -0.647  1.00  0.00     0.163 HD
HETATM    3  C14 UNL     1      -0.711  -1.175  -0.224  1.00  0.00     0.265 C 
HETATM    4  O3  UNL     1      -0.302   0.044  -0.074  1.00  0.00    -0.266 OA
ENDROOT
BRANCH   1   5
HETATM    5  C9  UNL     1       1.721  -1.626  -0.659  1.00  0.00     0.177 C 
BRANCH   5   6
HETATM    6  C8  UNL     1       2.308  -1.843   0.721  1.00  0.00     0.243 C 
HETATM    7  N2  UNL     1       3.496  -1.136   1.127  1.00  0.00    -0.336 N 
HETATM    8  C7  UNL     1       4.102  -1.346   2.403  1.00  0.00     0.147 C 
HETATM    9  C28 UNL     1       4.034  -0.160   0.223  1.00  0.00     0.176 C 
HETATM   10  C6  UNL     1       5.587  -1.297   2.454  1.00  0.00     0.155 C 
HETATM   11  N1  UNL     1       6.093  -0.204   1.623  1.00  0.00    -0.285 N 
HETATM   12  C5  UNL     1       7.106   0.630   2.139  1.00  0.00     0.230 C 
HETATM   13  C30 UNL     1       5.520  -0.031   0.336  1.00  0.00     0.249 C 
HETATM   14  O1  UNL     1       7.556   0.414   3.300  1.00  0.00    -0.273 OA
HETATM   15  O7  UNL     1       6.245   0.218  -0.652  1.00  0.00    -0.271 OA
HETATM   16  C29 UNL     1       3.481   1.241   0.578  1.00  0.00     0.042 C 
HETATM   17  O2  UNL     1       1.800  -2.623   1.557  1.00  0.00    -0.271 OA
BRANCH  12  18
HETATM   18  C3  UNL     1       7.673   1.750   1.392  1.00  0.00     0.074 C 
HETATM   19  C4  UNL     1       8.970   1.390   0.700  1.00  0.00     0.020 C 
BRANCH  18  20
HETATM   20  C2  UNL     1       7.908   2.937   2.326  1.00  0.00     0.009 C 
HETATM   21  C1  UNL     1       8.921   2.670   3.385  1.00  0.00     0.006 C 
ENDBRANCH  18  20
ENDBRANCH  12  18
ENDBRANCH   5   6
BRANCH   5  22
HETATM   22  C10 UNL     1       2.450  -2.511  -1.599  1.00  0.00     0.038 C 
BRANCH  22  23
HETATM   23  C11 UNL     1       2.060  -2.458  -3.025  1.00  0.00    -0.020 C 
HETATM   24  C12 UNL     1       0.661  -2.804  -3.378  1.00  0.00     0.009 C 
HETATM   25  C13 UNL     1       2.963  -3.424  -3.808  1.00  0.00     0.009 C 
ENDBRANCH  22  23
ENDBRANCH   5  22
ENDBRANCH   1   5
BRANCH   3  26
HETATM   26  C15 UNL     1      -2.137  -1.471  -0.075  1.00  0.00     0.087 C 
BRANCH  26  27
HETATM   27  N4  UNL     1      -2.906  -0.342   0.366  1.00  0.00    -0.324 N 
HETATM   28  C16 UNL     1      -3.719   0.446  -0.457  1.00  0.00     0.244 C 
HETATM   29  O4  UNL     1      -3.835   0.219  -1.669  1.00  0.00    -0.271 OA
ATOM     30  H4  UNL     1      -2.856  -0.095   1.354  1.00  0.00     0.169 HD
BRANCH  28  31
HETATM   31  C17 UNL     1      -4.469   1.588   0.135  1.00  0.00     0.175 C 
HETATM   32  C18 UNL     1      -3.475   2.460   0.877  1.00  0.00     0.042 C 
BRANCH  31  33
HETATM   33  N5  UNL     1      -5.251   2.326  -0.800  1.00  0.00    -0.324 N 
HETATM   34  C19 UNL     1      -6.656   2.456  -0.650  1.00  0.00     0.362 C 
HETATM   35  O5  UNL     1      -7.266   1.904   0.331  1.00  0.00    -0.238 OA
ATOM     36  H5  UNL     1      -4.791   2.770  -1.594  1.00  0.00     0.165 HD
BRANCH  34  37
HETATM   37  O6  UNL     1      -7.474   3.160  -1.506  1.00  0.00    -0.294 OA
BRANCH  37  38
HETATM   38  C20 UNL     1      -8.844   3.257  -1.329  1.00  0.00     0.061 C 
HETATM   39  C21 UNL     1      -9.177   3.874   0.018  1.00  0.00     0.046 C 
HETATM   40  C22 UNL     1      -9.331   4.288  -2.366  1.00  0.00     0.046 C 
HETATM   41  C23 UNL     1      -9.640   2.025  -1.511  1.00  0.00     0.046 C 
ENDBRANCH  37  38
ENDBRANCH  34  37
ENDBRANCH  31  33
ENDBRANCH  28  31
ENDBRANCH  26  27
BRANCH  26  42
HETATM   42  C24 UNL     1      -2.514  -2.746   0.591  1.00  0.00    -0.003 C 
HETATM   43  C25 UNL     1      -1.994  -2.923   1.989  1.00  0.00     0.021 C 
HETATM   44  C26 UNL     1      -4.060  -2.636   0.791  1.00  0.00     0.021 C 
HETATM   45  C27 UNL     1      -2.328  -3.929  -0.295  1.00  0.00     0.021 C 
ENDBRANCH  26  42
ENDBRANCH   3  26
TORSDOF 13
