REMARK  5 active torsions:
REMARK  status: ('A' for Active; 'I' for Inactive)
REMARK    1  A    between atoms: C2_2  and  C3_3 
REMARK    2  A    between atoms: C3_3  and  N1_4 
REMARK    3  A    between atoms: N1_4  and  C4_6 
REMARK    4  A    between atoms: C4_6  and  C5_7 
REMARK    5  A    between atoms: C5_7  and  N2_8 
ROOT
HETATM    1  N2  UNL     1      -1.605  -0.211  -0.542  1.00  0.00     0.044 N 
HETATM    2  C6  UNL     1      -1.199  -1.436   0.069  1.00  0.00     0.304 A 
HETATM    3  C7  UNL     1      -1.976  -0.354   0.817  1.00  0.00     0.280 A 
HETATM    4  C8  UNL     1      -3.440  -0.520   0.859  1.00  0.00     0.114 A 
HETATM    5  N3  UNL     1      -3.873  -0.528  -0.347  1.00  0.00    -0.291 N 
ATOM      6  H3  UNL     1      -4.854  -0.630  -0.607  1.00  0.00     0.183 HD
HETATM    7  N4  UNL     1      -2.837  -0.381  -1.249  1.00  0.00     0.073 NA
ENDROOT
BRANCH   1   8
HETATM    8  C5  UNL     1      -0.744   0.774  -1.058  1.00  0.00     0.282 C 
BRANCH   8   9
HETATM    9  C4  UNL     1       0.156   1.527  -0.169  1.00  0.00     0.144 C 
BRANCH   9  10
HETATM   10  N1  UNL     1       1.146   0.804   0.553  1.00  0.00    -0.417 N 
ATOM     11  H1  UNL     1       1.102   0.704   1.567  1.00  0.00     0.153 HD
BRANCH  10  12
HETATM   12  C3  UNL     1       2.201   0.228  -0.208  1.00  0.00     0.140 C 
BRANCH  12  13
HETATM   13  C2  UNL     1       3.191  -0.492   0.609  1.00  0.00    -0.018 C 
HETATM   14  C1  UNL     1       4.447  -0.117   0.606  1.00  0.00     0.008 C 
ENDBRANCH  12  13
ENDBRANCH  10  12
ENDBRANCH   9  10
ENDBRANCH   8   9
ENDBRANCH   1   8
TORSDOF 5
