REMARK  3 active torsions:
REMARK  status: ('A' for Active; 'I' for Inactive)
REMARK    1  A    between atoms: N1_1  and  N2_4 
REMARK    2  A    between atoms: N3_7  and  C3_8 
REMARK    3  A    between atoms: C3_8  and  C4_9 
ROOT
HETATM    1  N2  UNL     1       3.147   0.605  -0.298  1.00  0.00    -0.232 NA
HETATM    2  C1  UNL     1       3.300  -0.786   0.075  1.00  0.00     0.133 C 
HETATM    3  C2  UNL     1       1.977  -1.419  -0.030  1.00  0.00     0.143 C 
HETATM    4  N3  UNL     1       0.813  -0.547  -0.088  1.00  0.00    -0.370 N 
HETATM    5  C8  UNL     1       0.924   0.655   0.623  1.00  0.00     0.079 C 
HETATM    6  C9  UNL     1       2.345   1.166   0.771  1.00  0.00     0.157 C 
ENDROOT
BRANCH   4   7
HETATM    7  C3  UNL     1      -0.377  -1.282  -0.062  1.00  0.00     0.079 C 
BRANCH   7   8
HETATM    8  C4  UNL     1      -1.597  -0.517  -0.441  1.00  0.00     0.095 C 
HETATM    9  C5  UNL     1      -2.827  -1.458  -0.435  1.00  0.00     0.094 C 
HETATM   10  S1  UNL     1      -4.066  -0.523  -1.417  1.00  0.00    -0.167 SA
HETATM   11  C6  UNL     1      -4.147   1.188  -0.746  1.00  0.00     0.084 C 
HETATM   12  C7  UNL     1      -3.703   1.133   0.704  1.00  0.00     0.084 C 
HETATM   13  S2  UNL     1      -1.916   0.804   0.768  1.00  0.00    -0.157 SA
ENDBRANCH   7   8
ENDBRANCH   4   7
BRANCH   1  14
HETATM   14  N1  UNL     1       4.383   1.183  -0.454  1.00  0.00    -0.363 NA
ATOM     15  H12 UNL     1       4.947   0.788  -1.206  1.00  0.00     0.171 HD
ATOM     16  H11 UNL     1       4.275   2.163  -0.717  1.00  0.00     0.171 HD
ENDBRANCH   1  14
TORSDOF 3
