REMARK  5 active torsions:
REMARK  status: ('A' for Active; 'I' for Inactive)
REMARK    1  A    between atoms: C2_2  and  N1_3 
REMARK    2  A    between atoms: C3_4  and  C4_5 
REMARK    3  A    between atoms: C4_5  and  C5_6 
REMARK    4  A    between atoms: C11_12  and  N2_13 
REMARK       I    between atoms: N2_13  and  C12_15 
REMARK    5  A    between atoms: C12_15  and  C13_17 
ROOT
HETATM    1  N1  UNL     1      -1.793   2.683   0.959  1.00  0.00    -0.267 N 
HETATM    2  C3  UNL     1      -1.198   1.449   0.523  1.00  0.00     0.130 C 
HETATM    3  C11 UNL     1       0.237   1.485   0.250  1.00  0.00     0.147 C 
HETATM    4  C18 UNL     1       1.078   2.575   0.788  1.00  0.00     0.101 C 
HETATM    5  N3  UNL     1       0.624   3.448   1.790  1.00  0.00    -0.280 N 
ATOM      6  H3  UNL     1       1.212   4.194   2.162  1.00  0.00     0.179 HD
HETATM    7  S1  UNL     1      -0.967   3.190   2.349  1.00  0.00     0.324 S 
HETATM    8  O3  UNL     1      -0.927   2.045   3.320  1.00  0.00    -0.182 OA
HETATM    9  O4  UNL     1      -1.507   4.371   3.041  1.00  0.00    -0.182 OA
ENDROOT
BRANCH   3  10
HETATM   10  N2  UNL     1       0.857   0.217   0.690  1.00  0.00    -0.348 N 
HETATM   11  C12 UNL     1       1.709  -0.553  -0.130  1.00  0.00     0.247 C 
HETATM   12  O1  UNL     1       1.932  -0.100  -1.298  1.00  0.00    -0.271 OA
ATOM     13  H2  UNL     1       0.659  -0.118   1.633  1.00  0.00     0.163 HD
BRANCH  11  14
HETATM   14  C13 UNL     1       2.355  -1.810   0.228  1.00  0.00     0.213 C 
HETATM   15  C14 UNL     1       3.850  -1.741   0.025  1.00  0.00     0.042 C 
HETATM   16  C15 UNL     1       4.599  -1.606   1.327  1.00  0.00     0.005 C 
HETATM   17  C16 UNL     1       4.180  -2.580   2.374  1.00  0.00     0.026 C 
HETATM   18  C17 UNL     1       2.826  -3.116   2.067  1.00  0.00     0.168 C 
HETATM   19  O2  UNL     1       2.006  -2.154   1.517  1.00  0.00    -0.376 OA
ENDBRANCH  11  14
ENDBRANCH   3  10
BRANCH   2  20
HETATM   20  C4  UNL     1      -2.091   0.925  -0.552  1.00  0.00     0.033 C 
BRANCH  20  21
HETATM   21  C5  UNL     1      -1.776  -0.371  -1.195  1.00  0.00    -0.013 C 
HETATM   22  C6  UNL     1      -2.917  -0.521  -2.256  1.00  0.00     0.005 C 
HETATM   23  C7  UNL     1      -2.593  -1.678  -3.159  1.00  0.00     0.000 C 
HETATM   24  C8  UNL     1      -2.553  -2.933  -2.350  1.00  0.00     0.000 C 
HETATM   25  C9  UNL     1      -1.680  -2.802  -1.124  1.00  0.00     0.000 C 
HETATM   26  C10 UNL     1      -2.027  -1.582  -0.310  1.00  0.00     0.005 C 
ENDBRANCH  20  21
ENDBRANCH   2  20
BRANCH   1  27
HETATM   27  C2  UNL     1      -2.214   3.631   0.051  1.00  0.00     0.074 C 
HETATM   28  C1  UNL     1      -1.294   4.157  -0.988  1.00  0.00     0.055 C 
ENDBRANCH   1  27
TORSDOF 5
