REMARK  7 active torsions:
REMARK  status: ('A' for Active; 'I' for Inactive)
REMARK    1  A    between atoms: C2_3  and  C3_4 
REMARK    2  A    between atoms: C13_14  and  C14_15 
REMARK    3  A    between atoms: C14_15  and  N2_18 
REMARK    4  A    between atoms: N2_18  and  S1_20 
REMARK    5  A    between atoms: C18_24  and  C19_25 
REMARK    6  A    between atoms: C19_25  and  N3_26 
REMARK    7  A    between atoms: N3_26  and  C20_29 
ROOT
HETATM    1  C1  UNL     1      -1.453   2.225  -0.105  1.00  0.00     0.156 C 
HETATM    2  N1  UNL     1      -0.587   1.050  -0.133  1.00  0.00    -0.355 N 
HETATM    3  C2  UNL     1      -1.039  -0.235  -0.238  1.00  0.00     0.021 A 
HETATM    4  C12 UNL     1       0.042  -1.065  -0.255  1.00  0.00     0.037 A 
HETATM    5  C13 UNL     1       1.196  -0.317  -0.157  1.00  0.00    -0.004 A 
HETATM    6  C18 UNL     1       0.742   1.010  -0.082  1.00  0.00     0.046 A 
ENDROOT
BRANCH   3   7
HETATM    7  C3  UNL     1      -2.441  -0.679  -0.317  1.00  0.00     0.003 C 
HETATM    8  C4  UNL     1      -3.263  -0.371   0.893  1.00  0.00     0.020 C 
HETATM    9  C5  UNL     1      -4.660  -0.905   0.794  1.00  0.00    -0.013 C 
HETATM   10  C6  UNL     1      -4.614  -2.438   0.659  1.00  0.00     0.010 C 
HETATM   11  C10 UNL     1      -5.262  -0.553  -0.555  1.00  0.00     0.010 C 
HETATM   12  C7  UNL     1      -3.846  -2.531  -0.654  1.00  0.00    -0.009 C 
HETATM   13  C8  UNL     1      -2.400  -2.236  -0.322  1.00  0.00     0.021 C 
HETATM   14  C9  UNL     1      -4.352  -1.385  -1.465  1.00  0.00    -0.009 C 
HETATM   15  C11 UNL     1      -3.101  -0.503  -1.637  1.00  0.00     0.021 C 
ENDBRANCH   3   7
BRANCH   6  16
HETATM   16  C19 UNL     1       1.678   2.177   0.038  1.00  0.00     0.290 C 
BRANCH  16  17
HETATM   17  N3  UNL     1       1.045   3.467   0.088  1.00  0.00    -0.066 N 
ATOM     18  H32 UNL     1       0.388   3.592  -0.682  1.00  0.00     0.278 HD
ATOM     19  H31 UNL     1       0.388   3.532   0.866  1.00  0.00     0.278 HD
BRANCH  17  20
HETATM   20  C20 UNL     1       2.040   4.547   0.130  1.00  0.00     0.186 A 
HETATM   21  C21 UNL     1       2.976   4.701   1.244  1.00  0.00     0.035 A 
HETATM   22  C22 UNL     1       3.452   4.249  -0.094  1.00  0.00     0.035 A 
ENDBRANCH  17  20
ENDBRANCH  16  17
ENDBRANCH   6  16
BRANCH   5  23
HETATM   23  C14 UNL     1       2.596  -0.821  -0.225  1.00  0.00     0.062 C 
HETATM   24  C15 UNL     1       3.102  -0.388  -1.633  1.00  0.00     0.044 C 
HETATM   25  C16 UNL     1       3.526  -0.174   0.728  1.00  0.00     0.044 C 
BRANCH  23  26
HETATM   26  N2  UNL     1       2.635  -2.243  -0.240  1.00  0.00    -0.306 N 
ATOM     27  H2  UNL     1       2.728  -2.740  -1.126  1.00  0.00     0.173 HD
BRANCH  26  28
HETATM   28  S1  UNL     1       2.528  -3.105   1.195  1.00  0.00     0.223 S 
HETATM   29  C17 UNL     1       3.868  -2.803   2.344  1.00  0.00     0.185 C 
HETATM   30  O1  UNL     1       2.704  -4.584   0.839  1.00  0.00    -0.206 OA
HETATM   31  O2  UNL     1       1.219  -3.042   1.919  1.00  0.00    -0.206 OA
ENDBRANCH  26  28
ENDBRANCH  23  26
ENDBRANCH   5  23
TORSDOF 7
