REMARK  3 active torsions:
REMARK  status: ('A' for Active; 'I' for Inactive)
REMARK    1  A    between atoms: N1_2  and  N2_4 
REMARK    2  A    between atoms: N2_4  and  N3_6 
REMARK    3  A    between atoms: N3_6  and  C2_8 
ROOT
HETATM    1  C2  UNL     1      -0.435  -0.525   0.247  1.00  0.00     0.122 A 
HETATM    2  C3  UNL     1      -1.014  -1.201   1.304  1.00  0.00     0.053 A 
HETATM    3  C4  UNL     1      -2.368  -0.911   1.309  1.00  0.00     0.049 A 
HETATM    4  C5  UNL     1      -2.554  -0.051   0.227  1.00  0.00     0.117 A 
HETATM    5  N4  UNL     1      -3.819   0.494  -0.131  1.00  0.00    -0.083 NA
HETATM    6  N5  UNL     1      -1.397   0.170  -0.396  1.00  0.00    -0.330 N 
ATOM      7  H5  UNL     1      -1.262   0.761  -1.216  1.00  0.00     0.168 HD
ENDROOT
BRANCH   1   8
HETATM    8  N3  UNL     1       0.952  -0.558  -0.106  1.00  0.00    -0.271 N 
ATOM      9  H3  UNL     1       1.456  -1.445  -0.086  1.00  0.00     0.190 HD
BRANCH   8  10
HETATM   10  N2  UNL     1       1.570   0.515  -0.448  1.00  0.00    -0.246 N 
ATOM     11  H2  UNL     1       1.095   1.417  -0.478  1.00  0.00     0.208 HD
BRANCH  10  12
HETATM   12  N1  UNL     1       2.910   0.393  -0.774  1.00  0.00    -0.326 N 
HETATM   13  C1  UNL     1       3.906   0.568   0.246  1.00  0.00     0.169 C 
ATOM     14  H1  UNL     1       3.188   0.180  -1.732  1.00  0.00     0.181 HD
ENDBRANCH  10  12
ENDBRANCH   8  10
ENDBRANCH   1   8
TORSDOF 3
