REMARK  15 active torsions:
REMARK  status: ('A' for Active; 'I' for Inactive)
REMARK    1  A    between atoms: C2_2  and  C3_3 
REMARK    2  A    between atoms: C3_3  and  C4_4 
REMARK    3  A    between atoms: C4_4  and  C5_5 
REMARK    4  A    between atoms: C5_5  and  N1_6 
REMARK    5  A    between atoms: C5_5  and  C20_23 
REMARK       I    between atoms: N1_6  and  C6_7 
REMARK    6  A    between atoms: C6_7  and  C7_9 
REMARK    7  A    between atoms: N2_13  and  C11_14 
REMARK    8  A    between atoms: C11_14  and  C12_15 
REMARK    9  A    between atoms: C12_15  and  C13_16 
REMARK   10  A    between atoms: C20_23  and  C21_25 
REMARK   11  A    between atoms: C21_25  and  N3_26 
REMARK       I    between atoms: N3_26  and  C22_28 
REMARK   12  A    between atoms: C22_28  and  C23_30 
REMARK   13  A    between atoms: C23_30  and  N4_31 
REMARK   14  A    between atoms: C23_30  and  C35_47 
REMARK       I    between atoms: N4_31  and  C24_33 
REMARK       I    between atoms: C24_33  and  N5_35 
REMARK   15  A    between atoms: N5_35  and  C25_37 
ROOT
HETATM    1  C21 UNL     1       0.205   1.460   0.092  1.00  0.00     0.149 C 
ENDROOT
BRANCH   1   2
HETATM    2  C20 UNL     1      -0.561   0.331  -0.396  1.00  0.00     0.223 C 
HETATM    3  O2  UNL     1      -0.356  -0.321  -1.373  1.00  0.00    -0.284 OA
BRANCH   2   4
HETATM    4  C5  UNL     1      -1.805  -0.122   0.444  1.00  0.00     0.140 C 
BRANCH   4   5
HETATM    5  C4  UNL     1      -1.495   0.271   1.870  1.00  0.00     0.081 C 
BRANCH   5   6
HETATM    6  C3  UNL     1      -1.981  -0.722   2.879  1.00  0.00     0.033 C 
BRANCH   6   7
HETATM    7  C2  UNL     1      -1.489  -0.328   4.235  1.00  0.00    -0.037 C 
HETATM    8  C1  UNL     1      -0.746  -1.149   4.920  1.00  0.00     0.007 C 
ENDBRANCH   6   7
ENDBRANCH   5   6
ENDBRANCH   4   5
BRANCH   4   9
HETATM    9  N1  UNL     1      -2.983  -0.250  -0.030  1.00  0.00    -0.369 NA
HETATM   10  C6  UNL     1      -4.343  -0.396  -0.584  1.00  0.00     0.325 C 
HETATM   11  O1  UNL     1      -4.589  -0.256  -1.746  1.00  0.00    -0.255 OA
BRANCH  10  12
HETATM   12  C7  UNL     1      -5.411  -0.700   0.357  1.00  0.00     0.329 C 
HETATM   13  C8  UNL     1      -6.012  -2.091   0.289  1.00  0.00     0.049 C 
HETATM   14  C9  UNL     1      -6.998  -1.934   1.468  1.00  0.00     0.033 C 
HETATM   15  C10 UNL     1      -7.078  -0.454   1.728  1.00  0.00     0.273 C 
HETATM   16  N2  UNL     1      -6.615   0.050   0.346  1.00  0.00     0.104 N 
BRANCH  16  17
HETATM   17  C11 UNL     1      -7.734  -0.371  -0.420  1.00  0.00     0.283 C 
BRANCH  17  18
HETATM   18  C12 UNL     1      -8.824   0.701  -0.420  1.00  0.00    -0.010 A 
HETATM   19  C18 UNL     1      -8.370   2.088  -0.929  1.00  0.00     0.012 A 
HETATM   20  C19 UNL     1      -8.885   1.860   0.440  1.00  0.00     0.012 A 
BRANCH  18  21
HETATM   21  C13 UNL     1     -10.163   0.276  -1.045  1.00  0.00    -0.004 C 
HETATM   22  C14 UNL     1     -10.008  -0.959  -1.906  1.00  0.00     0.005 C 
HETATM   23  C15 UNL     1     -11.332  -0.979  -2.651  1.00  0.00     0.000 C 
HETATM   24  C16 UNL     1     -11.839   0.475  -2.673  1.00  0.00     0.000 C 
HETATM   25  C17 UNL     1     -10.673   1.287  -2.064  1.00  0.00     0.005 C 
ENDBRANCH  18  21
ENDBRANCH  17  18
ENDBRANCH  16  17
ENDBRANCH  10  12
ENDBRANCH   4   9
ENDBRANCH   2   4
ENDBRANCH   1   2
BRANCH   1  26
HETATM   26  N3  UNL     1       1.578   1.398   0.365  1.00  0.00    -0.331 N 
HETATM   27  C22 UNL     1       2.758   1.132  -0.342  1.00  0.00     0.244 C 
HETATM   28  O3  UNL     1       2.758   0.752  -1.535  1.00  0.00    -0.271 OA
ATOM     29  H3  UNL     1       1.771   1.602   1.346  1.00  0.00     0.168 HD
BRANCH  27  30
HETATM   30  C23 UNL     1       4.053   1.321   0.356  1.00  0.00     0.182 C 
BRANCH  30  31
HETATM   31  N4  UNL     1       5.222   0.734  -0.024  1.00  0.00    -0.329 N 
HETATM   32  C24 UNL     1       6.357   0.826  -0.874  1.00  0.00     0.317 C 
HETATM   33  O4  UNL     1       6.430   1.678  -1.761  1.00  0.00    -0.247 OA
HETATM   34  N5  UNL     1       7.407  -0.129  -0.592  1.00  0.00    -0.334 N 
ATOM     35  H5  UNL     1       7.171  -0.771   0.165  1.00  0.00     0.165 HD
ATOM     36  H4  UNL     1       5.324  -0.119   0.525  1.00  0.00     0.165 HD
BRANCH  34  37
HETATM   37  C25 UNL     1       8.688  -0.363  -1.139  1.00  0.00     0.035 C 
HETATM   38  C26 UNL     1       8.818  -0.733  -2.558  1.00  0.00     0.035 C 
HETATM   39  C27 UNL     1      10.249  -1.126  -2.866  1.00  0.00    -0.012 C 
HETATM   40  C28 UNL     1      10.777  -2.231  -2.001  1.00  0.00     0.009 C 
HETATM   41  C32 UNL     1      11.187   0.052  -2.649  1.00  0.00     0.009 C 
HETATM   42  C29 UNL     1      10.677  -1.787  -0.540  1.00  0.00    -0.012 C 
HETATM   43  C30 UNL     1      11.546  -0.554  -0.307  1.00  0.00     0.009 C 
HETATM   44  C34 UNL     1       9.295  -1.477  -0.194  1.00  0.00     0.035 C 
HETATM   45  C31 UNL     1      11.038   0.520  -1.215  1.00  0.00    -0.012 C 
HETATM   46  C33 UNL     1       9.599   0.845  -0.905  1.00  0.00     0.035 C 
ENDBRANCH  34  37
ENDBRANCH  30  31
BRANCH  30  47
HETATM   47  C35 UNL     1       3.918   1.086   1.877  1.00  0.00     0.009 C 
HETATM   48  C36 UNL     1       3.373  -0.291   2.123  1.00  0.00     0.012 C 
HETATM   49  C37 UNL     1       3.535   2.141   2.769  1.00  0.00     0.012 C 
ENDBRANCH  30  47
ENDBRANCH  27  30
ENDBRANCH   1  26
TORSDOF 15
