REMARK  8 active torsions:
REMARK  status: ('A' for Active; 'I' for Inactive)
REMARK    1  A    between atoms: N1_1  and  C1_4 
REMARK    2  A    between atoms: C5_16  and  N5_17 
REMARK    3  A    between atoms: C6_19  and  C7_20 
REMARK    4  A    between atoms: C7_20  and  N6_21 
REMARK    5  A    between atoms: N6_21  and  O3_22 
REMARK    6  A    between atoms: N6_21  and  C8_24 
REMARK    7  A    between atoms: C8_24  and  C9_25 
REMARK    8  A    between atoms: C9_25  and  N7_26 
ROOT
HETATM    1  C1  UNL     1      -4.074  -1.755  -0.683  1.00  0.00     0.679 A 
HETATM    2  N2  UNL     1      -5.162  -0.964  -0.562  1.00  0.00    -0.154 N 
ATOM      3  H2  UNL     1      -6.090  -1.344  -0.750  1.00  0.00     0.187 HD
HETATM    4  C2  UNL     1      -5.028   0.317  -0.197  1.00  0.00     0.288 A 
HETATM    5  O1  UNL     1      -6.021   1.095  -0.071  1.00  0.00    -0.265 OA
HETATM    6  C3  UNL     1      -3.734   0.808   0.052  1.00  0.00     0.137 A 
HETATM    7  N3  UNL     1      -3.583   2.100   0.428  1.00  0.00    -0.302 N 
ATOM      8  H3  UNL     1      -4.393   2.712   0.525  1.00  0.00     0.171 HD
HETATM    9  C4  UNL     1      -2.351   2.557   0.670  1.00  0.00     0.326 A 
HETATM   10  O2  UNL     1      -2.165   3.763   1.025  1.00  0.00    -0.247 OA
HETATM   11  N4  UNL     1      -1.271   1.768   0.549  1.00  0.00    -0.292 N 
ATOM     12  H4  UNL     1      -0.355   2.170   0.747  1.00  0.00     0.172 HD
HETATM   13  C5  UNL     1      -1.334   0.478   0.181  1.00  0.00     0.139 A 
HETATM   14  C10 UNL     1      -2.651  -0.004  -0.076  1.00  0.00     0.125 A 
HETATM   15  N8  UNL     1      -2.832  -1.286  -0.445  1.00  0.00    -0.186 N 
ATOM     16  H8  UNL     1      -2.027  -1.905  -0.545  1.00  0.00     0.184 HD
ENDROOT
BRANCH  13  17
HETATM   17  N5  UNL     1      -0.452  -0.346   0.041  1.00  0.00    -0.352 N 
HETATM   18  C6  UNL     1       0.865  -0.624   0.099  1.00  0.00     0.084 C 
ATOM     19  H5  UNL     1      -0.912  -1.209  -0.248  1.00  0.00     0.166 HD
BRANCH  18  20
HETATM   20  C7  UNL     1       1.794   0.438  -0.408  1.00  0.00     0.193 C 
BRANCH  20  21
HETATM   21  N6  UNL     1       3.141  -0.038  -0.333  1.00  0.00    -0.290 N 
BRANCH  21  22
HETATM   22  O3  UNL     1       3.478  -0.920  -1.268  1.00  0.00    -0.292 OA
ATOM     23  H3  UNL     1       4.372  -1.236  -1.218  1.00  0.00     0.244 HD
ENDBRANCH  21  22
BRANCH  21  24
HETATM   24  C8  UNL     1       3.705  -0.230   0.947  1.00  0.00     0.176 C 
BRANCH  24  25
HETATM   25  C9  UNL     1       5.169  -0.654   0.767  1.00  0.00     0.251 C 
BRANCH  25  26
HETATM   26  N7  UNL     1       5.824   0.450   0.070  1.00  0.00    -0.078 N 
ATOM     27  H73 UNL     1       5.365   0.710  -0.803  1.00  0.00     0.274 HD
ATOM     28  H72 UNL     1       5.715   1.349   0.539  1.00  0.00     0.274 HD
ATOM     29  H71 UNL     1       6.797   0.168  -0.050  1.00  0.00     0.274 HD
ENDBRANCH  25  26
ENDBRANCH  24  25
ENDBRANCH  21  24
ENDBRANCH  20  21
ENDBRANCH  18  20
ENDBRANCH  13  17
BRANCH   1  30
HETATM   30  N1  UNL     1      -4.253  -2.994  -1.036  1.00  0.00    -0.234 N 
ATOM     31  H12 UNL     1      -5.192  -3.349  -1.216  1.00  0.00     0.174 HD
ATOM     32  H11 UNL     1      -3.431  -3.591  -1.127  1.00  0.00     0.174 HD
ENDBRANCH   1  30
TORSDOF 8
