REMARK  3 active torsions:
REMARK  status: ('A' for Active; 'I' for Inactive)
REMARK    1  A    between atoms: N1_2  and  C2_5 
REMARK    2  A    between atoms: C2_5  and  C3_6 
REMARK    3  A    between atoms: C2_5  and  C6_9 
ROOT
HETATM    1  C6  UNL     1       0.392  -0.626   0.058  1.00  0.00     0.216 C 
HETATM    2  C7  UNL     1       1.009  -0.121  -1.178  1.00  0.00     0.035 C 
HETATM    3  C8  UNL     1       2.235   0.757  -0.919  1.00  0.00     0.004 C 
HETATM    4  C9  UNL     1       3.191  -0.060  -0.093  1.00  0.00     0.027 C 
HETATM    5  C10 UNL     1       2.479  -0.593   1.138  1.00  0.00     0.233 C 
HETATM    6  N2  UNL     1       1.149  -0.051   1.179  1.00  0.00    -0.069 N 
ATOM      7  H21 UNL     1       0.692  -0.194   2.079  1.00  0.00     0.277 HD
ATOM      8  H22 UNL     1       1.138   0.969   1.181  1.00  0.00     0.277 HD
ENDROOT
BRANCH   1   9
HETATM    9  C2  UNL     1      -1.020  -0.441   0.341  1.00  0.00     0.219 C 
BRANCH   9  10
HETATM   10  N1  UNL     1      -1.253   0.346   1.558  1.00  0.00    -0.072 N 
HETATM   11  C1  UNL     1      -1.399  -0.509   2.724  1.00  0.00     0.267 C 
ATOM     12  H12 UNL     1      -2.052   0.971   1.451  1.00  0.00     0.277 HD
ATOM     13  H11 UNL     1      -0.523   1.045   1.696  1.00  0.00     0.277 HD
ENDBRANCH   9  10
BRANCH   9  14
HETATM   14  C3  UNL     1      -1.940   0.121  -0.690  1.00  0.00     0.010 C 
HETATM   15  C4  UNL     1      -1.766   1.584  -0.968  1.00  0.00     0.011 C 
HETATM   16  C5  UNL     1      -2.069  -0.730  -1.930  1.00  0.00     0.011 C 
ENDBRANCH   9  14
ENDBRANCH   1   9
TORSDOF 3
