REMARK  8 active torsions:
REMARK  status: ('A' for Active; 'I' for Inactive)
REMARK    1  A    between atoms: C2_2  and  C3_3 
REMARK    2  A    between atoms: C5_5  and  C6_6 
REMARK    3  A    between atoms: C10_13  and  C11_14 
REMARK    4  A    between atoms: C13_16  and  O1_17 
REMARK    5  A    between atoms: C15_19  and  O2_20 
REMARK    6  A    between atoms: C17_22  and  O3_23 
REMARK    7  A    between atoms: C21_29  and  O4_30 
REMARK    8  A    between atoms: C23_32  and  O5_33 
ROOT
HETATM    1  C6  UNL     1       1.156   0.084   0.730  1.00  0.00     0.315 C 
HETATM    2  N1  UNL     1       1.205  -0.593   1.997  1.00  0.00    -0.046 N 
ATOM      3  H11 UNL     1       2.018  -0.311   2.544  1.00  0.00     0.280 HD
ATOM      4  H12 UNL     1       1.428  -1.582   1.888  1.00  0.00     0.280 HD
HETATM    5  C7  UNL     1      -0.027  -0.401   2.732  1.00  0.00     0.187 C 
HETATM    6  C8  UNL     1      -0.244   1.025   3.175  1.00  0.00     0.040 C 
HETATM    7  C9  UNL     1      -1.152  -0.962   1.948  1.00  0.00     0.062 C 
HETATM    8  C10 UNL     1      -0.989  -1.024   0.476  1.00  0.00     0.114 C 
HETATM    9  N2  UNL     1       0.083  -0.326  -0.113  1.00  0.00    -0.384 N 
ATOM     10  H2  UNL     1       0.091  -0.120  -1.112  1.00  0.00     0.156 HD
ENDROOT
BRANCH   1  11
HETATM   11  C5  UNL     1       2.500  -0.024   0.103  1.00  0.00    -0.006 A 
HETATM   12  C4  UNL     1       3.132   1.058  -0.493  1.00  0.00     0.021 A 
HETATM   13  C3  UNL     1       4.379   0.948  -1.074  1.00  0.00    -0.022 A 
HETATM   14  C23 UNL     1       5.051  -0.255  -1.084  1.00  0.00     0.105 A 
HETATM   15  C21 UNL     1       4.451  -1.345  -0.500  1.00  0.00     0.102 A 
HETATM   16  C20 UNL     1       3.204  -1.209   0.074  1.00  0.00     0.050 A 
BRANCH  13  17
HETATM   17  C2  UNL     1       4.991   2.176  -1.695  1.00  0.00     0.037 C 
HETATM   18  C1  UNL     1       6.056   2.760  -0.821  1.00  0.00     0.010 C 
ENDBRANCH  13  17
BRANCH  14  19
HETATM   19  O5  UNL     1       6.302  -0.311  -1.680  1.00  0.00    -0.357 OA
ATOM     20  H5  UNL     1       6.765  -1.140  -1.687  1.00  0.00     0.217 HD
ENDBRANCH  14  19
BRANCH  15  21
HETATM   21  O4  UNL     1       5.140  -2.562  -0.513  1.00  0.00    -0.353 OA
HETATM   22  C22 UNL     1       4.490  -3.665   0.103  1.00  0.00     0.210 C 
ENDBRANCH  15  21
ENDBRANCH   1  11
BRANCH   8  23
HETATM   23  C11 UNL     1      -2.257  -0.526  -0.135  1.00  0.00    -0.030 A 
HETATM   24  C12 UNL     1      -2.492   0.817  -0.339  1.00  0.00     0.049 A 
HETATM   25  C13 UNL     1      -3.665   1.285  -0.900  1.00  0.00     0.104 A 
HETATM   26  C15 UNL     1      -4.648   0.394  -1.276  1.00  0.00     0.135 A 
HETATM   27  C17 UNL     1      -4.443  -0.945  -1.086  1.00  0.00     0.104 A 
HETATM   28  C19 UNL     1      -3.252  -1.400  -0.518  1.00  0.00     0.049 A 
BRANCH  25  29
HETATM   29  O1  UNL     1      -3.831   2.652  -1.075  1.00  0.00    -0.353 OA
HETATM   30  C14 UNL     1      -2.831   3.556  -0.692  1.00  0.00     0.210 C 
ENDBRANCH  25  29
BRANCH  26  31
HETATM   31  O2  UNL     1      -5.806   0.909  -1.833  1.00  0.00    -0.351 OA
HETATM   32  C16 UNL     1      -6.931   1.269  -1.049  1.00  0.00     0.210 C 
ENDBRANCH  26  31
BRANCH  27  33
HETATM   33  O3  UNL     1      -5.448  -1.812  -1.474  1.00  0.00    -0.353 OA
HETATM   34  C18 UNL     1      -5.342  -3.216  -1.323  1.00  0.00     0.210 C 
ENDBRANCH  27  33
ENDBRANCH   8  23
TORSDOF 8
