REMARK  3 active torsions:
REMARK  status: ('A' for Active; 'I' for Inactive)
REMARK    1  A    between atoms: C1_2  and  C2_4 
REMARK    2  A    between atoms: C5_7  and  N1_8 
REMARK    3  A    between atoms: N1_8  and  C6_10 
ROOT
HETATM    1  C2  UNL     1       2.863  -0.025  -0.381  1.00  0.00     0.089 C 
HETATM    2  C3  UNL     1       3.068   0.309   1.069  1.00  0.00     0.017 C 
HETATM    3  C4  UNL     1       1.701   0.389   1.736  1.00  0.00     0.026 C 
HETATM    4  C5  UNL     1       0.882  -0.457   0.737  1.00  0.00     0.077 C 
HETATM    5  C11 UNL     1       1.324   0.156  -0.545  1.00  0.00     0.040 C 
ENDROOT
BRANCH   4   6
HETATM    6  N1  UNL     1      -0.450  -0.485   1.098  1.00  0.00    -0.413 N 
ATOM      7  H1  UNL     1      -0.666  -0.472   2.095  1.00  0.00     0.154 HD
BRANCH   6   8
HETATM    8  C6  UNL     1      -1.519  -0.529   0.215  1.00  0.00     0.081 C 
HETATM    9  C7  UNL     1      -1.737   0.712  -0.573  1.00  0.00     0.051 C 
HETATM   10  C8  UNL     1      -3.128   0.750  -1.210  1.00  0.00     0.169 C 
HETATM   11  O3  UNL     1      -4.126   0.315  -0.386  1.00  0.00    -0.391 OA
HETATM   12  C9  UNL     1      -3.959  -1.027  -0.019  1.00  0.00     0.169 C 
HETATM   13  C10 UNL     1      -2.763  -1.024   0.938  1.00  0.00     0.051 C 
ENDBRANCH   6   8
ENDBRANCH   4   6
BRANCH   1  14
HETATM   14  C1  UNL     1       3.583   0.892  -1.252  1.00  0.00     0.177 C 
HETATM   15  O1  UNL     1       3.748   2.102  -0.906  1.00  0.00    -0.648 OA
HETATM   16  O2  UNL     1       4.115   0.475  -2.493  1.00  0.00    -0.648 OA
ENDBRANCH   1  14
TORSDOF 3
