REMARK  4 active torsions:
REMARK  status: ('A' for Active; 'I' for Inactive)
REMARK    1  A    between atoms: C2_2  and  C3_3 
REMARK    2  A    between atoms: C3_3  and  C4_4 
REMARK    3  A    between atoms: C4_4  and  O1_5 
REMARK    4  A    between atoms: C4_4  and  C5_7 
ROOT
HETATM    1  C5  UNL     1      -0.344  -0.692  -0.436  1.00  0.00     0.094 C 
HETATM    2  C6  UNL     1      -0.340  -2.022   0.298  1.00  0.00     0.050 C 
HETATM    3  O2  UNL     1      -1.164  -0.943  -1.582  1.00  0.00    -0.338 OA
HETATM    4  C7  UNL     1      -2.349  -0.339  -1.453  1.00  0.00     0.199 A 
HETATM    5  O3  UNL     1      -2.995   0.053  -2.596  1.00  0.00    -0.341 OA
HETATM    6  C8  UNL     1      -2.610   0.968  -1.461  1.00  0.00     0.198 A 
HETATM    7  C9  UNL     1      -2.474   0.172  -0.138  1.00  0.00     0.096 A 
HETATM    8  C10 UNL     1      -1.010   0.317   0.359  1.00  0.00    -0.003 C 
HETATM    9  C11 UNL     1      -1.148  -0.016   1.856  1.00  0.00     0.018 C 
HETATM   10  C12 UNL     1      -0.712   1.749   0.228  1.00  0.00     0.018 C 
ENDROOT
BRANCH   1  11
HETATM   11  C4  UNL     1       1.011  -0.501  -1.013  1.00  0.00     0.156 C 
BRANCH  11  12
HETATM   12  C3  UNL     1       2.196  -0.553  -0.119  1.00  0.00     0.061 C 
BRANCH  12  13
HETATM   13  C2  UNL     1       2.445   0.530   0.814  1.00  0.00    -0.034 C 
HETATM   14  C1  UNL     1       3.541   1.324   0.726  1.00  0.00     0.007 C 
ENDBRANCH  12  13
ENDBRANCH  11  12
BRANCH  11  15
HETATM   15  O1  UNL     1       1.188  -1.749  -1.762  1.00  0.00    -0.392 OA
ATOM     16  H1  UNL     1       0.430  -1.716  -2.334  1.00  0.00     0.210 HD
ENDBRANCH  11  15
ENDBRANCH   1  11
TORSDOF 4
