REMARK  4 active torsions:
REMARK  status: ('A' for Active; 'I' for Inactive)
REMARK    1  A    between atoms: C3_9  and  C4_10 
REMARK    2  A    between atoms: C4_10  and  N4_11 
REMARK    3  A    between atoms: C4_10  and  C5_15 
REMARK    4  A    between atoms: C5_15  and  N5_17 
ROOT
HETATM    1  C4  UNL     1      -0.454  -0.443   0.480  1.00  0.00     0.266 C 
ENDROOT
BRANCH   1   2
HETATM    2  C3  UNL     1       0.818   0.198   0.168  1.00  0.00     0.083 A 
HETATM    3  C2  UNL     1       2.118  -0.230   0.073  1.00  0.00     0.049 A 
HETATM    4  C1  UNL     1       2.533  -1.658  -0.125  1.00  0.00     0.072 C 
HETATM    5  N1  UNL     1       2.957   0.872   0.015  1.00  0.00    -0.289 N 
HETATM    6  N2  UNL     1       2.190   1.952   0.077  1.00  0.00    -0.242 N 
ATOM      7  H1  UNL     1       3.974   0.855  -0.061  1.00  0.00     0.188 HD
HETATM    8  N3  UNL     1       0.953   1.576   0.161  1.00  0.00    -0.286 N 
ATOM      9  H2  UNL     1       2.519   2.917   0.061  1.00  0.00     0.208 HD
ATOM     10  H3  UNL     1       0.166   2.223   0.216  1.00  0.00     0.188 HD
ENDBRANCH   1   2
BRANCH   1  11
HETATM   11  N4  UNL     1      -1.024   0.139   1.726  1.00  0.00    -0.068 N 
ATOM     12  H43 UNL     1      -0.369   0.089   2.506  1.00  0.00     0.275 HD
ATOM     13  H42 UNL     1      -1.111   1.154   1.669  1.00  0.00     0.275 HD
ATOM     14  H41 UNL     1      -1.914  -0.309   1.944  1.00  0.00     0.275 HD
ENDBRANCH   1  11
BRANCH   1  15
HETATM   15  C5  UNL     1      -1.465  -0.180  -0.573  1.00  0.00     0.215 C 
HETATM   16  C6  UNL     1      -1.790   1.196  -1.021  1.00  0.00     0.042 C 
BRANCH  15  17
HETATM   17  N5  UNL     1      -2.812  -0.642   0.036  1.00  0.00    -0.073 N 
ATOM     18  H53 UNL     1      -2.805  -1.606   0.369  1.00  0.00     0.274 HD
ATOM     19  H52 UNL     1      -3.029  -0.209   0.934  1.00  0.00     0.274 HD
ATOM     20  H51 UNL     1      -3.507  -0.461  -0.688  1.00  0.00     0.274 HD
ENDBRANCH  15  17
ENDBRANCH   1  15
TORSDOF 4
