REMARK  5 active torsions:
REMARK  status: ('A' for Active; 'I' for Inactive)
REMARK    1  A    between atoms: C2_2  and  C3_3 
REMARK    2  A    between atoms: C3_3  and  C4_4 
REMARK    3  A    between atoms: C4_4  and  C5_5 
REMARK    4  A    between atoms: C6_9  and  N2_10 
REMARK    5  A    between atoms: N4_15  and  N5_16 
ROOT
HETATM    1  C5  UNL     1      -0.714   0.316   0.548  1.00  0.00     0.301 C 
HETATM    2  N1  UNL     1      -1.388   0.452  -0.733  1.00  0.00    -0.011 N 
ATOM      3  H11 UNL     1      -0.913   0.059  -1.546  1.00  0.00     0.283 HD
ATOM      4  H12 UNL     1      -1.432   1.390  -1.132  1.00  0.00     0.283 HD
HETATM    5  C6  UNL     1      -2.673  -0.168  -0.348  1.00  0.00     0.491 C 
HETATM    6  N3  UNL     1      -2.384  -1.002   0.837  1.00  0.00    -0.083 NA
HETATM    7  N4  UNL     1      -0.930  -1.090   0.732  1.00  0.00    -0.116 NA
ENDROOT
BRANCH   1   8
HETATM    8  C4  UNL     1       0.527   0.979   0.771  1.00  0.00     0.052 C 
BRANCH   8   9
HETATM    9  C3  UNL     1       1.770   0.796   0.035  1.00  0.00     0.003 C 
BRANCH   9  10
HETATM   10  C2  UNL     1       2.482  -0.511   0.078  1.00  0.00    -0.004 C 
HETATM   11  C1  UNL     1       3.761  -0.368  -0.791  1.00  0.00     0.005 C 
ENDBRANCH   9  10
ENDBRANCH   8   9
ENDBRANCH   1   8
BRANCH   7  12
HETATM   12  N5  UNL     1      -0.848  -1.769  -0.531  1.00  0.00    -0.347 NA
ATOM     13  H52 UNL     1       0.168  -1.830  -0.604  1.00  0.00     0.172 HD
ATOM     14  H51 UNL     1      -1.002  -2.769  -0.400  1.00  0.00     0.172 HD
ENDBRANCH   7  12
BRANCH   5  15
HETATM   15  N2  UNL     1      -3.531   0.907   0.100  1.00  0.00    -0.035 N 
ATOM     16  H23 UNL     1      -3.117   1.471   0.842  1.00  0.00     0.278 HD
ATOM     17  H22 UNL     1      -3.633   1.655  -0.586  1.00  0.00     0.278 HD
ATOM     18  H21 UNL     1      -4.418   0.479   0.366  1.00  0.00     0.278 HD
ENDBRANCH   5  15
TORSDOF 5
