REMARK  13 active torsions:
REMARK  status: ('A' for Active; 'I' for Inactive)
REMARK    1  A    between atoms: C2_2  and  C3_3 
REMARK    2  A    between atoms: C4_4  and  O1_5 
REMARK    3  A    between atoms: C5_7  and  O2_8 
REMARK    4  A    between atoms: C6_10  and  O3_11 
REMARK    5  A    between atoms: C7_13  and  O4_14 
REMARK    6  A    between atoms: O4_14  and  C8_15 
REMARK    7  A    between atoms: C10_17  and  N1_18 
REMARK    8  A    between atoms: C11_22  and  O5_24 
REMARK    9  A    between atoms: O5_24  and  C13_25 
REMARK   10  A    between atoms: C13_25  and  C14_26 
REMARK   11  A    between atoms: C17_29  and  C18_30 
REMARK   12  A    between atoms: C18_30  and  O6_31 
REMARK   13  A    between atoms: C20_34  and  O7_35 
ROOT
HETATM    1  C14 UNL     1       5.105  -0.754  -1.009  1.00  0.00    -0.081 C 
HETATM    2  C15 UNL     1       5.406  -0.364  -2.131  1.00  0.00    -0.109 C 
HETATM    3  C16 UNL     1       5.781   0.079  -3.451  1.00  0.00     0.112 C 
ENDROOT
BRANCH   1   4
HETATM    4  C13 UNL     1       4.767  -1.252   0.317  1.00  0.00     0.262 C 
BRANCH   4   5
HETATM    5  O5  UNL     1       3.550  -1.120   0.781  1.00  0.00    -0.366 OA
BRANCH   5   6
HETATM    6  C11 UNL     1       2.820  -0.085   1.086  1.00  0.00     0.092 C 
HETATM    7  C10 UNL     1       2.494   0.856  -0.024  1.00  0.00     0.220 C 
HETATM    8  C9  UNL     1       1.548   0.370  -1.060  1.00  0.00     0.067 C 
HETATM    9  C8  UNL     1       0.442  -0.535  -0.615  1.00  0.00     0.124 C 
HETATM   10  C19 UNL     1       1.003  -1.515   0.423  1.00  0.00     0.041 C 
HETATM   11  C17 UNL     1       1.445  -0.614   1.579  1.00  0.00     0.048 C 
HETATM   12  C12 UNL     1       3.332   0.781   2.234  1.00  0.00     0.048 C 
BRANCH   7  13
HETATM   13  N1  UNL     1       1.896   2.101   0.535  1.00  0.00    -0.072 N 
ATOM     14  H13 UNL     1       1.678   2.800  -0.175  1.00  0.00     0.274 HD
ATOM     15  H12 UNL     1       0.945   1.974   0.882  1.00  0.00     0.274 HD
ATOM     16  H11 UNL     1       2.546   2.435   1.247  1.00  0.00     0.274 HD
ENDBRANCH   7  13
BRANCH   9  17
HETATM   17  O4  UNL     1      -0.573   0.136  -0.009  1.00  0.00    -0.375 OA
BRANCH  17  18
HETATM   18  C7  UNL     1      -1.833   0.015  -0.597  1.00  0.00     0.182 C 
HETATM   19  C6  UNL     1      -2.401   1.316  -1.039  1.00  0.00     0.180 C 
HETATM   20  C5  UNL     1      -3.758   1.180  -1.627  1.00  0.00     0.178 C 
HETATM   21  C4  UNL     1      -4.456  -0.081  -1.259  1.00  0.00     0.159 C 
HETATM   22  C3  UNL     1      -4.183  -0.466   0.166  1.00  0.00     0.070 C 
HETATM   23  C20 UNL     1      -2.721  -0.748   0.364  1.00  0.00     0.160 C 
BRANCH  19  24
HETATM   24  O3  UNL     1      -1.573   1.850  -2.042  1.00  0.00    -0.390 OA
ATOM     25  H3  UNL     1      -0.705   1.937  -1.666  1.00  0.00     0.210 HD
ENDBRANCH  19  24
BRANCH  20  26
HETATM   26  O2  UNL     1      -4.594   2.257  -1.269  1.00  0.00    -0.390 OA
ATOM     27  H2  UNL     1      -4.148   3.062  -1.504  1.00  0.00     0.210 HD
ENDBRANCH  20  26
BRANCH  21  28
HETATM   28  O1  UNL     1      -5.835   0.080  -1.390  1.00  0.00    -0.392 OA
ATOM     29  H1  UNL     1      -6.008   0.324  -2.292  1.00  0.00     0.210 HD
ENDBRANCH  21  28
BRANCH  22  30
HETATM   30  C2  UNL     1      -4.731   0.560   1.077  1.00  0.00    -0.027 C 
HETATM   31  C1  UNL     1      -5.735   0.305   1.937  1.00  0.00     0.007 C 
ENDBRANCH  22  30
BRANCH  23  32
HETATM   32  O7  UNL     1      -2.560  -2.120   0.056  1.00  0.00    -0.392 OA
ATOM     33  H7  UNL     1      -1.635  -2.298   0.181  1.00  0.00     0.210 HD
ENDBRANCH  23  32
ENDBRANCH  17  18
ENDBRANCH   9  17
BRANCH  11  34
HETATM   34  C18 UNL     1       1.583  -1.353   2.867  1.00  0.00     0.172 C 
BRANCH  34  35
HETATM   35  O6  UNL     1       0.332  -1.803   3.260  1.00  0.00    -0.400 OA
ATOM     36  H6  UNL     1       0.420  -2.274   4.080  1.00  0.00     0.209 HD
ENDBRANCH  34  35
ENDBRANCH  11  34
ENDBRANCH   5   6
ENDBRANCH   4   5
ENDBRANCH   1   4
TORSDOF 13
