REMARK  2 active torsions:
REMARK  status: ('A' for Active; 'I' for Inactive)
REMARK    1  A    between atoms: N1_1  and  N2_4 
REMARK    2  A    between atoms: N2_4  and  C1_5 
ROOT
HETATM    1  C1  UNL     1      -1.605   0.172   0.165  1.00  0.00     0.233 C 
HETATM    2  C2  UNL     1      -2.279  -1.145  -0.106  1.00  0.00     0.051 C 
HETATM    3  C3  UNL     1      -1.465  -2.029  -1.018  1.00  0.00     0.004 C 
HETATM    4  C4  UNL     1      -0.418  -2.814  -0.243  1.00  0.00     0.000 C 
HETATM    5  C5  UNL     1       0.979  -2.314  -0.524  1.00  0.00     0.000 C 
HETATM    6  C6  UNL     1       1.712  -1.923   0.745  1.00  0.00     0.000 C 
HETATM    7  C7  UNL     1       2.815  -0.943   0.506  1.00  0.00     0.000 C 
HETATM    8  C8  UNL     1       2.458   0.476   0.795  1.00  0.00     0.000 C 
HETATM    9  C9  UNL     1       2.257   1.288  -0.450  1.00  0.00     0.000 C 
HETATM   10  C10 UNL     1       1.565   2.590  -0.189  1.00  0.00     0.002 C 
HETATM   11  C11 UNL     1       0.146   2.443   0.262  1.00  0.00     0.026 C 
HETATM   12  C12 UNL     1      -0.777   2.064  -0.862  1.00  0.00     0.170 C 
HETATM   13  O1  UNL     1      -1.038   0.725  -0.953  1.00  0.00    -0.368 OA
ENDROOT
BRANCH   1  14
HETATM   14  N2  UNL     1      -2.544   1.060   0.822  1.00  0.00    -0.116 NA
BRANCH  14  15
HETATM   15  N1  UNL     1      -3.677   1.319   0.080  1.00  0.00    -0.346 N 
ATOM     16  H12 UNL     1      -3.826   0.915  -0.845  1.00  0.00     0.172 HD
ATOM     17  H11 UNL     1      -4.338   1.944   0.542  1.00  0.00     0.172 HD
ENDBRANCH  14  15
ENDBRANCH   1  14
TORSDOF 2
