REMARK  10 active torsions:
REMARK  status: ('A' for Active; 'I' for Inactive)
REMARK    1  A    between atoms: C3_5  and  C4_6 
REMARK    2  A    between atoms: C4_6  and  N2_7 
REMARK    3  A    between atoms: N2_7  and  C5_10 
REMARK    4  A    between atoms: C5_10  and  C6_11 
REMARK    5  A    between atoms: C6_11  and  C7_12 
REMARK    6  A    between atoms: C7_12  and  N3_13 
REMARK    7  A    between atoms: N3_13  and  C8_15 
REMARK    8  A    between atoms: C8_15  and  C9_16 
REMARK    9  A    between atoms: C9_16  and  C10_17 
REMARK   10  A    between atoms: C10_17  and  N4_18 
ROOT
HETATM    1  C7  UNL     1       0.709  -1.738  -0.024  1.00  0.00     0.120 C 
ENDROOT
BRANCH   1   2
HETATM    2  C6  UNL     1       1.817  -1.495   1.005  1.00  0.00     0.047 C 
BRANCH   2   3
HETATM    3  C5  UNL     1       2.521  -0.233   0.751  1.00  0.00     0.234 C 
BRANCH   3   4
HETATM    4  N2  UNL     1       3.272  -0.050  -0.425  1.00  0.00    -0.070 N 
ATOM      5  H22 UNL     1       3.369   0.937  -0.662  1.00  0.00     0.277 HD
ATOM      6  H21 UNL     1       2.760  -0.356  -1.252  1.00  0.00     0.277 HD
BRANCH   4   7
HETATM    7  C4  UNL     1       4.592  -0.722  -0.315  1.00  0.00     0.289 C 
BRANCH   7   8
HETATM    8  C3  UNL     1       5.577   0.394  -0.565  1.00  0.00     0.034 A 
HETATM    9  N1  UNL     1       6.233   1.008   0.437  1.00  0.00    -0.368 N 
HETATM   10  C2  UNL     1       6.970   2.010  -0.012  1.00  0.00     0.088 A 
ATOM     11  H1  UNL     1       6.170   0.735   1.418  1.00  0.00     0.165 HD
HETATM   12  C1  UNL     1       6.800   2.066  -1.409  1.00  0.00     0.019 A 
HETATM   13  C15 UNL     1       5.923   1.032  -1.703  1.00  0.00     0.028 A 
ENDBRANCH   7   8
ENDBRANCH   4   7
ENDBRANCH   3   4
ENDBRANCH   2   3
ENDBRANCH   1   2
BRANCH   1  14
HETATM   14  N3  UNL     1      -0.124  -0.584  -0.116  1.00  0.00    -0.402 N 
ATOM     15  H3  UNL     1      -0.182  -0.065  -0.992  1.00  0.00     0.158 HD
BRANCH  14  16
HETATM   16  C8  UNL     1      -0.860  -0.165   0.994  1.00  0.00     0.057 C 
BRANCH  16  17
HETATM   17  C9  UNL     1      -1.996  -1.038   1.447  1.00  0.00     0.074 C 
BRANCH  17  18
HETATM   18  C10 UNL     1      -3.023  -1.249   0.380  1.00  0.00     0.277 C 
BRANCH  18  19
HETATM   19  N4  UNL     1      -3.638   0.007  -0.045  1.00  0.00     0.092 N 
HETATM   20  C11 UNL     1      -4.534  -0.344  -1.151  1.00  0.00     0.300 C 
HETATM   21  C12 UNL     1      -4.859   0.931  -1.879  1.00  0.00     0.262 C 
HETATM   22  N5  UNL     1      -5.157   1.926  -0.895  1.00  0.00    -0.072 N 
HETATM   23  C13 UNL     1      -5.582   1.351   0.346  1.00  0.00     0.262 C 
ATOM     24  H52 UNL     1      -4.367   2.557  -0.758  1.00  0.00     0.277 HD
ATOM     25  H51 UNL     1      -5.842   2.597  -1.244  1.00  0.00     0.277 HD
HETATM   26  C14 UNL     1      -4.550   0.493   1.008  1.00  0.00     0.300 C 
ENDBRANCH  18  19
ENDBRANCH  17  18
ENDBRANCH  16  17
ENDBRANCH  14  16
ENDBRANCH   1  14
TORSDOF 10
