REMARK  12 active torsions:
REMARK  status: ('A' for Active; 'I' for Inactive)
REMARK    1  A    between atoms: N1_1  and  C1_4 
REMARK    2  A    between atoms: N2_7  and  C4_8 
REMARK    3  A    between atoms: C4_8  and  C5_9 
REMARK    4  A    between atoms: C5_9  and  N3_10 
REMARK    5  A    between atoms: N3_10  and  C6_12 
REMARK    6  A    between atoms: C6_12  and  C7_13 
REMARK    7  A    between atoms: C7_13  and  C8_14 
REMARK    8  A    between atoms: C8_14  and  N4_15 
REMARK    9  A    between atoms: N4_15  and  C9_18 
REMARK   10  A    between atoms: C9_18  and  C10_19 
REMARK   11  A    between atoms: C10_19  and  C11_20 
REMARK   12  A    between atoms: C11_20  and  N5_21 
ROOT
HETATM    1  C5  UNL     1      -1.082  -1.988   0.069  1.00  0.00     0.080 C 
ENDROOT
BRANCH   1   2
HETATM    2  C4  UNL     1      -2.113  -1.555   1.031  1.00  0.00     0.172 C 
BRANCH   2   3
HETATM    3  N2  UNL     1      -3.379  -1.141   0.512  1.00  0.00    -0.351 N 
HETATM    4  C3  UNL     1      -4.307  -2.044   0.114  1.00  0.00     0.094 A 
HETATM    5  C2  UNL     1      -5.509  -1.717  -0.440  1.00  0.00     0.047 A 
HETATM    6  C1  UNL     1      -5.848  -0.392  -0.628  1.00  0.00     0.039 A 
HETATM    7  C17 UNL     1      -4.905   0.527  -0.222  1.00  0.00     0.017 A 
HETATM    8  C12 UNL     1      -3.679   0.142   0.345  1.00  0.00     0.047 A 
HETATM    9  C16 UNL     1      -5.223   1.868  -0.374  1.00  0.00     0.016 A 
HETATM   10  C13 UNL     1      -2.863   1.188   0.721  1.00  0.00     0.030 A 
HETATM   11  C14 UNL     1      -3.163   2.521   0.578  1.00  0.00     0.002 A 
HETATM   12  C15 UNL     1      -4.367   2.857   0.020  1.00  0.00     0.001 A 
BRANCH   6  13
HETATM   13  N1  UNL     1      -6.975  -0.044  -1.152  1.00  0.00    -0.398 N 
ATOM     14  H12 UNL     1      -7.673  -0.724  -1.453  1.00  0.00     0.156 HD
ATOM     15  H11 UNL     1      -7.225   0.935  -1.291  1.00  0.00     0.156 HD
ENDBRANCH   6  13
ENDBRANCH   2   3
ENDBRANCH   1   2
BRANCH   1  16
HETATM   16  N3  UNL     1      -0.530  -1.183  -0.905  1.00  0.00    -0.381 N 
ATOM     17  H3  UNL     1      -0.805  -1.344  -1.874  1.00  0.00     0.164 HD
BRANCH  16  18
HETATM   18  C6  UNL     1       0.385  -0.159  -0.640  1.00  0.00     0.062 C 
BRANCH  18  19
HETATM   19  C7  UNL     1       1.749  -0.629  -0.162  1.00  0.00     0.072 C 
BRANCH  19  20
HETATM   20  C8  UNL     1       2.559   0.634   0.050  1.00  0.00     0.237 C 
BRANCH  20  21
HETATM   21  N4  UNL     1       3.893   0.412   0.506  1.00  0.00    -0.075 N 
ATOM     22  H42 UNL     1       4.313   1.280   0.840  1.00  0.00     0.277 HD
ATOM     23  H41 UNL     1       3.896  -0.120   1.376  1.00  0.00     0.277 HD
BRANCH  21  24
HETATM   24  C9  UNL     1       4.734  -0.220  -0.490  1.00  0.00     0.233 C 
BRANCH  24  25
HETATM   25  C10 UNL     1       6.126  -0.389   0.060  1.00  0.00     0.055 C 
BRANCH  25  26
HETATM   26  C11 UNL     1       6.743   0.948   0.428  1.00  0.00     0.231 C 
BRANCH  26  27
HETATM   27  N5  UNL     1       5.978   1.647   1.427  1.00  0.00    -0.079 N 
ATOM     28  H53 UNL     1       5.007   1.757   1.136  1.00  0.00     0.274 HD
ATOM     29  H52 UNL     1       5.836   1.067   2.254  1.00  0.00     0.274 HD
ATOM     30  H51 UNL     1       6.393   2.546   1.674  1.00  0.00     0.274 HD
ENDBRANCH  26  27
ENDBRANCH  25  26
ENDBRANCH  24  25
ENDBRANCH  21  24
ENDBRANCH  20  21
ENDBRANCH  19  20
ENDBRANCH  18  19
ENDBRANCH  16  18
ENDBRANCH   1  16
TORSDOF 12
