REMARK  5 active torsions:
REMARK  status: ('A' for Active; 'I' for Inactive)
REMARK    1  A    between atoms: N1_1  and  C1_4 
REMARK    2  A    between atoms: N4_16  and  C9_17 
REMARK    3  A    between atoms: C9_17  and  C10_18 
REMARK    4  A    between atoms: C13_21  and  C14_22 
REMARK    5  A    between atoms: C15_23  and  C16_24 
ROOT
HETATM    1  C1  UNL     1      -3.094   0.139   1.416  1.00  0.00     0.117 A 
HETATM    2  C2  UNL     1      -4.170   0.509   0.600  1.00  0.00     0.035 A 
HETATM    3  C3  UNL     1      -4.852   1.692   0.780  1.00  0.00     0.019 A 
HETATM    4  C4  UNL     1      -5.921   2.047  -0.042  1.00  0.00     0.027 A 
HETATM    5  C5  UNL     1      -6.328   1.213  -1.067  1.00  0.00     0.048 A 
HETATM    6  N2  UNL     1      -7.414   1.585  -1.893  1.00  0.00    -0.102 NA
HETATM    7  C6  UNL     1      -5.637   0.035  -1.234  1.00  0.00     0.057 A 
HETATM    8  C7  UNL     1      -4.578  -0.320  -0.423  1.00  0.00     0.052 A 
HETATM    9  N3  UNL     1      -3.892  -1.457  -0.565  1.00  0.00    -0.307 N 
ATOM     10  H3  UNL     1      -4.166  -2.096  -1.312  1.00  0.00     0.170 HD
HETATM   11  C8  UNL     1      -2.851  -1.808   0.230  1.00  0.00     0.329 A 
HETATM   12  O1  UNL     1      -2.310  -2.913  -0.031  1.00  0.00    -0.246 OA
HETATM   13  N4  UNL     1      -2.421  -1.010   1.251  1.00  0.00    -0.281 N 
ENDROOT
BRANCH  13  14
HETATM   14  C9  UNL     1      -1.293  -1.389   2.064  1.00  0.00     0.174 C 
BRANCH  14  15
HETATM   15  C10 UNL     1       0.034  -1.045   1.540  1.00  0.00    -0.040 A 
HETATM   16  C11 UNL     1       0.613   0.185   1.671  1.00  0.00     0.010 A 
HETATM   17  C12 UNL     1       1.889   0.466   1.164  1.00  0.00     0.021 A 
HETATM   18  C13 UNL     1       2.606  -0.509   0.509  1.00  0.00     0.018 A 
HETATM   19  C21 UNL     1       2.000  -1.749   0.388  1.00  0.00     0.021 A 
HETATM   20  C22 UNL     1       0.765  -2.037   0.874  1.00  0.00     0.010 A 
BRANCH  18  21
HETATM   21  C14 UNL     1       3.913  -0.242  -0.017  1.00  0.00    -0.061 C 
HETATM   22  C15 UNL     1       5.020  -0.019  -0.442  1.00  0.00    -0.060 C 
BRANCH  22  23
HETATM   23  C16 UNL     1       6.363   0.243  -0.932  1.00  0.00     0.033 A 
HETATM   24  C17 UNL     1       6.578   0.815  -2.157  1.00  0.00     0.023 A 
HETATM   25  C18 UNL     1       7.904   1.030  -2.549  1.00  0.00     0.019 A 
HETATM   26  C19 UNL     1       8.956   0.678  -1.728  1.00  0.00     0.087 A 
HETATM   27  N5  UNL     1       8.720   0.117  -0.529  1.00  0.00    -0.374 N 
HETATM   28  C20 UNL     1       7.460  -0.093  -0.144  1.00  0.00     0.108 A 
ATOM     29  H5  UNL     1       9.496  -0.145   0.079  1.00  0.00     0.164 HD
ENDBRANCH  22  23
ENDBRANCH  18  21
ENDBRANCH  14  15
ENDBRANCH  13  14
BRANCH   1  30
HETATM   30  N1  UNL     1      -2.834   0.974   2.356  1.00  0.00    -0.384 N 
ATOM     31  H12 UNL     1      -3.346   1.847   2.481  1.00  0.00     0.157 HD
ATOM     32  H11 UNL     1      -2.050   0.704   2.950  1.00  0.00     0.157 HD
ENDBRANCH   1  30
TORSDOF 5
