REMARK  2 active torsions:
REMARK  status: ('A' for Active; 'I' for Inactive)
REMARK    1  A    between atoms: C6_12  and  N3_13 
REMARK    2  A    between atoms: N3_13  and  N4_15 
ROOT
HETATM    1  C1  UNL     1      -2.624   1.864  -0.390  1.00  0.00     0.045 C 
HETATM    2  C2  UNL     1      -2.434   0.586  -0.153  1.00  0.00     0.054 A 
HETATM    3  N1  UNL     1      -3.516  -0.194   0.192  1.00  0.00    -0.318 N 
ATOM      4  H1  UNL     1      -4.438   0.237   0.255  1.00  0.00     0.169 HD
HETATM    5  C3  UNL     1      -3.392  -1.486   0.444  1.00  0.00     0.314 A 
HETATM    6  O1  UNL     1      -4.394  -2.166   0.754  1.00  0.00    -0.262 OA
HETATM    7  C4  UNL     1      -2.135  -2.042   0.351  1.00  0.00     0.314 A 
HETATM    8  O2  UNL     1      -2.030  -3.286   0.595  1.00  0.00    -0.262 OA
HETATM    9  N2  UNL     1      -1.074  -1.296   0.017  1.00  0.00    -0.316 N 
ATOM     10  H2  UNL     1      -0.157  -1.738  -0.043  1.00  0.00     0.169 HD
HETATM   11  C5  UNL     1      -1.186   0.041  -0.246  1.00  0.00     0.078 A 
HETATM   12  C6  UNL     1      -0.091   0.717  -0.571  1.00  0.00     0.139 C 
ENDROOT
BRANCH  12  13
HETATM   13  N3  UNL     1       1.182   0.118  -0.658  1.00  0.00    -0.308 N 
ATOM     14  H3  UNL     1       1.469  -0.404  -1.486  1.00  0.00     0.186 HD
BRANCH  13  15
HETATM   15  N4  UNL     1       2.029   0.270   0.433  1.00  0.00    -0.276 N 
HETATM   16  C7  UNL     1       3.304   0.292   0.248  1.00  0.00     0.215 C 
HETATM   17  N5  UNL     1       3.941   0.169  -1.016  1.00  0.00    -0.065 NA
HETATM   18  N6  UNL     1       4.109   0.451   1.409  1.00  0.00    -0.065 NA
ATOM     19  H4  UNL     1       1.644   0.363   1.373  1.00  0.00     0.189 HD
ENDBRANCH  13  15
ENDBRANCH  12  13
TORSDOF 2
