REMARK  7 active torsions:
REMARK  status: ('A' for Active; 'I' for Inactive)
REMARK    1  A    between atoms: C2_2  and  N1_3 
REMARK    2  A    between atoms: C3_4  and  O1_5 
REMARK    3  A    between atoms: C4_7  and  C5_8 
REMARK    4  A    between atoms: N2_9  and  N3_11 
REMARK    5  A    between atoms: N4_15  and  N5_16 
REMARK    6  A    between atoms: C8_21  and  C9_22 
REMARK       I    between atoms: C9_22  and  N7_24 
REMARK    7  A    between atoms: N7_24  and  N8_26 
ROOT
HETATM    1  N3  UNL     1      -1.307   0.941  -0.221  1.00  0.00    -0.278 N 
ATOM      2  H3  UNL     1      -1.584   1.897  -0.443  1.00  0.00     0.189 HD
HETATM    3  C6  UNL     1      -2.198   0.026  -0.036  1.00  0.00     0.206 A 
HETATM    4  O2  UNL     1      -1.953  -1.244   0.255  1.00  0.00    -0.194 OA
HETATM    5  N4  UNL     1      -3.059  -1.899   0.376  1.00  0.00    -0.145 N 
HETATM    6  C7  UNL     1      -4.106  -1.087   0.168  1.00  0.00     0.182 A 
HETATM    7  N6  UNL     1      -5.494  -1.406   0.207  1.00  0.00    -0.077 NA
HETATM    8  C8  UNL     1      -3.568   0.171  -0.101  1.00  0.00     0.133 A 
ENDROOT
BRANCH   1   9
HETATM    9  N2  UNL     1       0.028   0.604  -0.114  1.00  0.00    -0.309 N 
HETATM   10  C5  UNL     1       0.549   0.433   1.045  1.00  0.00     0.128 C 
ATOM     11  H2  UNL     1       0.597   0.492  -0.953  1.00  0.00     0.186 HD
BRANCH  10  12
HETATM   12  C4  UNL     1       1.976   0.073   1.171  1.00  0.00     0.100 A 
HETATM   13  C3  UNL     1       2.777  -0.088   0.061  1.00  0.00     0.163 A 
HETATM   14  N1  UNL     1       4.079  -0.416   0.148  1.00  0.00    -0.279 N 
HETATM   15  C11 UNL     1       4.609  -0.592   1.373  1.00  0.00     0.331 A 
HETATM   16  N9  UNL     1       3.870  -0.447   2.499  1.00  0.00    -0.274 N 
HETATM   17  O5  UNL     1       5.833  -0.900   1.444  1.00  0.00    -0.246 OA
HETATM   18  C10 UNL     1       2.570  -0.119   2.401  1.00  0.00     0.265 A 
ATOM     19  H9  UNL     1       4.297  -0.586   3.415  1.00  0.00     0.173 HD
HETATM   20  O4  UNL     1       1.843   0.025   3.435  1.00  0.00    -0.267 OA
BRANCH  13  21
HETATM   21  O1  UNL     1       2.183   0.104  -1.176  1.00  0.00    -0.345 OA
ATOM     22  H1  UNL     1       1.264   0.336  -1.237  1.00  0.00     0.219 HD
ENDBRANCH  13  21
BRANCH  14  23
HETATM   23  C2  UNL     1       4.907  -0.582  -1.006  1.00  0.00     0.131 C 
HETATM   24  C1  UNL     1       5.592   0.665  -1.455  1.00  0.00     0.027 C 
ENDBRANCH  14  23
ENDBRANCH  10  12
ENDBRANCH   1   9
BRANCH   8  25
HETATM   25  C9  UNL     1      -4.372   1.345  -0.384  1.00  0.00     0.277 C 
HETATM   26  O3  UNL     1      -5.646   1.222  -0.387  1.00  0.00    -0.266 OA
HETATM   27  N7  UNL     1      -3.862   2.604  -0.655  1.00  0.00    -0.272 N 
ATOM     28  H7  UNL     1      -2.854   2.758  -0.666  1.00  0.00     0.189 HD
BRANCH  27  29
HETATM   29  N8  UNL     1      -4.748   3.676  -0.917  1.00  0.00    -0.342 N 
ATOM     30  H82 UNL     1      -5.754   3.506  -0.903  1.00  0.00     0.176 HD
ATOM     31  H81 UNL     1      -4.372   4.603  -1.117  1.00  0.00     0.176 HD
ENDBRANCH  27  29
ENDBRANCH   8  25
BRANCH   5  32
HETATM   32  N5  UNL     1      -3.150  -3.262   0.680  1.00  0.00    -0.317 N 
ATOM     33  H52 UNL     1      -2.354  -3.880   0.838  1.00  0.00     0.179 HD
ATOM     34  H51 UNL     1      -4.024  -3.779   0.776  1.00  0.00     0.179 HD
ENDBRANCH   5  32
TORSDOF 7
