REMARK  7 active torsions:
REMARK  status: ('A' for Active; 'I' for Inactive)
REMARK    1  A    between atoms: N1_1  and  C1_4 
REMARK    2  A    between atoms: C1_4  and  C2_6 
REMARK    3  A    between atoms: C3_7  and  S1_8 
REMARK    4  A    between atoms: S1_8  and  C4_9 
REMARK    5  A    between atoms: C5_14  and  C6_15 
REMARK    6  A    between atoms: N10_27  and  N11_28 
REMARK    7  A    between atoms: C8_31  and  N12_32 
ROOT
HETATM    1  C2  UNL     1      -1.918  -0.046  -0.912  1.00  0.00     0.084 A 
HETATM    2  C3  UNL     1      -1.546  -1.056  -0.054  1.00  0.00     0.098 A 
HETATM    3  N9  UNL     1      -2.312  -1.215   1.067  1.00  0.00    -0.300 N 
ATOM      4  H9  UNL     1      -2.072  -1.952   1.730  1.00  0.00     0.171 HD
HETATM    5  C7  UNL     1      -3.375  -0.427   1.321  1.00  0.00     0.347 A 
HETATM    6  O1  UNL     1      -4.013  -0.659   2.383  1.00  0.00    -0.245 OA
HETATM    7  N10 UNL     1      -3.754   0.575   0.482  1.00  0.00    -0.195 N 
HETATM    8  C8  UNL     1      -3.009   0.742  -0.624  1.00  0.00     0.141 A 
ENDROOT
BRANCH   2   9
HETATM    9  S1  UNL     1      -0.155  -2.084  -0.391  1.00  0.00    -0.045 SA
BRANCH   9  10
HETATM   10  C4  UNL     1       1.335  -1.358   0.333  1.00  0.00     0.135 A 
HETATM   11  N3  UNL     1       1.443  -0.227   1.025  1.00  0.00    -0.287 N 
HETATM   12  N4  UNL     1       2.573   0.133   1.461  1.00  0.00    -0.289 N 
ATOM     13  H3  UNL     1       0.618   0.346   1.203  1.00  0.00     0.188 HD
HETATM   14  C5  UNL     1       3.642  -0.620   1.224  1.00  0.00     0.138 A 
ATOM     15  H4  UNL     1       2.664   0.998   1.993  1.00  0.00     0.188 HD
HETATM   16  S2  UNL     1       2.953  -1.901   0.329  1.00  0.00    -0.041 SA
BRANCH  14  17
HETATM   17  C6  UNL     1       5.041  -0.395   1.633  1.00  0.00     0.167 A 
HETATM   18  N5  UNL     1       5.556   0.619   2.335  1.00  0.00    -0.268 N 
HETATM   19  N6  UNL     1       6.858   0.457   2.495  1.00  0.00    -0.007 NA
ATOM     20  H5  UNL     1       5.019   1.407   2.697  1.00  0.00     0.185 HD
HETATM   21  N7  UNL     1       7.169  -0.673   1.886  1.00  0.00    -0.007 NA
HETATM   22  N8  UNL     1       6.065  -1.215   1.348  1.00  0.00    -0.268 N 
ATOM     23  H8  UNL     1       6.014  -2.087   0.821  1.00  0.00     0.185 HD
ENDBRANCH  14  17
ENDBRANCH   9  10
ENDBRANCH   2   9
BRANCH   1  24
HETATM   24  C1  UNL     1      -1.175   0.208  -2.128  1.00  0.00     0.127 C 
HETATM   25  N2  UNL     1      -1.540   1.242  -3.025  1.00  0.00    -0.082 NA
BRANCH  24  26
HETATM   26  N1  UNL     1      -0.153  -0.519  -2.411  1.00  0.00    -0.387 N 
ATOM     27  H12 UNL     1       0.371  -0.340  -3.268  1.00  0.00     0.157 HD
ATOM     28  H11 UNL     1       0.110  -1.263  -1.765  1.00  0.00     0.157 HD
ENDBRANCH  24  26
ENDBRANCH   1  24
BRANCH   8  29
HETATM   29  N12 UNL     1      -3.320   1.670  -1.448  1.00  0.00    -0.383 N 
ATOM     30 2H12 UNL     1      -2.755   1.797  -2.287  1.00  0.00     0.157 HD
ATOM     31 1H12 UNL     1      -4.129   2.254  -1.235  1.00  0.00     0.157 HD
ENDBRANCH   8  29
BRANCH   7  32
HETATM   32  N11 UNL     1      -4.851   1.376   0.761  1.00  0.00    -0.333 N 
ATOM     33 2H11 UNL     1      -5.416   1.249   1.600  1.00  0.00     0.177 HD
ATOM     34 1H11 UNL     1      -5.135   2.127   0.132  1.00  0.00     0.177 HD
ENDBRANCH   7  32
TORSDOF 7
