REMARK  15 active torsions:
REMARK  status: ('A' for Active; 'I' for Inactive)
REMARK    1  A    between atoms: C2_2  and  C5_5 
REMARK    2  A    between atoms: C5_5  and  N1_6 
REMARK    3  A    between atoms: C5_5  and  N4_31 
REMARK       I    between atoms: N1_6  and  C6_8 
REMARK    4  A    between atoms: C6_8  and  C7_10 
REMARK    5  A    between atoms: C7_10  and  C8_11 
REMARK    6  A    between atoms: C8_11  and  C9_12 
REMARK    7  A    between atoms: C9_12  and  C10_13 
REMARK    8  A    between atoms: C10_13  and  C11_14 
REMARK    9  A    between atoms: C11_14  and  C12_15 
REMARK       I    between atoms: C12_15  and  N2_17 
REMARK   10  A    between atoms: C18_23  and  C19_24 
REMARK   11  A    between atoms: C27_37  and  C28_38 
REMARK   12  A    between atoms: C28_38  and  C29_39 
REMARK   13  A    between atoms: C29_39  and  C30_40 
REMARK   14  A    between atoms: C30_40  and  C31_41 
REMARK   15  A    between atoms: C31_41  and  N5_42 
REMARK       I    between atoms: N5_42  and  C32_44 
ROOT
HETATM    1  N1  UNL     1      -2.457   0.505   0.918  1.00  0.00    -0.312 N 
ATOM      2  H1  UNL     1      -3.133   1.133   1.354  1.00  0.00     0.170 HD
HETATM    3  C6  UNL     1      -1.070   0.956   0.795  1.00  0.00     0.242 C 
HETATM    4  O1  UNL     1      -0.316   0.133   0.253  1.00  0.00    -0.269 OA
ENDROOT
BRANCH   1   5
HETATM    5  C5  UNL     1      -2.913  -0.766   0.460  1.00  0.00     0.104 C 
BRANCH   5   6
HETATM    6  C2  UNL     1      -3.220  -1.712   1.620  1.00  0.00     0.008 C 
HETATM    7  C1  UNL     1      -3.709  -3.045   1.172  1.00  0.00     0.022 C 
HETATM    8  C3  UNL     1      -4.166  -1.143   2.634  1.00  0.00     0.022 C 
HETATM    9  C4  UNL     1      -1.902  -1.960   2.384  1.00  0.00     0.022 C 
ENDBRANCH   5   6
BRANCH   5  10
HETATM   10  N4  UNL     1      -3.858  -0.809  -0.598  1.00  0.00    -0.238 N 
HETATM   11  C24 UNL     1      -3.444  -1.425  -1.827  1.00  0.00     0.234 C 
HETATM   12  O4  UNL     1      -2.179  -1.500  -2.012  1.00  0.00    -0.272 OA
HETATM   13  C25 UNL     1      -4.228  -2.000  -2.938  1.00  0.00     0.130 C 
HETATM   14  C26 UNL     1      -5.583  -1.337  -2.969  1.00  0.00     0.178 C 
HETATM   15  O5  UNL     1      -6.259  -1.758  -1.821  1.00  0.00    -0.376 OA
HETATM   16  C27 UNL     1      -6.478  -0.658  -0.957  1.00  0.00     0.214 C 
HETATM   17  C33 UNL     1      -5.162  -0.225  -0.389  1.00  0.00     0.261 C 
HETATM   18  O7  UNL     1      -5.186   0.765   0.358  1.00  0.00    -0.270 OA
BRANCH  16  19
HETATM   19  C28 UNL     1      -7.368  -1.139   0.138  1.00  0.00     0.042 C 
BRANCH  19  20
HETATM   20  C29 UNL     1      -7.756  -0.123   1.151  1.00  0.00     0.004 C 
BRANCH  20  21
HETATM   21  C30 UNL     1      -8.511   1.053   0.558  1.00  0.00     0.020 C 
BRANCH  21  22
HETATM   22  C31 UNL     1      -9.786   0.577  -0.096  1.00  0.00     0.124 C 
BRANCH  22  23
HETATM   23  N5  UNL     1     -10.509   1.679  -0.655  1.00  0.00    -0.345 N 
HETATM   24  C32 UNL     1     -10.027   2.509  -1.662  1.00  0.00     0.328 C 
HETATM   25  N6  UNL     1     -10.796   3.595  -2.173  1.00  0.00    -0.040 NA
HETATM   26  O6  UNL     1      -8.889   2.364  -2.191  1.00  0.00    -0.251 OA
ATOM     27  H5  UNL     1     -11.442   1.869  -0.290  1.00  0.00     0.163 HD
ENDBRANCH  22  23
ENDBRANCH  21  22
ENDBRANCH  20  21
ENDBRANCH  19  20
ENDBRANCH  16  19
ENDBRANCH   5  10
ENDBRANCH   1   5
BRANCH   3  28
HETATM   28  C7  UNL     1      -0.655   2.243   1.273  1.00  0.00     0.048 C 
BRANCH  28  29
HETATM   29  C8  UNL     1       0.728   2.619   1.567  1.00  0.00     0.033 C 
BRANCH  29  30
HETATM   30  C9  UNL     1       1.487   1.981   2.654  1.00  0.00     0.004 C 
BRANCH  30  31
HETATM   31  C10 UNL     1       1.899   0.570   2.608  1.00  0.00     0.010 C 
BRANCH  31  32
HETATM   32  C11 UNL     1       2.892   0.206   1.532  1.00  0.00     0.103 C 
BRANCH  32  33
HETATM   33  C12 UNL     1       4.204   0.871   1.663  1.00  0.00     0.219 C 
HETATM   34  O2  UNL     1       4.539   1.520   2.678  1.00  0.00    -0.273 OA
HETATM   35  N2  UNL     1       5.107   0.749   0.578  1.00  0.00    -0.352 N 
HETATM   36  C13 UNL     1       6.420   1.399   0.701  1.00  0.00     0.126 C 
HETATM   37  C23 UNL     1       4.864   0.047  -0.645  1.00  0.00     0.126 C 
HETATM   38  C14 UNL     1       7.419   0.244   0.635  1.00  0.00     0.029 C 
HETATM   39  C15 UNL     1       7.337  -0.457  -0.691  1.00  0.00    -0.037 C 
HETATM   40  C16 UNL     1       7.716   0.398  -1.855  1.00  0.00     0.010 C 
HETATM   41  C21 UNL     1       8.267  -1.654  -0.617  1.00  0.00     0.010 C 
HETATM   42  C22 UNL     1       5.947  -1.000  -0.850  1.00  0.00     0.029 C 
HETATM   43  C17 UNL     1       9.073   0.029  -2.453  1.00  0.00     0.014 C 
HETATM   44  C18 UNL     1      10.054  -0.044  -1.306  1.00  0.00     0.075 C 
HETATM   45  C20 UNL     1       9.703  -1.201  -0.409  1.00  0.00     0.014 C 
BRANCH  44  46
HETATM   46  C19 UNL     1      11.461  -0.186  -1.799  1.00  0.00     0.235 C 
HETATM   47  N3  UNL     1      12.033   0.809  -2.633  1.00  0.00    -0.062 NA
HETATM   48  O3  UNL     1      12.143  -1.187  -1.477  1.00  0.00    -0.277 OA
ENDBRANCH  44  46
ENDBRANCH  32  33
ENDBRANCH  31  32
ENDBRANCH  30  31
ENDBRANCH  29  30
ENDBRANCH  28  29
ENDBRANCH   3  28
TORSDOF 15
