REMARK  2 active torsions:
REMARK  status: ('A' for Active; 'I' for Inactive)
REMARK    1  A    between atoms: C2_2  and  C3_3 
REMARK    2  A    between atoms: N3_7  and  N4_8 
ROOT
HETATM    1  C1  UNL     1       1.002  -1.427   0.196  1.00  0.00     0.056 C 
HETATM    2  C2  UNL     1       0.495  -0.023   0.091  1.00  0.00     0.204 C 
HETATM    3  N2  UNL     1      -0.469   0.025  -0.989  1.00  0.00    -0.095 NA
HETATM    4  N3  UNL     1      -1.555  -0.717  -0.503  1.00  0.00    -0.048 NA
HETATM    5  N5  UNL     1      -1.620  -0.427   0.884  1.00  0.00    -0.254 N 
ATOM      6  H5  UNL     1      -2.392  -0.654   1.511  1.00  0.00     0.187 HD
HETATM    7  C4  UNL     1      -0.408   0.242   1.246  1.00  0.00     0.269 C 
HETATM    8  O2  UNL     1      -0.228   0.871   2.292  1.00  0.00    -0.269 OA
ENDROOT
BRANCH   2   9
HETATM    9  C3  UNL     1       1.559   0.982  -0.048  1.00  0.00     0.266 C 
HETATM   10  N1  UNL     1       2.622   1.166   0.845  1.00  0.00    -0.060 NA
HETATM   11  O1  UNL     1       1.498   1.735  -1.060  1.00  0.00    -0.274 OA
ENDBRANCH   2   9
BRANCH   4  12
HETATM   12  N4  UNL     1      -2.754  -0.236  -1.060  1.00  0.00    -0.330 NA
ATOM     13  H42 UNL     1      -2.707  -0.445  -2.057  1.00  0.00     0.174 HD
ATOM     14  H41 UNL     1      -3.544  -0.776  -0.706  1.00  0.00     0.174 HD
ENDBRANCH   4  12
TORSDOF 2
