REMARK  3 active torsions:
REMARK  status: ('A' for Active; 'I' for Inactive)
REMARK    1  A    between atoms: N1_1  and  N2_4 
REMARK    2  A    between atoms: N3_6  and  C1_8 
REMARK    3  A    between atoms: C2_9  and  O1_10 
ROOT
HETATM    1  C1  UNL     1       0.387  -0.120   0.407  1.00  0.00     0.156 C 
HETATM    2  C2  UNL     1      -0.520  -1.152   0.448  1.00  0.00     0.177 C 
HETATM    3  N4  UNL     1      -1.880  -1.106   0.391  1.00  0.00    -0.287 N 
ATOM      4  H4  UNL     1      -2.378  -1.964   0.628  1.00  0.00     0.172 HD
HETATM    5  C3  UNL     1      -2.637  -0.036   0.052  1.00  0.00     0.329 C 
HETATM    6  O2  UNL     1      -3.771  -0.289  -0.433  1.00  0.00    -0.247 OA
HETATM    7  N5  UNL     1      -2.364   1.277   0.155  1.00  0.00    -0.272 N 
ATOM      8  H5  UNL     1      -3.160   1.914   0.128  1.00  0.00     0.174 HD
HETATM    9  C4  UNL     1      -1.144   1.836   0.290  1.00  0.00     0.302 C 
HETATM   10  O3  UNL     1      -1.130   3.093   0.253  1.00  0.00    -0.264 OA
HETATM   11  C5  UNL     1       0.094   1.227   0.463  1.00  0.00     0.271 C 
HETATM   12  O4  UNL     1       1.087   1.959   0.701  1.00  0.00    -0.280 OA
ENDROOT
BRANCH   1  13
HETATM   13  N3  UNL     1       1.760  -0.498   0.295  1.00  0.00    -0.279 N 
HETATM   14  N2  UNL     1       2.657   0.319  -0.072  1.00  0.00    -0.249 N 
ATOM     15  H2  UNL     1       2.444   1.288  -0.307  1.00  0.00     0.207 HD
ATOM     16  H3  UNL     1       2.027  -1.457   0.518  1.00  0.00     0.189 HD
BRANCH  14  17
HETATM   17  N1  UNL     1       3.959  -0.193  -0.135  1.00  0.00    -0.331 N 
ATOM     18  H12 UNL     1       4.157  -1.165   0.103  1.00  0.00     0.178 HD
ATOM     19  H11 UNL     1       4.681   0.464  -0.430  1.00  0.00     0.178 HD
ENDBRANCH  14  17
ENDBRANCH   1  13
BRANCH   2  20
HETATM   20  O1  UNL     1       0.033  -2.411   0.564  1.00  0.00    -0.344 OA
ATOM     21  H1  UNL     1      -0.594  -3.124   0.592  1.00  0.00     0.219 HD
ENDBRANCH   2  20
TORSDOF 3
