REMARK  9 active torsions:
REMARK  status: ('A' for Active; 'I' for Inactive)
REMARK    1  A    between atoms: C2_7  and  C3_8 
REMARK    2  A    between atoms: C3_8  and  C4_9 
REMARK    3  A    between atoms: C4_9  and  N3_10 
REMARK    4  A    between atoms: C4_9  and  C5_14 
REMARK       I    between atoms: C5_14  and  N4_16 
REMARK    5  A    between atoms: N4_16  and  C6_18 
REMARK    6  A    between atoms: C6_18  and  C7_19 
REMARK    7  A    between atoms: C7_19  and  N5_20 
REMARK    8  A    between atoms: C8_26  and  C9_27 
REMARK    9  A    between atoms: C9_27  and  N7_28 
ROOT
HETATM    1  N1  UNL     1      -4.160  -2.693   0.482  1.00  0.00    -0.234 N 
ATOM      2  H11 UNL     1      -5.162  -2.617   0.308  1.00  0.00     0.174 HD
ATOM      3  H12 UNL     1      -3.765  -3.594   0.750  1.00  0.00     0.174 HD
HETATM    4  C1  UNL     1      -3.454  -1.634   0.350  1.00  0.00     0.678 A 
HETATM    5  N2  UNL     1      -2.116  -1.735   0.582  1.00  0.00    -0.181 N 
ATOM      6  H2  UNL     1      -1.706  -2.629   0.851  1.00  0.00     0.185 HD
HETATM    7  C2  UNL     1      -1.338  -0.640   0.452  1.00  0.00     0.101 A 
HETATM    8  N6  UNL     1      -1.888   0.531   0.098  1.00  0.00    -0.333 N 
ATOM      9  H6  UNL     1      -1.292   1.353   0.002  1.00  0.00     0.168 HD
HETATM   10  C8  UNL     1      -3.209   0.645  -0.134  1.00  0.00     0.124 A 
HETATM   11  N8  UNL     1      -3.972  -0.452  -0.002  1.00  0.00    -0.179 N 
ATOM     12  H8  UNL     1      -4.975  -0.382  -0.175  1.00  0.00     0.185 HD
ENDROOT
BRANCH   7  13
HETATM   13  C3  UNL     1       0.128  -0.676   0.688  1.00  0.00     0.119 C 
BRANCH  13  14
HETATM   14  C4  UNL     1       0.805  -1.007  -0.637  1.00  0.00     0.281 C 
BRANCH  14  15
HETATM   15  N3  UNL     1       0.333  -2.279  -1.081  1.00  0.00    -0.066 N 
ATOM     16  H33 UNL     1       0.462  -3.010  -0.382  1.00  0.00     0.275 HD
ATOM     17  H32 UNL     1      -0.684  -2.320  -1.140  1.00  0.00     0.275 HD
ATOM     18  H31 UNL     1       0.786  -2.500  -1.968  1.00  0.00     0.275 HD
ENDBRANCH  14  15
BRANCH  14  19
HETATM   19  C5  UNL     1       2.267  -1.073  -0.420  1.00  0.00     0.248 C 
HETATM   20  O1  UNL     1       2.858  -2.158  -0.638  1.00  0.00    -0.271 OA
HETATM   21  N4  UNL     1       3.026   0.042   0.025  1.00  0.00    -0.358 N 
ATOM     22  H4  UNL     1       2.555   0.928   0.206  1.00  0.00     0.162 HD
BRANCH  21  23
HETATM   23  C6  UNL     1       4.442  -0.055   0.225  1.00  0.00     0.150 C 
BRANCH  23  24
HETATM   24  C7  UNL     1       5.061   1.231   0.696  1.00  0.00     0.249 C 
BRANCH  24  25
HETATM   25  N5  UNL     1       4.516   1.684   1.953  1.00  0.00    -0.078 N 
ATOM     26  H53 UNL     1       3.500   1.763   1.904  1.00  0.00     0.274 HD
ATOM     27  H52 UNL     1       4.591   0.959   2.667  1.00  0.00     0.274 HD
ATOM     28  H51 UNL     1       4.936   2.557   2.273  1.00  0.00     0.274 HD
ENDBRANCH  24  25
ENDBRANCH  23  24
ENDBRANCH  21  23
ENDBRANCH  14  19
ENDBRANCH  13  14
ENDBRANCH   7  13
BRANCH  10  29
HETATM   29  C9  UNL     1      -3.823   1.921  -0.523  1.00  0.00     0.306 C 
BRANCH  29  30
HETATM   30  N7  UNL     1      -5.246   1.736  -0.700  1.00  0.00    -0.073 N 
ATOM     31  H73 UNL     1      -5.459   0.988  -1.361  1.00  0.00     0.274 HD
ATOM     32  H72 UNL     1      -5.688   1.331   0.125  1.00  0.00     0.274 HD
ATOM     33  H71 UNL     1      -5.672   2.622  -0.970  1.00  0.00     0.274 HD
ENDBRANCH  29  30
ENDBRANCH  10  29
TORSDOF 9
