REMARK  4 active torsions:
REMARK  status: ('A' for Active; 'I' for Inactive)
REMARK       I    between atoms: N1_11  and  C9_12 
REMARK    1  A    between atoms: C11_15  and  C12_16 
REMARK       I    between atoms: C12_16  and  N2_18 
REMARK    2  A    between atoms: N2_18  and  C13_20 
REMARK    3  A    between atoms: C13_20  and  C14_21 
REMARK    4  A    between atoms: C14_21  and  N3_22 
REMARK       I    between atoms: N3_22  and  C15_24 
ROOT
HETATM    1  C1  UNL     1      -1.124   0.742   3.105  1.00  0.00     0.019 C 
HETATM    2  C2  UNL     1      -1.160   0.315   1.855  1.00  0.00    -0.027 C 
HETATM    3  C3  UNL     1      -1.846   1.073   0.773  1.00  0.00     0.177 C 
HETATM    4  O1  UNL     1      -3.149   1.386   1.144  1.00  0.00    -0.368 OA
HETATM    5  C4  UNL     1      -3.895   1.272  -0.052  1.00  0.00     0.070 C 
HETATM    6  C5  UNL     1      -3.545   2.419  -0.951  1.00  0.00     0.047 C 
HETATM    7  C6  UNL     1      -5.375   1.227   0.244  1.00  0.00     0.047 C 
HETATM    8  C7  UNL     1      -3.389  -0.060  -0.572  1.00  0.00     0.117 C 
HETATM    9 BR1  UNL     1      -4.121  -1.415   0.606  1.00  0.00    -0.086 Br
HETATM   10  C8  UNL     1      -1.898   0.116  -0.360  1.00  0.00     0.139 C 
HETATM   11  N1  UNL     1      -1.241  -1.105   0.020  1.00  0.00    -0.326 N 
HETATM   12  C9  UNL     1      -1.276  -2.284  -0.765  1.00  0.00     0.217 C 
HETATM   13  C10 UNL     1      -0.606  -3.556  -0.396  1.00  0.00     0.117 C 
HETATM   14  O2  UNL     1      -1.908  -2.273  -1.841  1.00  0.00    -0.274 OA
HETATM   15  C11 UNL     1      -0.563  -0.935   1.289  1.00  0.00     0.211 C 
ENDROOT
BRANCH  15  16
HETATM   16  C12 UNL     1       0.880  -0.742   1.169  1.00  0.00     0.245 C 
HETATM   17  O3  UNL     1       1.512  -0.570   2.268  1.00  0.00    -0.271 OA
HETATM   18  N2  UNL     1       1.611  -0.732  -0.037  1.00  0.00    -0.357 N 
ATOM     19  H2  UNL     1       1.111  -0.869  -0.915  1.00  0.00     0.162 HD
BRANCH  18  20
HETATM   20  C13 UNL     1       3.037  -0.535  -0.075  1.00  0.00     0.142 C 
BRANCH  20  21
HETATM   21  C14 UNL     1       3.589  -0.567  -1.474  1.00  0.00     0.142 C 
BRANCH  21  22
HETATM   22  N3  UNL     1       5.015  -0.357  -1.384  1.00  0.00    -0.363 N 
HETATM   23  C15 UNL     1       5.613   0.868  -0.985  1.00  0.00     0.181 C 
HETATM   24  N4  UNL     1       5.183   2.014  -1.380  1.00  0.00    -0.374 N 
HETATM   25  N5  UNL     1       6.729   0.802  -0.115  1.00  0.00    -0.064 NA
ATOM     26  H42 UNL     1       4.379   2.062  -2.006  1.00  0.00     0.158 HD
ATOM     27  H41 UNL     1       5.612   2.894  -1.093  1.00  0.00     0.158 HD
ATOM     28  H3  UNL     1       5.630  -1.135  -1.621  1.00  0.00     0.162 HD
ENDBRANCH  21  22
ENDBRANCH  20  21
ENDBRANCH  18  20
ENDBRANCH  15  16
TORSDOF 4
