REMARK  4 active torsions:
REMARK  status: ('A' for Active; 'I' for Inactive)
REMARK    1  A    between atoms: N1_1  and  C1_4 
REMARK    2  A    between atoms: C2_7  and  N3_8 
REMARK    3  A    between atoms: C4_10  and  S1_11 
REMARK    4  A    between atoms: S1_11  and  N4_12 
ROOT
HETATM    1  N3  UNL     1      -0.300  -0.211   0.412  1.00  0.00    -0.249 N 
HETATM    2  C3  UNL     1       1.013  -0.004   0.538  1.00  0.00     0.145 A 
HETATM    3  C4  UNL     1       1.527  -0.997   1.375  1.00  0.00     0.113 A 
HETATM    4  C5  UNL     1       0.463  -1.784   1.726  1.00  0.00     0.134 A 
HETATM    5  N5  UNL     1      -0.613  -1.288   1.135  1.00  0.00    -0.302 N 
ATOM      6  H5  UNL     1      -1.552  -1.676   1.221  1.00  0.00     0.186 HD
ENDROOT
BRANCH   1   7
HETATM    7  C2  UNL     1      -1.244   0.551  -0.346  1.00  0.00     0.143 A 
HETATM    8  N2  UNL     1      -1.658   0.128  -1.567  1.00  0.00    -0.175 N 
HETATM    9  C1  UNL     1      -2.542   0.811  -2.311  1.00  0.00     0.677 A 
ATOM     10  H2  UNL     1      -1.282  -0.746  -1.935  1.00  0.00     0.186 HD
HETATM   11  N6  UNL     1      -3.057   1.970  -1.855  1.00  0.00    -0.202 N 
HETATM   12  C7  UNL     1      -2.672   2.430  -0.642  1.00  0.00     0.110 A 
ATOM     13  H6  UNL     1      -3.728   2.494  -2.417  1.00  0.00     0.183 HD
HETATM   14  C6  UNL     1      -1.765   1.722   0.115  1.00  0.00     0.068 A 
BRANCH   9  15
HETATM   15  N1  UNL     1      -2.930   0.390  -3.484  1.00  0.00    -0.234 N 
ATOM     16  H12 UNL     1      -2.540  -0.487  -3.829  1.00  0.00     0.174 HD
ATOM     17  H11 UNL     1      -3.602   0.909  -4.049  1.00  0.00     0.174 HD
ENDBRANCH   9  15
ENDBRANCH   1   7
BRANCH   3  18
HETATM   18  S1  UNL     1       3.188  -1.184   1.863  1.00  0.00     0.259 S 
HETATM   19  O1  UNL     1       3.822   0.153   2.001  1.00  0.00    -0.201 OA
HETATM   20  O2  UNL     1       3.193  -1.932   3.189  1.00  0.00    -0.201 OA
BRANCH  18  21
HETATM   21  N4  UNL     1       3.996  -2.195   0.722  1.00  0.00    -0.324 N 
ATOM     22  H42 UNL     1       3.558  -2.609  -0.101  1.00  0.00     0.169 HD
ATOM     23  H41 UNL     1       4.969  -2.305   1.008  1.00  0.00     0.169 HD
ENDBRANCH  18  21
ENDBRANCH   3  18
TORSDOF 4
