REMARK  4 active torsions:
REMARK  status: ('A' for Active; 'I' for Inactive)
REMARK    1  A    between atoms: N1_1  and  C1_4 
REMARK    2  A    between atoms: C4_8  and  C5_9 
REMARK    3  A    between atoms: C5_9  and  O1_10 
REMARK    4  A    between atoms: C5_9  and  N3_12 
ROOT
HETATM    1  C1  UNL     1       4.430   0.672  -0.175  1.00  0.00     0.116 A 
HETATM    2  C2  UNL     1       3.530   1.313   0.655  1.00  0.00     0.067 A 
HETATM    3  C3  UNL     1       2.274   0.778   0.822  1.00  0.00     0.120 A 
HETATM    4  N2  UNL     1       1.948  -0.347   0.180  1.00  0.00    -0.140 N 
HETATM    5  C4  UNL     1       0.784  -1.049   0.192  1.00  0.00     0.168 A 
HETATM    6  N5  UNL     1       0.993  -2.095  -0.624  1.00  0.00    -0.270 N 
ATOM      7  H5  UNL     1       0.302  -2.817  -0.830  1.00  0.00     0.189 HD
HETATM    8  N6  UNL     1       2.217  -2.062  -1.125  1.00  0.00    -0.130 N 
ATOM      9  H6  UNL     1       2.623  -2.741  -1.769  1.00  0.00     0.205 HD
HETATM   10  C10 UNL     1       2.838  -0.955  -0.623  1.00  0.00     0.706 A 
HETATM   11  N7  UNL     1       4.081  -0.447  -0.803  1.00  0.00    -0.175 N 
ATOM     12  H7  UNL     1       4.745  -0.920  -1.416  1.00  0.00     0.186 HD
ENDROOT
BRANCH   5  13
HETATM   13  C5  UNL     1      -0.437  -0.683   0.972  1.00  0.00     0.291 C 
BRANCH  13  14
HETATM   14  O1  UNL     1      -0.889  -1.881   1.559  1.00  0.00    -0.369 OA
ATOM     15  H1  UNL     1      -1.665  -1.648   2.055  1.00  0.00     0.212 HD
ENDBRANCH  13  14
BRANCH  13  16
HETATM   16  N3  UNL     1      -1.415  -0.019   0.193  1.00  0.00    -0.358 N 
HETATM   17  C6  UNL     1      -1.969  -0.696  -0.908  1.00  0.00     0.152 C 
HETATM   18  C7  UNL     1      -3.480  -0.810  -0.660  1.00  0.00     0.252 C 
HETATM   19  N4  UNL     1      -3.983   0.537  -0.758  1.00  0.00    -0.069 N 
HETATM   20  C8  UNL     1      -3.416   1.430   0.213  1.00  0.00     0.276 C 
ATOM     21  H42 UNL     1      -3.857   0.902  -1.702  1.00  0.00     0.277 HD
ATOM     22  H41 UNL     1      -5.002   0.547  -0.707  1.00  0.00     0.277 HD
HETATM   23  C9  UNL     1      -2.128   1.031   0.793  1.00  0.00     0.088 C 
ENDBRANCH  13  16
ENDBRANCH   5  13
BRANCH   1  24
HETATM   24  N1  UNL     1       5.598   1.223  -0.294  1.00  0.00    -0.385 N 
ATOM     25  H12 UNL     1       5.866   2.081   0.188  1.00  0.00     0.157 HD
ATOM     26  H11 UNL     1       6.262   0.750  -0.907  1.00  0.00     0.157 HD
ENDBRANCH   1  24
TORSDOF 4
