REMARK  2 active torsions:
REMARK  status: ('A' for Active; 'I' for Inactive)
REMARK    1  A    between atoms: C4_6  and  C5_7 
REMARK    2  A    between atoms: C7_11  and  N4_12 
ROOT
HETATM    1  N1  UNL     1      -1.198  -4.334   0.011  1.00  0.00    -0.191 NA
HETATM    2  C1  UNL     1      -1.004  -3.200   0.025  1.00  0.00     0.103 C 
HETATM    3  C2  UNL     1      -0.779  -1.792   0.051  1.00  0.00     0.096 A 
HETATM    4  C3  UNL     1      -1.825  -0.928   0.308  1.00  0.00     0.084 A 
HETATM    5  N2  UNL     1      -3.137  -1.424   0.550  1.00  0.00    -0.100 NA
HETATM    6  C4  UNL     1      -1.621   0.437   0.336  1.00  0.00     0.057 A 
HETATM    7  C6  UNL     1      -0.359   0.939   0.105  1.00  0.00     0.054 A 
HETATM    8  C7  UNL     1       0.707   0.076  -0.156  1.00  0.00     0.101 A 
HETATM    9  C10 UNL     1       0.484  -1.283  -0.180  1.00  0.00     0.099 A 
HETATM   10  N7  UNL     1       1.568  -2.145  -0.445  1.00  0.00    -0.098 NA
ENDROOT
BRANCH   6  11
HETATM   11  C5  UNL     1      -2.749   1.308   0.610  1.00  0.00     0.267 C 
HETATM   12  N3  UNL     1      -2.525   2.714   0.637  1.00  0.00    -0.057 NA
HETATM   13  O1  UNL     1      -3.906   0.912   0.826  1.00  0.00    -0.271 OA
ENDBRANCH   6  11
BRANCH   8  14
HETATM   14  N4  UNL     1       2.007   0.578  -0.395  1.00  0.00    -0.196 N 
HETATM   15  N5  UNL     1       2.703   1.292   0.474  1.00  0.00    -0.289 N 
HETATM   16  C8  UNL     1       3.900   1.626  -0.033  1.00  0.00     0.127 A 
ATOM     17  H5  UNL     1       2.375   1.553   1.404  1.00  0.00     0.188 HD
HETATM   18  C9  UNL     1       3.941   1.083  -1.292  1.00  0.00     0.127 A 
HETATM   19  N6  UNL     1       2.754   0.454  -1.458  1.00  0.00    -0.289 N 
ATOM     20  H6  UNL     1       2.480  -0.050  -2.301  1.00  0.00     0.188 HD
ENDBRANCH   8  14
TORSDOF 2
