REMARK  5 active torsions:
REMARK  status: ('A' for Active; 'I' for Inactive)
REMARK    1  A    between atoms: N1_2  and  C2_4 
REMARK    2  A    between atoms: C4_9  and  C5_10 
REMARK    3  A    between atoms: C7_14  and  N4_15 
REMARK       I    between atoms: N4_15  and  C8_17 
REMARK       I    between atoms: C8_17  and  N5_19 
REMARK    4  A    between atoms: N5_19  and  C9_21 
REMARK    5  A    between atoms: C16_31  and  C17_32 
ROOT
HETATM    1  C5  UNL     1      -1.346  -2.145  -0.816  1.00  0.00    -0.004 A 
HETATM    2  C6  UNL     1      -0.062  -2.007  -1.296  1.00  0.00     0.102 A 
HETATM    3  N3  UNL     1       0.627  -0.860  -1.324  1.00  0.00    -0.351 N 
ATOM      4  H3  UNL     1       1.577  -0.830  -1.694  1.00  0.00     0.166 HD
HETATM    5  C7  UNL     1       0.039   0.248  -0.854  1.00  0.00     0.122 A 
HETATM    6  C16 UNL     1      -1.273   0.183  -0.348  1.00  0.00     0.043 A 
HETATM    7  C24 UNL     1      -1.956  -0.987  -0.328  1.00  0.00     0.032 A 
ENDROOT
BRANCH   5   8
HETATM    8  N4  UNL     1       0.604   1.387  -0.835  1.00  0.00    -0.294 N 
HETATM    9  C8  UNL     1       1.902   1.709  -1.280  1.00  0.00     0.327 C 
HETATM   10  O2  UNL     1       2.261   1.397  -2.451  1.00  0.00    -0.247 OA
HETATM   11  N5  UNL     1       2.785   2.381  -0.407  1.00  0.00    -0.288 N 
ATOM     12  H5  UNL     1       2.555   3.308  -0.049  1.00  0.00     0.172 HD
ATOM     13  H4  UNL     1       0.054   2.157  -0.454  1.00  0.00     0.172 HD
BRANCH  11  14
HETATM   14  C9  UNL     1       3.904   1.795  -0.065  1.00  0.00     0.153 A 
HETATM   15  N6  UNL     1       4.366   0.603  -0.428  1.00  0.00    -0.335 N 
HETATM   16  C10 UNL     1       5.534   0.203   0.042  1.00  0.00     0.051 A 
ATOM     17  H6  UNL     1       3.828   0.008  -1.058  1.00  0.00     0.168 HD
HETATM   18  C11 UNL     1       6.167  -1.031  -0.243  1.00  0.00     0.031 A 
HETATM   19  C15 UNL     1       6.198   1.053   0.881  1.00  0.00     0.035 A 
HETATM   20  C12 UNL     1       7.376  -1.319   0.310  1.00  0.00     0.002 A 
HETATM   21  C13 UNL     1       8.073  -0.479   1.163  1.00  0.00     0.002 A 
HETATM   22  C14 UNL     1       7.450   0.729   1.440  1.00  0.00     0.021 A 
HETATM   23  S1  UNL     1       5.137   2.384   0.968  1.00  0.00    -0.052 SA
ENDBRANCH  11  14
ENDBRANCH   5   8
BRANCH   6  24
HETATM   24  C17 UNL     1      -1.882   1.414   0.156  1.00  0.00     0.089 A 
HETATM   25  N7  UNL     1      -3.076   1.632   0.674  1.00  0.00    -0.349 N 
HETATM   26  C18 UNL     1      -3.411   2.828   1.062  1.00  0.00     0.050 A 
ATOM     27  H7  UNL     1      -3.737   0.862   0.770  1.00  0.00     0.166 HD
HETATM   28  C19 UNL     1      -4.651   3.202   1.631  1.00  0.00     0.031 A 
HETATM   29  C23 UNL     1      -2.488   3.828   0.911  1.00  0.00     0.033 A 
HETATM   30  C20 UNL     1      -4.854   4.493   1.988  1.00  0.00     0.002 A 
HETATM   31  C21 UNL     1      -3.948   5.523   1.850  1.00  0.00     0.002 A 
HETATM   32  C22 UNL     1      -2.726   5.157   1.289  1.00  0.00     0.021 A 
HETATM   33  S2  UNL     1      -1.176   2.968   0.209  1.00  0.00    -0.069 SA
ENDBRANCH   6  24
BRANCH   1  34
HETATM   34  C4  UNL     1      -2.056  -3.406  -0.804  1.00  0.00     0.045 A 
HETATM   35  C2  UNL     1      -3.353  -3.614  -1.188  1.00  0.00     0.134 A 
HETATM   36  N2  UNL     1      -3.617  -4.943  -1.017  1.00  0.00    -0.245 N 
HETATM   37  O1  UNL     1      -2.538  -5.540  -0.548  1.00  0.00    -0.248 OA
ATOM     38  H2  UNL     1      -4.506  -5.401  -1.219  1.00  0.00     0.196 HD
HETATM   39  C3  UNL     1      -1.576  -4.626  -0.410  1.00  0.00     0.183 A 
BRANCH  35  40
HETATM   40  N1  UNL     1      -4.173  -2.727  -1.628  1.00  0.00    -0.379 N 
HETATM   41  C1  UNL     1      -5.526  -3.095  -1.999  1.00  0.00     0.147 C 
ATOM     42  H1  UNL     1      -3.870  -1.757  -1.717  1.00  0.00     0.160 HD
ENDBRANCH  35  40
ENDBRANCH   1  34
TORSDOF 5
