REMARK  5 active torsions:
REMARK  status: ('A' for Active; 'I' for Inactive)
REMARK    1  A    between atoms: C4_5  and  O1_6 
REMARK    2  A    between atoms: O1_6  and  C5_7 
REMARK    3  A    between atoms: N2_9  and  C7_10 
REMARK    4  A    between atoms: C14_21  and  C15_22 
REMARK    5  A    between atoms: C22_30  and  O4_31 
ROOT
HETATM    1  C5  UNL     1      -0.151   0.427   0.384  1.00  0.00     0.114 A 
HETATM    2  C6  UNL     1      -1.217  -0.195  -0.280  1.00  0.00     0.106 A 
HETATM    3  N2  UNL     1      -1.886  -1.316  -0.586  1.00  0.00    -0.252 N 
HETATM    4  N3  UNL     1      -2.933  -0.998  -1.316  1.00  0.00    -0.291 N 
ATOM      5  H3  UNL     1      -3.602  -1.678  -1.677  1.00  0.00     0.187 HD
HETATM    6  C14 UNL     1      -3.020   0.334  -1.533  1.00  0.00     0.080 A 
HETATM    7  C19 UNL     1      -1.966   0.917  -0.904  1.00  0.00     0.053 A 
HETATM    8  C20 UNL     1      -1.325   2.103  -0.577  1.00  0.00     0.063 A 
HETATM    9  C21 UNL     1      -0.232   1.802   0.203  1.00  0.00     0.061 A 
HETATM   10  C22 UNL     1       0.608   2.657   0.767  1.00  0.00     0.092 A 
HETATM   11  C23 UNL     1       0.599   4.130   0.636  1.00  0.00     0.010 A 
HETATM   12  C24 UNL     1       1.637   4.728   1.346  1.00  0.00     0.015 A 
HETATM   13  C25 UNL     1       1.787   6.104   1.342  1.00  0.00     0.001 A 
HETATM   14  C26 UNL     1       0.937   6.937   0.650  1.00  0.00     0.001 A 
HETATM   15  C27 UNL     1      -0.093   6.348  -0.054  1.00  0.00     0.014 A 
HETATM   16  C28 UNL     1      -0.239   4.969  -0.047  1.00  0.00    -0.008 A 
HETATM   17  C29 UNL     1      -1.396   4.609  -0.851  1.00  0.00     0.100 A 
HETATM   18  N4  UNL     1      -1.697   3.243  -0.931  1.00  0.00    -0.363 N 
ATOM     19  H4  UNL     1      -2.542   3.139  -1.492  1.00  0.00     0.165 HD
ENDROOT
BRANCH   3  20
HETATM   20  C7  UNL     1      -1.581  -2.658  -0.150  1.00  0.00     0.059 A 
HETATM   21  C8  UNL     1      -1.346  -3.617  -1.097  1.00  0.00     0.034 A 
HETATM   22  C9  UNL     1      -1.061  -4.932  -0.725  1.00  0.00     0.042 A 
HETATM   23  C10 UNL     1      -1.018  -5.264   0.614  1.00  0.00     0.105 A 
HETATM   24  C11 UNL     1      -1.252  -4.311   1.578  1.00  0.00     0.107 A 
HETATM   25  O3  UNL     1      -0.759  -6.484   1.224  1.00  0.00    -0.323 OA
HETATM   26  C12 UNL     1      -1.534  -3.005   1.173  1.00  0.00     0.071 A 
HETATM   27  O2  UNL     1      -1.141  -4.932   2.799  1.00  0.00    -0.323 OA
HETATM   28  C13 UNL     1      -1.178  -6.343   2.572  1.00  0.00     0.352 C 
ENDBRANCH   3  20
BRANCH   1  29
HETATM   29  O1  UNL     1       0.798  -0.303   1.081  1.00  0.00    -0.342 OA
BRANCH  29  30
HETATM   30  C4  UNL     1       2.061  -0.715   0.646  1.00  0.00     0.132 C 
HETATM   31  C3  UNL     1       2.009  -2.045  -0.041  1.00  0.00     0.062 C 
HETATM   32  C2  UNL     1       3.362  -2.529  -0.495  1.00  0.00     0.274 C 
HETATM   33  N1  UNL     1       4.334  -2.596   0.558  1.00  0.00     0.084 N 
HETATM   34  C1  UNL     1       5.520  -1.815   0.261  1.00  0.00     0.309 C 
HETATM   35  C31 UNL     1       3.728  -2.205   1.812  1.00  0.00     0.274 C 
HETATM   36  C30 UNL     1       3.098  -0.855   1.742  1.00  0.00     0.062 C 
ENDBRANCH  29  30
ENDBRANCH   1  29
BRANCH   6  37
HETATM   37  C15 UNL     1      -4.114   0.968  -2.285  1.00  0.00     0.034 A 
HETATM   38  C16 UNL     1      -4.337   2.182  -2.810  1.00  0.00     0.021 A 
HETATM   39  C17 UNL     1      -5.525   2.426  -3.409  1.00  0.00     0.008 A 
HETATM   40  C18 UNL     1      -6.431   1.412  -3.444  1.00  0.00     0.050 A 
HETATM   41  S1  UNL     1      -5.627   0.154  -2.654  1.00  0.00    -0.100 SA
ENDBRANCH   6  37
BRANCH  10  42
HETATM   42  O4  UNL     1       1.607   2.182   1.568  1.00  0.00    -0.359 OA
ATOM     43  H4  UNL     1       2.209   2.795   1.972  1.00  0.00     0.217 HD
ENDBRANCH  10  42
TORSDOF 5
