REMARK  4 active torsions:
REMARK  status: ('A' for Active; 'I' for Inactive)
REMARK    1  A    between atoms: C2_3  and  N2_4 
REMARK    2  A    between atoms: C2_3  and  C3_8 
REMARK    3  A    between atoms: C3_8  and  C4_9 
REMARK    4  A    between atoms: C6_15  and  N5_16 
ROOT
HETATM    1  N1  UNL     1      -4.111  -1.084  -1.172  1.00  0.00    -0.195 NA
HETATM    2  C1  UNL     1      -3.239  -0.748  -0.482  1.00  0.00     0.092 C 
HETATM    3  C2  UNL     1      -2.152  -0.317   0.400  1.00  0.00     0.292 C 
ENDROOT
BRANCH   3   4
HETATM    4  N2  UNL     1      -2.601   0.816   1.169  1.00  0.00    -0.062 N 
ATOM      5  H23 UNL     1      -2.949   1.573   0.581  1.00  0.00     0.275 HD
ATOM      6  H22 UNL     1      -3.464   0.624   1.678  1.00  0.00     0.275 HD
ATOM      7  H21 UNL     1      -1.844   1.116   1.783  1.00  0.00     0.275 HD
ENDBRANCH   3   4
BRANCH   3   8
HETATM    8  C3  UNL     1      -0.972   0.059  -0.461  1.00  0.00     0.094 C 
BRANCH   8   9
HETATM    9  C4  UNL     1       0.211   0.519   0.333  1.00  0.00     0.183 C 
HETATM   10  N3  UNL     1       0.696  -0.493   1.249  1.00  0.00    -0.365 N 
HETATM   11  C5  UNL     1       1.466  -1.545   0.682  1.00  0.00     0.175 C 
ATOM     12  H3  UNL     1       0.496  -0.453   2.248  1.00  0.00     0.162 HD
HETATM   13  N4  UNL     1       2.126  -1.299  -0.386  1.00  0.00    -0.343 N 
HETATM   14  C6  UNL     1       2.136  -0.026  -1.046  1.00  0.00     0.384 C 
ATOM     15  H4  UNL     1       2.678  -2.054  -0.793  1.00  0.00     0.164 HD
HETATM   16  N6  UNL     1       1.241   0.953  -0.550  1.00  0.00    -0.359 N 
ATOM     17  H6  UNL     1       1.331   1.934  -0.816  1.00  0.00     0.159 HD
BRANCH  14  18
HETATM   18  N5  UNL     1       3.487   0.560  -0.962  1.00  0.00    -0.041 N 
ATOM     19  H53 UNL     1       3.822   0.621  -0.000  1.00  0.00     0.279 HD
ATOM     20  H52 UNL     1       4.203  -0.069  -1.326  1.00  0.00     0.279 HD
ATOM     21  H51 UNL     1       3.494   1.466  -1.431  1.00  0.00     0.279 HD
ENDBRANCH  14  18
ENDBRANCH   8   9
ENDBRANCH   3   8
TORSDOF 4
