REMARK  8 active torsions:
REMARK  status: ('A' for Active; 'I' for Inactive)
REMARK    1  A    between atoms: N4_14  and  C7_15 
REMARK    2  A    between atoms: C7_15  and  C8_16 
REMARK    3  A    between atoms: C8_16  and  O2_17 
REMARK    4  A    between atoms: C8_16  and  O3_19 
REMARK    5  A    between atoms: C8_16  and  C9_21 
REMARK    6  A    between atoms: C9_21  and  O4_22 
REMARK    7  A    between atoms: C9_21  and  N5_24 
REMARK    8  A    between atoms: N5_24  and  O5_25 
ROOT
HETATM    1  N1  UNL     1      -4.451  -2.816   0.520  1.00  0.00    -0.083 NA
HETATM    2  C1  UNL     1      -3.361  -1.878   0.451  1.00  0.00     0.121 A 
HETATM    3  C2  UNL     1      -3.380  -0.813  -0.385  1.00  0.00     0.077 A 
HETATM    4  C3  UNL     1      -2.297   0.069  -0.417  1.00  0.00     0.070 A 
HETATM    5  N2  UNL     1      -2.351   1.138  -1.212  1.00  0.00    -0.338 N 
ATOM      6  H2  UNL     1      -3.159   1.289  -1.816  1.00  0.00     0.167 HD
HETATM    7  C4  UNL     1      -1.302   2.043  -1.213  1.00  0.00     0.144 A 
HETATM    8  N3  UNL     1      -1.270   3.151  -1.918  1.00  0.00    -0.301 N 
ATOM      9  H3  UNL     1      -2.036   3.384  -2.550  1.00  0.00     0.171 HD
HETATM   10  C5  UNL     1      -0.229   3.962  -1.797  1.00  0.00     0.291 A 
HETATM   11  O1  UNL     1      -0.010   5.065  -2.382  1.00  0.00    -0.260 OA
HETATM   12  S1  UNL     1       0.737   3.153  -0.664  1.00  0.00    -0.007 SA
HETATM   13  C6  UNL     1      -0.266   1.764  -0.385  1.00  0.00     0.130 A 
HETATM   14  N4  UNL     1      -0.149   0.677   0.454  1.00  0.00    -0.305 N 
HETATM   15  C10 UNL     1      -1.219  -0.187   0.428  1.00  0.00     0.135 A 
HETATM   16  C11 UNL     1      -1.259  -1.259   1.239  1.00  0.00     0.276 A 
HETATM   17  O6  UNL     1      -0.312  -1.489   2.006  1.00  0.00    -0.266 OA
HETATM   18  N6  UNL     1      -2.324  -2.092   1.243  1.00  0.00    -0.310 N 
ATOM     19  H6  UNL     1      -2.328  -2.899   1.867  1.00  0.00     0.170 HD
ENDROOT
BRANCH  14  20
HETATM   20  C7  UNL     1       1.021   0.490   1.210  1.00  0.00     0.143 C 
BRANCH  20  21
HETATM   21  C8  UNL     1       2.206  -0.254   0.707  1.00  0.00     0.238 C 
BRANCH  21  22
HETATM   22  O2  UNL     1       3.198  -0.254   1.767  1.00  0.00    -0.358 OA
ATOM     23  H2  UNL     1       3.955  -0.729   1.446  1.00  0.00     0.213 HD
ENDBRANCH  21  22
BRANCH  21  24
HETATM   24  O3  UNL     1       2.048  -1.522   0.196  1.00  0.00    -0.358 OA
ATOM     25  H3  UNL     1       2.805  -1.997  -0.125  1.00  0.00     0.213 HD
ENDBRANCH  21  24
BRANCH  21  26
HETATM   26  C9  UNL     1       3.022   0.461  -0.390  1.00  0.00     0.306 C 
BRANCH  26  27
HETATM   27  O4  UNL     1       2.395   0.258  -1.645  1.00  0.00    -0.372 OA
ATOM     28  H4  UNL     1       2.897   0.698  -2.320  1.00  0.00     0.212 HD
ENDBRANCH  26  27
BRANCH  26  29
HETATM   29  N5  UNL     1       4.289  -0.281  -0.608  1.00  0.00    -0.065 NA
BRANCH  29  30
HETATM   30  O5  UNL     1       3.976  -1.484  -1.061  1.00  0.00    -0.294 OA
ATOM     31  H5  UNL     1       4.787  -1.959  -1.201  1.00  0.00     0.238 HD
ENDBRANCH  29  30
ENDBRANCH  26  29
ENDBRANCH  21  26
ENDBRANCH  20  21
ENDBRANCH  14  20
TORSDOF 8
