REMARK  12 active torsions:
REMARK  status: ('A' for Active; 'I' for Inactive)
REMARK    1  A    between atoms: N1_1  and  C1_4 
REMARK    2  A    between atoms: C2_7  and  N3_8 
REMARK    3  A    between atoms: N4_11  and  C3_12 
REMARK    4  A    between atoms: C4_14  and  C5_15 
REMARK    5  A    between atoms: C5_15  and  S1_16 
REMARK    6  A    between atoms: S1_16  and  C6_17 
REMARK    7  A    between atoms: C6_17  and  C7_18 
REMARK    8  A    between atoms: C7_18  and  C8_19 
REMARK    9  A    between atoms: C8_19  and  C9_20 
REMARK   10  A    between atoms: C9_20  and  O2_21 
REMARK   11  A    between atoms: C10_23  and  O3_24 
REMARK   12  A    between atoms: C11_26  and  O4_27 
ROOT
HETATM    1  C3  UNL     1      -2.148   0.017   0.351  1.00  0.00     0.294 C 
HETATM    2  O1  UNL     1      -1.337   0.496  -0.702  1.00  0.00    -0.353 OA
HETATM    3  C4  UNL     1      -0.254  -0.402  -0.616  1.00  0.00     0.165 C 
HETATM    4  C10 UNL     1      -0.834  -1.763  -0.419  1.00  0.00     0.181 C 
HETATM    5  C11 UNL     1      -2.287  -1.435  -0.049  1.00  0.00     0.200 C 
ENDROOT
BRANCH   1   6
HETATM    6  N4  UNL     1      -3.389   0.739   0.319  1.00  0.00    -0.077 N 
HETATM    7  C2  UNL     1      -3.624   1.830   1.080  1.00  0.00     0.710 A 
HETATM    8  N2  UNL     1      -4.873   2.276   0.821  1.00  0.00    -0.020 N 
HETATM    9  C1  UNL     1      -5.415   1.461  -0.102  1.00  0.00     0.705 A 
ATOM     10  H2  UNL     1      -5.324   3.085   1.248  1.00  0.00     0.203 HD
HETATM   11  N5  UNL     1      -4.482   0.537  -0.383  1.00  0.00    -0.113 N 
ATOM     12  H5  UNL     1      -4.605  -0.222  -1.053  1.00  0.00     0.206 HD
BRANCH   7  13
HETATM   13  N3  UNL     1      -2.792   2.378   1.932  1.00  0.00    -0.233 N 
ATOM     14  H32 UNL     1      -2.969   3.202   2.507  1.00  0.00     0.174 HD
ATOM     15  H31 UNL     1      -1.849   2.041   2.128  1.00  0.00     0.174 HD
ENDBRANCH   7  13
BRANCH   9  16
HETATM   16  N1  UNL     1      -6.608   1.565  -0.610  1.00  0.00    -0.233 N 
ATOM     17  H12 UNL     1      -7.317   2.267  -0.397  1.00  0.00     0.174 HD
ATOM     18  H11 UNL     1      -7.019   0.947  -1.310  1.00  0.00     0.174 HD
ENDBRANCH   9  16
ENDBRANCH   1   6
BRANCH   5  19
HETATM   19  O4  UNL     1      -2.738  -2.246   0.961  1.00  0.00    -0.388 OA
ATOM     20  H4  UNL     1      -2.825  -3.158   0.710  1.00  0.00     0.210 HD
ENDBRANCH   5  19
BRANCH   3  21
HETATM   21  C5  UNL     1       0.644  -0.274  -1.804  1.00  0.00     0.108 C 
BRANCH  21  22
HETATM   22  S1  UNL     1       2.006  -1.454  -1.624  1.00  0.00    -0.166 SA
BRANCH  22  23
HETATM   23  C6  UNL     1       3.043  -0.960  -0.191  1.00  0.00     0.074 C 
BRANCH  23  24
HETATM   24  C7  UNL     1       3.684   0.347  -0.548  1.00  0.00     0.012 C 
BRANCH  24  25
HETATM   25  C8  UNL     1       4.569   0.907   0.502  1.00  0.00     0.027 C 
BRANCH  25  26
HETATM   26  C9  UNL     1       5.722   0.058   0.892  1.00  0.00     0.164 C 
BRANCH  26  27
HETATM   27  O2  UNL     1       6.594  -0.236  -0.122  1.00  0.00    -0.401 OA
ATOM     28  H2  UNL     1       7.332  -0.779   0.128  1.00  0.00     0.209 HD
ENDBRANCH  26  27
ENDBRANCH  25  26
ENDBRANCH  24  25
ENDBRANCH  23  24
ENDBRANCH  22  23
ENDBRANCH  21  22
ENDBRANCH   3  21
BRANCH   4  29
HETATM   29  O3  UNL     1      -0.760  -2.583  -1.520  1.00  0.00    -0.390 OA
ATOM     30  H3  UNL     1      -1.129  -3.449  -1.395  1.00  0.00     0.210 HD
ENDBRANCH   4  29
TORSDOF 12
