REMARK  10 active torsions:
REMARK  status: ('A' for Active; 'I' for Inactive)
REMARK    1  A    between atoms: N2_3  and  N3_5 
REMARK    2  A    between atoms: C2_6  and  C3_7 
REMARK    3  A    between atoms: C8_15  and  N5_16 
REMARK    4  A    between atoms: N5_16  and  C9_18 
REMARK    5  A    between atoms: C9_18  and  C10_19 
REMARK    6  A    between atoms: C10_19  and  N6_20 
REMARK    7  A    between atoms: N6_20  and  C11_23 
REMARK    8  A    between atoms: C11_23  and  C12_24 
REMARK    9  A    between atoms: C12_24  and  N7_25 
REMARK   10  A    between atoms: C13_31  and  N9_32 
ROOT
HETATM    1  N1  UNL     1      -5.376  -3.775   0.531  1.00  0.00    -0.170 NA
HETATM    2  C1  UNL     1      -4.980  -2.690   0.287  1.00  0.00     0.198 C 
HETATM    3  N2  UNL     1      -4.571  -1.414  -0.003  1.00  0.00    -0.226 N 
ATOM      4  H2  UNL     1      -5.287  -0.805  -0.399  1.00  0.00     0.200 HD
ENDROOT
BRANCH   3   5
HETATM    5  N3  UNL     1      -3.328  -0.834   0.164  1.00  0.00    -0.209 N 
HETATM    6  C2  UNL     1      -3.051   0.482  -0.012  1.00  0.00     0.164 A 
HETATM    7  N4  UNL     1      -1.695   0.641   0.147  1.00  0.00    -0.332 N 
HETATM    8  C7  UNL     1      -1.165  -0.540   0.415  1.00  0.00     0.125 A 
ATOM      9  H4  UNL     1      -1.184   1.521   0.071  1.00  0.00     0.168 HD
HETATM   10  C8  UNL     1       0.159  -0.936   0.662  1.00  0.00     0.147 A 
HETATM   11  C14 UNL     1      -2.147  -1.495   0.437  1.00  0.00     0.175 A 
HETATM   12  N8  UNL     1       0.397  -2.224   0.905  1.00  0.00    -0.175 N 
HETATM   13  C13 UNL     1      -0.564  -3.147   0.924  1.00  0.00     0.679 A 
ATOM     14  H8  UNL     1       1.357  -2.517   1.084  1.00  0.00     0.186 HD
HETATM   15  N10 UNL     1      -1.845  -2.793   0.690  1.00  0.00    -0.172 N 
ATOM     16  H10 UNL     1      -2.582  -3.498   0.703  1.00  0.00     0.186 HD
BRANCH   6  17
HETATM   17  C3  UNL     1      -3.934   1.602  -0.320  1.00  0.00     0.120 A 
HETATM   18  C4  UNL     1      -5.280   1.779  -0.298  1.00  0.00     0.043 A 
HETATM   19  C5  UNL     1      -5.580   3.087  -0.710  1.00  0.00     0.027 A 
HETATM   20  C6  UNL     1      -4.363   3.643  -0.964  1.00  0.00     0.142 A 
HETATM   21  O1  UNL     1      -3.446   2.772  -0.733  1.00  0.00    -0.319 OA
ENDBRANCH   6  17
BRANCH  10  22
HETATM   22  N5  UNL     1       1.073  -0.016   0.637  1.00  0.00    -0.372 N 
ATOM     23  H5  UNL     1       0.838   0.958   0.446  1.00  0.00     0.161 HD
BRANCH  22  24
HETATM   24  C9  UNL     1       2.435  -0.422   0.890  1.00  0.00     0.148 C 
BRANCH  24  25
HETATM   25  C10 UNL     1       3.378   0.730   1.016  1.00  0.00     0.251 C 
BRANCH  25  26
HETATM   26  N6  UNL     1       3.451   1.559  -0.149  1.00  0.00    -0.072 N 
ATOM     27  H62 UNL     1       2.528   1.920  -0.392  1.00  0.00     0.277 HD
ATOM     28  H61 UNL     1       3.927   2.436   0.063  1.00  0.00     0.277 HD
BRANCH  26  29
HETATM   29  C11 UNL     1       4.056   0.916  -1.281  1.00  0.00     0.259 C 
BRANCH  29  30
HETATM   30  C12 UNL     1       5.525   0.643  -1.104  1.00  0.00     0.257 C 
BRANCH  30  31
HETATM   31  N7  UNL     1       6.286   1.855  -0.885  1.00  0.00    -0.078 N 
ATOM     32  H73 UNL     1       6.124   2.532  -1.631  1.00  0.00     0.274 HD
ATOM     33  H72 UNL     1       5.913   2.387  -0.099  1.00  0.00     0.274 HD
ATOM     34  H71 UNL     1       7.282   1.670  -0.765  1.00  0.00     0.274 HD
ENDBRANCH  30  31
ENDBRANCH  29  30
ENDBRANCH  26  29
ENDBRANCH  25  26
ENDBRANCH  24  25
ENDBRANCH  22  24
ENDBRANCH  10  22
BRANCH  13  35
HETATM   35  N9  UNL     1      -0.275  -4.372   1.164  1.00  0.00    -0.234 N 
ATOM     36  H92 UNL     1       0.693  -4.640   1.341  1.00  0.00     0.174 HD
ATOM     37  H91 UNL     1      -1.011  -5.078   1.179  1.00  0.00     0.174 HD
ENDBRANCH  13  35
ENDBRANCH   3   5
TORSDOF 10
