REMARK  10 active torsions:
REMARK  status: ('A' for Active; 'I' for Inactive)
REMARK    1  A    between atoms: C2_2  and  C3_3 
REMARK    2  A    between atoms: C2_2  and  C4_8 
REMARK    3  A    between atoms: C3_3  and  O1_4 
REMARK    4  A    between atoms: O1_4  and  N1_5 
REMARK    5  A    between atoms: C4_8  and  O2_9 
REMARK    6  A    between atoms: O2_9  and  C5_10 
REMARK    7  A    between atoms: C8_13  and  C9_14 
REMARK    8  A    between atoms: C9_14  and  C10_15 
REMARK    9  A    between atoms: C10_15  and  C11_16 
REMARK   10  A    between atoms: C12_21  and  N4_22 
ROOT
HETATM    1  C5  UNL     1       1.680  -0.719   0.816  1.00  0.00     0.068 A 
HETATM    2  C6  UNL     1       0.823   0.322   1.104  1.00  0.00     0.037 A 
HETATM    3  C7  UNL     1      -0.520   0.222   0.757  1.00  0.00     0.014 A 
HETATM    4  C8  UNL     1      -1.074  -0.863   0.135  1.00  0.00    -0.036 A 
HETATM    5  C14 UNL     1      -0.169  -1.897  -0.138  1.00  0.00     0.014 A 
HETATM    6  C15 UNL     1       1.146  -1.870   0.168  1.00  0.00     0.037 A 
ENDROOT
BRANCH   4   7
HETATM    7  C9  UNL     1      -2.474  -1.006  -0.244  1.00  0.00     0.014 C 
BRANCH   7   8
HETATM    8  C10 UNL     1      -3.358  -0.098  -0.025  1.00  0.00     0.037 C 
BRANCH   8   9
HETATM    9  C11 UNL     1      -4.767  -0.085  -0.334  1.00  0.00     0.117 A 
HETATM   10  N2  UNL     1      -5.478   1.045   0.026  1.00  0.00    -0.281 N 
HETATM   11  N3  UNL     1      -6.760   1.145  -0.215  1.00  0.00    -0.132 N 
ATOM     12  H2  UNL     1      -4.994   1.815   0.488  1.00  0.00     0.187 HD
HETATM   13  C12 UNL     1      -7.458   0.174  -0.817  1.00  0.00     0.693 A 
ATOM     14  H3  UNL     1      -7.247   1.996   0.067  1.00  0.00     0.205 HD
HETATM   15  N5  UNL     1      -6.786  -0.922  -1.170  1.00  0.00    -0.153 N 
HETATM   16  C13 UNL     1      -5.460  -1.084  -0.948  1.00  0.00     0.287 A 
ATOM     17  H5  UNL     1      -7.296  -1.676  -1.630  1.00  0.00     0.187 HD
HETATM   18  O3  UNL     1      -4.875  -2.131  -1.298  1.00  0.00    -0.265 OA
BRANCH  13  19
HETATM   19  N4  UNL     1      -8.732   0.277  -1.055  1.00  0.00    -0.233 N 
ATOM     20  H42 UNL     1      -9.246   1.116  -0.785  1.00  0.00     0.174 HD
ATOM     21  H41 UNL     1      -9.264  -0.463  -1.514  1.00  0.00     0.174 HD
ENDBRANCH  13  19
ENDBRANCH   8   9
ENDBRANCH   7   8
ENDBRANCH   4   7
BRANCH   1  22
HETATM   22  O2  UNL     1       2.944  -0.659   1.121  1.00  0.00    -0.351 OA
BRANCH  22  23
HETATM   23  C4  UNL     1       4.038  -0.163   1.574  1.00  0.00     0.182 C 
BRANCH  23  24
HETATM   24  C2  UNL     1       4.693   1.063   0.958  1.00  0.00     0.032 C 
HETATM   25  C1  UNL     1       3.846   2.259   1.001  1.00  0.00     0.014 C 
BRANCH  24  26
HETATM   26  C3  UNL     1       5.150   0.700  -0.446  1.00  0.00     0.206 C 
BRANCH  26  27
HETATM   27  O1  UNL     1       5.943  -0.457  -0.307  1.00  0.00    -0.287 OA
BRANCH  27  28
HETATM   28  N1  UNL     1       6.408  -0.876  -1.496  1.00  0.00    -0.311 N 
ATOM     29  H12 UNL     1       6.204  -0.406  -2.378  1.00  0.00     0.184 HD
ATOM     30  H11 UNL     1       6.982  -1.713  -1.395  1.00  0.00     0.184 HD
ENDBRANCH  27  28
ENDBRANCH  26  27
ENDBRANCH  24  26
ENDBRANCH  23  24
ENDBRANCH  22  23
ENDBRANCH   1  22
TORSDOF 10
