REMARK  2 active torsions:
REMARK  status: ('A' for Active; 'I' for Inactive)
REMARK    1  A    between atoms: N1_1  and  C1_4 
REMARK    2  A    between atoms: C2_5  and  O1_6 
ROOT
HETATM    1  C1  UNL     1      -0.704   1.348   0.103  1.00  0.00     0.131 C 
HETATM    2  C2  UNL     1       0.628   0.955   0.110  1.00  0.00     0.139 C 
HETATM    3  C3  UNL     1       1.172  -0.317  -0.024  1.00  0.00     0.156 C 
HETATM    4  N2  UNL     1       2.543  -0.450  -0.285  1.00  0.00    -0.079 NA
HETATM    5  N3  UNL     1       0.439  -1.451   0.087  1.00  0.00    -0.294 N 
ATOM      6  H3  UNL     1       0.992  -2.304   0.170  1.00  0.00     0.172 HD
HETATM    7  C4  UNL     1      -0.897  -1.648   0.107  1.00  0.00     0.328 C 
HETATM    8  O2  UNL     1      -1.277  -2.810   0.427  1.00  0.00    -0.247 OA
HETATM    9  N4  UNL     1      -1.877  -0.750  -0.176  1.00  0.00    -0.273 N 
ATOM     10  H4  UNL     1      -2.753  -1.139  -0.525  1.00  0.00     0.173 HD
HETATM   11  C5  UNL     1      -1.835   0.581  -0.053  1.00  0.00     0.278 C 
HETATM   12  O3  UNL     1      -2.948   1.158  -0.088  1.00  0.00    -0.265 OA
ENDROOT
BRANCH   1  13
HETATM   13  N1  UNL     1      -0.968   2.601   0.263  1.00  0.00    -0.392 N 
ATOM     14  H12 UNL     1      -0.129   3.170   0.379  1.00  0.00     0.156 HD
ATOM     15  H11 UNL     1      -1.946   2.890   0.258  1.00  0.00     0.156 HD
ENDBRANCH   1  13
BRANCH   2  16
HETATM   16  O1  UNL     1       1.545   1.952   0.270  1.00  0.00    -0.355 OA
ATOM     17  H1  UNL     1       2.456   1.683   0.275  1.00  0.00     0.218 HD
ENDBRANCH   2  16
TORSDOF 2
