REMARK  1 active torsions:
REMARK  status: ('A' for Active; 'I' for Inactive)
REMARK    1  A    between atoms: N1_1  and  C1_4 
ROOT
HETATM    1  C1  UNL     1      -1.694  -0.277   0.083  1.00  0.00     0.183 C 
HETATM    2  N2  UNL     1      -0.848  -1.254   0.457  1.00  0.00    -0.280 N 
ATOM      3  H2  UNL     1      -1.289  -2.140   0.706  1.00  0.00     0.188 HD
HETATM    4  N3  UNL     1       0.490  -1.234   0.550  1.00  0.00    -0.282 N 
ATOM      5  H3  UNL     1       0.908  -2.027   1.037  1.00  0.00     0.188 HD
HETATM    6  C2  UNL     1       1.363  -0.307   0.087  1.00  0.00     0.199 C 
HETATM    7  N4  UNL     1       2.661  -0.750  -0.294  1.00  0.00    -0.075 NA
HETATM    8  C3  UNL     1       1.083   1.042  -0.042  1.00  0.00     0.290 C 
HETATM    9  O1  UNL     1       2.089   1.767  -0.194  1.00  0.00    -0.264 OA
HETATM   10  N5  UNL     1      -0.146   1.639  -0.021  1.00  0.00    -0.284 N 
ATOM     11  H5  UNL     1      -0.139   2.659  -0.012  1.00  0.00     0.172 HD
HETATM   12  C4  UNL     1      -1.364   1.068  -0.011  1.00  0.00     0.293 C 
HETATM   13  O2  UNL     1      -2.374   1.816  -0.096  1.00  0.00    -0.264 OA
ENDROOT
BRANCH   1  14
HETATM   14  N1  UNL     1      -2.915  -0.594  -0.216  1.00  0.00    -0.380 N 
ATOM     15  H12 UNL     1      -3.157  -1.582  -0.147  1.00  0.00     0.158 HD
ATOM     16  H11 UNL     1      -3.556   0.147  -0.500  1.00  0.00     0.158 HD
ENDBRANCH   1  14
TORSDOF 1
