REMARK  13 active torsions:
REMARK  status: ('A' for Active; 'I' for Inactive)
REMARK    1  A    between atoms: C2_2  and  O2_4 
REMARK    2  A    between atoms: O2_4  and  C3_5 
REMARK    3  A    between atoms: C4_6  and  N1_7 
REMARK    4  A    between atoms: C6_14  and  N3_15 
REMARK    5  A    between atoms: N3_15  and  C7_17 
REMARK    6  A    between atoms: C7_17  and  O3_18 
REMARK    7  A    between atoms: N5_22  and  C8_23 
REMARK    8  A    between atoms: C9_24  and  C10_25 
REMARK    9  A    between atoms: C10_25  and  O4_26 
REMARK   10  A    between atoms: O4_26  and  N6_27 
REMARK   11  A    between atoms: N6_27  and  N7_28 
REMARK   12  A    between atoms: N7_28  and  C11_30 
REMARK   13  A    between atoms: C14_39  and  N11_40 
ROOT
HETATM    1  O4  UNL     1       1.584  -0.158   0.166  1.00  0.00    -0.187 OA
ENDROOT
BRANCH   1   2
HETATM    2  C10 UNL     1       0.587   0.475  -0.695  1.00  0.00     0.248 C 
BRANCH   2   3
HETATM    3  C9  UNL     1      -0.588   0.205   0.313  1.00  0.00     0.016 C 
HETATM    4  C8  UNL     1      -1.859   0.658  -0.025  1.00  0.00     0.084 C 
BRANCH   4   5
HETATM    5  N5  UNL     1      -2.771   0.152   0.994  1.00  0.00    -0.161 NA
HETATM    6  C3  UNL     1      -4.024   0.836   0.889  1.00  0.00     0.262 C 
HETATM    7  C4  UNL     1      -4.634   0.574  -0.519  1.00  0.00     0.247 C 
HETATM    8  C5  UNL     1      -5.845  -0.392  -0.250  1.00  0.00     0.175 C 
HETATM    9  N2  UNL     1      -5.232  -1.659   0.156  1.00  0.00    -0.223 N 
HETATM   10  C6  UNL     1      -4.089  -2.024   0.590  1.00  0.00     0.690 C 
ATOM     11  H2  UNL     1      -5.879  -2.443   0.071  1.00  0.00     0.177 HD
HETATM   12  N4  UNL     1      -2.941  -1.239   0.858  1.00  0.00    -0.146 N 
ATOM     13  H4  UNL     1      -2.083  -1.778   0.973  1.00  0.00     0.200 HD
BRANCH   6  14
HETATM   14  O2  UNL     1      -3.757   2.257   0.906  1.00  0.00    -0.297 OA
BRANCH  14  15
HETATM   15  C2  UNL     1      -4.497   2.944   1.916  1.00  0.00     0.256 C 
HETATM   16  C1  UNL     1      -4.162   4.538   1.841  1.00  0.00     0.126 C 
HETATM   17  O1  UNL     1      -5.225   2.548   2.701  1.00  0.00    -0.266 OA
ENDBRANCH  14  15
ENDBRANCH   6  14
BRANCH   7  18
HETATM   18  N1  UNL     1      -4.950   1.773  -1.174  1.00  0.00    -0.070 N 
ATOM     19  H13 UNL     1      -5.562   2.359  -0.606  1.00  0.00     0.275 HD
ATOM     20  H12 UNL     1      -4.142   2.393  -1.227  1.00  0.00     0.275 HD
ATOM     21  H11 UNL     1      -5.350   1.601  -2.097  1.00  0.00     0.275 HD
ENDBRANCH   7  18
BRANCH  10  22
HETATM   22  N3  UNL     1      -4.041  -3.387   0.835  1.00  0.00    -0.181 N 
ATOM     23  H3  UNL     1      -4.078  -3.707   1.803  1.00  0.00     0.185 HD
BRANCH  22  24
HETATM   24  C7  UNL     1      -3.944  -4.352  -0.186  1.00  0.00     0.240 C 
BRANCH  24  25
HETATM   25  O3  UNL     1      -5.068  -4.223  -1.052  1.00  0.00    -0.356 OA
ATOM     26  H3  UNL     1      -5.003  -4.874  -1.741  1.00  0.00     0.218 HD
ENDBRANCH  24  25
ENDBRANCH  22  24
ENDBRANCH  10  22
ENDBRANCH   4   5
ENDBRANCH   2   3
ENDBRANCH   1   2
BRANCH   1  27
HETATM   27  N6  UNL     1       2.437  -1.084  -0.301  1.00  0.00    -0.187 NA
BRANCH  27  28
HETATM   28  N7  UNL     1       3.237  -1.576  -0.628  1.00  0.00    -0.205 N 
ATOM     29  H7  UNL     1       2.921  -2.526  -0.825  1.00  0.00     0.204 HD
BRANCH  28  30
HETATM   30  C11 UNL     1       4.628  -1.551  -0.946  1.00  0.00     0.114 A 
HETATM   31  C12 UNL     1       5.390  -2.466  -1.420  1.00  0.00     0.085 A 
HETATM   32  C13 UNL     1       6.805  -2.254  -1.776  1.00  0.00     0.116 A 
HETATM   33  N8  UNL     1       7.408  -3.232  -2.199  1.00  0.00    -0.384 N 
HETATM   34  N9  UNL     1       7.238  -1.009  -1.544  1.00  0.00    -0.263 N 
ATOM     35  H82 UNL     1       7.078  -4.181  -2.376  1.00  0.00     0.157 HD
ATOM     36  H81 UNL     1       8.387  -3.085  -2.445  1.00  0.00     0.157 HD
HETATM   37  N10 UNL     1       6.349  -0.108  -0.995  1.00  0.00    -0.065 N 
ATOM     38  H9  UNL     1       8.195  -0.735  -1.766  1.00  0.00     0.190 HD
HETATM   39  C14 UNL     1       7.099   0.971  -0.360  1.00  0.00     0.713 A 
HETATM   40  C16 UNL     1       5.160  -0.186  -0.698  1.00  0.00     0.190 A 
HETATM   41  N12 UNL     1       6.259   1.732   0.454  1.00  0.00    -0.021 N 
HETATM   42  C15 UNL     1       5.047   1.630   0.745  1.00  0.00     0.692 A 
ATOM     43  H12 UNL     1       6.723   2.525   0.897  1.00  0.00     0.203 HD
HETATM   44  N13 UNL     1       4.439   2.230   1.807  1.00  0.00    -0.234 N 
HETATM   45  N14 UNL     1       4.395   0.565   0.100  1.00  0.00    -0.172 N 
ATOM     46 2H13 UNL     1       4.912   3.003   2.275  1.00  0.00     0.174 HD
ATOM     47 1H13 UNL     1       3.450   2.147   2.044  1.00  0.00     0.174 HD
ATOM     48  H14 UNL     1       3.401   0.377   0.233  1.00  0.00     0.186 HD
BRANCH  39  49
HETATM   49  N11 UNL     1       8.363   1.012  -0.571  1.00  0.00    -0.232 N 
ATOM     50 2H11 UNL     1       8.977   0.456  -1.166  1.00  0.00     0.174 HD
ATOM     51 1H11 UNL     1       8.887   1.766  -0.127  1.00  0.00     0.174 HD
ENDBRANCH  39  49
ENDBRANCH  28  30
ENDBRANCH  27  28
ENDBRANCH   1  27
TORSDOF 13
