REMARK  15 active torsions:
REMARK  status: ('A' for Active; 'I' for Inactive)
REMARK    1  A    between atoms: N4_12  and  O2_13 
REMARK    2  A    between atoms: C7_15  and  C8_16 
REMARK    3  A    between atoms: C8_16  and  N5_17 
REMARK    4  A    between atoms: C8_16  and  C13_34 
REMARK    5  A    between atoms: N5_17  and  C9_18 
REMARK    6  A    between atoms: C9_18  and  N6_19 
REMARK    7  A    between atoms: C9_18  and  C10_24 
REMARK    8  A    between atoms: N6_19  and  N7_21 
REMARK    9  A    between atoms: C12_30  and  N10_31 
REMARK   10  A    between atoms: C13_34  and  C14_36 
REMARK   11  A    between atoms: C14_36  and  C15_37 
REMARK   12  A    between atoms: C14_36  and  C16_40 
REMARK   13  A    between atoms: C15_37  and  O4_38 
REMARK   14  A    between atoms: C16_40  and  O5_41 
REMARK   15  A    between atoms: C16_40  and  O6_43 
ROOT
HETATM    1  N1  UNL     1      -1.315   1.471  -2.707  1.00  0.00    -0.191 NA
HETATM    2  C1  UNL     1      -1.324   0.459  -2.187  1.00  0.00     0.102 C 
HETATM    3  C2  UNL     1      -1.325  -0.831  -1.575  1.00  0.00     0.081 A 
HETATM    4  C3  UNL     1      -1.881  -1.890  -2.308  1.00  0.00     0.070 A 
HETATM    5  N2  UNL     1      -2.465  -1.628  -3.564  1.00  0.00    -0.101 NA
HETATM    6  C4  UNL     1      -1.868  -3.165  -1.828  1.00  0.00     0.065 A 
HETATM    7  C5  UNL     1      -1.293  -3.378  -0.603  1.00  0.00     0.121 A 
HETATM    8  C6  UNL     1      -0.750  -2.336   0.115  1.00  0.00     0.099 A 
HETATM    9  N3  UNL     1      -0.282  -2.910   1.238  1.00  0.00    -0.236 N 
ATOM     10  H3  UNL     1       0.188  -2.413   1.995  1.00  0.00     0.197 HD
HETATM   11  O1  UNL     1      -0.516  -4.200   1.221  1.00  0.00    -0.128 OA
HETATM   12  N4  UNL     1      -1.126  -4.517   0.122  1.00  0.00    -0.100 N 
HETATM   13  C7  UNL     1      -0.754  -1.012  -0.361  1.00  0.00     0.038 A 
ENDROOT
BRANCH  13  14
HETATM   14  C8  UNL     1      -0.169   0.067   0.490  1.00  0.00     0.272 C 
BRANCH  14  15
HETATM   15  N5  UNL     1       1.111   0.284   0.106  1.00  0.00    -0.410 NA
BRANCH  15  16
HETATM   16  C9  UNL     1       2.227   0.474  -0.225  1.00  0.00     0.204 C 
BRANCH  16  17
HETATM   17  N6  UNL     1       2.527   0.306  -1.646  1.00  0.00    -0.280 N 
ATOM     18  H6  UNL     1       2.694   1.106  -2.256  1.00  0.00     0.189 HD
BRANCH  17  19
HETATM   19  N7  UNL     1       2.573  -0.998  -2.123  1.00  0.00    -0.343 N 
ATOM     20  H72 UNL     1       2.404  -1.788  -1.500  1.00  0.00     0.176 HD
ATOM     21  H71 UNL     1       2.782  -1.115  -3.114  1.00  0.00     0.176 HD
ENDBRANCH  17  19
ENDBRANCH  16  17
BRANCH  16  22
HETATM   22  C10 UNL     1       3.363   0.867   0.608  1.00  0.00     0.099 A 
HETATM   23  C11 UNL     1       4.615   1.067   0.178  1.00  0.00     0.140 A 
HETATM   24  N8  UNL     1       5.034   0.920  -1.203  1.00  0.00    -0.081 NA
HETATM   25  N9  UNL     1       5.553   1.420   1.042  1.00  0.00    -0.312 N 
HETATM   26  S1  UNL     1       4.741   1.497   2.522  1.00  0.00     0.005 SA
ATOM     27  H9  UNL     1       6.539   1.603   0.857  1.00  0.00     0.175 HD
HETATM   28  C12 UNL     1       3.166   1.059   1.969  1.00  0.00     0.103 A 
BRANCH  28  29
HETATM   29  N10 UNL     1       2.123   0.962   2.713  1.00  0.00    -0.392 N 
ATOM     30 2H10 UNL     1       1.192   0.703   2.386  1.00  0.00     0.156 HD
ATOM     31 1H10 UNL     1       1.978   1.103   3.713  1.00  0.00     0.156 HD
ENDBRANCH  28  29
ENDBRANCH  16  22
ENDBRANCH  15  16
ENDBRANCH  14  15
BRANCH  14  32
HETATM   32  C13 UNL     1      -1.010   1.263   0.669  1.00  0.00     0.178 C 
HETATM   33  O3  UNL     1      -0.502   2.378   0.454  1.00  0.00    -0.293 OA
BRANCH  32  34
HETATM   34  C14 UNL     1      -2.403   1.224   1.088  1.00  0.00     0.137 C 
BRANCH  34  35
HETATM   35  C15 UNL     1      -2.663   0.755   2.499  1.00  0.00     0.181 C 
BRANCH  35  36
HETATM   36  O4  UNL     1      -2.253  -0.500   2.809  1.00  0.00    -0.400 OA
ATOM     37  H4  UNL     1      -2.417  -0.795   3.697  1.00  0.00     0.209 HD
ENDBRANCH  35  36
ENDBRANCH  34  35
BRANCH  34  38
HETATM   38  C16 UNL     1      -3.045   2.628   1.042  1.00  0.00     0.267 C 
BRANCH  38  39
HETATM   39  O5  UNL     1      -3.035   3.185  -0.205  1.00  0.00    -0.371 OA
ATOM     40  H5  UNL     1      -3.430   4.049  -0.233  1.00  0.00     0.212 HD
ENDBRANCH  38  39
BRANCH  38  41
HETATM   41  O6  UNL     1      -2.339   3.405   1.978  1.00  0.00    -0.371 OA
ATOM     42  H6  UNL     1      -2.734   4.269   1.950  1.00  0.00     0.212 HD
ENDBRANCH  38  41
ENDBRANCH  34  38
ENDBRANCH  32  34
ENDBRANCH  14  32
ENDBRANCH  13  14
BRANCH  12  43
HETATM   43  O2  UNL     1      -1.562  -5.763  -0.308  1.00  0.00    -0.261 OA
ATOM     44  H2  UNL     1      -1.445  -6.558   0.198  1.00  0.00     0.247 HD
ENDBRANCH  12  43
TORSDOF 15
