REMARK  15 active torsions:
REMARK  status: ('A' for Active; 'I' for Inactive)
REMARK    1  A    between atoms: C2_2  and  C3_3 
REMARK    2  A    between atoms: C3_3  and  C4_4 
REMARK    3  A    between atoms: C4_4  and  C5_5 
REMARK    4  A    between atoms: C5_5  and  C6_6 
REMARK    5  A    between atoms: C6_6  and  N1_7 
REMARK    6  A    between atoms: N1_7  and  C7_9 
REMARK    7  A    between atoms: C10_14  and  C11_15 
REMARK    8  A    between atoms: C13_20  and  N4_21 
REMARK    9  A    between atoms: N4_21  and  C14_23 
REMARK   10  A    between atoms: C15_24  and  O2_25 
REMARK   11  A    between atoms: N6_31  and  C17_32 
REMARK   12  A    between atoms: C17_32  and  C18_33 
REMARK   13  A    between atoms: C18_33  and  C19_34 
REMARK   14  A    between atoms: C19_34  and  C20_35 
REMARK   15  A    between atoms: C20_35  and  C21_36 
REMARK       I    between atoms: C21_36  and  N7_38 
ROOT
HETATM    1  C14 UNL     1       0.128   0.068   0.080  1.00  0.00     0.169 A 
HETATM    2  C15 UNL     1       0.194  -0.033  -1.293  1.00  0.00     0.190 A 
HETATM    3  N5  UNL     1      -0.497  -1.123  -1.656  1.00  0.00    -0.285 N 
ATOM      4  H5  UNL     1      -0.634  -1.467  -2.606  1.00  0.00     0.172 HD
HETATM    5  C16 UNL     1      -0.966  -1.665  -0.550  1.00  0.00     0.334 A 
HETATM    6  O3  UNL     1      -1.673  -2.731  -0.569  1.00  0.00    -0.246 OA
HETATM    7  N6  UNL     1      -0.608  -0.969   0.544  1.00  0.00    -0.257 N 
ENDROOT
BRANCH   1   8
HETATM    8  N4  UNL     1       0.707   1.066   0.838  1.00  0.00    -0.321 N 
ATOM      9  H4  UNL     1       0.084   1.853   1.019  1.00  0.00     0.169 HD
BRANCH   8  10
HETATM   10  C13 UNL     1       1.850   1.201   1.351  1.00  0.00     0.152 A 
HETATM   11  C7  UNL     1       2.848   0.265   1.236  1.00  0.00     0.146 A 
HETATM   12  N2  UNL     1       4.036   0.551   1.837  1.00  0.00    -0.341 N 
HETATM   13  C8  UNL     1       4.259   1.687   2.521  1.00  0.00     0.037 A 
ATOM     14  H2  UNL     1       4.793  -0.129   1.765  1.00  0.00     0.167 HD
HETATM   15  C9  UNL     1       5.592   1.906   3.139  1.00  0.00     0.070 C 
HETATM   16  C10 UNL     1       3.254   2.624   2.634  1.00  0.00     0.102 A 
HETATM   17  N3  UNL     1       2.082   2.356   2.048  1.00  0.00    -0.335 N 
ATOM     18  H3  UNL     1       1.330   3.041   2.124  1.00  0.00     0.168 HD
BRANCH  11  19
HETATM   19  N1  UNL     1       2.638  -0.807   0.595  1.00  0.00    -0.373 N 
ATOM     20  H1  UNL     1       1.714  -0.927   0.180  1.00  0.00     0.161 HD
BRANCH  19  21
HETATM   21  C6  UNL     1       3.585  -1.868   0.400  1.00  0.00     0.121 C 
BRANCH  21  22
HETATM   22  C5  UNL     1       4.584  -1.578  -0.678  1.00  0.00     0.020 C 
BRANCH  22  23
HETATM   23  C4  UNL     1       5.536  -2.747  -0.800  1.00  0.00     0.002 C 
BRANCH  23  24
HETATM   24  C3  UNL     1       6.575  -2.539  -1.854  1.00  0.00    -0.000 C 
BRANCH  24  25
HETATM   25  C2  UNL     1       6.046  -2.338  -3.236  1.00  0.00    -0.005 C 
HETATM   26  C1  UNL     1       7.249  -2.140  -4.156  1.00  0.00     0.005 C 
ENDBRANCH  24  25
ENDBRANCH  23  24
ENDBRANCH  22  23
ENDBRANCH  21  22
ENDBRANCH  19  21
ENDBRANCH  11  19
BRANCH  16  27
HETATM   27  C11 UNL     1       3.457   3.886   3.381  1.00  0.00     0.174 C 
HETATM   28  C12 UNL     1       2.319   4.838   3.462  1.00  0.00     0.098 C 
HETATM   29  O1  UNL     1       4.542   4.170   3.938  1.00  0.00    -0.291 OA
ENDBRANCH  16  27
ENDBRANCH   8  10
ENDBRANCH   1   8
BRANCH   2  30
HETATM   30  O2  UNL     1       0.836   0.799  -2.206  1.00  0.00    -0.343 OA
ATOM     31  H2  UNL     1       0.881   0.729  -3.152  1.00  0.00     0.219 HD
ENDBRANCH   2  30
BRANCH   7  32
HETATM   32  C17 UNL     1      -0.879  -1.315   1.881  1.00  0.00     0.099 C 
BRANCH  32  33
HETATM   33  C18 UNL     1      -1.924  -0.720   2.692  1.00  0.00    -0.008 C 
BRANCH  33  34
HETATM   34  C19 UNL     1      -3.347  -0.740   2.361  1.00  0.00     0.038 C 
BRANCH  34  35
HETATM   35  C20 UNL     1      -3.783   0.004   1.160  1.00  0.00     0.107 C 
BRANCH  35  36
HETATM   36  C21 UNL     1      -5.294  -0.165   1.089  1.00  0.00     0.220 C 
HETATM   37  O4  UNL     1      -5.921  -0.884   1.902  1.00  0.00    -0.273 OA
HETATM   38  N7  UNL     1      -6.024   0.505   0.077  1.00  0.00    -0.351 N 
HETATM   39  C22 UNL     1      -5.357   1.353  -0.896  1.00  0.00     0.130 C 
HETATM   40  C28 UNL     1      -7.452   0.379  -0.030  1.00  0.00     0.130 C 
HETATM   41  C23 UNL     1      -5.931   1.175  -2.287  1.00  0.00     0.004 C 
HETATM   42  C24 UNL     1      -5.999  -0.292  -2.641  1.00  0.00     0.007 C 
HETATM   43  C27 UNL     1      -7.402   1.542  -2.182  1.00  0.00     0.012 C 
HETATM   44  C25 UNL     1      -7.324  -0.797  -2.175  1.00  0.00     0.007 C 
HETATM   45  C26 UNL     1      -7.954   0.368  -1.436  1.00  0.00     0.004 C 
ENDBRANCH  35  36
ENDBRANCH  34  35
ENDBRANCH  33  34
ENDBRANCH  32  33
ENDBRANCH   7  32
TORSDOF 15
