REMARK  4 active torsions:
REMARK  status: ('A' for Active; 'I' for Inactive)
REMARK    1  A    between atoms: C3_3  and  C4_4 
REMARK    2  A    between atoms: C5_5  and  C6_6 
REMARK    3  A    between atoms: C6_6  and  C7_7 
REMARK    4  A    between atoms: C9_10  and  O2_11 
ROOT
HETATM    1  C1  UNL     1       5.460   0.186   0.241  1.00  0.00     0.113 C 
HETATM    2  C2  UNL     1       4.015  -0.073   0.323  1.00  0.00    -0.097 C 
HETATM    3  C3  UNL     1       2.825  -0.301   0.405  1.00  0.00    -0.015 C 
ENDROOT
BRANCH   3   4
HETATM    4  C4  UNL     1       1.440  -0.582   0.521  1.00  0.00    -0.015 C 
HETATM    5  C5  UNL     1       0.259  -0.841   0.626  1.00  0.00    -0.090 C 
BRANCH   5   6
HETATM    6  C6  UNL     1      -1.160  -1.177   0.761  1.00  0.00     0.129 C 
BRANCH   6   7
HETATM    7  C7  UNL     1      -1.939   0.111   0.742  1.00  0.00     0.163 C 
HETATM    8  O1  UNL     1      -3.329  -0.078   0.865  1.00  0.00    -0.380 OA
HETATM    9  C8  UNL     1      -3.598  -0.033  -0.521  1.00  0.00     0.202 C 
HETATM   10  C9  UNL     1      -2.226   0.586  -0.688  1.00  0.00     0.171 C 
BRANCH  10  11
HETATM   11  O2  UNL     1      -2.258   1.992  -0.738  1.00  0.00    -0.391 OA
ATOM     12  H2  UNL     1      -2.436   2.286  -1.624  1.00  0.00     0.210 HD
ENDBRANCH  10  11
ENDBRANCH   6   7
ENDBRANCH   5   6
ENDBRANCH   3   4
TORSDOF 4
