REMARK  1 active torsions:
REMARK  status: ('A' for Active; 'I' for Inactive)
REMARK    1  A    between atoms: N1_5  and  C4_6 
ROOT
HETATM    1  C4  UNL     1      -0.769  -0.570  -0.490  1.00  0.00     0.250 C 
HETATM    2  C5  UNL     1      -1.605   0.508  -1.153  1.00  0.00     0.065 C 
HETATM    3  C6  UNL     1      -2.258   1.117   0.093  1.00  0.00     0.234 C 
HETATM    4  N2  UNL     1      -2.711  -0.086   0.767  1.00  0.00    -0.073 N 
ATOM      5  H21 UNL     1      -3.630  -0.403   0.458  1.00  0.00     0.277 HD
ATOM      6  H22 UNL     1      -2.954   0.064   1.746  1.00  0.00     0.277 HD
HETATM    7  C7  UNL     1      -1.670  -1.070   0.577  1.00  0.00     0.268 C 
ENDROOT
BRANCH   1   8
HETATM    8  N1  UNL     1       0.407   0.040   0.026  1.00  0.00     0.096 N 
HETATM    9  C3  UNL     1       1.333   0.523  -0.945  1.00  0.00     0.274 C 
HETATM   10  C2  UNL     1       2.721   0.067  -0.466  1.00  0.00     0.052 C 
HETATM   11  C1  UNL     1       2.455   0.032   1.042  1.00  0.00     0.112 C 
HETATM   12 CL1  UNL     1       2.155   1.689   1.570  1.00  0.00    -0.123 Cl
HETATM   13  C8  UNL     1       1.103  -0.697   1.027  1.00  0.00     0.293 C 
ENDBRANCH   1   8
TORSDOF 1
