REMARK  7 active torsions:
REMARK  status: ('A' for Active; 'I' for Inactive)
REMARK    1  A    between atoms: C2_2  and  O1_3 
REMARK    2  A    between atoms: C5_10  and  C6_11 
REMARK    3  A    between atoms: C8_15  and  N3_16 
REMARK    4  A    between atoms: C11_25  and  C12_26 
REMARK    5  A    between atoms: N7_29  and  C13_30 
REMARK    6  A    between atoms: C15_32  and  C16_33 
REMARK    7  A    between atoms: C26_46  and  O4_48 
ROOT
HETATM    1  C13 UNL     1       1.765  -0.488   1.397  1.00  0.00     0.097 A 
HETATM    2  C14 UNL     1       2.802  -0.118   0.578  1.00  0.00     0.055 A 
HETATM    3  C15 UNL     1       3.826   0.535   1.135  1.00  0.00     0.028 A 
HETATM    4  C24 UNL     1       3.753   0.780   2.484  1.00  0.00     0.100 A 
HETATM    5  C25 UNL     1       4.718   1.463   3.338  1.00  0.00     0.108 C 
HETATM    6  N8  UNL     1       5.490   2.016   4.000  1.00  0.00    -0.191 NA
HETATM    7  S1  UNL     1       2.260   0.091   2.922  1.00  0.00    -0.059 SA
ENDROOT
BRANCH   3   8
HETATM    8  C16 UNL     1       5.016   1.002   0.374  1.00  0.00     0.089 A 
HETATM    9  C17 UNL     1       5.216   0.828  -0.993  1.00  0.00     0.052 A 
HETATM   10  C18 UNL     1       6.419   1.392  -1.311  1.00  0.00     0.000 A 
HETATM   11  C19 UNL     1       7.156   1.540  -2.479  1.00  0.00     0.014 A 
HETATM   12  C23 UNL     1       6.919   1.894  -0.131  1.00  0.00     0.086 A 
HETATM   13  C20 UNL     1       8.379   2.178  -2.492  1.00  0.00     0.001 A 
HETATM   14  C21 UNL     1       8.864   2.674  -1.296  1.00  0.00     0.003 A 
HETATM   15  C22 UNL     1       8.140   2.531  -0.142  1.00  0.00     0.038 A 
HETATM   16  O3  UNL     1       6.067   1.642   0.818  1.00  0.00    -0.309 OA
ENDBRANCH   3   8
BRANCH   1  17
HETATM   17  N7  UNL     1       0.564  -1.200   0.997  1.00  0.00    -0.250 N 
HETATM   18  N6  UNL     1      -0.628  -0.680   0.542  1.00  0.00    -0.298 N 
HETATM   19  C12 UNL     1      -1.540  -1.561   0.431  1.00  0.00     0.045 C 
ATOM     20  H6  UNL     1      -0.765   0.306   0.318  1.00  0.00     0.187 HD
HETATM   21  C28 UNL     1      -1.004  -2.875   0.849  1.00  0.00     0.122 C 
HETATM   22  C26 UNL     1       0.459  -2.626   1.004  1.00  0.00     0.154 C 
HETATM   23  C27 UNL     1       1.013  -3.240   2.280  1.00  0.00     0.073 C 
BRANCH  19  24
HETATM   24  C11 UNL     1      -2.908  -1.312  -0.029  1.00  0.00     0.040 A 
HETATM   25  C6  UNL     1      -3.515  -0.128  -0.421  1.00  0.00     0.034 A 
HETATM   26  N2  UNL     1      -4.768  -0.463  -0.835  1.00  0.00    -0.353 N 
HETATM   27  C7  UNL     1      -4.979  -1.791  -0.719  1.00  0.00     0.104 A 
ATOM     28  H2  UNL     1      -5.457   0.202  -1.187  1.00  0.00     0.166 HD
HETATM   29  C8  UNL     1      -6.074  -2.607  -1.003  1.00  0.00     0.129 A 
HETATM   30  C10 UNL     1      -3.846  -2.321  -0.225  1.00  0.00     0.078 A 
HETATM   31  N4  UNL     1      -5.944  -3.924  -0.763  1.00  0.00    -0.337 N 
HETATM   32  C9  UNL     1      -4.819  -4.468  -0.270  1.00  0.00     0.182 A 
ATOM     33  H4  UNL     1      -6.734  -4.537  -0.964  1.00  0.00     0.168 HD
HETATM   34  N5  UNL     1      -3.799  -3.654  -0.014  1.00  0.00    -0.350 N 
ATOM     35  H5  UNL     1      -2.939  -4.056   0.360  1.00  0.00     0.166 HD
BRANCH  25  36
HETATM   36  C5  UNL     1      -2.903   1.197  -0.372  1.00  0.00     0.100 C 
HETATM   37  C2  UNL     1      -3.827   2.215  -1.065  1.00  0.00     0.139 C 
HETATM   38  C1  UNL     1      -5.094   2.407  -0.275  1.00  0.00     0.071 C 
HETATM   39  N1  UNL     1      -2.981   3.409  -0.823  1.00  0.00    -0.329 N 
HETATM   40  C3  UNL     1      -2.757   3.350   0.579  1.00  0.00     0.220 C 
ATOM     41  H1  UNL     1      -2.644   4.099  -1.494  1.00  0.00     0.165 HD
HETATM   42  O2  UNL     1      -2.576   4.230   1.430  1.00  0.00    -0.274 OA
HETATM   43  C4  UNL     1      -2.769   1.867   0.954  1.00  0.00     0.118 C 
BRANCH  37  44
HETATM   44  O1  UNL     1      -4.043   1.958  -2.379  1.00  0.00    -0.370 OA
ATOM     45  H1  UNL     1      -3.243   1.837  -2.878  1.00  0.00     0.212 HD
ENDBRANCH  37  44
ENDBRANCH  25  36
BRANCH  29  46
HETATM   46  N3  UNL     1      -7.146  -2.087  -1.473  1.00  0.00    -0.384 N 
ATOM     47  H32 UNL     1      -7.245  -1.088  -1.655  1.00  0.00     0.157 HD
ATOM     48  H31 UNL     1      -7.947  -2.684  -1.681  1.00  0.00     0.157 HD
ENDBRANCH  29  46
ENDBRANCH  19  24
BRANCH  22  49
HETATM   49  O4  UNL     1       1.188  -3.080  -0.110  1.00  0.00    -0.369 OA
ATOM     50  H4  UNL     1       1.118  -4.027  -0.105  1.00  0.00     0.212 HD
ENDBRANCH  22  49
ENDBRANCH   1  17
TORSDOF 7
