REMARK  5 active torsions:
REMARK  status: ('A' for Active; 'I' for Inactive)
REMARK    1  A    between atoms: N1_1  and  C1_4 
REMARK    2  A    between atoms: C4_12  and  N4_13 
REMARK    3  A    between atoms: N4_13  and  N5_15 
REMARK    4  A    between atoms: N5_15  and  C5_17 
REMARK    5  A    between atoms: N8_26  and  N9_27 
ROOT
HETATM    1  N5  UNL     1       0.517  -0.556  -0.465  1.00  0.00    -0.129 N 
ATOM      2  H5  UNL     1       0.090  -1.480  -0.400  1.00  0.00     0.205 HD
ENDROOT
BRANCH   1   3
HETATM    3  N4  UNL     1      -0.343   0.471  -0.792  1.00  0.00    -0.281 N 
ATOM      4  H4  UNL     1      -0.005   1.361  -1.158  1.00  0.00     0.187 HD
BRANCH   3   5
HETATM    5  C4  UNL     1      -1.739   0.217  -0.588  1.00  0.00     0.107 A 
HETATM    6  C1  UNL     1      -2.553   0.978   0.197  1.00  0.00     0.132 A 
HETATM    7  N2  UNL     1      -3.831   0.618   0.343  1.00  0.00    -0.293 N 
HETATM    8  C2  UNL     1      -4.306  -0.491  -0.283  1.00  0.00     0.325 A 
ATOM      9  H2  UNL     1      -4.453   1.178   0.927  1.00  0.00     0.172 HD
HETATM   10  O1  UNL     1      -5.520  -0.798  -0.116  1.00  0.00    -0.247 OA
HETATM   11  N3  UNL     1      -3.538  -1.262  -1.059  1.00  0.00    -0.316 N 
HETATM   12  C3  UNL     1      -2.258  -0.903  -1.209  1.00  0.00     0.127 A 
ATOM     13  H3  UNL     1      -3.913  -2.092  -1.519  1.00  0.00     0.170 HD
BRANCH   6  14
HETATM   14  N1  UNL     1      -2.098   2.014   0.783  1.00  0.00    -0.383 N 
ATOM     15  H12 UNL     1      -2.707   2.583   1.370  1.00  0.00     0.157 HD
ATOM     16  H11 UNL     1      -1.122   2.289   0.672  1.00  0.00     0.157 HD
ENDBRANCH   6  14
ENDBRANCH   3   5
ENDBRANCH   1   3
BRANCH   1  17
HETATM   17  C5  UNL     1       1.899  -0.512  -0.208  1.00  0.00     0.726 A 
HETATM   18  N6  UNL     1       2.746  -1.387  -0.814  1.00  0.00    -0.138 N 
HETATM   19  C6  UNL     1       4.066  -1.414  -0.593  1.00  0.00     0.342 A 
ATOM     20  H6  UNL     1       2.354  -2.060  -1.473  1.00  0.00     0.189 HD
HETATM   21  O2  UNL     1       4.797  -2.265  -1.201  1.00  0.00    -0.246 OA
HETATM   22  N7  UNL     1       4.570  -0.531   0.276  1.00  0.00    -0.258 N 
HETATM   23  C7  UNL     1       3.771   0.350   0.899  1.00  0.00     0.363 A 
ATOM     24  H7  UNL     1       5.572  -0.527   0.467  1.00  0.00     0.175 HD
HETATM   25  O3  UNL     1       4.232   1.195   1.728  1.00  0.00    -0.244 OA
HETATM   26  N8  UNL     1       2.415   0.363   0.656  1.00  0.00    -0.036 N 
BRANCH  26  27
HETATM   27  N9  UNL     1       1.604   1.277   1.300  1.00  0.00    -0.320 N 
ATOM     28  H92 UNL     1       0.600   1.287   1.120  1.00  0.00     0.178 HD
ATOM     29  H91 UNL     1       1.999   1.946   1.961  1.00  0.00     0.178 HD
ENDBRANCH  26  27
ENDBRANCH   1  17
TORSDOF 5
