REMARK  7 active torsions:
REMARK  status: ('A' for Active; 'I' for Inactive)
REMARK    1  A    between atoms: N1_1  and  C1_4 
REMARK    2  A    between atoms: N3_9  and  C3_10 
REMARK    3  A    between atoms: C3_10  and  C4_11 
REMARK       I    between atoms: C4_11  and  N4_13 
REMARK    4  A    between atoms: N4_13  and  C5_15 
REMARK    5  A    between atoms: C6_18  and  N6_19 
REMARK    6  A    between atoms: N6_19  and  N7_21 
REMARK    7  A    between atoms: N10_28  and  N11_29 
ROOT
HETATM    1  C4  UNL     1       0.408  -0.932  -1.028  1.00  0.00     0.256 C 
HETATM    2  O2  UNL     1       0.969  -0.517  -2.056  1.00  0.00    -0.271 OA
HETATM    3  N4  UNL     1      -0.790  -1.700  -1.144  1.00  0.00    -0.156 N 
ATOM      4  H4  UNL     1      -0.755  -2.634  -1.552  1.00  0.00     0.187 HD
ENDROOT
BRANCH   1   5
HETATM    5  C3  UNL     1       0.910  -0.680   0.351  1.00  0.00     0.260 C 
BRANCH   5   6
HETATM    6  N3  UNL     1       2.123   0.103   0.338  1.00  0.00    -0.197 N 
HETATM    7  C2  UNL     1       2.167   1.446   0.379  1.00  0.00     0.357 A 
HETATM    8  N2  UNL     1       3.462   1.803   0.350  1.00  0.00    -0.137 N 
HETATM    9  O1  UNL     1       1.195   2.242   0.435  1.00  0.00    -0.244 OA
HETATM   10  C1  UNL     1       4.229   0.678   0.290  1.00  0.00     0.716 A 
ATOM     11  H2  UNL     1       3.814   2.760   0.370  1.00  0.00     0.189 HD
HETATM   12  N10 UNL     1       3.366  -0.376   0.283  1.00  0.00    -0.020 N 
BRANCH  10  13
HETATM   13  N1  UNL     1       5.514   0.585   0.246  1.00  0.00    -0.231 N 
ATOM     14  H12 UNL     1       6.160   1.374   0.251  1.00  0.00     0.174 HD
ATOM     15  H11 UNL     1       6.088  -0.257   0.201  1.00  0.00     0.174 HD
ENDBRANCH  10  13
BRANCH  12  16
HETATM   16  N11 UNL     1       3.678  -1.734   0.230  1.00  0.00    -0.309 N 
ATOM     17 2H11 UNL     1       4.629  -2.100   0.188  1.00  0.00     0.179 HD
ATOM     18 1H11 UNL     1       3.032  -2.523   0.225  1.00  0.00     0.179 HD
ENDBRANCH  12  16
ENDBRANCH   5   6
ENDBRANCH   1   5
BRANCH   3  19
HETATM   19  C5  UNL     1      -1.914  -1.221  -0.737  1.00  0.00     0.714 A 
HETATM   20  N5  UNL     1      -2.157  -0.026  -0.180  1.00  0.00    -0.018 N 
HETATM   21  C6  UNL     1      -3.464   0.042   0.082  1.00  0.00     0.726 A 
ATOM     22  H5  UNL     1      -1.467   0.701   0.010  1.00  0.00     0.203 HD
HETATM   23  N8  UNL     1      -4.020  -1.103  -0.311  1.00  0.00    -0.116 N 
HETATM   24  N9  UNL     1      -3.080  -1.872  -0.809  1.00  0.00    -0.117 N 
ATOM     25  H8  UNL     1      -5.009  -1.342  -0.237  1.00  0.00     0.206 HD
ATOM     26  H9  UNL     1      -3.216  -2.809  -1.188  1.00  0.00     0.206 HD
BRANCH  21  27
HETATM   27  N6  UNL     1      -4.105   1.176   0.684  1.00  0.00    -0.137 N 
ATOM     28  H6  UNL     1      -4.205   1.264   1.695  1.00  0.00     0.205 HD
BRANCH  27  29
HETATM   29  N7  UNL     1      -4.585   2.154  -0.194  1.00  0.00    -0.331 N 
ATOM     30  H72 UNL     1      -4.477   2.052  -1.203  1.00  0.00     0.177 HD
ATOM     31  H71 UNL     1      -5.041   2.960   0.234  1.00  0.00     0.177 HD
ENDBRANCH  27  29
ENDBRANCH  21  27
ENDBRANCH   3  19
TORSDOF 7
