REMARK  8 active torsions:
REMARK  status: ('A' for Active; 'I' for Inactive)
REMARK    1  A    between atoms: C2_2  and  C3_3 
REMARK    2  A    between atoms: C3_3  and  C4_4 
REMARK    3  A    between atoms: C4_4  and  C5_5 
REMARK    4  A    between atoms: C11_17  and  C12_18 
REMARK    5  A    between atoms: C12_18  and  C13_19 
REMARK    6  A    between atoms: C13_19  and  C14_20 
REMARK    7  A    between atoms: C14_20  and  O3_21 
REMARK    8  A    between atoms: N2_23  and  O4_25 
ROOT
HETATM    1  C4  UNL     1       1.862   0.118  -0.587  1.00  0.00     0.051 C 
HETATM    2  C9  UNL     1       0.778   1.236  -0.764  1.00  0.00     0.191 C 
HETATM    3  F3  UNL     1       0.193   1.172  -2.005  1.00  0.00    -0.248 F 
HETATM    4  C10 UNL     1      -0.061   0.506   0.243  1.00  0.00     0.035 C 
HETATM    5  C11 UNL     1      -1.517   0.294  -0.218  1.00  0.00     0.006 C 
HETATM    6  C15 UNL     1      -1.562  -1.107  -0.649  1.00  0.00    -0.015 C 
HETATM    7  C16 UNL     1      -2.027  -1.989   0.489  1.00  0.00     0.020 C 
HETATM    8  C17 UNL     1      -2.386  -1.314  -1.913  1.00  0.00     0.022 C 
HETATM    9  C18 UNL     1      -2.435  -2.798  -2.193  1.00  0.00     0.084 C 
HETATM   10  C19 UNL     1      -1.034  -3.203  -2.474  1.00  0.00     0.149 C 
HETATM   11  O5  UNL     1      -0.785  -4.124  -3.295  1.00  0.00    -0.293 OA
HETATM   12  C20 UNL     1       0.019  -2.492  -1.764  1.00  0.00     0.054 C 
HETATM   13  C21 UNL     1      -0.148  -1.510  -0.903  1.00  0.00    -0.062 C 
HETATM   14  C22 UNL     1       0.694  -0.732  -0.079  1.00  0.00     0.040 C 
ENDROOT
BRANCH   1  15
HETATM   15  C3  UNL     1       2.297  -0.275  -1.918  1.00  0.00    -0.011 C 
BRANCH  15  16
HETATM   16  C2  UNL     1       3.119   0.535  -2.785  1.00  0.00    -0.013 C 
HETATM   17  C1  UNL     1       3.480   1.780  -2.767  1.00  0.00     0.011 C 
ENDBRANCH  15  16
ENDBRANCH   1  15
BRANCH   1  18
HETATM   18  C5  UNL     1       2.721   0.343   0.560  1.00  0.00     0.244 C 
HETATM   19  O1  UNL     1       3.343  -0.936   0.895  1.00  0.00    -0.289 OA
HETATM   20  C6  UNL     1       3.994  -0.610   2.110  1.00  0.00     0.367 C 
HETATM   21  O2  UNL     1       4.415  -1.427   2.975  1.00  0.00    -0.238 OA
HETATM   22  N1  UNL     1       4.102   0.816   2.206  1.00  0.00    -0.267 N 
HETATM   23  C7  UNL     1       4.388   1.616   3.335  1.00  0.00     0.161 C 
HETATM   24  C8  UNL     1       3.827   1.224   0.776  1.00  0.00     0.355 C 
HETATM   25  F1  UNL     1       5.065   0.876   0.237  1.00  0.00    -0.179 F 
HETATM   26  F2  UNL     1       3.626   2.567   0.873  1.00  0.00    -0.179 F 
ENDBRANCH   1  18
BRANCH   5  27
HETATM   27  C12 UNL     1      -2.444   0.792   0.826  1.00  0.00     0.014 C 
BRANCH  27  28
HETATM   28  C13 UNL     1      -3.885   0.666   0.494  1.00  0.00     0.086 C 
BRANCH  28  29
HETATM   29  C14 UNL     1      -4.761   1.227   1.564  1.00  0.00     0.135 C 
HETATM   30  N2  UNL     1      -5.552   2.186   1.279  1.00  0.00    -0.251 N 
ATOM     31  H2  UNL     1      -5.567   2.547   0.325  1.00  0.00     0.196 HD
BRANCH  29  32
HETATM   32  O3  UNL     1      -4.686   0.692   2.826  1.00  0.00    -0.348 OA
ATOM     33  H3  UNL     1      -5.244   1.049   3.507  1.00  0.00     0.219 HD
ENDBRANCH  29  32
BRANCH  30  34
HETATM   34  O4  UNL     1      -6.380   2.745   2.212  1.00  0.00    -0.288 OA
ATOM     35  H4  UNL     1      -6.969   3.459   2.000  1.00  0.00     0.244 HD
ENDBRANCH  30  34
ENDBRANCH  28  29
ENDBRANCH  27  28
ENDBRANCH   5  27
TORSDOF 8
