REMARK  14 active torsions:
REMARK  status: ('A' for Active; 'I' for Inactive)
REMARK    1  A    between atoms: C2_2  and  O2_4 
REMARK    2  A    between atoms: O2_4  and  C3_5 
REMARK    3  A    between atoms: C4_7  and  O4_8 
REMARK    4  A    between atoms: O4_8  and  C5_9 
REMARK    5  A    between atoms: C7_11  and  O5_12 
REMARK    6  A    between atoms: O5_12  and  C8_13 
REMARK    7  A    between atoms: C9_14  and  O6_15 
REMARK    8  A    between atoms: C10_17  and  N1_18 
REMARK    9  A    between atoms: C12_23  and  N2_24 
REMARK   10  A    between atoms: C13_28  and  O7_29 
REMARK   11  A    between atoms: C14_31  and  N3_32 
REMARK   12  A    between atoms: C16_37  and  N4_38 
REMARK   13  A    between atoms: C17_43  and  N5_44 
REMARK   14  A    between atoms: C18_48  and  O9_49 
ROOT
HETATM    1  C5  UNL     1       0.911  -0.763   0.024  1.00  0.00     0.160 C 
HETATM    2  C6  UNL     1      -0.306   0.015  -0.293  1.00  0.00     0.068 C 
HETATM    3  C7  UNL     1      -1.606  -0.768  -0.142  1.00  0.00     0.155 C 
HETATM    4  C14 UNL     1      -1.307  -2.182  -0.617  1.00  0.00     0.214 C 
HETATM    5  C15 UNL     1      -0.317  -2.887   0.245  1.00  0.00     0.070 C 
HETATM    6  C16 UNL     1       0.678  -1.962   0.904  1.00  0.00     0.214 C 
ENDROOT
BRANCH   3   7
HETATM    7  O5  UNL     1      -2.493  -0.245  -1.038  1.00  0.00    -0.373 OA
BRANCH   7   8
HETATM    8  C8  UNL     1      -3.642   0.306  -0.595  1.00  0.00     0.183 C 
HETATM    9  C9  UNL     1      -3.889   1.740  -0.889  1.00  0.00     0.180 C 
HETATM   10  C10 UNL     1      -4.825   2.274   0.209  1.00  0.00     0.216 C 
HETATM   11  C11 UNL     1      -5.961   1.305   0.451  1.00  0.00     0.071 C 
HETATM   12  C12 UNL     1      -6.138   0.332  -0.682  1.00  0.00     0.216 C 
HETATM   13  C13 UNL     1      -4.892  -0.450  -1.008  1.00  0.00     0.180 C 
BRANCH   9  14
HETATM   14  O6  UNL     1      -2.792   2.550  -0.901  1.00  0.00    -0.391 OA
ATOM     15  H6  UNL     1      -2.950   3.468  -1.089  1.00  0.00     0.210 HD
ENDBRANCH   9  14
BRANCH  10  16
HETATM   16  N1  UNL     1      -5.263   3.609  -0.067  1.00  0.00    -0.072 N 
ATOM     17  H13 UNL     1      -4.472   4.235  -0.217  1.00  0.00     0.274 HD
ATOM     18  H12 UNL     1      -5.696   3.674  -0.988  1.00  0.00     0.274 HD
ATOM     19  H11 UNL     1      -5.884   3.963   0.661  1.00  0.00     0.274 HD
ENDBRANCH  10  16
BRANCH  12  20
HETATM   20  N2  UNL     1      -7.247  -0.541  -0.345  1.00  0.00    -0.072 N 
ATOM     21  H23 UNL     1      -7.129  -1.001   0.558  1.00  0.00     0.274 HD
ATOM     22  H22 UNL     1      -8.101  -0.029  -0.125  1.00  0.00     0.274 HD
ATOM     23  H21 UNL     1      -7.367  -1.201  -1.113  1.00  0.00     0.274 HD
ENDBRANCH  12  20
BRANCH  13  24
HETATM   24  O7  UNL     1      -4.911  -0.699  -2.378  1.00  0.00    -0.391 OA
ATOM     25  H7  UNL     1      -5.693  -1.172  -2.636  1.00  0.00     0.210 HD
ENDBRANCH  13  24
ENDBRANCH   7   8
ENDBRANCH   3   7
BRANCH   4  26
HETATM   26  N3  UNL     1      -0.892  -2.100  -2.005  1.00  0.00    -0.072 N 
ATOM     27  H33 UNL     1      -1.571  -1.618  -2.595  1.00  0.00     0.274 HD
ATOM     28  H32 UNL     1      -0.111  -1.459  -2.149  1.00  0.00     0.274 HD
ATOM     29  H31 UNL     1      -0.692  -3.048  -2.323  1.00  0.00     0.274 HD
ENDBRANCH   4  26
BRANCH   1  30
HETATM   30  O4  UNL     1       1.925  -0.012   0.612  1.00  0.00    -0.331 OA
BRANCH  30  31
HETATM   31  C4  UNL     1       3.077   0.029  -0.125  1.00  0.00     0.417 C 
HETATM   32  O3  UNL     1       4.137  -0.598   0.525  1.00  0.00    -0.305 OA
HETATM   33  C3  UNL     1       5.098   0.330   0.922  1.00  0.00     0.307 C 
HETATM   34  C18 UNL     1       5.743   0.982  -0.309  1.00  0.00     0.230 C 
HETATM   35  C17 UNL     1       4.595   1.341  -1.231  1.00  0.00     0.356 C 
HETATM   36  O8  UNL     1       3.405   1.310  -0.559  1.00  0.00    -0.303 OA
BRANCH  33  37
HETATM   37  O2  UNL     1       6.148  -0.290   1.639  1.00  0.00    -0.287 OA
BRANCH  37  38
HETATM   38  C2  UNL     1       6.443   0.069   2.956  1.00  0.00     0.257 C 
HETATM   39  C1  UNL     1       7.557  -0.596   3.704  1.00  0.00     0.126 C 
HETATM   40  O1  UNL     1       5.727   0.969   3.464  1.00  0.00    -0.266 OA
ENDBRANCH  37  38
ENDBRANCH  33  37
BRANCH  34  41
HETATM   41  O9  UNL     1       6.442   2.081   0.133  1.00  0.00    -0.386 OA
ATOM     42  H9  UNL     1       6.841   2.484  -0.629  1.00  0.00     0.210 HD
ENDBRANCH  34  41
BRANCH  35  43
HETATM   43  N5  UNL     1       4.604   0.547  -2.436  1.00  0.00    -0.050 N 
ATOM     44  H53 UNL     1       4.330  -0.415  -2.235  1.00  0.00     0.277 HD
ATOM     45  H52 UNL     1       3.837   0.819  -3.051  1.00  0.00     0.277 HD
ATOM     46  H51 UNL     1       5.492   0.570  -2.937  1.00  0.00     0.277 HD
ENDBRANCH  35  43
ENDBRANCH  30  31
ENDBRANCH   1  30
BRANCH   6  47
HETATM   47  N4  UNL     1       1.889  -2.612   1.302  1.00  0.00    -0.072 N 
ATOM     48  H43 UNL     1       2.451  -2.862   0.488  1.00  0.00     0.274 HD
ATOM     49  H42 UNL     1       2.526  -1.952   1.749  1.00  0.00     0.274 HD
ATOM     50  H41 UNL     1       1.731  -3.424   1.898  1.00  0.00     0.274 HD
ENDBRANCH   6  47
TORSDOF 14
