REMARK  4 active torsions:
REMARK  status: ('A' for Active; 'I' for Inactive)
REMARK    1  A    between atoms: N1_1  and  N2_4 
REMARK    2  A    between atoms: N2_4  and  S1_6 
REMARK    3  A    between atoms: S1_6  and  N3_9 
REMARK    4  A    between atoms: N3_9  and  C1_11 
ROOT
HETATM    1  C1  UNL     1       0.491   0.678   0.096  1.00  0.00     0.099 C 
HETATM    2  C2  UNL     1      -0.674   1.474   0.620  1.00  0.00     0.031 C 
HETATM    3  C3  UNL     1      -1.994   0.985   0.074  1.00  0.00    -0.012 C 
HETATM    4  C4  UNL     1      -2.588  -0.136   0.857  1.00  0.00     0.009 C 
HETATM    5  C5  UNL     1      -2.008  -1.480   0.550  1.00  0.00    -0.013 C 
HETATM    6  C6  UNL     1      -1.975  -1.767  -0.939  1.00  0.00     0.010 C 
HETATM    7  C7  UNL     1      -1.004  -0.673  -1.406  1.00  0.00    -0.008 C 
HETATM    8  C8  UNL     1      -1.832   0.616  -1.400  1.00  0.00     0.010 C 
HETATM    9  C9  UNL     1       0.038  -0.680  -0.338  1.00  0.00     0.013 C 
HETATM   10  C10 UNL     1      -0.505  -1.408   0.852  1.00  0.00     0.011 C 
ENDROOT
BRANCH   1  11
HETATM   11  N3  UNL     1       1.437   0.479   1.202  1.00  0.00    -0.296 N 
ATOM     12  H3  UNL     1       1.215   0.020   2.085  1.00  0.00     0.174 HD
BRANCH  11  13
HETATM   13  S1  UNL     1       2.960   1.127   0.796  1.00  0.00     0.332 S 
HETATM   14  O1  UNL     1       2.775   2.307  -0.128  1.00  0.00    -0.181 OA
HETATM   15  O2  UNL     1       3.665   1.619   2.052  1.00  0.00    -0.181 OA
BRANCH  13  16
HETATM   16  N2  UNL     1       3.979   0.007   0.028  1.00  0.00    -0.217 N 
ATOM     17  H2  UNL     1       4.620  -0.604   0.535  1.00  0.00     0.201 HD
BRANCH  16  18
HETATM   18  N1  UNL     1       3.858  -0.000  -1.363  1.00  0.00    -0.335 N 
ATOM     19  H12 UNL     1       3.213   0.617  -1.857  1.00  0.00     0.177 HD
ATOM     20  H11 UNL     1       4.470  -0.673  -1.824  1.00  0.00     0.177 HD
ENDBRANCH  16  18
ENDBRANCH  13  16
ENDBRANCH  11  13
ENDBRANCH   1  11
TORSDOF 4
