REMARK  5 active torsions:
REMARK  status: ('A' for Active; 'I' for Inactive)
REMARK    1  A    between atoms: C2_2  and  C3_3 
REMARK    2  A    between atoms: N1_4  and  O1_5 
REMARK    3  A    between atoms: N1_4  and  N2_7 
REMARK       I    between atoms: C4_9  and  N4_11 
REMARK    4  A    between atoms: N4_11  and  N5_13 
REMARK       I    between atoms: N5_13  and  C5_15 
REMARK    5  A    between atoms: C5_15  and  C6_17 
ROOT
HETATM    1  N2  UNL     1       2.296   0.937  -0.295  1.00  0.00    -0.246 N 
ATOM      2  H2  UNL     1       2.445   1.806  -0.808  1.00  0.00     0.192 HD
HETATM    3  C4  UNL     1       1.154   0.340  -0.377  1.00  0.00     0.224 C 
HETATM    4  N3  UNL     1       0.864  -0.874   0.307  1.00  0.00    -0.061 NA
HETATM    5  N4  UNL     1       0.139   0.921  -1.189  1.00  0.00    -0.270 N 
ATOM      6  H4  UNL     1       0.408   1.676  -1.820  1.00  0.00     0.190 HD
ENDROOT
BRANCH   5   7
HETATM    7  N5  UNL     1      -1.198   0.527  -1.179  1.00  0.00    -0.263 N 
HETATM    8  C5  UNL     1      -1.961   0.570   0.012  1.00  0.00     0.271 C 
HETATM    9  O2  UNL     1      -1.408   0.971   1.062  1.00  0.00    -0.266 OA
ATOM     10  H5  UNL     1      -1.633   0.203  -2.043  1.00  0.00     0.190 HD
BRANCH   8  11
HETATM   11  C6  UNL     1      -3.358   0.168   0.069  1.00  0.00     0.049 A 
HETATM   12  C7  UNL     1      -4.071  -0.240  -1.053  1.00  0.00     0.020 A 
HETATM   13  C8  UNL     1      -5.395  -0.617  -0.973  1.00  0.00     0.018 A 
HETATM   14  C9  UNL     1      -6.042  -0.596   0.244  1.00  0.00     0.087 A 
HETATM   15  N6  UNL     1      -5.355  -0.198   1.353  1.00  0.00    -0.374 N 
HETATM   16  C10 UNL     1      -4.062   0.168   1.256  1.00  0.00     0.104 A 
ATOM     17  H6  UNL     1      -5.822  -0.177   2.260  1.00  0.00     0.164 HD
ENDBRANCH   8  11
ENDBRANCH   5   7
BRANCH   1  18
HETATM   18  N1  UNL     1       3.332   0.415   0.484  1.00  0.00    -0.173 N 
HETATM   19  C3  UNL     1       4.536   0.408   0.075  1.00  0.00     0.142 C 
BRANCH  19  20
HETATM   20  C2  UNL     1       5.588  -0.139   0.903  1.00  0.00     0.011 C 
HETATM   21  C1  UNL     1       6.849  -0.173   0.533  1.00  0.00     0.013 C 
ENDBRANCH  19  20
BRANCH  18  22
HETATM   22  O1  UNL     1       3.047  -0.103   1.722  1.00  0.00    -0.268 OA
ATOM     23  H1  UNL     1       2.147  -0.098   2.028  1.00  0.00     0.247 HD
ENDBRANCH  18  22
ENDBRANCH   1  18
TORSDOF 5
