REMARK  6 active torsions:
REMARK  status: ('A' for Active; 'I' for Inactive)
REMARK    1  A    between atoms: C4_10  and  S1_11 
REMARK    2  A    between atoms: S1_11  and  C5_12 
REMARK    3  A    between atoms: C6_15  and  C7_16 
REMARK    4  A    between atoms: C8_21  and  N6_22 
REMARK    5  A    between atoms: C12_28  and  C13_29 
REMARK    6  A    between atoms: C15_34  and  N9_35 
ROOT
HETATM    1  C5  UNL     1      -0.522   1.353   0.398  1.00  0.00     0.120 A 
HETATM    2  N3  UNL     1       0.111   2.457  -0.104  1.00  0.00    -0.329 N 
ATOM      3  H3  UNL     1       1.060   2.753   0.122  1.00  0.00     0.168 HD
HETATM    4  C6  UNL     1      -0.718   3.078  -0.935  1.00  0.00     0.174 A 
HETATM    5  N5  UNL     1      -1.855   2.369  -0.949  1.00  0.00    -0.322 N 
ATOM      6  H5  UNL     1      -2.675   2.613  -1.504  1.00  0.00     0.169 HD
HETATM    7  C8  UNL     1      -1.781   1.284  -0.133  1.00  0.00     0.140 A 
ENDROOT
BRANCH   1   8
HETATM    8  S1  UNL     1       0.217   0.239   1.557  1.00  0.00    -0.079 SA
BRANCH   8   9
HETATM    9  C4  UNL     1       1.179  -0.983   0.681  1.00  0.00     0.072 C 
HETATM   10  C3  UNL     1       2.497  -0.989   0.691  1.00  0.00     0.087 C 
HETATM   11  C2  UNL     1       3.222   0.023   1.433  1.00  0.00     0.261 C 
HETATM   12  C14 UNL     1       3.237  -2.007  -0.039  1.00  0.00     0.203 C 
HETATM   13  N2  UNL     1       4.647  -0.020   1.416  1.00  0.00    -0.310 N 
HETATM   14  O1  UNL     1       2.626   0.923   2.079  1.00  0.00    -0.267 OA
HETATM   15  C1  UNL     1       5.369  -1.004   0.711  1.00  0.00     0.116 C 
ATOM     16  H2  UNL     1       5.165   0.690   1.935  1.00  0.00     0.170 HD
HETATM   17  N1  UNL     1       6.630  -1.150   0.936  1.00  0.00    -0.387 N 
HETATM   18  C15 UNL     1       4.711  -1.878  -0.288  1.00  0.00     0.324 C 
ATOM     19  H12 UNL     1       7.083  -0.548   1.624  1.00  0.00     0.157 HD
ATOM     20  H11 UNL     1       7.152  -1.862   0.426  1.00  0.00     0.157 HD
HETATM   21  O4  UNL     1       2.685  -3.037  -0.495  1.00  0.00    -0.289 OA
BRANCH  18  22
HETATM   22  N9  UNL     1       4.977  -1.437  -1.645  1.00  0.00    -0.061 N 
ATOM     23  H93 UNL     1       4.716  -0.460  -1.776  1.00  0.00     0.275 HD
ATOM     24  H92 UNL     1       5.979  -1.359  -1.821  1.00  0.00     0.275 HD
ATOM     25  H91 UNL     1       4.524  -2.039  -2.333  1.00  0.00     0.275 HD
ENDBRANCH  18  22
ENDBRANCH   8   9
ENDBRANCH   1   8
BRANCH   7  26
HETATM   26  N6  UNL     1      -2.858   0.381   0.051  1.00  0.00    -0.345 N 
HETATM   27  C9  UNL     1      -4.061   0.593  -0.753  1.00  0.00     0.169 C 
HETATM   28  C10 UNL     1      -4.891  -0.618  -0.797  1.00  0.00     0.075 C 
HETATM   29  N7  UNL     1      -5.028  -1.348   0.239  1.00  0.00    -0.398 N 
HETATM   30  C11 UNL     1      -4.331  -0.930   1.450  1.00  0.00     0.153 C 
ATOM     31  H7  UNL     1      -5.602  -2.191   0.222  1.00  0.00     0.158 HD
HETATM   32  C12 UNL     1      -2.880  -0.711   0.966  1.00  0.00     0.193 C 
BRANCH  32  33
HETATM   33  C13 UNL     1      -2.493  -2.018   0.373  1.00  0.00     0.255 C 
HETATM   34  N8  UNL     1      -2.487  -3.157   1.197  1.00  0.00    -0.060 NA
HETATM   35  O3  UNL     1      -2.178  -2.107  -0.841  1.00  0.00    -0.275 OA
ENDBRANCH  32  33
ENDBRANCH   7  26
BRANCH   4  36
HETATM   36  C7  UNL     1      -0.483   4.305  -1.710  1.00  0.00     0.298 C 
HETATM   37  N4  UNL     1      -1.487   4.827  -2.550  1.00  0.00    -0.054 NA
HETATM   38  O2  UNL     1       0.616   4.887  -1.622  1.00  0.00    -0.268 OA
ENDBRANCH   4  36
TORSDOF 6
