REMARK  17 active torsions:
REMARK  status: ('A' for Active; 'I' for Inactive)
REMARK    1  A    between atoms: N1_1  and  C1_4 
REMARK    2  A    between atoms: C2_7  and  C3_8 
REMARK    3  A    between atoms: C3_8  and  O1_9 
REMARK    4  A    between atoms: C3_8  and  C4_11 
REMARK    5  A    between atoms: C4_11  and  N3_12 
REMARK    6  A    between atoms: C4_11  and  N10_42 
REMARK    7  A    between atoms: N3_12  and  N4_14 
REMARK    8  A    between atoms: N4_14  and  N5_16 
REMARK    9  A    between atoms: N6_19  and  N7_20 
REMARK   10  A    between atoms: C7_22  and  C8_23 
REMARK   11  A    between atoms: C9_24  and  O2_25 
REMARK   12  A    between atoms: C13_36  and  C14_37 
REMARK   13  A    between atoms: C14_37  and  O5_38 
REMARK   14  A    between atoms: C14_37  and  O6_40 
REMARK   15  A    between atoms: C16_44  and  S1_45 
REMARK   16  A    between atoms: S1_45  and  N11_46 
REMARK   17  A    between atoms: C19_53  and  O9_54 
ROOT
HETATM    1  N3  UNL     1      -1.663   0.650   0.311  1.00  0.00    -0.272 N 
ATOM      2  H3  UNL     1      -1.737   0.630   1.328  1.00  0.00     0.190 HD
ENDROOT
BRANCH   1   3
HETATM    3  C4  UNL     1      -2.781   0.722  -0.343  1.00  0.00     0.165 C 
BRANCH   3   4
HETATM    4  C3  UNL     1      -2.809   0.757  -1.744  1.00  0.00     0.139 C 
BRANCH   4   5
HETATM    5  C2  UNL     1      -3.940   0.846  -2.695  1.00  0.00     0.078 A 
HETATM    6  N2  UNL     1      -3.715   0.855  -4.006  1.00  0.00    -0.334 N 
HETATM    7  C1  UNL     1      -4.752   0.942  -4.827  1.00  0.00     0.142 A 
ATOM      8  H2  UNL     1      -2.765   0.796  -4.372  1.00  0.00     0.168 HD
HETATM    9  S2  UNL     1      -6.089   1.016  -3.808  1.00  0.00    -0.064 SA
HETATM   10  C20 UNL     1      -5.236   0.929  -2.299  1.00  0.00     0.085 A 
BRANCH   7  11
HETATM   11  N1  UNL     1      -4.719   0.963  -6.149  1.00  0.00    -0.380 N 
ATOM     12  H12 UNL     1      -3.909   0.918  -6.767  1.00  0.00     0.158 HD
ATOM     13  H11 UNL     1      -5.517   1.030  -6.781  1.00  0.00     0.158 HD
ENDBRANCH   7  11
ENDBRANCH   4   5
BRANCH   4  14
HETATM   14  O1  UNL     1      -1.641   0.702  -2.347  1.00  0.00    -0.355 OA
ATOM     15  H1  UNL     1      -0.915   0.645  -1.737  1.00  0.00     0.218 HD
ENDBRANCH   4  14
ENDBRANCH   3   4
BRANCH   3  16
HETATM   16  N10 UNL     1      -3.908   0.746   0.564  1.00  0.00    -0.284 N 
HETATM   17  C15 UNL     1      -4.520  -0.382   0.975  1.00  0.00     0.126 A 
HETATM   18  C16 UNL     1      -5.551  -0.438   1.874  1.00  0.00     0.095 A 
HETATM   19  C17 UNL     1      -5.998   0.755   2.398  1.00  0.00     0.031 A 
HETATM   20  C18 UNL     1      -5.386   1.934   1.993  1.00  0.00     0.058 A 
HETATM   21  C19 UNL     1      -4.351   1.915   1.083  1.00  0.00     0.147 A 
BRANCH  18  22
HETATM   22  S1  UNL     1      -6.301  -1.944   2.364  1.00  0.00     0.258 S 
HETATM   23  O7  UNL     1      -5.323  -3.071   2.401  1.00  0.00    -0.201 OA
HETATM   24  O8  UNL     1      -6.908  -1.770   3.719  1.00  0.00    -0.201 OA
BRANCH  22  25
HETATM   25  N11 UNL     1      -7.617  -2.316   1.273  1.00  0.00    -0.324 N 
ATOM     26 2H11 UNL     1      -7.892  -1.737   0.480  1.00  0.00     0.169 HD
ATOM     27 1H11 UNL     1      -8.054  -3.193   1.558  1.00  0.00     0.169 HD
ENDBRANCH  22  25
ENDBRANCH  18  22
BRANCH  21  28
HETATM   28  O9  UNL     1      -3.757   3.107   0.694  1.00  0.00    -0.346 OA
ATOM     29  H9  UNL     1      -4.068   3.927   1.058  1.00  0.00     0.219 HD
ENDBRANCH  21  28
ENDBRANCH   3  16
ENDBRANCH   1   3
BRANCH   1  30
HETATM   30  N4  UNL     1      -0.415   0.598  -0.196  1.00  0.00    -0.260 N 
ATOM     31  H4  UNL     1      -0.084   1.310  -0.847  1.00  0.00     0.202 HD
BRANCH  30  32
HETATM   32  N5  UNL     1       0.431  -0.480   0.203  1.00  0.00    -0.204 NA
HETATM   33  C5  UNL     1       1.217  -0.878  -0.907  1.00  0.00     0.137 C 
HETATM   34  C6  UNL     1       2.654  -1.179  -0.629  1.00  0.00     0.158 C 
HETATM   35  N6  UNL     1       3.274  -0.179   0.203  1.00  0.00    -0.325 N 
HETATM   36  C12 UNL     1       2.479   0.483   1.208  1.00  0.00     0.169 C 
HETATM   37  C13 UNL     1       1.132  -0.118   1.393  1.00  0.00     0.155 C 
BRANCH  35  38
HETATM   38  N7  UNL     1       4.610   0.120   0.012  1.00  0.00    -0.313 N 
HETATM   39  C7  UNL     1       5.539  -0.759  -0.072  1.00  0.00     0.128 C 
ATOM     40  H7  UNL     1       4.873   1.102  -0.067  1.00  0.00     0.185 HD
BRANCH  39  41
HETATM   41  C8  UNL     1       6.937  -0.415  -0.273  1.00  0.00     0.100 A 
HETATM   42  C9  UNL     1       7.349   0.906  -0.387  1.00  0.00     0.161 A 
HETATM   43  N8  UNL     1       8.639   1.176  -0.571  1.00  0.00    -0.288 N 
HETATM   44  C10 UNL     1       9.586   0.218  -0.655  1.00  0.00     0.329 A 
ATOM     45  H8  UNL     1       8.925   2.152  -0.652  1.00  0.00     0.172 HD
HETATM   46  O3  UNL     1      10.810   0.532  -0.833  1.00  0.00    -0.247 OA
HETATM   47  N9  UNL     1       9.215  -1.069  -0.549  1.00  0.00    -0.275 N 
HETATM   48  C11 UNL     1       7.923  -1.381  -0.363  1.00  0.00     0.265 A 
ATOM     49  H9  UNL     1       9.915  -1.808  -0.610  1.00  0.00     0.173 HD
HETATM   50  O4  UNL     1       7.570  -2.585  -0.262  1.00  0.00    -0.267 OA
BRANCH  42  51
HETATM   51  O2  UNL     1       6.407   1.927  -0.305  1.00  0.00    -0.345 OA
ATOM     52  H2  UNL     1       6.689   2.831  -0.383  1.00  0.00     0.219 HD
ENDBRANCH  42  51
ENDBRANCH  39  41
ENDBRANCH  35  38
BRANCH  37  53
HETATM   53  C14 UNL     1       1.130  -1.289   2.358  1.00  0.00     0.275 C 
BRANCH  53  54
HETATM   54  O5  UNL     1      -0.191  -1.629   2.684  1.00  0.00    -0.370 OA
ATOM     55  H5  UNL     1      -0.192  -2.362   3.288  1.00  0.00     0.212 HD
ENDBRANCH  53  54
BRANCH  53  56
HETATM   56  O6  UNL     1       1.748  -0.952   3.566  1.00  0.00    -0.370 OA
ATOM     57  H6  UNL     1       1.747  -1.685   4.170  1.00  0.00     0.212 HD
ENDBRANCH  53  56
ENDBRANCH  37  53
ENDBRANCH  30  32
ENDBRANCH   1  30
TORSDOF 17
