REMARK  4 active torsions:
REMARK  status: ('A' for Active; 'I' for Inactive)
REMARK    1  A    between atoms: C2_2  and  C3_4 
REMARK    2  A    between atoms: C4_5  and  C5_6 
REMARK    3  A    between atoms: C5_6  and  C6_7 
REMARK    4  A    between atoms: C14_15  and  O2_16 
ROOT
HETATM    1  C6  UNL     1       1.131  -0.281  -1.284  1.00  0.00     0.028 A 
HETATM    2  C7  UNL     1       0.123  -0.797  -0.486  1.00  0.00    -0.036 A 
HETATM    3  C8  UNL     1       0.189  -2.108   0.121  1.00  0.00     0.050 C 
HETATM    4  C9  UNL     1      -1.019  -0.010  -0.361  1.00  0.00     0.012 A 
HETATM    5  C10 UNL     1      -2.080  -0.412   0.414  1.00  0.00    -0.040 A 
HETATM    6  C11 UNL     1      -2.046  -1.645   1.171  1.00  0.00     0.050 C 
HETATM    7  C12 UNL     1      -3.198   0.448   0.485  1.00  0.00    -0.021 A 
HETATM    8  C13 UNL     1      -4.322  -0.011   1.318  1.00  0.00     0.052 C 
HETATM    9  C14 UNL     1      -3.218   1.629  -0.188  1.00  0.00     0.080 A 
HETATM   10  C15 UNL     1      -2.170   2.047  -0.961  1.00  0.00     0.007 A 
HETATM   11  C16 UNL     1      -2.230   3.353  -1.684  1.00  0.00     0.054 C 
HETATM   12  C17 UNL     1      -1.068   1.224  -1.045  1.00  0.00     0.099 A 
HETATM   13  O3  UNL     1      -0.054   1.606  -1.775  1.00  0.00    -0.274 OA
HETATM   14  C18 UNL     1       1.026   0.924  -1.924  1.00  0.00     0.295 A 
HETATM   15  O4  UNL     1       1.989   1.355  -2.655  1.00  0.00    -0.259 OA
ENDROOT
BRANCH   1  16
HETATM   16  C5  UNL     1       2.409  -1.008  -1.401  1.00  0.00     0.072 C 
BRANCH  16  17
HETATM   17  C4  UNL     1       3.290  -0.722  -0.246  1.00  0.00    -0.018 C 
HETATM   18  C3  UNL     1       3.817  -1.636   0.530  1.00  0.00     0.046 C 
BRANCH  18  19
HETATM   19  C2  UNL     1       4.679  -1.313   1.657  1.00  0.00     0.145 C 
HETATM   20  C1  UNL     1       5.008   0.107   1.983  1.00  0.00     0.096 C 
HETATM   21  O1  UNL     1       5.148  -2.245   2.357  1.00  0.00    -0.294 OA
ENDBRANCH  18  19
ENDBRANCH  16  17
ENDBRANCH   1  16
BRANCH   9  22
HETATM   22  O2  UNL     1      -4.345   2.431  -0.080  1.00  0.00    -0.359 OA
ATOM     23  H2  UNL     1      -4.359   3.256  -0.550  1.00  0.00     0.217 HD
ENDBRANCH   9  22
TORSDOF 4
