REMARK  4 active torsions:
REMARK  status: ('A' for Active; 'I' for Inactive)
REMARK    1  A    between atoms: C2_2  and  N1_4 
REMARK       I    between atoms: N1_4  and  C4_6 
REMARK       I    between atoms: C4_6  and  N2_8 
REMARK    2  A    between atoms: N3_12  and  C8_13 
REMARK    3  A    between atoms: C8_13  and  N4_15 
REMARK    4  A    between atoms: N4_15  and  C9_17 
ROOT
HETATM    1  N1  UNL     1       3.661   0.410   0.308  1.00  0.00    -0.339 N 
ATOM      2  H1  UNL     1       3.359   0.529   1.275  1.00  0.00     0.164 HD
HETATM    3  C4  UNL     1       2.705   0.116  -0.694  1.00  0.00     0.318 C 
HETATM    4  O1  UNL     1       3.146  -0.020  -1.877  1.00  0.00    -0.247 OA
HETATM    5  N2  UNL     1       1.315  -0.026  -0.419  1.00  0.00    -0.333 N 
HETATM    6  C5  UNL     1       1.002   0.158   0.950  1.00  0.00     0.129 C 
HETATM    7  C6  UNL     1      -0.430   0.083   1.341  1.00  0.00     0.040 C 
HETATM    8  C7  UNL     1      -1.069  -1.250   1.036  1.00  0.00     0.127 C 
HETATM    9  N3  UNL     1      -1.409  -1.196  -0.375  1.00  0.00    -0.357 N 
HETATM   10  C12 UNL     1      -0.417  -1.482  -1.397  1.00  0.00     0.145 C 
HETATM   11  C13 UNL     1       0.532  -0.325  -1.592  1.00  0.00     0.147 C 
ENDROOT
BRANCH   1  12
HETATM   12  C2  UNL     1       5.057   0.543  -0.025  1.00  0.00     0.078 C 
HETATM   13  C1  UNL     1       5.891  -0.479   0.725  1.00  0.00     0.032 C 
HETATM   14  C3  UNL     1       5.575   1.938   0.305  1.00  0.00     0.032 C 
ENDBRANCH   1  12
BRANCH   9  15
HETATM   15  C8  UNL     1      -2.704  -0.855  -0.791  1.00  0.00     0.170 C 
HETATM   16  S1  UNL     1      -3.003  -0.817  -2.414  1.00  0.00    -0.041 SA
BRANCH  15  17
HETATM   17  N4  UNL     1      -3.799  -0.534   0.043  1.00  0.00    -0.363 N 
ATOM     18  H4  UNL     1      -3.661  -0.542   1.054  1.00  0.00     0.162 HD
BRANCH  17  19
HETATM   19  C9  UNL     1      -5.108  -0.194  -0.473  1.00  0.00     0.075 C 
HETATM   20  C10 UNL     1      -6.074   0.100   0.651  1.00  0.00     0.032 C 
HETATM   21  C11 UNL     1      -5.049   0.994  -1.408  1.00  0.00     0.032 C 
ENDBRANCH  17  19
ENDBRANCH  15  17
ENDBRANCH   9  15
TORSDOF 4
