REMARK  11 active torsions:
REMARK  status: ('A' for Active; 'I' for Inactive)
REMARK    1  A    between atoms: C2_2  and  O1_3 
REMARK    2  A    between atoms: O1_3  and  C3_4 
REMARK    3  A    between atoms: C3_4  and  C4_6 
REMARK    4  A    between atoms: C4_6  and  C5_7 
REMARK    5  A    between atoms: C5_7  and  N1_8 
REMARK    6  A    between atoms: C8_17  and  C9_18 
REMARK    7  A    between atoms: C9_18  and  O3_19 
REMARK    8  A    between atoms: C9_18  and  N3_21 
REMARK    9  A    between atoms: C10_23  and  C12_25 
REMARK       I    between atoms: C12_25  and  N4_27 
REMARK   10  A    between atoms: N4_27  and  N5_28 
REMARK   11  A    between atoms: N5_28  and  C13_30 
ROOT
HETATM    1  C9  UNL     1      -1.078   0.061   0.897  1.00  0.00     0.249 C 
ENDROOT
BRANCH   1   2
HETATM    2  C8  UNL     1      -2.422  -0.100   0.281  1.00  0.00     0.204 C 
HETATM    3  C6  UNL     1      -2.289  -0.437  -1.222  1.00  0.00     0.219 C 
HETATM    4  N2  UNL     1      -3.758  -0.514  -1.520  1.00  0.00    -0.025 N 
HETATM    5  C7  UNL     1      -1.778   0.751  -1.956  1.00  0.00     0.043 C 
HETATM    6  C4  UNL     1      -4.373   0.228  -0.446  1.00  0.00     0.339 C 
ATOM      7  H22 UNL     1      -4.114  -1.463  -1.631  1.00  0.00     0.282 HD
ATOM      8  H21 UNL     1      -4.014  -0.191  -2.453  1.00  0.00     0.282 HD
HETATM    9  O5  UNL     1      -3.293   0.910   0.192  1.00  0.00    -0.333 OA
BRANCH   6  10
HETATM   10  C3  UNL     1      -4.854  -0.776   0.564  1.00  0.00     0.325 C 
HETATM   11  O2  UNL     1      -5.090  -1.998   0.258  1.00  0.00    -0.260 OA
BRANCH  10  12
HETATM   12  O1  UNL     1      -5.055  -0.455   1.877  1.00  0.00    -0.318 OA
BRANCH  12  13
HETATM   13  C2  UNL     1      -5.455  -1.480   2.796  1.00  0.00     0.174 C 
HETATM   14  C1  UNL     1      -5.530  -0.758   4.142  1.00  0.00     0.034 C 
ENDBRANCH  12  13
ENDBRANCH  10  12
ENDBRANCH   6  10
BRANCH   6  15
HETATM   15  C5  UNL     1      -5.448   1.180  -0.860  1.00  0.00     0.309 C 
BRANCH  15  16
HETATM   16  N1  UNL     1      -6.549   0.466  -1.495  1.00  0.00    -0.074 N 
ATOM     17  H13 UNL     1      -6.229  -0.106  -2.276  1.00  0.00     0.274 HD
ATOM     18  H12 UNL     1      -6.911  -0.278  -0.899  1.00  0.00     0.274 HD
ATOM     19  H11 UNL     1      -7.283   1.116  -1.778  1.00  0.00     0.274 HD
ENDBRANCH  15  16
ENDBRANCH   6  15
ENDBRANCH   1   2
BRANCH   1  20
HETATM   20  O3  UNL     1      -0.640  -1.211   1.128  1.00  0.00    -0.374 OA
ATOM     21  H3  UNL     1       0.219  -1.108   1.521  1.00  0.00     0.212 HD
ENDBRANCH   1  20
BRANCH   1  22
HETATM   22  N3  UNL     1      -0.109   0.881   0.250  1.00  0.00    -0.360 N 
HETATM   23  C10 UNL     1       1.043   0.475   0.065  1.00  0.00     0.088 C 
HETATM   24  C11 UNL     1       1.695  -0.775   0.402  1.00  0.00     0.075 C 
ATOM     25  H3  UNL     1      -0.370   1.816  -0.065  1.00  0.00     0.162 HD
BRANCH  23  26
HETATM   26  C12 UNL     1       2.048   1.612  -0.641  1.00  0.00     0.357 C 
HETATM   27  O4  UNL     1       1.538   2.452  -0.703  1.00  0.00    -0.248 OA
HETATM   28  N4  UNL     1       3.227   0.747  -0.801  1.00  0.00    -0.265 NA
BRANCH  28  29
HETATM   29  N5  UNL     1       4.247   0.012  -0.944  1.00  0.00    -0.062 N 
ATOM     30  H5  UNL     1       4.068  -0.926  -1.303  1.00  0.00     0.221 HD
BRANCH  29  31
HETATM   31  C13 UNL     1       5.642   0.323  -0.666  1.00  0.00     0.699 C 
HETATM   32  N6  UNL     1       6.057   0.868   0.392  1.00  0.00    -0.224 N 
HETATM   33  C14 UNL     1       7.452   1.138   0.573  1.00  0.00     0.139 C 
ATOM     34  H6  UNL     1       5.394   1.119   1.125  1.00  0.00     0.177 HD
HETATM   35  C15 UNL     1       8.355   0.158  -0.215  1.00  0.00     0.040 C 
HETATM   36  C16 UNL     1       7.927   0.329  -1.635  1.00  0.00     0.139 C 
HETATM   37  N7  UNL     1       6.515  -0.030  -1.710  1.00  0.00    -0.224 N 
ATOM     38  H7  UNL     1       6.161  -0.538  -2.521  1.00  0.00     0.177 HD
ENDBRANCH  29  31
ENDBRANCH  28  29
ENDBRANCH  23  26
ENDBRANCH   1  22
TORSDOF 11
