REMARK  8 active torsions:
REMARK  status: ('A' for Active; 'I' for Inactive)
REMARK       I    between atoms: C2_2  and  N1_4 
REMARK    1  A    between atoms: N1_4  and  N2_6 
REMARK       I    between atoms: N2_6  and  C3_8 
REMARK    2  A    between atoms: C3_8  and  C4_10 
REMARK       I    between atoms: C4_10  and  N3_12 
REMARK    3  A    between atoms: N3_12  and  N4_14 
REMARK    4  A    between atoms: C5_16  and  C6_17 
REMARK    5  A    between atoms: C5_16  and  C9_29 
REMARK    6  A    between atoms: C6_17  and  S1_18 
REMARK    7  A    between atoms: S1_18  and  C7_19 
REMARK       I    between atoms: C9_29  and  N8_31 
REMARK    8  A    between atoms: N8_31  and  N9_33 
ROOT
HETATM    1  N4  UNL     1      -0.326  -0.618  -0.885  1.00  0.00    -0.296 N 
ATOM      2  H4  UNL     1      -0.337  -1.602  -1.152  1.00  0.00     0.187 HD
HETATM    3  C5  UNL     1      -1.446  -0.026  -0.588  1.00  0.00     0.104 C 
ENDROOT
BRANCH   3   4
HETATM    4  C6  UNL     1      -1.496   1.401  -0.194  1.00  0.00     0.146 C 
BRANCH   4   5
HETATM    5  S1  UNL     1      -2.574   2.349  -1.331  1.00  0.00    -0.086 SA
BRANCH   5   6
HETATM    6  C7  UNL     1      -2.570   4.050  -0.784  1.00  0.00     0.168 A 
HETATM    7  N5  UNL     1      -1.916   4.612   0.250  1.00  0.00    -0.300 N 
HETATM    8  C8  UNL     1      -2.190   5.934   0.308  1.00  0.00     0.242 A 
ATOM      9  H5  UNL     1      -1.303   4.113   0.895  1.00  0.00     0.171 HD
HETATM   10  N6  UNL     1      -1.771   6.827   1.139  1.00  0.00    -0.364 N 
HETATM   11  O4  UNL     1      -3.011   6.162  -0.694  1.00  0.00    -0.199 OA
ATOM     12  H62 UNL     1      -1.134   6.650   1.916  1.00  0.00     0.159 HD
ATOM     13  H61 UNL     1      -1.978   7.825   1.183  1.00  0.00     0.159 HD
HETATM   14  N7  UNL     1      -3.252   5.086  -1.349  1.00  0.00    -0.235 N 
ATOM     15  H7  UNL     1      -3.859   5.016  -2.165  1.00  0.00     0.197 HD
ENDBRANCH   5   6
ENDBRANCH   4   5
ENDBRANCH   3   4
BRANCH   3  16
HETATM   16  C9  UNL     1      -2.663  -0.808  -0.652  1.00  0.00     0.284 C 
HETATM   17  O5  UNL     1      -3.757  -0.267  -0.371  1.00  0.00    -0.265 OA
HETATM   18  N8  UNL     1      -2.664  -2.178  -1.023  1.00  0.00    -0.265 N 
ATOM     19  H8  UNL     1      -1.779  -2.630  -1.254  1.00  0.00     0.190 HD
BRANCH  18  20
HETATM   20  N9  UNL     1      -3.836  -2.921  -1.081  1.00  0.00    -0.307 N 
HETATM   21  C10 UNL     1      -3.951  -3.925  -0.260  1.00  0.00    -0.004 C 
HETATM   22  C11 UNL     1      -5.204  -4.719  -0.322  1.00  0.00     0.064 C 
HETATM   23  C12 UNL     1      -2.895  -4.282   0.707  1.00  0.00     0.064 C 
ATOM     24  H9  UNL     1      -4.578  -2.689  -1.741  1.00  0.00     0.186 HD
ENDBRANCH  18  20
ENDBRANCH   3  16
BRANCH   1  25
HETATM   25  N3  UNL     1       0.900   0.071  -0.845  1.00  0.00    -0.261 N 
HETATM   26  C4  UNL     1       1.991  -0.494  -0.145  1.00  0.00     0.329 C 
HETATM   27  O3  UNL     1       1.851  -1.601   0.431  1.00  0.00    -0.261 OA
ATOM     28  H3  UNL     1       1.001   0.970  -1.317  1.00  0.00     0.190 HD
BRANCH  26  29
HETATM   29  C3  UNL     1       3.256   0.204  -0.098  1.00  0.00     0.329 C 
HETATM   30  N2  UNL     1       4.347  -0.369   0.607  1.00  0.00    -0.259 N 
ATOM     31  H2  UNL     1       4.225  -1.269   1.072  1.00  0.00     0.190 HD
HETATM   32  O2  UNL     1       3.371   1.308  -0.681  1.00  0.00    -0.261 OA
BRANCH  30  33
HETATM   33  N1  UNL     1       5.581   0.275   0.675  1.00  0.00    -0.267 N 
HETATM   34  C2  UNL     1       6.744  -0.496   0.900  1.00  0.00     0.232 C 
HETATM   35  C1  UNL     1       8.104   0.073   0.990  1.00  0.00     0.119 C 
HETATM   36  O1  UNL     1       6.636  -1.738   1.032  1.00  0.00    -0.272 OA
ATOM     37  H1  UNL     1       5.644   1.287   0.564  1.00  0.00     0.190 HD
ENDBRANCH  30  33
ENDBRANCH  26  29
ENDBRANCH   1  25
TORSDOF 8
