REMARK  7 active torsions:
REMARK  status: ('A' for Active; 'I' for Inactive)
REMARK    1  A    between atoms: N1_2  and  C2_3 
REMARK    2  A    between atoms: N1_2  and  S1_19 
REMARK    3  A    between atoms: C2_3  and  C3_4 
REMARK    4  A    between atoms: C4_7  and  C5_8 
REMARK    5  A    between atoms: C5_8  and  C6_9 
REMARK    6  A    between atoms: C6_9  and  N3_10 
REMARK    7  A    between atoms: S1_19  and  C11_22 
ROOT
HETATM    1  C3  UNL     1       0.224   1.247   0.382  1.00  0.00     0.095 A 
HETATM    2  N2  UNL     1       1.474   1.357   0.910  1.00  0.00    -0.347 N 
ATOM      3  H2  UNL     1       1.731   1.939   1.707  1.00  0.00     0.167 HD
HETATM    4  C4  UNL     1       2.308   0.581   0.216  1.00  0.00     0.027 A 
HETATM    5  C10 UNL     1       1.531  -0.019  -0.766  1.00  0.00     0.114 A 
HETATM    6  N5  UNL     1       0.258   0.397  -0.654  1.00  0.00    -0.353 N 
ATOM      7  H5  UNL     1      -0.528   0.120  -1.242  1.00  0.00     0.166 HD
ENDROOT
BRANCH   1   8
HETATM    8  C2  UNL     1      -0.996   1.944   0.853  1.00  0.00     0.183 C 
BRANCH   8   9
HETATM    9  N1  UNL     1      -2.154   1.491   0.112  1.00  0.00    -0.204 NA
HETATM   10  C1  UNL     1      -3.035   2.603  -0.075  1.00  0.00     0.130 C 
BRANCH   9  11
HETATM   11  S1  UNL     1      -2.858   0.178   0.956  1.00  0.00     0.243 S 
HETATM   12  O1  UNL     1      -3.257   0.628   2.347  1.00  0.00    -0.206 OA
HETATM   13  O2  UNL     1      -1.802  -0.877   1.131  1.00  0.00    -0.206 OA
BRANCH  11  14
HETATM   14  C11 UNL     1      -4.219  -0.507   0.142  1.00  0.00     0.074 A 
HETATM   15  C12 UNL     1      -4.033  -1.534  -0.753  1.00  0.00     0.025 A 
HETATM   16  C13 UNL     1      -5.090  -2.120  -1.434  1.00  0.00     0.002 A 
HETATM   17  C14 UNL     1      -6.359  -1.667  -1.212  1.00  0.00     0.000 A 
HETATM   18  C15 UNL     1      -6.583  -0.635  -0.317  1.00  0.00     0.002 A 
HETATM   19  C16 UNL     1      -5.509  -0.068   0.349  1.00  0.00     0.025 A 
ENDBRANCH  11  14
ENDBRANCH   9  11
ENDBRANCH   8   9
ENDBRANCH   1   8
BRANCH   4  20
HETATM   20  C5  UNL     1       3.763   0.408   0.459  1.00  0.00     0.078 C 
BRANCH  20  21
HETATM   21  C6  UNL     1       4.290  -0.564  -0.571  1.00  0.00     0.135 C 
BRANCH  21  22
HETATM   22  N3  UNL     1       5.711  -0.798  -0.414  1.00  0.00    -0.351 N 
HETATM   23  C7  UNL     1       6.239  -1.768   0.358  1.00  0.00     0.108 A 
HETATM   24  C8  UNL     1       7.611  -1.683   0.259  1.00  0.00     0.106 A 
HETATM   25  N4  UNL     1       7.906  -0.665  -0.569  1.00  0.00    -0.361 N 
HETATM   26  C9  UNL     1       6.738  -0.138  -0.969  1.00  0.00     0.182 A 
ATOM     27  H4  UNL     1       8.838  -0.353  -0.841  1.00  0.00     0.166 HD
ENDBRANCH  21  22
ENDBRANCH  20  21
ENDBRANCH   4  20
TORSDOF 7
