REMARK  2 active torsions:
REMARK  status: ('A' for Active; 'I' for Inactive)
REMARK    1  A    between atoms: C1_2  and  C2_4 
REMARK    2  A    between atoms: C2_4  and  N2_5 
ROOT
HETATM    1  C2  UNL     1      -0.310  -0.617  -0.263  1.00  0.00     0.330 C 
HETATM    2  N3  UNL     1      -1.303   0.215  -0.832  1.00  0.00    -0.251 N 
ATOM      3  H3  UNL     1      -2.072  -0.227  -1.335  1.00  0.00     0.177 HD
HETATM    4  S1  UNL     1      -1.283   1.862  -0.725  1.00  0.00     0.360 S 
HETATM    5  O2  UNL     1      -2.272   2.334   0.334  1.00  0.00    -0.176 OA
HETATM    6  O3  UNL     1      -1.581   2.512  -2.047  1.00  0.00    -0.176 OA
HETATM    7  O4  UNL     1       0.227   2.452  -0.210  1.00  0.00    -0.255 OA
HETATM    8  C3  UNL     1       0.589   1.533   0.762  1.00  0.00     0.251 C 
HETATM    9  C4  UNL     1       0.907   0.231   0.122  1.00  0.00     0.197 C 
HETATM   10  N4  UNL     1       1.904  -0.446   0.925  1.00  0.00    -0.310 N 
ATOM     11  H4  UNL     1       1.921  -1.140   1.672  1.00  0.00     0.167 HD
HETATM   12  C5  UNL     1       2.872   0.331   0.162  1.00  0.00     0.320 C 
HETATM   13  O5  UNL     1       4.017   0.840   0.310  1.00  0.00    -0.247 OA
HETATM   14  N5  UNL     1       1.920   0.245  -0.890  1.00  0.00    -0.310 N 
ATOM     15  H5  UNL     1       1.947   0.209  -1.909  1.00  0.00     0.167 HD
ENDROOT
BRANCH   1  16
HETATM   16  C1  UNL     1      -0.907  -1.216   0.998  1.00  0.00     0.293 C 
HETATM   17  N1  UNL     1      -2.277  -1.687   0.767  1.00  0.00    -0.058 NA
HETATM   18  O1  UNL     1      -0.428  -1.334   2.084  1.00  0.00    -0.272 OA
ENDBRANCH   1  16
BRANCH   1  19
HETATM   19  N2  UNL     1       0.087  -1.664  -1.123  1.00  0.00    -0.039 N 
ATOM     20  H23 UNL     1       0.719  -2.323  -0.668  1.00  0.00     0.278 HD
ATOM     21  H22 UNL     1      -0.674  -2.313  -1.323  1.00  0.00     0.278 HD
ATOM     22  H21 UNL     1       0.488  -1.262  -1.970  1.00  0.00     0.278 HD
ENDBRANCH   1  19
TORSDOF 2
