REMARK  10 active torsions:
REMARK  status: ('A' for Active; 'I' for Inactive)
REMARK    1  A    between atoms: C3_5  and  C4_6 
REMARK    2  A    between atoms: C3_5  and  N2_10 
REMARK    3  A    between atoms: C4_6  and  C5_7 
REMARK    4  A    between atoms: N2_10  and  C8_12 
REMARK    5  A    between atoms: C8_12  and  C9_13 
REMARK    6  A    between atoms: C8_12  and  C22_36 
REMARK    7  A    between atoms: C9_13  and  O1_14 
REMARK    8  A    between atoms: C9_13  and  N3_16 
REMARK    9  A    between atoms: C15_25  and  C16_26 
REMARK       I    between atoms: C16_26  and  N5_28 
REMARK   10  A    between atoms: N5_28  and  C17_30 
ROOT
HETATM    1  C1  UNL     1       5.947   1.947  -1.285  1.00  0.00     0.037 C 
HETATM    2  C2  UNL     1       4.861   1.714  -0.826  1.00  0.00     0.000 C 
HETATM    3  N1  UNL     1       3.620   1.467  -0.340  1.00  0.00    -0.306 N 
ATOM      4  H1  UNL     1       2.965   2.209  -0.584  1.00  0.00     0.177 HD
HETATM    5  C3  UNL     1       3.069   0.566   0.330  1.00  0.00     0.085 C 
ENDROOT
BRANCH   5   6
HETATM    6  C4  UNL     1       3.807  -0.607   0.802  1.00  0.00     0.081 C 
BRANCH   6   7
HETATM    7  C5  UNL     1       5.244  -0.378   1.172  1.00  0.00    -0.007 A 
HETATM    8  C6  UNL     1       5.619   0.568   2.250  1.00  0.00     0.005 A 
HETATM    9  C7  UNL     1       5.664  -0.897   2.520  1.00  0.00     0.005 A 
ENDBRANCH   6   7
ENDBRANCH   5   6
BRANCH   5  10
HETATM   10  N2  UNL     1       1.705   0.727   0.611  1.00  0.00    -0.367 N 
ATOM     11  H2  UNL     1       1.556   1.041   1.570  1.00  0.00     0.161 HD
BRANCH  10  12
HETATM   12  C8  UNL     1       0.481   0.571  -0.077  1.00  0.00     0.161 C 
BRANCH  12  13
HETATM   13  C9  UNL     1       0.099  -0.857  -0.131  1.00  0.00     0.143 C 
BRANCH  13  14
HETATM   14  O1  UNL     1       1.021  -1.716   0.264  1.00  0.00    -0.348 OA
ATOM     15  H1  UNL     1       0.776  -2.633   0.229  1.00  0.00     0.219 HD
ENDBRANCH  13  14
BRANCH  13  16
HETATM   16  N3  UNL     1      -1.081  -1.482  -0.530  1.00  0.00    -0.310 N 
HETATM   17  C10 UNL     1      -0.988  -3.006  -0.523  1.00  0.00     0.204 C 
HETATM   18  C11 UNL     1      -1.478  -3.461   0.761  1.00  0.00     0.085 C 
HETATM   19  C12 UNL     1      -1.876  -3.549  -1.610  1.00  0.00     0.120 C 
HETATM   20  N4  UNL     1      -1.884  -3.840   1.788  1.00  0.00    -0.195 NA
HETATM   21  C13 UNL     1      -2.015  -2.632  -2.786  1.00  0.00     0.251 C 
HETATM   22  F1  UNL     1      -0.814  -2.486  -3.399  1.00  0.00    -0.206 F 
HETATM   23  F2  UNL     1      -2.973  -3.193  -3.639  1.00  0.00    -0.206 F 
HETATM   24  C14 UNL     1      -2.554  -1.258  -2.436  1.00  0.00     0.142 C 
HETATM   25  C15 UNL     1      -2.357  -1.053  -0.936  1.00  0.00     0.088 C 
BRANCH  25  26
HETATM   26  C16 UNL     1      -2.996   0.134  -0.426  1.00  0.00     0.265 C 
HETATM   27  O2  UNL     1      -3.642   0.875  -1.230  1.00  0.00    -0.266 OA
HETATM   28  N5  UNL     1      -2.951   0.515   0.928  1.00  0.00    -0.334 N 
ATOM     29  H5  UNL     1      -2.437  -0.067   1.589  1.00  0.00     0.164 HD
BRANCH  28  30
HETATM   30  C17 UNL     1      -3.615   1.713   1.412  1.00  0.00     0.122 C 
HETATM   31  C18 UNL     1      -3.165   2.950   0.806  1.00  0.00     0.091 C 
HETATM   32  N6  UNL     1      -2.796   3.934   0.325  1.00  0.00    -0.195 NA
HETATM   33  C19 UNL     1      -5.137   1.621   1.353  1.00  0.00     0.047 C 
HETATM   34  C20 UNL     1      -5.128   1.138   2.770  1.00  0.00     0.007 C 
HETATM   35  C21 UNL     1      -3.721   1.725   2.915  1.00  0.00     0.047 C 
ENDBRANCH  28  30
ENDBRANCH  25  26
ENDBRANCH  13  16
ENDBRANCH  12  13
BRANCH  12  36
HETATM   36  C22 UNL     1       0.536   1.041  -1.521  1.00  0.00     0.008 C 
HETATM   37  C23 UNL     1       1.493   0.303  -2.393  1.00  0.00     0.012 C 
HETATM   38  C24 UNL     1       0.802   2.558  -1.563  1.00  0.00     0.012 C 
ENDBRANCH  12  36
ENDBRANCH  10  12
ENDBRANCH   5  10
TORSDOF 10
