REMARK  9 active torsions:
REMARK  status: ('A' for Active; 'I' for Inactive)
REMARK    1  A    between atoms: C1_2  and  C2_3 
REMARK       I    between atoms: C1_2  and  N1_16 
REMARK    2  A    between atoms: C2_3  and  C3_4 
REMARK    3  A    between atoms: C10_11  and  C11_12 
REMARK    4  A    between atoms: N1_16  and  C13_18 
REMARK    5  A    between atoms: C13_18  and  C14_19 
REMARK    6  A    between atoms: N2_22  and  C17_23 
REMARK    7  A    between atoms: C17_23  and  C18_24 
REMARK    8  A    between atoms: C18_24  and  O4_25 
REMARK    9  A    between atoms: C18_24  and  N3_27 
ROOT
HETATM    1  C14 UNL     1       1.106  -1.247  -1.245  1.00  0.00     0.007 C 
HETATM    2  C15 UNL     1       1.441  -1.619   0.190  1.00  0.00     0.036 C 
HETATM    3  C16 UNL     1       2.101  -0.425   0.790  1.00  0.00     0.273 C 
HETATM    4  N2  UNL     1       3.469  -0.234   0.290  1.00  0.00     0.096 N 
HETATM    5  C24 UNL     1       3.582  -0.904  -1.020  1.00  0.00     0.273 C 
HETATM    6  C25 UNL     1       2.373  -0.701  -1.894  1.00  0.00     0.036 C 
ENDROOT
BRANCH   1   7
HETATM    7  C13 UNL     1       0.014  -0.205  -1.261  1.00  0.00     0.127 C 
BRANCH   7   8
HETATM    8  N1  UNL     1      -1.167  -0.715  -0.617  1.00  0.00    -0.361 N 
HETATM    9  C1  UNL     1      -2.320   0.087  -0.481  1.00  0.00     0.218 C 
HETATM   10  O1  UNL     1      -2.322   1.244  -0.928  1.00  0.00    -0.274 OA
ATOM     11  H1  UNL     1      -1.171  -1.668  -0.254  1.00  0.00     0.162 HD
BRANCH   9  12
HETATM   12  C2  UNL     1      -3.497  -0.489   0.201  1.00  0.00     0.112 C 
BRANCH  12  13
HETATM   13  C3  UNL     1      -4.638   0.523   0.344  1.00  0.00     0.034 C 
HETATM   14  C4  UNL     1      -5.060   0.946  -0.997  1.00  0.00     0.014 C 
HETATM   15  C5  UNL     1      -6.491   0.746  -1.375  1.00  0.00    -0.013 C 
HETATM   16  C6  UNL     1      -7.474   1.628  -0.693  1.00  0.00     0.005 C 
HETATM   17  C12 UNL     1      -6.929  -0.691  -1.255  1.00  0.00     0.013 C 
HETATM   18  C7  UNL     1      -8.493   0.689  -0.072  1.00  0.00     0.009 C 
HETATM   19  C8  UNL     1      -7.742  -0.656  -0.002  1.00  0.00     0.009 C 
HETATM   20  C9  UNL     1      -6.855  -0.524   1.165  1.00  0.00    -0.008 C 
HETATM   21  C10 UNL     1      -5.630  -0.049   1.256  1.00  0.00     0.020 C 
BRANCH  21  22
HETATM   22  C11 UNL     1      -5.140  -0.070   2.647  1.00  0.00     0.205 C 
HETATM   23  O2  UNL     1      -4.015   0.333   2.976  1.00  0.00    -0.644 OA
HETATM   24  O3  UNL     1      -5.959  -0.560   3.651  1.00  0.00    -0.644 OA
ENDBRANCH  21  22
ENDBRANCH  12  13
ENDBRANCH   9  12
ENDBRANCH   7   8
ENDBRANCH   1   7
BRANCH   4  25
HETATM   25  C17 UNL     1       3.709   1.164   0.146  1.00  0.00     0.355 C 
BRANCH  25  26
HETATM   26  C18 UNL     1       5.111   1.576   0.086  1.00  0.00     0.142 C 
BRANCH  26  27
HETATM   27  O4  UNL     1       5.283   2.860  -0.169  1.00  0.00    -0.348 OA
ATOM     28  H4  UNL     1       6.194   3.128  -0.208  1.00  0.00     0.219 HD
ENDBRANCH  26  27
BRANCH  26  29
HETATM   29  N3  UNL     1       6.289   0.879   0.251  1.00  0.00    -0.364 N 
HETATM   30  C19 UNL     1       7.574   1.589   0.040  1.00  0.00     0.130 C 
HETATM   31  C20 UNL     1       8.646   0.618  -0.401  1.00  0.00     0.099 C 
HETATM   32  C21 UNL     1       8.941  -0.373   0.713  1.00  0.00     0.246 C 
HETATM   33  F1  UNL     1       9.881   0.202   1.578  1.00  0.00    -0.206 F 
HETATM   34  F2  UNL     1       9.384  -1.539   0.167  1.00  0.00    -0.206 F 
HETATM   35  C22 UNL     1       7.712  -0.621   1.544  1.00  0.00     0.099 C 
HETATM   36  C23 UNL     1       6.437  -0.486   0.676  1.00  0.00     0.130 C 
ENDBRANCH  26  29
ENDBRANCH  25  26
ENDBRANCH   4  25
TORSDOF 9
