REMARK  9 active torsions:
REMARK  status: ('A' for Active; 'I' for Inactive)
REMARK    1  A    between atoms: C2_2  and  C4_4 
REMARK    2  A    between atoms: C4_4  and  N1_5 
REMARK    3  A    between atoms: N1_5  and  C5_6 
REMARK    4  A    between atoms: N1_5  and  C11_14 
REMARK    5  A    between atoms: C5_6  and  C6_7 
REMARK       I    between atoms: C6_7  and  N2_9 
REMARK    6  A    between atoms: C15_18  and  N3_19 
REMARK       I    between atoms: N3_19  and  C16_21 
REMARK    7  A    between atoms: C16_21  and  C17_23 
REMARK    8  A    between atoms: C17_23  and  N4_25 
REMARK    9  A    between atoms: N4_25  and  C18_27 
ROOT
HETATM    1  C11 UNL     1      -1.045   0.926  -0.770  1.00  0.00     0.111 C 
HETATM    2  C12 UNL     1      -1.806   1.081  -2.032  1.00  0.00     0.028 C 
HETATM    3  C13 UNL     1      -1.041   1.944  -2.997  1.00  0.00     0.004 C 
HETATM    4  C14 UNL     1       0.100   2.491  -2.229  1.00  0.00     0.027 C 
HETATM    5  C15 UNL     1       0.085   1.918  -0.866  1.00  0.00     0.108 C 
ENDROOT
BRANCH   5   6
HETATM    6  N3  UNL     1       1.323   1.161  -0.588  1.00  0.00    -0.348 N 
HETATM    7  C16 UNL     1       2.174   1.415   0.472  1.00  0.00     0.279 C 
HETATM    8  O2  UNL     1       1.898   2.346   1.260  1.00  0.00    -0.265 OA
ATOM      9  H3  UNL     1       1.567   0.399  -1.221  1.00  0.00     0.163 HD
BRANCH   7  10
HETATM   10  C17 UNL     1       3.365   0.647   0.702  1.00  0.00     0.165 C 
HETATM   11  S1  UNL     1       4.300   1.053   2.006  1.00  0.00    -0.055 SA
BRANCH  10  12
HETATM   12  N4  UNL     1       3.747  -0.428  -0.145  1.00  0.00    -0.372 N 
ATOM     13  H4  UNL     1       3.128  -0.625  -0.931  1.00  0.00     0.161 HD
BRANCH  12  14
HETATM   14  C18 UNL     1       4.888  -1.258  -0.024  1.00  0.00     0.083 C 
HETATM   15  C19 UNL     1       4.986  -2.075   1.217  1.00  0.00     0.031 C 
HETATM   16  C20 UNL     1       6.297  -2.814   1.293  1.00  0.00     0.081 C 
HETATM   17  C21 UNL     1       7.497  -2.000   0.949  1.00  0.00     0.243 C 
HETATM   18  F1  UNL     1       7.711  -0.956   1.818  1.00  0.00    -0.206 F 
HETATM   19  F2  UNL     1       8.586  -2.849   0.884  1.00  0.00    -0.206 F 
HETATM   20  C22 UNL     1       7.296  -1.428  -0.448  1.00  0.00     0.081 C 
HETATM   21  C23 UNL     1       6.130  -0.436  -0.296  1.00  0.00     0.031 C 
ENDBRANCH  12  14
ENDBRANCH  10  12
ENDBRANCH   7  10
ENDBRANCH   5   6
BRANCH   1  22
HETATM   22  N1  UNL     1      -1.810   0.993   0.381  1.00  0.00    -0.358 N 
BRANCH  22  23
HETATM   23  C4  UNL     1      -2.362   2.096   0.989  1.00  0.00     0.068 C 
BRANCH  23  24
HETATM   24  C2  UNL     1      -3.413   3.012   0.520  1.00  0.00     0.016 C 
HETATM   25  C1  UNL     1      -3.696   4.022   1.731  1.00  0.00     0.015 C 
HETATM   26  C3  UNL     1      -3.061   4.002  -0.560  1.00  0.00     0.015 C 
ENDBRANCH  23  24
ENDBRANCH  22  23
BRANCH  22  27
HETATM   27  C5  UNL     1      -2.900  -0.020   0.354  1.00  0.00     0.165 C 
BRANCH  27  28
HETATM   28  C6  UNL     1      -2.619  -1.363   0.021  1.00  0.00     0.259 C 
HETATM   29  O1  UNL     1      -1.538  -1.885  -0.245  1.00  0.00    -0.267 OA
HETATM   30  N2  UNL     1      -3.740  -2.289  -0.023  1.00  0.00    -0.347 N 
HETATM   31  C7  UNL     1      -3.680  -3.700  -0.332  1.00  0.00     0.126 C 
HETATM   32  C10 UNL     1      -5.142  -2.016   0.218  1.00  0.00     0.126 C 
HETATM   33  C8  UNL     1      -4.474  -4.277   0.823  1.00  0.00     0.021 C 
HETATM   34  C9  UNL     1      -5.521  -3.201   1.100  1.00  0.00     0.021 C 
ENDBRANCH  27  28
ENDBRANCH  22  27
ENDBRANCH   1  22
TORSDOF 9
