REMARK  2 active torsions:
REMARK  status: ('A' for Active; 'I' for Inactive)
REMARK    1  A    between atoms: O1_2  and  C2_3 
REMARK    2  A    between atoms: C6_9  and  N2_10 
ROOT
HETATM    1  C2  UNL     1      -1.816  -0.235   0.179  1.00  0.00     0.301 C 
HETATM    2  C3  UNL     1      -0.748  -1.264  -0.190  1.00  0.00     0.112 C 
HETATM    3  C4  UNL     1       0.557  -0.602   0.023  1.00  0.00     0.069 A 
HETATM    4  C5  UNL     1       0.664   0.429   0.932  1.00  0.00     0.204 A 
HETATM    5  N1  UNL     1       1.839   1.062   1.158  1.00  0.00    -0.167 N 
ATOM      6  H1  UNL     1       1.890   1.822   1.836  1.00  0.00     0.186 HD
HETATM    7  C6  UNL     1       2.936   0.683   0.484  1.00  0.00     0.680 A 
HETATM    8  N3  UNL     1       2.824  -0.322  -0.399  1.00  0.00    -0.156 N 
ATOM      9  H3  UNL     1       3.663  -0.603  -0.906  1.00  0.00     0.187 HD
HETATM   10  C7  UNL     1       1.686  -0.984  -0.662  1.00  0.00     0.270 A 
HETATM   11  O2  UNL     1       1.610  -1.923  -1.496  1.00  0.00    -0.267 OA
HETATM   12  O3  UNL     1      -0.477   0.813   1.623  1.00  0.00    -0.175 OA
HETATM   13  O4  UNL     1      -1.605   0.082   1.518  1.00  0.00    -0.201 OA
ENDROOT
BRANCH   7  14
HETATM   14  N2  UNL     1       4.074   1.280   0.688  1.00  0.00    -0.234 N 
ATOM     15  H22 UNL     1       4.159   2.044   1.359  1.00  0.00     0.174 HD
ATOM     16  H21 UNL     1       4.908   0.992   0.176  1.00  0.00     0.174 HD
ENDBRANCH   7  14
BRANCH   1  17
HETATM   17  O1  UNL     1      -3.082  -0.679  -0.089  1.00  0.00    -0.363 OA
HETATM   18  C1  UNL     1      -3.656   0.177  -1.027  1.00  0.00     0.204 C 
ENDBRANCH   1  17
TORSDOF 2
