REMARK  5 active torsions:
REMARK  status: ('A' for Active; 'I' for Inactive)
REMARK    1  A    between atoms: O1_2  and  C2_3 
REMARK    2  A    between atoms: C2_3  and  C3_5 
REMARK    3  A    between atoms: C3_5  and  O3_6 
REMARK    4  A    between atoms: C3_5  and  C4_8 
REMARK    5  A    between atoms: C3_5  and  C6_11 
ROOT
HETATM    1  C4  UNL     1       1.043   2.269   0.019  1.00  0.00     0.175 C 
HETATM    2  C5  UNL     1       0.871   2.497  -1.382  1.00  0.00     0.062 C 
HETATM    3  N1  UNL     1       0.754   2.704  -2.519  1.00  0.00    -0.197 NA
ENDROOT
BRANCH   1   4
HETATM    4  C3  UNL     1       0.824   0.869   0.458  1.00  0.00     0.185 C 
BRANCH   4   5
HETATM    5  C2  UNL     1       1.713  -0.120  -0.196  1.00  0.00     0.297 C 
HETATM    6  O2  UNL     1       1.553  -0.338  -1.424  1.00  0.00    -0.262 OA
BRANCH   5   7
HETATM    7  O1  UNL     1       2.706  -0.816   0.459  1.00  0.00    -0.324 OA
HETATM    8  C1  UNL     1       3.560  -1.754  -0.130  1.00  0.00     0.213 C 
ENDBRANCH   5   7
ENDBRANCH   4   5
BRANCH   4   9
HETATM    9  O3  UNL     1       1.268   0.880   1.843  1.00  0.00    -0.376 OA
ATOM     10  H3  UNL     1       0.698   1.514   2.262  1.00  0.00     0.211 HD
ENDBRANCH   4   9
BRANCH   4  11
HETATM   11  C6  UNL     1      -0.556   0.361   0.531  1.00  0.00     0.198 C 
HETATM   12  O4  UNL     1      -1.437   1.154   1.265  1.00  0.00    -0.377 OA
HETATM   13  C7  UNL     1      -2.595   0.344   1.217  1.00  0.00     0.203 C 
HETATM   14  C8  UNL     1      -2.739   0.099  -0.262  1.00  0.00     0.179 C 
HETATM   15  O5  UNL     1      -3.289  -1.124  -0.554  1.00  0.00    -0.357 OA
HETATM   16  C10 UNL     1      -1.272   0.010  -0.710  1.00  0.00     0.187 C 
HETATM   17  C9  UNL     1      -2.222  -2.018  -0.550  1.00  0.00     0.339 C 
HETATM   18  O6  UNL     1      -1.125  -1.349  -1.028  1.00  0.00    -0.356 OA
ENDBRANCH   4  11
ENDBRANCH   1   4
TORSDOF 5
