REMARK  2 active torsions:
REMARK  status: ('A' for Active; 'I' for Inactive)
REMARK    1  A    between atoms: C2_2  and  N1_5 
REMARK       I    between atoms: N1_5  and  C5_7 
REMARK       I    between atoms: C5_7  and  N3_16 
REMARK    2  A    between atoms: N2_8  and  C6_10 
ROOT
HETATM    1  N1  UNL     1      -1.943   1.024   0.524  1.00  0.00    -0.218 N 
ATOM      2  H1  UNL     1      -2.089   1.967   0.885  1.00  0.00     0.178 HD
HETATM    3  C5  UNL     1      -0.633   0.455   0.519  1.00  0.00     0.683 C 
HETATM    4  N2  UNL     1       0.290   0.887  -0.291  1.00  0.00    -0.221 N 
ATOM      5  H2  UNL     1       0.090   1.647  -0.941  1.00  0.00     0.178 HD
HETATM    6  N3  UNL     1      -0.386  -0.602   1.437  1.00  0.00    -0.126 N 
ATOM      7  H3  UNL     1      -0.323  -1.556   1.083  1.00  0.00     0.197 HD
HETATM    8  C12 UNL     1      -0.225  -0.377   2.822  1.00  0.00     0.196 C 
HETATM    9  N4  UNL     1      -0.100  -0.198   3.965  1.00  0.00    -0.171 NA
ENDROOT
BRANCH   1  10
HETATM   10  C2  UNL     1      -3.050   0.269   0.022  1.00  0.00     0.036 C 
HETATM   11  C1  UNL     1      -2.849  -0.101  -1.428  1.00  0.00     0.038 C 
HETATM   12  C3  UNL     1      -3.321  -0.945   0.864  1.00  0.00     0.038 C 
HETATM   13  C4  UNL     1      -4.307   1.141   0.080  1.00  0.00     0.038 C 
ENDBRANCH   1  10
BRANCH   4  14
HETATM   14  C6  UNL     1       1.587   0.286  -0.261  1.00  0.00     0.099 C 
HETATM   15  C7  UNL     1       1.822  -0.691  -1.383  1.00  0.00     0.026 C 
HETATM   16  C8  UNL     1       3.309  -0.968  -1.437  1.00  0.00     0.002 C 
HETATM   17  C9  UNL     1       3.965  -0.790  -0.082  1.00  0.00     0.000 C 
HETATM   18  C10 UNL     1       3.911   0.647   0.386  1.00  0.00     0.002 C 
HETATM   19  C11 UNL     1       2.709   1.299  -0.300  1.00  0.00     0.026 C 
ENDBRANCH   4  14
TORSDOF 2
