REMARK  9 active torsions:
REMARK  status: ('A' for Active; 'I' for Inactive)
REMARK    1  A    between atoms: C3_3  and  C4_4 
REMARK    2  A    between atoms: C4_4  and  C5_5 
REMARK       I    between atoms: C5_5  and  N1_7 
REMARK    3  A    between atoms: N1_7  and  C6_9 
REMARK    4  A    between atoms: C6_9  and  C7_10 
REMARK    5  A    between atoms: C7_10  and  C8_11 
REMARK    6  A    between atoms: C8_11  and  C9_12 
REMARK    7  A    between atoms: C9_12  and  C10_13 
REMARK    8  A    between atoms: C10_13  and  N2_15 
REMARK    9  A    between atoms: N2_15  and  C11_17 
ROOT
HETATM    1  C10 UNL     1      -0.306   0.533   1.470  1.00  0.00     0.074 C 
HETATM    2  S1  UNL     1       0.326   1.897   0.859  1.00  0.00    -0.066 SA
ENDROOT
BRANCH   1   3
HETATM    3  C9  UNL     1       0.528  -0.289   2.429  1.00  0.00     0.073 C 
BRANCH   3   4
HETATM    4  C8  UNL     1       1.826   0.465   2.680  1.00  0.00     0.035 C 
BRANCH   4   5
HETATM    5  C7  UNL     1       2.763  -0.204   3.584  1.00  0.00    -0.009 C 
BRANCH   5   6
HETATM    6  C6  UNL     1       3.359  -1.513   3.283  1.00  0.00     0.087 C 
BRANCH   6   7
HETATM    7  N1  UNL     1       4.238  -1.688   2.196  1.00  0.00    -0.337 N 
HETATM    8  C5  UNL     1       4.055  -1.570   0.825  1.00  0.00     0.224 C 
HETATM    9  O1  UNL     1       3.016  -1.275   0.214  1.00  0.00    -0.273 OA
ATOM     10  H1  UNL     1       5.186  -1.950   2.467  1.00  0.00     0.168 HD
BRANCH   8  11
HETATM   11  C4  UNL     1       5.253  -1.825  -0.077  1.00  0.00     0.130 C 
BRANCH  11  12
HETATM   12  C3  UNL     1       4.832  -1.636  -1.479  1.00  0.00    -0.022 C 
HETATM   13  C2  UNL     1       4.928  -2.645  -2.318  1.00  0.00    -0.034 C 
HETATM   14  C1  UNL     1       4.516  -2.511  -3.754  1.00  0.00     0.036 C 
ENDBRANCH  11  12
ENDBRANCH   8  11
ENDBRANCH   6   7
ENDBRANCH   5   6
ENDBRANCH   4   5
ENDBRANCH   3   4
ENDBRANCH   1   3
BRANCH   1  15
HETATM   15  N2  UNL     1      -1.607   0.131   1.108  1.00  0.00    -0.375 N 
ATOM     16  H2  UNL     1      -1.933  -0.734   1.538  1.00  0.00     0.161 HD
BRANCH  15  17
HETATM   17  C11 UNL     1      -2.530   0.759   0.229  1.00  0.00     0.032 C 
HETATM   18  C12 UNL     1      -2.014   0.801  -1.185  1.00  0.00     0.035 C 
HETATM   19  C13 UNL     1      -3.099   1.311  -2.112  1.00  0.00    -0.012 C 
HETATM   20  C14 UNL     1      -3.425   2.725  -1.710  1.00  0.00     0.009 C 
HETATM   21  C18 UNL     1      -4.330   0.460  -2.092  1.00  0.00     0.009 C 
HETATM   22  C15 UNL     1      -3.993   2.686  -0.311  1.00  0.00    -0.012 C 
HETATM   23  C16 UNL     1      -5.226   1.840  -0.241  1.00  0.00     0.009 C 
HETATM   24  C20 UNL     1      -2.946   2.153   0.646  1.00  0.00     0.035 C 
HETATM   25  C17 UNL     1      -4.843   0.418  -0.671  1.00  0.00    -0.012 C 
HETATM   26  C19 UNL     1      -3.823  -0.083   0.288  1.00  0.00     0.035 C 
ENDBRANCH  15  17
ENDBRANCH   1  15
TORSDOF 9
