REMARK  9 active torsions:
REMARK  status: ('A' for Active; 'I' for Inactive)
REMARK    1  A    between atoms: C2_2  and  C3_3 
REMARK    2  A    between atoms: C6_7  and  O2_8 
REMARK    3  A    between atoms: C14_17  and  O3_18 
REMARK    4  A    between atoms: O3_18  and  C15_19 
REMARK       I    between atoms: C15_19  and  N1_21 
REMARK    5  A    between atoms: N1_21  and  C16_23 
REMARK    6  A    between atoms: C16_23  and  C17_24 
REMARK    7  A    between atoms: C17_24  and  N2_25 
REMARK       I    between atoms: N2_25  and  C18_27 
REMARK    8  A    between atoms: C18_27  and  C19_29 
REMARK    9  A    between atoms: C24_34  and  O6_35 
ROOT
HETATM    1  C3  UNL     1      -2.029   2.702  -0.322  1.00  0.00     0.152 A 
HETATM    2  O1  UNL     1      -2.490   2.400  -1.628  1.00  0.00    -0.368 OA
HETATM    3  C4  UNL     1      -3.309   1.360  -1.150  1.00  0.00     0.091 A 
HETATM    4  C5  UNL     1      -4.755   1.745  -1.505  1.00  0.00     0.049 C 
HETATM    5  C6  UNL     1      -2.922   0.073  -1.740  1.00  0.00     0.153 C 
HETATM    6  C7  UNL     1      -1.923  -0.759  -1.061  1.00  0.00     0.041 C 
HETATM    7  C8  UNL     1      -1.531  -0.443   0.337  1.00  0.00     0.006 C 
HETATM    8  C9  UNL     1      -1.229  -1.622   1.207  1.00  0.00     0.024 C 
HETATM    9  C10 UNL     1      -2.359  -2.269   1.901  1.00  0.00    -0.005 C 
HETATM   10  C11 UNL     1      -3.103  -3.339   1.141  1.00  0.00     0.005 C 
HETATM   11  C12 UNL     1      -2.165  -4.429   0.679  1.00  0.00     0.003 C 
HETATM   12  C13 UNL     1      -0.749  -4.074   0.987  1.00  0.00     0.033 C 
HETATM   13  C14 UNL     1      -0.385  -2.673   0.532  1.00  0.00     0.138 C 
HETATM   14  C23 UNL     1      -3.316  -1.289   2.515  1.00  0.00     0.037 C 
HETATM   15  C24 UNL     1      -3.621  -0.100   1.697  1.00  0.00     0.127 C 
HETATM   16  C25 UNL     1      -2.394   0.538   1.048  1.00  0.00    -0.005 C 
HETATM   17  C26 UNL     1      -1.587   1.122   2.204  1.00  0.00     0.019 C 
HETATM   18  C27 UNL     1      -2.888   1.675   0.226  1.00  0.00     0.066 A 
ENDROOT
BRANCH  13  19
HETATM   19  O3  UNL     1       0.998  -2.462   0.735  1.00  0.00    -0.298 OA
BRANCH  19  20
HETATM   20  C15 UNL     1       1.914  -2.294  -0.285  1.00  0.00     0.360 C 
HETATM   21  O4  UNL     1       1.472  -2.334  -1.450  1.00  0.00    -0.239 OA
HETATM   22  N1  UNL     1       3.293  -2.084  -0.078  1.00  0.00    -0.335 N 
ATOM     23  H1  UNL     1       3.663  -2.053   0.872  1.00  0.00     0.164 HD
BRANCH  22  24
HETATM   24  C16 UNL     1       4.184  -1.913  -1.198  1.00  0.00     0.144 C 
BRANCH  24  25
HETATM   25  C17 UNL     1       3.873  -0.725  -2.062  1.00  0.00     0.142 C 
BRANCH  25  26
HETATM   26  N2  UNL     1       3.921   0.487  -1.318  1.00  0.00    -0.359 N 
HETATM   27  C18 UNL     1       5.110   0.916  -0.689  1.00  0.00     0.221 C 
HETATM   28  O5  UNL     1       6.148   0.228  -0.785  1.00  0.00    -0.273 OA
ATOM     29  H2  UNL     1       3.079   1.057  -1.237  1.00  0.00     0.162 HD
BRANCH  27  30
HETATM   30  C19 UNL     1       5.185   2.179   0.101  1.00  0.00     0.078 C 
HETATM   31  C20 UNL     1       4.839   3.412  -0.678  1.00  0.00     0.014 C 
HETATM   32  C21 UNL     1       6.303   3.775  -0.732  1.00  0.00     0.002 C 
HETATM   33  C22 UNL     1       6.598   2.657   0.215  1.00  0.00     0.014 C 
ENDBRANCH  27  30
ENDBRANCH  25  26
ENDBRANCH  24  25
ENDBRANCH  22  24
ENDBRANCH  19  20
ENDBRANCH  13  19
BRANCH   5  34
HETATM   34  O2  UNL     1      -2.503   0.370  -3.071  1.00  0.00    -0.393 OA
ATOM     35  H2  UNL     1      -2.253  -0.463  -3.453  1.00  0.00     0.210 HD
ENDBRANCH   5  34
BRANCH  15  36
HETATM   36  O6  UNL     1      -4.649  -0.340   0.832  1.00  0.00    -0.395 OA
ATOM     37  H6  UNL     1      -4.845   0.426   0.305  1.00  0.00     0.210 HD
ENDBRANCH  15  36
BRANCH   1  38
HETATM   38  C2  UNL     1      -0.581   2.689  -0.307  1.00  0.00    -0.005 C 
HETATM   39  C1  UNL     1       0.084   3.046  -1.393  1.00  0.00     0.009 C 
ENDBRANCH   1  38
TORSDOF 9
