REMARK  5 active torsions:
REMARK  status: ('A' for Active; 'I' for Inactive)
REMARK    1  A    between atoms: C4_4  and  C5_5 
REMARK    2  A    between atoms: C8_8  and  C9_9 
REMARK    3  A    between atoms: C9_9  and  N1_10 
REMARK    4  A    between atoms: N1_10  and  C10_11 
REMARK    5  A    between atoms: N1_10  and  C16_17 
ROOT
HETATM    1  N1  UNL     1      -1.357  -0.626  -0.639  1.00  0.00    -0.343 N 
ENDROOT
BRANCH   1   2
HETATM    2  C9  UNL     1      -0.368  -0.327  -1.608  1.00  0.00     0.168 C 
BRANCH   2   3
HETATM    3  C8  UNL     1       1.017  -0.195  -1.176  1.00  0.00    -0.040 A 
HETATM    4  C7  UNL     1       1.398   0.335   0.032  1.00  0.00     0.010 A 
HETATM    5  C6  UNL     1       2.728   0.445   0.357  1.00  0.00     0.013 A 
HETATM    6  C5  UNL     1       3.725   0.024  -0.526  1.00  0.00    -0.026 A 
HETATM    7  C27 UNL     1       3.367  -0.508  -1.735  1.00  0.00     0.013 A 
HETATM    8  C26 UNL     1       2.038  -0.615  -2.054  1.00  0.00     0.010 A 
BRANCH   6   9
HETATM    9  C4  UNL     1       5.125   0.197  -0.112  1.00  0.00    -0.026 A 
HETATM   10  C3  UNL     1       5.485   1.270   0.692  1.00  0.00     0.012 A 
HETATM   11  C2  UNL     1       6.784   1.469   1.095  1.00  0.00     0.001 A 
HETATM   12  C1  UNL     1       7.777   0.594   0.705  1.00  0.00     0.000 A 
HETATM   13  C29 UNL     1       7.434  -0.472  -0.090  1.00  0.00     0.001 A 
HETATM   14  C28 UNL     1       6.118  -0.670  -0.497  1.00  0.00     0.012 A 
ENDBRANCH   6   9
ENDBRANCH   2   3
ENDBRANCH   1   2
BRANCH   1  15
HETATM   15  C10 UNL     1      -1.378  -1.846   0.084  1.00  0.00     0.035 A 
HETATM   16  C11 UNL     1      -0.506  -2.878  -0.118  1.00  0.00     0.029 A 
HETATM   17  C12 UNL     1      -0.537  -4.072   0.606  1.00  0.00     0.002 A 
HETATM   18  C13 UNL     1      -1.492  -4.247   1.583  1.00  0.00     0.000 A 
HETATM   19  C14 UNL     1      -2.380  -3.214   1.799  1.00  0.00     0.002 A 
HETATM   20  C15 UNL     1      -2.341  -2.041   1.081  1.00  0.00     0.029 A 
ENDBRANCH   1  15
BRANCH   1  21
HETATM   21  C16 UNL     1      -2.389   0.345  -0.387  1.00  0.00     0.035 A 
HETATM   22  C17 UNL     1      -2.385   1.186   0.715  1.00  0.00     0.030 A 
HETATM   23  C18 UNL     1      -3.377   2.124   0.938  1.00  0.00     0.014 A 
HETATM   24  C19 UNL     1      -4.426   2.239   0.029  1.00  0.00    -0.026 A 
HETATM   25  C20 UNL     1      -5.426   3.173   0.232  1.00  0.00     0.012 A 
HETATM   26  C24 UNL     1      -4.466   1.418  -1.082  1.00  0.00    -0.024 A 
HETATM   27  C21 UNL     1      -6.465   3.295  -0.666  1.00  0.00     0.001 A 
HETATM   28  C22 UNL     1      -6.532   2.486  -1.791  1.00  0.00     0.001 A 
HETATM   29  C23 UNL     1      -5.515   1.564  -1.960  1.00  0.00     0.012 A 
HETATM   30  C25 UNL     1      -3.454   0.502  -1.258  1.00  0.00     0.042 A 
ENDBRANCH   1  21
TORSDOF 5
