REMARK  6 active torsions:
REMARK  status: ('A' for Active; 'I' for Inactive)
REMARK       I    between atoms: C2_2  and  N1_4 
REMARK    1  A    between atoms: N1_4  and  C3_6 
REMARK    2  A    between atoms: N3_15  and  C9_16 
REMARK    3  A    between atoms: C9_16  and  C10_17 
REMARK       I    between atoms: C10_17  and  N4_19 
REMARK    4  A    between atoms: N4_19  and  C11_21 
REMARK    5  A    between atoms: C14_24  and  N5_25 
REMARK    6  A    between atoms: C19_30  and  C20_31 
ROOT
HETATM    1  C3  UNL     1      -2.482  -1.430   0.250  1.00  0.00     0.687 A 
HETATM    2  N2  UNL     1      -1.588  -1.144  -0.697  1.00  0.00    -0.175 N 
ATOM      3  H2  UNL     1      -0.773  -1.749  -0.800  1.00  0.00     0.186 HD
HETATM    4  C4  UNL     1      -1.720  -0.070  -1.537  1.00  0.00     0.139 A 
HETATM    5  C5  UNL     1      -2.833   0.774  -1.416  1.00  0.00     0.037 A 
HETATM    6  C6  UNL     1      -2.902   1.852  -2.226  1.00  0.00     0.023 A 
HETATM    7  C7  UNL     1      -1.870   2.073  -3.154  1.00  0.00     0.075 A 
HETATM    8  C8  UNL     1      -0.793   1.233  -3.262  1.00  0.00     0.249 A 
HETATM    9  O2  UNL     1       0.096   1.470  -4.103  1.00  0.00    -0.268 OA
HETATM   10  N3  UNL     1      -0.752   0.171  -2.436  1.00  0.00    -0.290 N 
HETATM   11  C19 UNL     1      -3.745   0.481  -0.457  1.00  0.00     0.073 A 
HETATM   12  N6  UNL     1      -3.530  -0.622   0.350  1.00  0.00    -0.190 N 
ATOM     13  H6  UNL     1      -4.223  -0.828   1.070  1.00  0.00     0.184 HD
ENDROOT
BRANCH  10  14
HETATM   14  C9  UNL     1       0.356  -0.751  -2.500  1.00  0.00     0.237 C 
BRANCH  14  15
HETATM   15  C10 UNL     1       1.429  -0.283  -1.559  1.00  0.00     0.240 C 
HETATM   16  O3  UNL     1       1.195   0.757  -0.922  1.00  0.00    -0.271 OA
HETATM   17  N4  UNL     1       2.617  -1.004  -1.430  1.00  0.00    -0.326 N 
ATOM     18  H4  UNL     1       2.681  -1.838  -2.014  1.00  0.00     0.169 HD
BRANCH  17  19
HETATM   19  C11 UNL     1       3.744  -0.757  -0.615  1.00  0.00     0.034 A 
HETATM   20  C12 UNL     1       4.912  -1.492  -0.819  1.00  0.00     0.032 A 
HETATM   21  C13 UNL     1       5.995  -1.269  -0.033  1.00  0.00     0.031 A 
HETATM   22  C14 UNL     1       6.004  -0.331   0.983  1.00  0.00     0.029 A 
HETATM   23  C17 UNL     1       4.848   0.372   1.159  1.00  0.00     0.031 A 
HETATM   24  C18 UNL     1       3.713   0.187   0.388  1.00  0.00     0.032 A 
BRANCH  22  25
HETATM   25  N5  UNL     1       7.161  -0.131   1.781  1.00  0.00    -0.390 N 
HETATM   26  C15 UNL     1       7.143   0.856   2.838  1.00  0.00     0.149 C 
HETATM   27  C16 UNL     1       8.345  -0.924   1.522  1.00  0.00     0.149 C 
ENDBRANCH  22  25
ENDBRANCH  17  19
ENDBRANCH  14  15
ENDBRANCH  10  14
BRANCH   1  28
HETATM   28  N1  UNL     1      -2.365  -2.440   1.051  1.00  0.00    -0.160 N 
HETATM   29  C2  UNL     1      -3.260  -2.789   2.053  1.00  0.00     0.231 C 
HETATM   30  C1  UNL     1      -4.483  -3.604   1.890  1.00  0.00     0.118 C 
HETATM   31  O1  UNL     1      -3.016  -2.374   3.236  1.00  0.00    -0.273 OA
ATOM     32  H1  UNL     1      -1.542  -3.032   0.936  1.00  0.00     0.187 HD
ENDBRANCH   1  28
BRANCH  11  33
HETATM   33  C20 UNL     1      -4.932   1.272  -0.198  1.00  0.00    -0.008 A 
HETATM   34  C21 UNL     1      -5.727   1.871  -1.120  1.00  0.00     0.014 A 
HETATM   35  C22 UNL     1      -6.822   2.683  -0.839  1.00  0.00     0.001 A 
HETATM   36  C23 UNL     1      -7.131   2.898   0.488  1.00  0.00     0.000 A 
HETATM   37  C24 UNL     1      -6.349   2.305   1.452  1.00  0.00     0.001 A 
HETATM   38  C25 UNL     1      -5.281   1.515   1.152  1.00  0.00     0.014 A 
ENDBRANCH  11  33
TORSDOF 6
