REMARK  13 active torsions:
REMARK  status: ('A' for Active; 'I' for Inactive)
REMARK    1  A    between atoms: C2_2  and  N1_3 
REMARK    2  A    between atoms: N1_3  and  C4_5 
REMARK    3  A    between atoms: N1_3  and  C6_9 
REMARK    4  A    between atoms: C4_5  and  C5_6 
REMARK    5  A    between atoms: C5_6  and  O1_7 
REMARK    6  A    between atoms: C6_9  and  N2_10 
REMARK    7  A    between atoms: N2_10  and  C7_13 
REMARK    8  A    between atoms: C7_13  and  C8_14 
REMARK    9  A    between atoms: C8_14  and  S1_15 
REMARK   10  A    between atoms: S1_15  and  C10_17 
REMARK   11  A    between atoms: C10_17  and  C11_18 
REMARK   12  A    between atoms: C11_18  and  C12_19 
REMARK   13  A    between atoms: C12_19  and  N3_20 
ROOT
HETATM    1  S1  UNL     1       0.542   0.022  -0.263  1.00  0.00    -0.222 SA
HETATM    2  C9  UNL     1      -0.218   0.755   1.135  1.00  0.00     0.078 C 
ENDROOT
BRANCH   1   3
HETATM    3  C8  UNL     1      -0.633  -0.440  -1.480  1.00  0.00     0.090 C 
BRANCH   3   4
HETATM    4  C7  UNL     1      -1.612  -1.429  -0.961  1.00  0.00     0.243 C 
BRANCH   4   5
HETATM    5  N2  UNL     1      -2.474  -1.004   0.114  1.00  0.00    -0.050 N 
ATOM      6  H22 UNL     1      -1.947  -0.654   0.914  1.00  0.00     0.279 HD
ATOM      7  H21 UNL     1      -2.933  -1.791   0.573  1.00  0.00     0.279 HD
BRANCH   5   8
HETATM    8  C6  UNL     1      -3.427  -0.029  -0.383  1.00  0.00     0.467 C 
BRANCH   8   9
HETATM    9  N1  UNL     1      -4.400   0.428   0.540  1.00  0.00    -0.046 N 
HETATM   10  C3  UNL     1      -3.924   0.212   1.885  1.00  0.00     0.274 C 
BRANCH   9  11
HETATM   11  C2  UNL     1      -4.557   1.880   0.429  1.00  0.00     0.234 C 
HETATM   12  C1  UNL     1      -5.487   2.295  -0.655  1.00  0.00     0.035 C 
ENDBRANCH   9  11
BRANCH   9  13
HETATM   13  C4  UNL     1      -5.674  -0.243   0.453  1.00  0.00     0.264 C 
BRANCH  13  14
HETATM   14  C5  UNL     1      -5.826  -1.211  -0.660  1.00  0.00     0.192 C 
BRANCH  14  15
HETATM   15  O1  UNL     1      -7.135  -1.741  -0.550  1.00  0.00    -0.399 OA
ATOM     16  H1  UNL     1      -7.232  -2.361  -1.263  1.00  0.00     0.209 HD
ENDBRANCH  14  15
ENDBRANCH  13  14
ENDBRANCH   9  13
ENDBRANCH   8   9
ENDBRANCH   5   8
ENDBRANCH   4   5
ENDBRANCH   3   4
ENDBRANCH   1   3
BRANCH   1  17
HETATM   17  C10 UNL     1       1.466  -1.445   0.198  1.00  0.00     0.065 C 
BRANCH  17  18
HETATM   18  C11 UNL     1       2.491  -1.121   1.238  1.00  0.00     0.038 C 
BRANCH  18  19
HETATM   19  C12 UNL     1       3.526  -0.127   0.856  1.00  0.00     0.251 C 
BRANCH  19  20
HETATM   20  N3  UNL     1       4.394  -0.453  -0.231  1.00  0.00    -0.005 N 
HETATM   21  C13 UNL     1       4.752  -1.857  -0.309  1.00  0.00     0.287 C 
HETATM   22  C14 UNL     1       4.011   0.005  -1.490  1.00  0.00     0.211 A 
HETATM   23  C15 UNL     1       4.886   0.866  -1.956  1.00  0.00     0.046 A 
HETATM   24  C16 UNL     1       5.933   1.024  -0.988  1.00  0.00     0.086 A 
HETATM   25  C17 UNL     1       5.643   0.225   0.062  1.00  0.00     0.229 A 
HETATM   26  C19 UNL     1       7.108   1.775  -0.908  1.00  0.00     0.260 A 
HETATM   27  N4  UNL     1       6.452   0.158   1.139  1.00  0.00    -0.331 N 
HETATM   28  C18 UNL     1       7.585   0.908   1.171  1.00  0.00     0.185 A 
ATOM     29  H4  UNL     1       6.216  -0.450   1.923  1.00  0.00     0.168 HD
HETATM   30  N5  UNL     1       7.925   1.718   0.158  1.00  0.00    -0.319 N 
ATOM     31  H5  UNL     1       8.779   2.275   0.195  1.00  0.00     0.169 HD
HETATM   32  O2  UNL     1       7.384   2.516  -1.876  1.00  0.00    -0.267 OA
ENDBRANCH  19  20
ENDBRANCH  18  19
ENDBRANCH  17  18
ENDBRANCH   1  17
TORSDOF 13
