REMARK  16 active torsions:
REMARK  status: ('A' for Active; 'I' for Inactive)
REMARK    1  A    between atoms: C2_2  and  N1_3 
REMARK    2  A    between atoms: N1_3  and  C3_4 
REMARK    3  A    between atoms: C3_4  and  C4_5 
REMARK    4  A    between atoms: C4_5  and  C5_6 
REMARK    5  A    between atoms: C5_6  and  C6_7 
REMARK    6  A    between atoms: C6_7  and  C7_8 
REMARK    7  A    between atoms: C7_8  and  C8_9 
REMARK    8  A    between atoms: C8_9  and  N3_13 
REMARK    9  A    between atoms: N3_13  and  C9_15 
REMARK       I    between atoms: N4_17  and  C11_18 
REMARK   10  A    between atoms: C11_18  and  C12_20 
REMARK   11  A    between atoms: C12_20  and  C13_21 
REMARK   12  A    between atoms: C13_21  and  C14_22 
REMARK   13  A    between atoms: C14_22  and  C15_23 
REMARK   14  A    between atoms: C15_23  and  C16_24 
REMARK   15  A    between atoms: C16_24  and  N5_25 
REMARK   16  A    between atoms: C20_32  and  C21_33 
ROOT
HETATM    1  C9  UNL     1       0.567  -0.319  -0.927  1.00  0.00     0.113 C 
HETATM    2  C10 UNL     1       1.472  -1.586  -0.860  1.00  0.00     0.151 C 
HETATM    3  N4  UNL     1       2.828  -1.108  -0.856  1.00  0.00    -0.350 N 
HETATM    4  C11 UNL     1       3.862  -1.732  -0.109  1.00  0.00     0.219 C 
HETATM    5  O1  UNL     1       3.570  -2.746   0.569  1.00  0.00    -0.273 OA
HETATM    6  C18 UNL     1       3.156   0.071  -1.653  1.00  0.00     0.127 C 
HETATM    7  C19 UNL     1       2.341   1.267  -1.186  1.00  0.00     0.035 C 
HETATM    8  C20 UNL     1       1.354   0.696  -0.145  1.00  0.00     0.101 C 
ENDROOT
BRANCH   1   9
HETATM    9  N3  UNL     1      -0.723  -0.653  -0.407  1.00  0.00    -0.373 N 
ATOM     10  H3  UNL     1      -0.829  -1.513   0.132  1.00  0.00     0.161 HD
BRANCH   9  11
HETATM   11  C8  UNL     1      -1.851   0.164  -0.613  1.00  0.00     0.070 C 
HETATM   12  N2  UNL     1      -2.147   0.647  -1.800  1.00  0.00    -0.389 N 
ATOM     13  H22 UNL     1      -2.964   1.239  -1.949  1.00  0.00     0.157 HD
ATOM     14  H21 UNL     1      -1.509   0.414  -2.561  1.00  0.00     0.157 HD
BRANCH  11  15
HETATM   15  C7  UNL     1      -2.776   0.501   0.490  1.00  0.00     0.075 C 
BRANCH  15  16
HETATM   16  C6  UNL     1      -3.370  -0.742   1.118  1.00  0.00     0.007 C 
BRANCH  16  17
HETATM   17  C5  UNL     1      -4.154  -1.548   0.128  1.00  0.00     0.002 C 
BRANCH  17  18
HETATM   18  C4  UNL     1      -5.320  -0.812  -0.482  1.00  0.00     0.028 C 
BRANCH  18  19
HETATM   19  C3  UNL     1      -6.292  -0.387   0.587  1.00  0.00     0.237 C 
BRANCH  19  20
HETATM   20  N1  UNL     1      -7.423   0.312   0.057  1.00  0.00    -0.067 N 
HETATM   21  C22 UNL     1      -8.296   0.659   1.166  1.00  0.00     0.237 C 
HETATM   22  C23 UNL     1      -9.412  -0.361   1.152  1.00  0.00     0.029 C 
HETATM   23  C24 UNL     1      -9.600  -0.540  -0.358  1.00  0.00     0.029 C 
HETATM   24  C25 UNL     1      -8.152  -0.555  -0.815  1.00  0.00     0.237 C 
BRANCH  20  25
HETATM   25  C2  UNL     1      -7.109   1.533  -0.638  1.00  0.00     0.233 C 
HETATM   26  C1  UNL     1      -6.550   2.603   0.245  1.00  0.00     0.035 C 
ENDBRANCH  20  25
ENDBRANCH  19  20
ENDBRANCH  18  19
ENDBRANCH  17  18
ENDBRANCH  16  17
ENDBRANCH  15  16
ENDBRANCH  11  15
ENDBRANCH   9  11
ENDBRANCH   1   9
BRANCH   8  27
HETATM   27  C21 UNL     1       0.626   1.760   0.517  1.00  0.00     0.237 C 
HETATM   28  N8  UNL     1       0.053   2.911  -0.065  1.00  0.00    -0.062 NA
HETATM   29  O2  UNL     1       0.463   1.679   1.789  1.00  0.00    -0.276 OA
ENDBRANCH   8  27
BRANCH   4  30
HETATM   30  C12 UNL     1       5.253  -1.251  -0.089  1.00  0.00     0.103 C 
BRANCH  30  31
HETATM   31  C13 UNL     1       6.147  -2.083   0.780  1.00  0.00     0.009 C 
BRANCH  31  32
HETATM   32  C14 UNL     1       7.546  -1.552   0.772  1.00  0.00     0.002 C 
BRANCH  32  33
HETATM   33  C15 UNL     1       8.194  -1.524  -0.583  1.00  0.00     0.020 C 
BRANCH  33  34
HETATM   34  C16 UNL     1       9.595  -0.961  -0.403  1.00  0.00     0.122 C 
BRANCH  34  35
HETATM   35  N5  UNL     1       9.549   0.370   0.147  1.00  0.00    -0.367 N 
HETATM   36  C17 UNL     1      10.502   1.212   0.150  1.00  0.00     0.196 C 
HETATM   37  N6  UNL     1      10.210   2.486   0.764  1.00  0.00    -0.067 NA
HETATM   38  N7  UNL     1      11.783   0.997  -0.385  1.00  0.00    -0.067 NA
ATOM     39  H5  UNL     1       8.670   0.664   0.574  1.00  0.00     0.161 HD
ENDBRANCH  34  35
ENDBRANCH  33  34
ENDBRANCH  32  33
ENDBRANCH  31  32
ENDBRANCH  30  31
ENDBRANCH   4  30
TORSDOF 16
