REMARK  16 active torsions:
REMARK  status: ('A' for Active; 'I' for Inactive)
REMARK    1  A    between atoms: C2_2  and  C3_3 
REMARK    2  A    between atoms: C3_3  and  C4_4 
REMARK    3  A    between atoms: C4_4  and  N1_5 
REMARK    4  A    between atoms: N1_5  and  C5_7 
REMARK    5  A    between atoms: C5_7  and  C6_8 
REMARK    6  A    between atoms: C6_8  and  C7_9 
REMARK    7  A    between atoms: C7_9  and  C8_10 
REMARK    8  A    between atoms: C8_10  and  N2_11 
REMARK    9  A    between atoms: N2_11  and  C9_14 
REMARK   10  A    between atoms: C9_14  and  C10_15 
REMARK   11  A    between atoms: C10_15  and  C11_16 
REMARK   12  A    between atoms: C11_16  and  N3_17 
REMARK       I    between atoms: N3_17  and  C12_19 
REMARK   13  A    between atoms: C12_19  and  C13_21 
REMARK   14  A    between atoms: C21_29  and  O2_30 
REMARK   15  A    between atoms: C32_42  and  O3_43 
REMARK   16  A    between atoms: C35_47  and  O4_48 
ROOT
HETATM    1  C13 UNL     1       0.849   0.793  -1.694  1.00  0.00     0.214 C 
HETATM    2  C14 UNL     1       0.296  -0.496  -2.295  1.00  0.00     0.053 C 
HETATM    3  C15 UNL     1      -1.055  -0.586  -1.561  1.00  0.00    -0.015 C 
HETATM    4  C16 UNL     1      -0.785  -1.377  -0.327  1.00  0.00     0.018 C 
HETATM    5  C17 UNL     1      -2.166  -1.085  -2.401  1.00  0.00     0.012 C 
HETATM    6  C18 UNL     1      -3.099  -0.027  -2.880  1.00  0.00     0.007 C 
HETATM    7  C19 UNL     1      -3.608   0.932  -1.841  1.00  0.00     0.003 C 
HETATM    8  C20 UNL     1      -2.546   1.318  -0.824  1.00  0.00     0.049 C 
HETATM    9  C21 UNL     1      -2.880   0.919   0.570  1.00  0.00     0.125 C 
HETATM   10  C22 UNL     1      -4.192   1.500   0.948  1.00  0.00     0.040 C 
HETATM   11  C23 UNL     1      -5.266   1.460  -0.106  1.00  0.00     0.031 C 
HETATM   12  C24 UNL     1      -4.949   0.608  -1.290  1.00  0.00    -0.033 C 
HETATM   13  C25 UNL     1      -5.964   0.996  -2.387  1.00  0.00     0.016 C 
HETATM   14  C26 UNL     1      -5.204  -0.860  -1.048  1.00  0.00     0.010 C 
HETATM   15  C27 UNL     1      -6.541  -1.109  -0.437  1.00  0.00     0.009 C 
HETATM   16  C28 UNL     1      -6.734  -0.341   0.823  1.00  0.00     0.031 C 
HETATM   17  C29 UNL     1      -7.996  -0.633   1.543  1.00  0.00    -0.015 C 
HETATM   18  C30 UNL     1      -7.785  -0.526   3.054  1.00  0.00     0.018 C 
HETATM   19  C31 UNL     1      -8.369  -2.098   1.283  1.00  0.00     0.018 C 
HETATM   20  C32 UNL     1      -9.178   0.189   1.136  1.00  0.00     0.126 C 
HETATM   21  C33 UNL     1      -8.870   1.671   1.048  1.00  0.00     0.035 C 
HETATM   22  C34 UNL     1      -7.776   1.786  -0.027  1.00  0.00     0.041 C 
HETATM   23  C35 UNL     1      -6.552   1.135   0.584  1.00  0.00     0.067 C 
HETATM   24  C36 UNL     1      -1.253   0.887  -1.359  1.00  0.00     0.137 C 
HETATM   25  O5  UNL     1      -0.093   1.235  -0.742  1.00  0.00    -0.370 OA
ENDROOT
BRANCH   1  26
HETATM   26  C12 UNL     1       2.195   0.594  -1.111  1.00  0.00     0.246 C 
HETATM   27  N3  UNL     1       2.509   0.815   0.237  1.00  0.00    -0.359 N 
ATOM     28  H3  UNL     1       1.762   1.137   0.853  1.00  0.00     0.162 HD
HETATM   29  O1  UNL     1       3.083   0.204  -1.907  1.00  0.00    -0.271 OA
BRANCH  27  30
HETATM   30  C11 UNL     1       3.807   0.619   0.808  1.00  0.00     0.124 C 
BRANCH  30  31
HETATM   31  C10 UNL     1       4.268  -0.790   0.701  1.00  0.00     0.047 C 
BRANCH  31  32
HETATM   32  C9  UNL     1       5.639  -0.992   1.316  1.00  0.00     0.234 C 
BRANCH  32  33
HETATM   33  N2  UNL     1       6.657  -0.196   0.706  1.00  0.00    -0.075 N 
ATOM     34  H22 UNL     1       7.502  -0.190   1.277  1.00  0.00     0.277 HD
ATOM     35  H21 UNL     1       6.416   0.794   0.750  1.00  0.00     0.277 HD
BRANCH  33  36
HETATM   36  C8  UNL     1       6.957  -0.587  -0.642  1.00  0.00     0.232 C 
BRANCH  36  37
HETATM   37  C7  UNL     1       8.040   0.323  -1.191  1.00  0.00     0.029 C 
BRANCH  37  38
HETATM   38  C6  UNL     1       9.295   0.249  -0.388  1.00  0.00     0.021 C 
BRANCH  38  39
HETATM   39  C5  UNL     1       9.866  -1.158  -0.375  1.00  0.00     0.118 C 
BRANCH  39  40
HETATM   40  N1  UNL     1      11.064  -1.262   0.385  1.00  0.00    -0.402 N 
ATOM     41  H1  UNL     1      11.963  -1.447  -0.061  1.00  0.00     0.158 HD
BRANCH  40  42
HETATM   42  C4  UNL     1      10.956  -1.099   1.777  1.00  0.00     0.059 C 
BRANCH  42  43
HETATM   43  C3  UNL     1      12.245  -1.175   2.542  1.00  0.00     0.070 C 
BRANCH  43  44
HETATM   44  C2  UNL     1      13.220  -0.146   2.226  1.00  0.00    -0.032 C 
HETATM   45  C1  UNL     1      12.969   0.872   1.445  1.00  0.00     0.007 C 
ENDBRANCH  43  44
ENDBRANCH  42  43
ENDBRANCH  40  42
ENDBRANCH  39  40
ENDBRANCH  38  39
ENDBRANCH  37  38
ENDBRANCH  36  37
ENDBRANCH  33  36
ENDBRANCH  32  33
ENDBRANCH  31  32
ENDBRANCH  30  31
ENDBRANCH  27  30
ENDBRANCH   1  26
BRANCH   9  46
HETATM   46  O2  UNL     1      -1.901   1.532   1.394  1.00  0.00    -0.395 OA
ATOM     47  H2  UNL     1      -2.114   1.277   2.284  1.00  0.00     0.210 HD
ENDBRANCH   9  46
BRANCH  23  48
HETATM   48  O4  UNL     1      -6.473   1.709   1.881  1.00  0.00    -0.389 OA
ATOM     49  H4  UNL     1      -7.290   1.503   2.319  1.00  0.00     0.210 HD
ENDBRANCH  23  48
BRANCH  20  50
HETATM   50  O3  UNL     1      -9.726  -0.213  -0.081  1.00  0.00    -0.395 OA
ATOM     51  H3  UNL     1     -10.477   0.309  -0.339  1.00  0.00     0.210 HD
ENDBRANCH  20  50
TORSDOF 16
