REMARK  14 active torsions:
REMARK  status: ('A' for Active; 'I' for Inactive)
REMARK    1  A    between atoms: N1_2  and  C2_5 
REMARK    2  A    between atoms: C4_8  and  C5_9 
REMARK    3  A    between atoms: C5_9  and  C6_10 
REMARK    4  A    between atoms: C9_13  and  O2_14 
REMARK    5  A    between atoms: C11_22  and  C12_23 
REMARK    6  A    between atoms: C12_23  and  C13_24 
REMARK    7  A    between atoms: C13_24  and  C14_25 
REMARK    8  A    between atoms: C14_25  and  C15_26 
REMARK    9  A    between atoms: C15_26  and  C16_27 
REMARK   10  A    between atoms: C16_27  and  C17_28 
REMARK   11  A    between atoms: C21_35  and  C22_36 
REMARK   12  A    between atoms: C22_36  and  C23_37 
REMARK   13  A    between atoms: C27_44  and  C28_45 
REMARK   14  A    between atoms: C28_45  and  C29_46 
ROOT
HETATM    1  C2  UNL     1      -2.451  -2.286   2.490  1.00  0.00     0.209 C 
HETATM    2  C3  UNL     1      -1.376  -3.129   1.845  1.00  0.00     0.202 C 
HETATM    3  O1  UNL     1      -1.880  -3.479   0.594  1.00  0.00    -0.368 OA
HETATM    4  C4  UNL     1      -1.583  -2.450  -0.304  1.00  0.00     0.150 C 
HETATM    5  C10 UNL     1      -0.136  -2.497  -0.556  1.00  0.00     0.254 C 
HETATM    6  O3  UNL     1       0.359  -3.672  -0.323  1.00  0.00    -0.270 OA
HETATM    7  N3  UNL     1       0.770  -1.546  -0.986  1.00  0.00    -0.345 N 
ATOM      8  H3  UNL     1       1.153  -1.732  -1.913  1.00  0.00     0.163 HD
HETATM    9  C11 UNL     1       1.279  -0.339  -0.376  1.00  0.00     0.176 C 
HETATM   10  C20 UNL     1       1.205   0.724  -1.412  1.00  0.00     0.241 C 
HETATM   11  O4  UNL     1       2.091   0.684  -2.319  1.00  0.00    -0.271 OA
HETATM   12  N4  UNL     1       0.263   1.754  -1.483  1.00  0.00    -0.346 N 
ATOM     13  H4  UNL     1       0.023   2.084  -2.418  1.00  0.00     0.163 HD
HETATM   14  C21 UNL     1      -0.408   2.402  -0.385  1.00  0.00     0.177 C 
HETATM   15  C26 UNL     1      -1.767   2.891  -0.802  1.00  0.00     0.240 C 
HETATM   16  O5  UNL     1      -1.913   4.125  -0.979  1.00  0.00    -0.271 OA
HETATM   17  N5  UNL     1      -2.881   2.067  -1.006  1.00  0.00    -0.355 N 
ATOM     18  H5  UNL     1      -3.449   2.269  -1.829  1.00  0.00     0.162 HD
HETATM   19  C27 UNL     1      -3.317   0.961  -0.180  1.00  0.00     0.085 C 
HETATM   20  C33 UNL     1      -2.804  -0.323  -0.795  1.00  0.00     0.033 C 
HETATM   21  C34 UNL     1      -2.149  -1.193   0.250  1.00  0.00     0.034 C 
HETATM   22  C35 UNL     1      -3.148  -1.531   1.349  1.00  0.00     0.043 C 
ENDROOT
BRANCH   4  23
HETATM   23  C5  UNL     1      -2.257  -2.866  -1.604  1.00  0.00     0.105 C 
BRANCH  23  24
HETATM   24  C6  UNL     1      -1.763  -4.159  -2.130  1.00  0.00     0.014 A 
HETATM   25  C7  UNL     1      -2.283  -5.414  -1.816  1.00  0.00     0.029 A 
HETATM   26  C8  UNL     1      -1.578  -6.359  -2.497  1.00  0.00     0.058 A 
HETATM   27  C9  UNL     1      -0.633  -5.696  -3.225  1.00  0.00     0.140 A 
HETATM   28  N2  UNL     1      -0.749  -4.388  -3.001  1.00  0.00    -0.341 N 
ATOM     29  H2  UNL     1      -0.163  -3.667  -3.422  1.00  0.00     0.167 HD
BRANCH  27  30
HETATM   30  O2  UNL     1       0.316  -6.274  -4.076  1.00  0.00    -0.346 OA
ATOM     31  H2  UNL     1       0.974  -5.812  -4.583  1.00  0.00     0.219 HD
ENDBRANCH  27  30
ENDBRANCH  23  24
ENDBRANCH   4  23
BRANCH   1  32
HETATM   32  N1  UNL     1      -3.443  -3.197   3.028  1.00  0.00    -0.073 N 
HETATM   33  C1  UNL     1      -2.944  -4.064   4.049  1.00  0.00     0.267 C 
ATOM     34  H12 UNL     1      -3.876  -3.738   2.279  1.00  0.00     0.277 HD
ATOM     35  H11 UNL     1      -4.258  -2.682   3.362  1.00  0.00     0.277 HD
ENDBRANCH   1  32
BRANCH   9  36
HETATM   36  C12 UNL     1       2.768  -0.583  -0.130  1.00  0.00     0.035 C 
BRANCH  36  37
HETATM   37  C13 UNL     1       3.472   0.565   0.500  1.00  0.00     0.002 C 
BRANCH  37  38
HETATM   38  C14 UNL     1       4.947   0.087   0.653  1.00  0.00     0.000 C 
BRANCH  38  39
HETATM   39  C15 UNL     1       5.774   1.141   1.274  1.00  0.00     0.000 C 
BRANCH  39  40
HETATM   40  C16 UNL     1       7.170   0.745   1.516  1.00  0.00     0.004 C 
BRANCH  40  41
HETATM   41  C17 UNL     1       8.046   0.350   0.401  1.00  0.00    -0.023 C 
HETATM   42  C18 UNL     1       7.678  -0.835  -0.411  1.00  0.00     0.009 C 
HETATM   43  C19 UNL     1       8.345   1.500  -0.554  1.00  0.00     0.009 C 
ENDBRANCH  40  41
ENDBRANCH  39  40
ENDBRANCH  38  39
ENDBRANCH  37  38
ENDBRANCH  36  37
ENDBRANCH   9  36
BRANCH  19  44
HETATM   44  C28 UNL     1      -4.806   0.929  -0.062  1.00  0.00     0.033 C 
BRANCH  44  45
HETATM   45  C29 UNL     1      -5.486   2.086   0.541  1.00  0.00    -0.050 C 
HETATM   46  C30 UNL     1      -5.061   2.407   1.950  1.00  0.00     0.014 C 
HETATM   47  C31 UNL     1      -6.975   1.648   0.681  1.00  0.00     0.014 C 
HETATM   48  C32 UNL     1      -5.544   3.285  -0.364  1.00  0.00     0.014 C 
ENDBRANCH  44  45
ENDBRANCH  19  44
BRANCH  14  49
HETATM   49  C22 UNL     1       0.438   3.426   0.246  1.00  0.00     0.038 C 
BRANCH  49  50
HETATM   50  C23 UNL     1       0.937   4.579  -0.527  1.00  0.00    -0.020 C 
HETATM   51  C24 UNL     1       1.818   4.263  -1.707  1.00  0.00     0.009 C 
HETATM   52  C25 UNL     1       1.816   5.422   0.433  1.00  0.00     0.009 C 
ENDBRANCH  49  50
ENDBRANCH  14  49
TORSDOF 14
