REMARK  3 active torsions:
REMARK  status: ('A' for Active; 'I' for Inactive)
REMARK    1  A    between atoms: C7_8  and  N1_9 
REMARK    2  A    between atoms: N1_9  and  N2_11 
REMARK    3  A    between atoms: N2_11  and  C8_13 
ROOT
HETATM    1  N1  UNL     1       0.846  -0.858   0.560  1.00  0.00    -0.326 N 
ATOM      2  H1  UNL     1       1.595  -1.398   0.995  1.00  0.00     0.181 HD
ENDROOT
BRANCH   1   3
HETATM    3  C7  UNL     1       1.163   0.291  -0.195  1.00  0.00     0.134 C 
HETATM    4  C4  UNL     1       2.668   0.577  -0.157  1.00  0.00    -0.014 A 
HETATM    5  C3  UNL     1       2.955   1.251  -1.307  1.00  0.00    -0.008 A 
HETATM    6  C5  UNL     1       3.699   0.344   0.694  1.00  0.00    -0.040 A 
HETATM    7  S1  UNL     1       4.632   1.542  -1.181  1.00  0.00    -0.099 SA
HETATM    8  C16 UNL     1       1.701   1.424  -2.148  1.00  0.00     0.049 C 
HETATM    9  C2  UNL     1       4.929   0.805   0.321  1.00  0.00    -0.014 A 
HETATM   10  C1  UNL     1       6.237   0.690   1.061  1.00  0.00     0.057 C 
HETATM   11  C15 UNL     1       0.948   0.161  -1.681  1.00  0.00     0.036 C 
HETATM   12  C6  UNL     1       3.559  -0.389   2.023  1.00  0.00     0.050 C 
ENDBRANCH   1   3
BRANCH   1  13
HETATM   13  N2  UNL     1      -0.433  -1.251   0.714  1.00  0.00    -0.293 N 
ATOM     14  H2  UNL     1      -0.585  -1.971   1.421  1.00  0.00     0.188 HD
BRANCH  13  15
HETATM   15  C8  UNL     1      -1.609  -0.808   0.033  1.00  0.00     0.095 C 
HETATM   16  N3  UNL     1      -1.788   0.433   0.472  1.00  0.00    -0.358 N 
HETATM   17  C9  UNL     1      -2.815   1.376   0.135  1.00  0.00     0.062 C 
ATOM     18  H3  UNL     1      -1.096   0.762   1.145  1.00  0.00     0.166 HD
HETATM   19  C10 UNL     1      -4.211   1.234   0.583  1.00  0.00     0.044 C 
HETATM   20  C11 UNL     1      -5.053   0.162  -0.186  1.00  0.00     0.005 C 
HETATM   21  C12 UNL     1      -4.095  -0.814  -0.510  1.00  0.00     0.001 C 
HETATM   22  C13 UNL     1      -3.602  -2.012  -1.044  1.00  0.00     0.007 C 
HETATM   23  C14 UNL     1      -2.062  -1.898  -0.809  1.00  0.00     0.078 C 
ENDBRANCH  13  15
ENDBRANCH   1  13
TORSDOF 3
