REMARK  4 active torsions:
REMARK  status: ('A' for Active; 'I' for Inactive)
REMARK    1  A    between atoms: O1_1  and  C1_3 
REMARK    2  A    between atoms: C2_4  and  N1_5 
REMARK    3  A    between atoms: N1_5  and  N2_7 
REMARK    4  A    between atoms: N2_7  and  C3_8 
ROOT
HETATM    1  N1  UNL     1       0.918  -1.837  -0.097  1.00  0.00    -0.233 N 
ATOM      2  H1  UNL     1       1.006  -2.850  -0.173  1.00  0.00     0.202 HD
ENDROOT
BRANCH   1   3
HETATM    3  C2  UNL     1       2.100  -1.005   0.130  1.00  0.00     0.096 A 
HETATM    4  C1  UNL     1       3.228  -1.177  -0.597  1.00  0.00     0.129 A 
HETATM    5  C16 UNL     1       4.319  -0.296  -0.431  1.00  0.00     0.110 A 
HETATM    6  C15 UNL     1       4.186   0.724   0.483  1.00  0.00    -0.020 A 
HETATM    7  O2  UNL     1       5.565  -0.255  -1.048  1.00  0.00    -0.347 OA
HETATM    8  C14 UNL     1       3.041   0.891   1.217  1.00  0.00     0.012 A 
HETATM    9  C18 UNL     1       5.424   1.560   0.438  1.00  0.00     0.068 C 
HETATM   10  C13 UNL     1       1.979   0.026   1.047  1.00  0.00     0.035 A 
HETATM   11  C17 UNL     1       6.370   0.697  -0.352  1.00  0.00     0.180 C 
BRANCH   4  12
HETATM   12  O1  UNL     1       3.326  -2.214  -1.509  1.00  0.00    -0.356 OA
ATOM     13  H1  UNL     1       4.118  -2.335  -2.019  1.00  0.00     0.218 HD
ENDBRANCH   4  12
ENDBRANCH   1   3
BRANCH   1  14
HETATM   14  N2  UNL     1      -0.268  -1.255  -0.203  1.00  0.00    -0.334 NA
BRANCH  14  15
HETATM   15  C3  UNL     1      -1.340  -0.744  -0.296  1.00  0.00     0.095 C 
HETATM   16  C4  UNL     1      -2.641  -1.530  -0.125  1.00  0.00     0.049 C 
HETATM   17  C5  UNL     1      -3.186  -1.041   1.238  1.00  0.00     0.016 C 
HETATM   18  C9  UNL     1      -3.657  -1.142  -1.151  1.00  0.00     0.016 C 
HETATM   19  C6  UNL     1      -3.321   0.446   1.242  1.00  0.00    -0.013 C 
HETATM   20  C7  UNL     1      -4.393   0.772   0.200  1.00  0.00     0.009 C 
HETATM   21  C12 UNL     1      -2.039   1.162   0.932  1.00  0.00     0.016 C 
HETATM   22  C8  UNL     1      -3.863   0.353  -1.124  1.00  0.00    -0.013 C 
HETATM   23  C10 UNL     1      -2.597   1.084  -1.443  1.00  0.00     0.016 C 
HETATM   24  C11 UNL     1      -1.544   0.742  -0.464  1.00  0.00     0.049 C 
ENDBRANCH  14  15
ENDBRANCH   1  14
TORSDOF 4
