REMARK  6 active torsions:
REMARK  status: ('A' for Active; 'I' for Inactive)
REMARK    1  A    between atoms: N1_4  and  C4_5 
REMARK    2  A    between atoms: C5_8  and  N3_9 
REMARK    3  A    between atoms: N5_16  and  C8_17 
REMARK    4  A    between atoms: C8_17  and  C9_18 
REMARK    5  A    between atoms: C9_18  and  C10_19 
REMARK    6  A    between atoms: C10_19  and  N6_20 
ROOT
HETATM    1  C4  UNL     1      -1.430  -0.256  -0.827  1.00  0.00     0.683 A 
HETATM    2  N2  UNL     1      -1.321  -0.526  -2.131  1.00  0.00    -0.176 N 
ATOM      3  H2  UNL     1      -2.149  -0.856  -2.628  1.00  0.00     0.186 HD
HETATM    4  C5  UNL     1      -0.174  -0.385  -2.823  1.00  0.00     0.124 A 
HETATM    5  C6  UNL     1       0.960   0.065  -2.155  1.00  0.00     0.030 A 
HETATM    6  C7  UNL     1       0.826   0.337  -0.812  1.00  0.00     0.129 A 
HETATM    7  N4  UNL     1      -0.359   0.177  -0.160  1.00  0.00    -0.176 N 
ATOM      8  H4  UNL     1      -0.427   0.388   0.836  1.00  0.00     0.186 HD
HETATM    9  N5  UNL     1       1.999   0.799  -0.106  1.00  0.00    -0.366 N 
HETATM   10  C11 UNL     1       2.887   1.657  -0.863  1.00  0.00     0.124 C 
HETATM   11  C12 UNL     1       3.238   1.100  -2.194  1.00  0.00     0.025 C 
HETATM   12  C13 UNL     1       2.232   0.242  -2.858  1.00  0.00     0.048 C 
ENDROOT
BRANCH   1  13
HETATM   13  N1  UNL     1      -2.656  -0.424  -0.165  1.00  0.00    -0.214 N 
HETATM   14  C3  UNL     1      -2.902  -0.146   1.238  1.00  0.00     0.173 C 
HETATM   15  C2  UNL     1      -4.349   0.325   1.313  1.00  0.00     0.200 C 
HETATM   16  C1  UNL     1      -4.639   1.137   2.528  1.00  0.00     0.041 C 
HETATM   17  N7  UNL     1      -5.204  -0.818   1.170  1.00  0.00    -0.068 N 
HETATM   18  C15 UNL     1      -4.732  -1.669   0.098  1.00  0.00     0.253 C 
ATOM     19  H72 UNL     1      -5.303  -1.330   2.046  1.00  0.00     0.277 HD
ATOM     20  H71 UNL     1      -6.179  -0.549   1.041  1.00  0.00     0.277 HD
HETATM   21  C14 UNL     1      -3.852  -0.925  -0.876  1.00  0.00     0.168 C 
ENDBRANCH   1  13
BRANCH   4  22
HETATM   22  N3  UNL     1      -0.101  -0.658  -4.072  1.00  0.00    -0.385 N 
ATOM     23  H32 UNL     1      -0.933  -0.988  -4.562  1.00  0.00     0.157 HD
ATOM     24  H31 UNL     1       0.768  -0.551  -4.596  1.00  0.00     0.157 HD
ENDBRANCH   4  22
BRANCH   9  25
HETATM   25  C8  UNL     1       2.172   0.405   1.247  1.00  0.00     0.126 C 
BRANCH  25  26
HETATM   26  C9  UNL     1       3.284  -0.537   1.578  1.00  0.00     0.047 C 
BRANCH  26  27
HETATM   27  C10 UNL     1       4.666  -0.099   1.279  1.00  0.00     0.231 C 
BRANCH  27  28
HETATM   28  N6  UNL     1       5.659  -1.092   1.695  1.00  0.00    -0.079 N 
ATOM     29  H63 UNL     1       5.552  -1.332   2.681  1.00  0.00     0.274 HD
ATOM     30  H62 UNL     1       5.463  -2.005   1.285  1.00  0.00     0.274 HD
ATOM     31  H61 UNL     1       6.611  -0.790   1.489  1.00  0.00     0.274 HD
ENDBRANCH  27  28
ENDBRANCH  26  27
ENDBRANCH  25  26
ENDBRANCH   9  25
TORSDOF 6
