REMARK  8 active torsions:
REMARK  status: ('A' for Active; 'I' for Inactive)
REMARK    1  A    between atoms: N1_2  and  C2_5 
REMARK    2  A    between atoms: C2_5  and  C3_6 
REMARK    3  A    between atoms: C3_6  and  N2_7 
REMARK    4  A    between atoms: C6_10  and  C7_11 
REMARK    5  A    between atoms: C7_11  and  C8_12 
REMARK    6  A    between atoms: C8_12  and  N3_13 
REMARK    7  A    between atoms: N5_28  and  S1_29 
REMARK    8  A    between atoms: S1_29  and  C19_32 
ROOT
HETATM    1  N3  UNL     1      -0.567  -2.118   0.122  1.00  0.00     0.092 N 
HETATM    2  C9  UNL     1      -0.582  -1.479  -1.122  1.00  0.00     0.318 C 
HETATM    3  C10 UNL     1      -1.920  -0.737  -1.230  1.00  0.00     0.164 C 
HETATM    4  F1  UNL     1      -1.611   0.479  -1.826  1.00  0.00    -0.238 F 
HETATM    5  C11 UNL     1      -2.830  -1.528  -2.099  1.00  0.00     0.280 C 
HETATM    6  N4  UNL     1      -4.237  -1.307  -1.908  1.00  0.00    -0.050 N 
ATOM      7  H41 UNL     1      -4.737  -2.196  -1.882  1.00  0.00     0.279 HD
ATOM      8  H42 UNL     1      -4.650  -0.899  -2.746  1.00  0.00     0.279 HD
HETATM    9  C12 UNL     1      -4.564  -0.510  -0.744  1.00  0.00     0.304 C 
HETATM   10  C13 UNL     1      -3.730  -1.131   0.374  1.00  0.00     0.051 C 
HETATM   11  C14 UNL     1      -4.349  -0.862   1.694  1.00  0.00     0.009 C 
HETATM   12  C15 UNL     1      -4.011   0.433   2.341  1.00  0.00     0.001 C 
HETATM   13  C16 UNL     1      -2.649   0.967   2.026  1.00  0.00     0.011 C 
HETATM   14  C17 UNL     1      -2.432   0.871   0.535  1.00  0.00     0.039 C 
HETATM   15  C18 UNL     1      -3.478   1.596  -0.200  1.00  0.00     0.084 C 
HETATM   16  N5  UNL     1      -4.450   0.864  -0.893  1.00  0.00    -0.251 N 
HETATM   17  C20 UNL     1      -2.332  -0.602   0.190  1.00  0.00     0.041 C 
HETATM   18  C21 UNL     1      -1.309  -1.239   1.031  1.00  0.00     0.286 C 
ENDROOT
BRANCH   1  19
HETATM   19  C8  UNL     1       0.648  -2.531   0.711  1.00  0.00     0.273 C 
BRANCH  19  20
HETATM   20  C7  UNL     1       1.570  -1.577   1.326  1.00  0.00     0.035 C 
BRANCH  20  21
HETATM   21  C6  UNL     1       2.197  -0.507   0.504  1.00  0.00    -0.010 C 
HETATM   22  C5  UNL     1       3.081   0.325   1.463  1.00  0.00     0.035 C 
HETATM   23  C4  UNL     1       3.813   1.290   0.549  1.00  0.00     0.273 C 
HETATM   24  N2  UNL     1       4.953   0.575  -0.020  1.00  0.00     0.090 N 
HETATM   25  C23 UNL     1       4.588  -0.801  -0.292  1.00  0.00     0.273 C 
HETATM   26  C22 UNL     1       3.138  -1.025  -0.550  1.00  0.00     0.035 C 
BRANCH  24  27
HETATM   27  C3  UNL     1       5.548   1.281  -1.100  1.00  0.00     0.299 C 
BRANCH  27  28
HETATM   28  C2  UNL     1       6.779   0.667  -1.678  1.00  0.00     0.262 C 
BRANCH  28  29
HETATM   29  N1  UNL     1       7.837   0.546  -0.663  1.00  0.00    -0.077 N 
HETATM   30  C1  UNL     1       8.320   1.850  -0.268  1.00  0.00     0.267 C 
ATOM     31  H12 UNL     1       8.596  -0.058  -0.979  1.00  0.00     0.276 HD
ATOM     32  H11 UNL     1       7.529  -0.002   0.140  1.00  0.00     0.276 HD
ENDBRANCH  28  29
ENDBRANCH  27  28
ENDBRANCH  24  27
ENDBRANCH  20  21
ENDBRANCH  19  20
ENDBRANCH   1  19
BRANCH  16  33
HETATM   33  S1  UNL     1      -5.771   1.708  -1.485  1.00  0.00     0.337 S 
HETATM   34  O1  UNL     1      -6.147   1.120  -2.843  1.00  0.00    -0.196 OA
HETATM   35  O2  UNL     1      -5.465   3.191  -1.696  1.00  0.00    -0.196 OA
BRANCH  33  36
HETATM   36  C19 UNL     1      -7.240   1.649  -0.523  1.00  0.00     0.517 C 
HETATM   37  F2  UNL     1      -7.746   0.392  -0.342  1.00  0.00    -0.155 F 
HETATM   38  F3  UNL     1      -7.099   2.222   0.722  1.00  0.00    -0.155 F 
HETATM   39  F4  UNL     1      -8.259   2.388  -1.141  1.00  0.00    -0.155 F 
ENDBRANCH  33  36
ENDBRANCH  16  33
TORSDOF 8
