REMARK  9 active torsions:
REMARK  status: ('A' for Active; 'I' for Inactive)
REMARK    1  A    between atoms: C2_2  and  C3_3 
REMARK    2  A    between atoms: C3_3  and  C4_4 
REMARK       I    between atoms: N2_11  and  C8_12 
REMARK    3  A    between atoms: C8_12  and  C9_14 
REMARK    4  A    between atoms: C9_14  and  N3_15 
REMARK    5  A    between atoms: C16_23  and  C17_24 
REMARK    6  A    between atoms: C17_24  and  N4_25 
REMARK    7  A    between atoms: C17_24  and  C22_32 
REMARK    8  A    between atoms: N4_25  and  C18_27 
REMARK    9  A    between atoms: C18_27  and  C19_29 
ROOT
HETATM    1  C4  UNL     1      -1.464   3.101  -0.424  1.00  0.00     0.278 C 
HETATM    2  N1  UNL     1      -1.059   1.891   0.201  1.00  0.00    -0.051 N 
ATOM      3  H11 UNL     1      -1.817   1.488   0.752  1.00  0.00     0.279 HD
ATOM      4  H12 UNL     1      -0.391   2.069   0.951  1.00  0.00     0.279 HD
HETATM    5  C5  UNL     1      -0.527   0.915  -0.768  1.00  0.00     0.152 C 
HETATM    6  C6  UNL     1       0.513   1.663  -1.573  1.00  0.00     0.061 C 
HETATM    7  C7  UNL     1       1.486   0.749  -2.297  1.00  0.00     0.128 C 
HETATM    8  N2  UNL     1       1.983  -0.287  -1.445  1.00  0.00    -0.350 N 
HETATM    9  C8  UNL     1       3.358  -0.515  -1.299  1.00  0.00     0.248 C 
HETATM   10  O1  UNL     1       4.239   0.180  -1.912  1.00  0.00    -0.271 OA
HETATM   11  C14 UNL     1       1.029  -1.085  -0.736  1.00  0.00     0.128 C 
HETATM   12  C15 UNL     1       0.192  -0.091   0.060  1.00  0.00     0.061 C 
HETATM   13  C16 UNL     1      -1.614   0.468  -1.650  1.00  0.00     0.152 C 
HETATM   14  N5  UNL     1      -2.046   1.673  -2.388  1.00  0.00    -0.350 N 
ATOM     15  H5  UNL     1      -2.154   1.672  -3.402  1.00  0.00     0.163 HD
HETATM   16  C23 UNL     1      -2.303   2.832  -1.609  1.00  0.00     0.249 C 
HETATM   17  O2  UNL     1      -3.220   3.636  -1.897  1.00  0.00    -0.271 OA
ENDROOT
BRANCH  13  18
HETATM   18  C17 UNL     1      -2.879  -0.017  -0.961  1.00  0.00     0.215 C 
BRANCH  18  19
HETATM   19  N4  UNL     1      -2.697  -1.155  -0.106  1.00  0.00    -0.369 N 
ATOM     20  H4  UNL     1      -1.949  -1.813  -0.326  1.00  0.00     0.161 HD
BRANCH  19  21
HETATM   21  C18 UNL     1      -3.506  -1.408   1.029  1.00  0.00     0.077 C 
HETATM   22  S1  UNL     1      -4.675  -0.371   1.509  1.00  0.00    -0.065 SA
BRANCH  21  23
HETATM   23  C19 UNL     1      -3.311  -2.614   1.878  1.00  0.00     0.039 C 
HETATM   24  C20 UNL     1      -1.937  -2.686   2.493  1.00  0.00     0.017 C 
HETATM   25  C21 UNL     1      -3.543  -3.889   1.090  1.00  0.00     0.017 C 
ENDBRANCH  21  23
ENDBRANCH  19  21
ENDBRANCH  18  19
BRANCH  18  26
HETATM   26  C22 UNL     1      -3.851  -0.489  -2.035  1.00  0.00     0.409 C 
HETATM   27  F2  UNL     1      -4.223   0.452  -2.928  1.00  0.00    -0.169 F 
HETATM   28  F3  UNL     1      -4.960  -1.013  -1.441  1.00  0.00    -0.169 F 
HETATM   29  F4  UNL     1      -3.227  -1.578  -2.678  1.00  0.00    -0.169 F 
ENDBRANCH  18  26
ENDBRANCH  13  18
BRANCH   1  30
HETATM   30  C3  UNL     1      -2.111   4.027   0.555  1.00  0.00     0.042 C 
BRANCH  30  31
HETATM   31  C2  UNL     1      -3.336   3.495   1.223  1.00  0.00    -0.002 C 
HETATM   32  C1  UNL     1      -3.834   4.584   2.170  1.00  0.00     0.005 C 
ENDBRANCH  30  31
ENDBRANCH   1  30
BRANCH   9  33
HETATM   33  C9  UNL     1       3.898  -1.594  -0.410  1.00  0.00     0.374 C 
BRANCH  33  34
HETATM   34  N3  UNL     1       5.332  -1.642  -0.414  1.00  0.00     0.100 N 
HETATM   35  C10 UNL     1       5.922  -0.483   0.223  1.00  0.00     0.276 C 
HETATM   36  C11 UNL     1       6.997  -0.948   1.148  1.00  0.00     0.069 C 
HETATM   37  C12 UNL     1       7.063  -2.450   0.981  1.00  0.00     0.200 C 
HETATM   38  F1  UNL     1       7.158  -3.023   2.256  1.00  0.00    -0.248 F 
HETATM   39  C13 UNL     1       5.737  -2.786   0.382  1.00  0.00     0.310 C 
ENDBRANCH  33  34
ENDBRANCH   9  33
TORSDOF 9
