REMARK  7 active torsions:
REMARK  status: ('A' for Active; 'I' for Inactive)
REMARK    1  A    between atoms: C4_5  and  C5_7 
REMARK    2  A    between atoms: C5_7  and  N2_8 
REMARK       I    between atoms: N2_8  and  C6_10 
REMARK    3  A    between atoms: C6_10  and  C7_12 
REMARK    4  A    between atoms: N3_15  and  C10_16 
REMARK    5  A    between atoms: C10_16  and  C11_17 
REMARK    6  A    between atoms: N4_19  and  C13_20 
REMARK    7  A    between atoms: C16_26  and  C17_27 
ROOT
HETATM    1  C7  UNL     1       1.290  -0.207  -1.519  1.00  0.00     0.081 C 
HETATM    2  C8  UNL     1       1.090  -0.810  -0.167  1.00  0.00     0.033 C 
HETATM    3  C9  UNL     1      -0.402  -0.779   0.179  1.00  0.00     0.118 C 
HETATM    4  N3  UNL     1      -1.125  -0.568  -1.031  1.00  0.00    -0.407 N 
HETATM    5  C19 UNL     1      -1.019   0.751  -1.560  1.00  0.00     0.118 C 
HETATM    6  C20 UNL     1       0.471   1.022  -1.763  1.00  0.00     0.033 C 
ENDROOT
BRANCH   4   7
HETATM    7  C10 UNL     1      -2.387  -1.204  -1.142  1.00  0.00     0.177 C 
BRANCH   7   8
HETATM    8  C11 UNL     1      -3.381  -0.812  -0.108  1.00  0.00     0.061 A 
HETATM    9  C12 UNL     1      -4.373   0.140  -0.175  1.00  0.00     0.141 A 
HETATM   10  N4  UNL     1      -5.046   0.165   0.988  1.00  0.00    -0.272 N 
HETATM   11  N6  UNL     1      -4.484  -0.749   1.755  1.00  0.00    -0.240 N 
HETATM   12  N7  UNL     1      -3.487  -1.345   1.123  1.00  0.00    -0.287 N 
ATOM     13  H6  UNL     1      -4.779  -0.967   2.707  1.00  0.00     0.208 HD
ATOM     14  H7  UNL     1      -2.897  -2.085   1.505  1.00  0.00     0.188 HD
BRANCH  10  15
HETATM   15  C13 UNL     1      -6.175   1.041   1.297  1.00  0.00     0.184 C 
HETATM   16  S1  UNL     1      -6.113   2.470   0.149  1.00  0.00    -0.097 SA
HETATM   17  C14 UNL     1      -7.448   2.630  -0.780  1.00  0.00     0.131 C 
HETATM   18  N5  UNL     1      -8.456   1.656  -0.572  1.00  0.00    -0.393 N 
HETATM   19  C15 UNL     1      -8.096   0.341  -0.150  1.00  0.00     0.131 C 
ATOM     20  H5  UNL     1      -9.436   1.894  -0.723  1.00  0.00     0.159 HD
HETATM   21  C16 UNL     1      -7.484   0.288   1.220  1.00  0.00     0.061 C 
BRANCH  21  22
HETATM   22  C17 UNL     1      -7.288  -1.137   1.590  1.00  0.00    -0.010 C 
HETATM   23  C18 UNL     1      -7.595  -2.173   0.828  1.00  0.00     0.052 C 
HETATM   24 BR1  UNL     1      -7.315  -3.976   1.373  1.00  0.00    -0.064 Br
ENDBRANCH  21  22
ENDBRANCH  10  15
ENDBRANCH   7   8
ENDBRANCH   4   7
BRANCH   1  25
HETATM   25  C6  UNL     1       2.745   0.169  -1.636  1.00  0.00     0.222 C 
HETATM   26  N2  UNL     1       3.708  -0.824  -1.531  1.00  0.00    -0.358 N 
ATOM     27  H2  UNL     1       3.370  -1.776  -1.389  1.00  0.00     0.162 HD
HETATM   28  O1  UNL     1       2.992   1.366  -1.822  1.00  0.00    -0.273 OA
BRANCH  26  29
HETATM   29  C5  UNL     1       5.116  -0.653  -1.601  1.00  0.00     0.166 C 
BRANCH  29  30
HETATM   30  C4  UNL     1       5.674   0.151  -0.478  1.00  0.00     0.122 C 
HETATM   31  C3  UNL     1       7.210   0.244  -0.651  1.00  0.00     0.075 C 
HETATM   32  C2  UNL     1       7.753   1.084   0.470  1.00  0.00     0.275 C 
HETATM   33  N1  UNL     1       7.378   0.533   1.775  1.00  0.00     0.084 N 
HETATM   34  C1  UNL     1       8.620   0.240   2.504  1.00  0.00     0.309 C 
HETATM   35  C22 UNL     1       6.699  -0.739   1.613  1.00  0.00     0.275 C 
HETATM   36  C21 UNL     1       5.437  -0.624   0.809  1.00  0.00     0.075 C 
HETATM   37  F1  UNL     1       5.251   1.429  -0.406  1.00  0.00    -0.241 F 
ENDBRANCH  29  30
ENDBRANCH  26  29
ENDBRANCH   1  25
TORSDOF 7
