REMARK  9 active torsions:
REMARK  status: ('A' for Active; 'I' for Inactive)
REMARK    1  A    between atoms: C5_5  and  C6_6 
REMARK    2  A    between atoms: C6_6  and  O1_7 
REMARK    3  A    between atoms: C6_6  and  N1_9 
REMARK    4  A    between atoms: N1_9  and  C7_11 
REMARK    5  A    between atoms: C7_11  and  C8_12 
REMARK    6  A    between atoms: C7_11  and  C15_21 
REMARK    7  A    between atoms: C8_12  and  C9_13 
REMARK    8  A    between atoms: C15_21  and  O2_22 
REMARK    9  A    between atoms: C15_21  and  C16_24 
ROOT
HETATM    1  C7  UNL     1      -0.797  -0.241  -0.462  1.00  0.00     0.114 C 
ENDROOT
BRANCH   1   2
HETATM    2  N1  UNL     1       0.360  -0.585  -1.130  1.00  0.00    -0.389 N 
ATOM      3  H1  UNL     1       0.318  -0.509  -2.146  1.00  0.00     0.156 HD
BRANCH   2   4
HETATM    4  C6  UNL     1       1.556  -1.014  -0.622  1.00  0.00     0.218 C 
BRANCH   4   5
HETATM    5  C5  UNL     1       2.402  -0.124   0.218  1.00  0.00     0.037 C 
HETATM    6  C2  UNL     1       3.632  -0.856   0.802  1.00  0.00    -0.010 C 
HETATM    7  C1  UNL     1       3.550  -1.086   2.299  1.00  0.00     0.010 C 
HETATM    8  C3  UNL     1       4.452   0.334   0.399  1.00  0.00     0.005 C 
HETATM    9  C4  UNL     1       3.399   0.665  -0.624  1.00  0.00     0.010 C 
ENDBRANCH   4   5
BRANCH   4  10
HETATM   10  O1  UNL     1       2.434  -1.439  -1.678  1.00  0.00    -0.377 OA
ATOM     11  H1  UNL     1       1.894  -2.007  -2.214  1.00  0.00     0.212 HD
ENDBRANCH   4  10
ENDBRANCH   2   4
ENDBRANCH   1   2
BRANCH   1  12
HETATM   12  C8  UNL     1      -0.977   0.967   0.358  1.00  0.00     0.066 C 
BRANCH  12  13
HETATM   13  C9  UNL     1      -0.836   2.270  -0.351  1.00  0.00    -0.050 A 
HETATM   14  C10 UNL     1       0.312   2.991  -0.297  1.00  0.00     0.049 A 
HETATM   15  C11 UNL     1       0.440   4.212  -0.973  1.00  0.00     0.119 A 
HETATM   16  F1  UNL     1       1.591   4.927  -0.914  1.00  0.00    -0.206 F 
HETATM   17  C12 UNL     1      -0.625   4.678  -1.702  1.00  0.00     0.084 A 
HETATM   18  C13 UNL     1      -1.813   3.937  -1.761  1.00  0.00     0.119 A 
HETATM   19  F2  UNL     1      -2.829   4.464  -2.505  1.00  0.00    -0.206 F 
HETATM   20  C14 UNL     1      -1.922   2.754  -1.100  1.00  0.00     0.049 A 
ENDBRANCH  12  13
ENDBRANCH   1  12
BRANCH   1  21
HETATM   21  C15 UNL     1      -1.334  -1.434   0.363  1.00  0.00     0.170 C 
BRANCH  21  22
HETATM   22  O2  UNL     1      -1.594  -2.506  -0.530  1.00  0.00    -0.391 OA
ATOM     23  H2  UNL     1      -1.924  -3.239  -0.023  1.00  0.00     0.210 HD
ENDBRANCH  21  22
BRANCH  21  24
HETATM   24  C16 UNL     1      -2.596  -1.150   1.071  1.00  0.00     0.165 C 
HETATM   25  C17 UNL     1      -3.193  -2.449   1.643  1.00  0.00     0.079 C 
HETATM   26  C18 UNL     1      -4.247  -2.860   0.657  1.00  0.00     0.165 C 
HETATM   27 BR1  UNL     1      -6.039  -2.463   1.334  1.00  0.00    -0.062 Br
HETATM   28 BR2  UNL     1      -4.094  -4.702   0.127  1.00  0.00    -0.062 Br
HETATM   29  C19 UNL     1      -4.050  -1.920  -0.497  1.00  0.00     0.290 C 
HETATM   30  O3  UNL     1      -4.262  -2.157  -1.733  1.00  0.00    -0.262 OA
HETATM   31  O4  UNL     1      -3.592  -0.762   0.111  1.00  0.00    -0.311 OA
ENDBRANCH  21  24
ENDBRANCH   1  21
TORSDOF 9
