REMARK  2 active torsions:
REMARK  status: ('A' for Active; 'I' for Inactive)
REMARK    1  A    between atoms: C2_2  and  C4_4 
REMARK    2  A    between atoms: C9_9  and  N1_10 
ROOT
HETATM    1  C4  UNL     1       1.274   0.773  -0.447  1.00  0.00     0.051 C 
HETATM    2  C5  UNL     1       0.500  -0.086  -1.389  1.00  0.00     0.016 C 
HETATM    3  C6  UNL     1      -0.536  -0.951  -0.712  1.00  0.00     0.013 C 
HETATM    4  C7  UNL     1      -1.779  -0.191  -0.334  1.00  0.00    -0.000 A 
HETATM    5  C8  UNL     1      -2.877  -0.223  -1.356  1.00  0.00     0.018 C 
HETATM    6  C9  UNL     1      -2.218  -0.215   1.085  1.00  0.00     0.207 A 
HETATM    7  C10 UNL     1      -1.504   0.973   0.511  1.00  0.00     0.089 A 
HETATM    8  S1  UNL     1       0.256   1.093   1.008  1.00  0.00    -0.156 SA
ENDROOT
BRANCH   6   9
HETATM    9  N1  UNL     1      -3.590  -0.060   1.459  1.00  0.00    -0.073 N 
ATOM     10  H13 UNL     1      -3.929   0.808   1.044  1.00  0.00     0.274 HD
ATOM     11  H12 UNL     1      -4.130  -0.763   0.955  1.00  0.00     0.274 HD
ATOM     12  H11 UNL     1      -3.891  -0.076   2.433  1.00  0.00     0.274 HD
ENDBRANCH   6   9
BRANCH   1  13
HETATM   13  C2  UNL     1       2.623   0.189  -0.095  1.00  0.00    -0.009 C 
HETATM   14  C1  UNL     1       2.491  -1.167   0.567  1.00  0.00     0.011 C 
HETATM   15  C3  UNL     1       3.362   1.080   0.862  1.00  0.00     0.011 C 
ENDBRANCH   1  13
TORSDOF 2
