REMARK  4 active torsions:
REMARK  status: ('A' for Active; 'I' for Inactive)
REMARK    1  A    between atoms: N1_1  and  C1_4 
REMARK    2  A    between atoms: C3_13  and  N6_14 
REMARK    3  A    between atoms: N6_14  and  C4_15 
REMARK    4  A    between atoms: C4_15  and  C5_16 
ROOT
HETATM    1  C1  UNL     1       2.754   0.340  -1.252  1.00  0.00     0.162 A 
HETATM    2  N2  UNL     1       4.042   0.757  -1.093  1.00  0.00    -0.312 N 
ATOM      3  H2  UNL     1       4.450   1.384  -1.787  1.00  0.00     0.170 HD
HETATM    4  C2  UNL     1       4.785   0.367  -0.054  1.00  0.00     0.208 A 
HETATM    5  N3  UNL     1       6.104   0.844   0.151  1.00  0.00    -0.062 NA
HETATM    6  N4  UNL     1       4.229  -0.460   0.842  1.00  0.00    -0.271 N 
ATOM      7  H4  UNL     1       4.789  -0.767   1.637  1.00  0.00     0.189 HD
HETATM    8  N5  UNL     1       3.000  -0.889   0.739  1.00  0.00    -0.269 N 
ATOM      9  H5  UNL     1       2.628  -1.514   1.454  1.00  0.00     0.190 HD
HETATM   10  C3  UNL     1       2.186  -0.511  -0.327  1.00  0.00     0.232 A 
ENDROOT
BRANCH  10  11
HETATM   11  N6  UNL     1       1.072  -0.854  -0.419  1.00  0.00    -0.422 NA
BRANCH  11  12
HETATM   12  C4  UNL     1      -0.154  -1.374  -0.310  1.00  0.00     0.260 C 
BRANCH  12  13
HETATM   13  C5  UNL     1      -1.123  -0.553   0.544  1.00  0.00    -0.017 A 
HETATM   14  C6  UNL     1      -0.882  -0.197   1.833  1.00  0.00     0.011 A 
HETATM   15  C7  UNL     1      -1.903   0.418   2.555  1.00  0.00     0.002 A 
HETATM   16  C8  UNL     1      -3.093   0.726   2.084  1.00  0.00     0.012 A 
HETATM   17  C9  UNL     1      -3.301   0.349   0.752  1.00  0.00    -0.025 A 
HETATM   18  C10 UNL     1      -4.501   0.750   0.129  1.00  0.00     0.012 A 
HETATM   19  C14 UNL     1      -2.424  -0.276  -0.033  1.00  0.00    -0.017 A 
HETATM   20  C11 UNL     1      -4.726   0.488  -1.190  1.00  0.00     0.001 A 
HETATM   21  C12 UNL     1      -3.807  -0.184  -2.001  1.00  0.00     0.001 A 
HETATM   22  C13 UNL     1      -2.661  -0.536  -1.348  1.00  0.00     0.013 A 
ENDBRANCH  12  13
ENDBRANCH  11  12
ENDBRANCH  10  11
BRANCH   1  23
HETATM   23  N1  UNL     1       2.099   0.730  -2.391  1.00  0.00    -0.381 N 
ATOM     24  H12 UNL     1       2.519   1.359  -3.075  1.00  0.00     0.157 HD
ATOM     25  H11 UNL     1       1.135   0.418  -2.510  1.00  0.00     0.157 HD
ENDBRANCH   1  23
TORSDOF 4
