REMARK  7 active torsions:
REMARK  status: ('A' for Active; 'I' for Inactive)
REMARK    1  A    between atoms: C2_2  and  C3_3 
REMARK    2  A    between atoms: C3_3  and  N1_4 
REMARK       I    between atoms: N1_4  and  C4_6 
REMARK    3  A    between atoms: C4_6  and  C5_8 
REMARK    4  A    between atoms: C5_8  and  C6_9 
REMARK    5  A    between atoms: C6_9  and  C7_10 
REMARK       I    between atoms: N2_17  and  C14_18 
REMARK       I    between atoms: C14_18  and  N4_29 
REMARK       I    between atoms: N3_19  and  C15_21 
REMARK    6  A    between atoms: C15_21  and  C16_23 
REMARK    7  A    between atoms: N4_29  and  C22_31 
ROOT
HETATM    1  C5  UNL     1      -1.668  -0.699  -0.299  1.00  0.00     0.130 C 
HETATM    2  C10 UNL     1      -2.487  -1.312  -1.438  1.00  0.00     0.042 C 
HETATM    3  C11 UNL     1      -2.039  -2.684  -1.797  1.00  0.00     0.004 C 
HETATM    4  C12 UNL     1      -0.571  -2.852  -1.953  1.00  0.00     0.020 C 
HETATM    5  C13 UNL     1       0.300  -2.007  -1.108  1.00  0.00     0.143 C 
HETATM    6  N2  UNL     1      -0.288  -0.719  -0.859  1.00  0.00    -0.200 N 
HETATM    7  C14 UNL     1       0.487   0.409  -1.178  1.00  0.00     0.680 C 
HETATM    8  N3  UNL     1       1.428   0.915  -0.461  1.00  0.00    -0.160 N 
ATOM      9  H3  UNL     1       1.881   1.739  -0.856  1.00  0.00     0.187 HD
HETATM   10  C15 UNL     1       1.916   0.503   0.771  1.00  0.00     0.240 C 
HETATM   11  O2  UNL     1       1.392   0.789   1.882  1.00  0.00    -0.272 OA
HETATM   12  N4  UNL     1       0.257   1.061  -2.432  1.00  0.00    -0.222 N 
ATOM     13  H4  UNL     1      -0.689   1.047  -2.814  1.00  0.00     0.178 HD
ENDROOT
BRANCH   1  14
HETATM   14  C4  UNL     1      -2.124   0.668  -0.193  1.00  0.00     0.246 C 
HETATM   15  N1  UNL     1      -3.515   1.019  -0.210  1.00  0.00    -0.359 N 
ATOM     16  H1  UNL     1      -4.195   0.260  -0.248  1.00  0.00     0.162 HD
HETATM   17  O1  UNL     1      -1.379   1.706  -0.090  1.00  0.00    -0.271 OA
BRANCH  15  18
HETATM   18  C3  UNL     1      -4.011   2.350  -0.178  1.00  0.00     0.122 C 
BRANCH  18  19
HETATM   19  C2  UNL     1      -3.689   3.250   0.942  1.00  0.00     0.015 C 
HETATM   20  C1  UNL     1      -4.171   2.862   2.302  1.00  0.00     0.006 C 
ENDBRANCH  18  19
ENDBRANCH  15  18
ENDBRANCH   1  14
BRANCH   1  21
HETATM   21  C6  UNL     1      -1.617  -1.498   0.900  1.00  0.00     0.045 C 
BRANCH  21  22
HETATM   22  C7  UNL     1      -2.717  -1.863   1.779  1.00  0.00    -0.020 C 
HETATM   23  C8  UNL     1      -2.133  -2.786   2.906  1.00  0.00     0.009 C 
HETATM   24  C9  UNL     1      -3.350  -0.754   2.569  1.00  0.00     0.009 C 
ENDBRANCH  21  22
ENDBRANCH   1  21
BRANCH  12  25
HETATM   25  C22 UNL     1       1.272   1.729  -3.178  1.00  0.00     0.091 C 
HETATM   26  C23 UNL     1       2.409   0.828  -3.586  1.00  0.00     0.032 C 
HETATM   27  C24 UNL     1       0.706   2.366  -4.421  1.00  0.00     0.032 C 
ENDBRANCH  12  25
BRANCH  10  28
HETATM   28  C16 UNL     1       3.159  -0.343   0.797  1.00  0.00     0.079 C 
HETATM   29  C17 UNL     1       4.313   0.435   0.151  1.00  0.00     0.014 C 
HETATM   30  C18 UNL     1       5.163   1.086   1.221  1.00  0.00     0.001 C 
HETATM   31  C19 UNL     1       5.908   0.040   2.003  1.00  0.00     0.000 C 
HETATM   32  C20 UNL     1       4.981  -1.119   2.266  1.00  0.00     0.001 C 
HETATM   33  C21 UNL     1       3.528  -0.718   2.196  1.00  0.00     0.014 C 
ENDBRANCH  10  28
TORSDOF 7
