REMARK  1 active torsions:
REMARK  status: ('A' for Active; 'I' for Inactive)
REMARK    1  A    between atoms: C2_2  and  C3_4 
ROOT
HETATM    1  C3  UNL     1       0.424  -0.304   0.103  1.00  0.00     0.084 C 
HETATM    2  C4  UNL     1      -0.467  -1.082   1.068  1.00  0.00     0.014 C 
HETATM    3  C5  UNL     1      -1.843  -1.208   0.404  1.00  0.00     0.001 C 
HETATM    4  C6  UNL     1      -2.064  -0.043  -0.549  1.00  0.00     0.002 C 
HETATM    5  C7  UNL     1      -1.460   1.226  -0.034  1.00  0.00     0.032 C 
HETATM    6  C8  UNL     1       0.044   1.109   0.170  1.00  0.00     0.090 C 
HETATM    7  C9  UNL     1       0.809   2.155  -0.558  1.00  0.00     0.226 C 
HETATM    8  O2  UNL     1       0.237   2.998   0.432  1.00  0.00    -0.283 OA
HETATM    9  N1  UNL     1       0.430   1.922   1.274  1.00  0.00    -0.087 NA
ENDROOT
BRANCH   1  10
HETATM   10  C2  UNL     1       1.822  -0.677   0.199  1.00  0.00     0.129 C 
HETATM   11  C1  UNL     1       2.237  -2.075  -0.083  1.00  0.00     0.091 C 
HETATM   12  O1  UNL     1       2.680   0.108   0.502  1.00  0.00    -0.298 OA
ENDBRANCH   1  10
TORSDOF 1
