REMARK  15 active torsions:
REMARK  status: ('A' for Active; 'I' for Inactive)
REMARK    1  A    between atoms: N1_2  and  C3_4 
REMARK    2  A    between atoms: N2_7  and  N3_8 
REMARK       I    between atoms: N3_8  and  C6_10 
REMARK    3  A    between atoms: C6_10  and  C7_12 
REMARK    4  A    between atoms: C10_17  and  N5_18 
REMARK    5  A    between atoms: C11_23  and  N7_24 
REMARK    6  A    between atoms: C13_30  and  C14_31 
REMARK    7  A    between atoms: C14_31  and  C15_32 
REMARK    8  A    between atoms: C15_32  and  C16_33 
REMARK    9  A    between atoms: C16_33  and  C17_34 
REMARK   10  A    between atoms: C17_34  and  C18_35 
REMARK   11  A    between atoms: C18_35  and  C19_36 
REMARK   12  A    between atoms: C19_36  and  C20_37 
REMARK   13  A    between atoms: C20_37  and  C21_38 
REMARK   14  A    between atoms: C21_38  and  C22_39 
REMARK   15  A    between atoms: C26_46  and  N11_47 
ROOT
HETATM    1  C22 UNL     1       6.488   0.197  -0.997  1.00  0.00     0.029 A 
HETATM    2  C23 UNL     1       6.663  -0.844  -0.135  1.00  0.00     0.067 A 
HETATM    3  C24 UNL     1       7.933  -1.178   0.281  1.00  0.00     0.131 A 
HETATM    4  C25 UNL     1       8.065  -2.276   1.197  1.00  0.00     0.118 C 
HETATM    5  N9  UNL     1       8.173  -3.178   1.924  1.00  0.00    -0.190 NA
HETATM    6  N10 UNL     1       9.005  -0.499  -0.147  1.00  0.00    -0.182 N 
ATOM      7  H10 UNL     1       9.939  -0.758   0.169  1.00  0.00     0.185 HD
HETATM    8  C26 UNL     1       8.838   0.522  -0.993  1.00  0.00     0.677 A 
HETATM    9  N12 UNL     1       7.616   0.847  -1.395  1.00  0.00    -0.196 N 
ATOM     10  H12 UNL     1       7.516   1.630  -2.041  1.00  0.00     0.184 HD
ENDROOT
BRANCH   1  11
HETATM   11  C21 UNL     1       5.193   0.647  -1.541  1.00  0.00     0.057 C 
BRANCH  11  12
HETATM   12  C20 UNL     1       4.497   1.656  -0.667  1.00  0.00     0.006 C 
BRANCH  12  13
HETATM   13  C19 UNL     1       4.125   1.101   0.699  1.00  0.00     0.000 C 
BRANCH  13  14
HETATM   14  C18 UNL     1       3.493   2.138   1.554  1.00  0.00     0.000 C 
BRANCH  14  15
HETATM   15  C17 UNL     1       2.280   2.799   1.094  1.00  0.00     0.000 C 
BRANCH  15  16
HETATM   16  C16 UNL     1       0.978   2.161   0.952  1.00  0.00     0.000 C 
BRANCH  16  17
HETATM   17  C15 UNL     1       0.878   0.984   0.068  1.00  0.00     0.002 C 
BRANCH  17  18
HETATM   18  C14 UNL     1      -0.610   0.553  -0.052  1.00  0.00     0.029 C 
BRANCH  18  19
HETATM   19  C13 UNL     1      -0.675  -0.648  -0.902  1.00  0.00     0.135 C 
HETATM   20  C3  UNL     1       0.030  -1.859  -0.430  1.00  0.00     0.247 C 
HETATM   21  C4  UNL     1      -0.287  -2.748  -1.665  1.00  0.00     0.059 C 
HETATM   22  C5  UNL     1      -1.789  -2.401  -1.798  1.00  0.00     0.145 C 
HETATM   23  N2  UNL     1      -1.925  -1.081  -1.332  1.00  0.00    -0.318 N 
BRANCH  20  24
HETATM   24  N1  UNL     1      -0.624  -2.577   0.632  1.00  0.00     0.086 N 
HETATM   25  C1  UNL     1      -0.024  -3.875   0.773  1.00  0.00     0.310 C 
HETATM   26  C2  UNL     1      -0.755  -1.952   1.880  1.00  0.00     0.310 C 
ENDBRANCH  20  24
BRANCH  23  27
HETATM   27  N3  UNL     1      -3.061  -0.656  -0.769  1.00  0.00    -0.266 N 
HETATM   28  C6  UNL     1      -4.225  -0.395  -1.562  1.00  0.00     0.286 C 
HETATM   29  O1  UNL     1      -4.187  -0.576  -2.810  1.00  0.00    -0.264 OA
ATOM     30  H3  UNL     1      -3.099  -0.516   0.241  1.00  0.00     0.190 HD
BRANCH  28  31
HETATM   31  C7  UNL     1      -5.463   0.085  -0.967  1.00  0.00     0.105 A 
HETATM   32  C8  UNL     1      -5.727   0.292   0.379  1.00  0.00     0.068 A 
HETATM   33  C9  UNL     1      -7.002   0.788   0.505  1.00  0.00     0.082 A 
HETATM   34  N4  UNL     1      -7.761   1.175   1.555  1.00  0.00    -0.190 N 
HETATM   35  C12 UNL     1      -7.529   0.888  -0.764  1.00  0.00     0.105 A 
HETATM   36  C10 UNL     1      -9.005   1.647   1.373  1.00  0.00     0.678 A 
ATOM     37  H4  UNL     1      -7.383   1.107   2.500  1.00  0.00     0.184 HD
HETATM   38  N6  UNL     1      -9.514   1.744   0.152  1.00  0.00    -0.175 N 
HETATM   39  C11 UNL     1      -8.803   1.374  -0.923  1.00  0.00     0.144 A 
ATOM     40  H6  UNL     1     -10.460   2.105   0.029  1.00  0.00     0.186 HD
HETATM   41  N8  UNL     1      -6.570   0.454  -1.622  1.00  0.00    -0.347 N 
ATOM     42  H8  UNL     1      -6.679   0.414  -2.635  1.00  0.00     0.166 HD
BRANCH  36  43
HETATM   43  N5  UNL     1      -9.680   2.008   2.430  1.00  0.00    -0.234 N 
ATOM     44  H52 UNL     1      -9.289   1.933   3.369  1.00  0.00     0.174 HD
ATOM     45  H51 UNL     1     -10.625   2.367   2.292  1.00  0.00     0.174 HD
ENDBRANCH  36  43
BRANCH  39  46
HETATM   46  N7  UNL     1      -9.319   1.473  -2.102  1.00  0.00    -0.383 N 
ATOM     47  H72 UNL     1     -10.266   1.834  -2.220  1.00  0.00     0.157 HD
ATOM     48  H71 UNL     1      -8.778   1.192  -2.920  1.00  0.00     0.157 HD
ENDBRANCH  39  46
ENDBRANCH  28  31
ENDBRANCH  23  27
ENDBRANCH  18  19
ENDBRANCH  17  18
ENDBRANCH  16  17
ENDBRANCH  15  16
ENDBRANCH  14  15
ENDBRANCH  13  14
ENDBRANCH  12  13
ENDBRANCH  11  12
ENDBRANCH   1  11
BRANCH   8  49
HETATM   49  N11 UNL     1       9.890   1.162  -1.396  1.00  0.00    -0.234 N 
ATOM     50 2H11 UNL     1      10.829   0.912  -1.087  1.00  0.00     0.174 HD
ATOM     51 1H11 UNL     1       9.763   1.941  -2.042  1.00  0.00     0.174 HD
ENDBRANCH   8  49
TORSDOF 15
