REMARK  1 active torsions:
REMARK  status: ('A' for Active; 'I' for Inactive)
REMARK    1  A    between atoms: C3_3  and  N1_4 
ROOT
HETATM    1  N1  UNL     1       2.396   0.390   0.171  1.00  0.00     0.093 N 
HETATM    2  C4  UNL     1       1.586   1.254  -0.620  1.00  0.00     0.276 C 
HETATM    3  C5  UNL     1       0.377   0.493  -1.054  1.00  0.00     0.070 C 
HETATM    4  C6  UNL     1      -0.289  -0.334  -0.015  1.00  0.00     0.089 C 
HETATM    5  C7  UNL     1       0.569  -0.756   1.128  1.00  0.00     0.070 C 
HETATM    6  C8  UNL     1       1.741   0.155   1.406  1.00  0.00     0.276 C 
HETATM    7  C9  UNL     1      -0.731  -1.637  -0.703  1.00  0.00     0.270 C 
HETATM    8  N2  UNL     1      -1.620  -1.361  -1.787  1.00  0.00    -0.070 N 
ATOM      9  H21 UNL     1      -2.099  -2.210  -2.087  1.00  0.00     0.277 HD
ATOM     10  H22 UNL     1      -1.098  -1.152  -2.638  1.00  0.00     0.277 HD
HETATM   11  C10 UNL     1      -2.569  -0.313  -1.498  1.00  0.00     0.270 C 
HETATM   12  C11 UNL     1      -2.578   0.114  -0.072  1.00  0.00     0.086 C 
HETATM   13  C12 UNL     1      -3.374   1.425  -0.002  1.00  0.00     0.040 C 
HETATM   14  C13 UNL     1      -4.807   1.051   0.168  1.00  0.00     0.003 C 
HETATM   15  C14 UNL     1      -4.906  -0.424   0.348  1.00  0.00     0.003 C 
HETATM   16  C15 UNL     1      -3.471  -0.815   0.704  1.00  0.00     0.040 C 
HETATM   17  O1  UNL     1      -1.370   0.353   0.493  1.00  0.00    -0.366 OA
ENDROOT
BRANCH   1  18
HETATM   18  C3  UNL     1       3.770   0.695   0.187  1.00  0.00     0.223 C 
HETATM   19  C2  UNL     1       4.632  -0.025   1.184  1.00  0.00     0.036 C 
HETATM   20  C1  UNL     1       5.665  -0.202   0.070  1.00  0.00     0.004 C 
HETATM   21  C16 UNL     1       4.471  -0.151  -0.890  1.00  0.00     0.036 C 
ENDBRANCH   1  18
TORSDOF 1
