REMARK  2 active torsions:
REMARK  status: ('A' for Active; 'I' for Inactive)
REMARK       I    between atoms: C1_2  and  N2_4 
REMARK    1  A    between atoms: N2_4  and  C2_6 
REMARK    2  A    between atoms: N6_11  and  O2_12 
ROOT
HETATM    1  C2  UNL     1      -0.277  -0.574  -0.218  1.00  0.00     0.738 A 
HETATM    2  N3  UNL     1      -0.491   0.740  -0.013  1.00  0.00    -0.114 N 
ATOM      3  H3  UNL     1       0.207   1.481  -0.082  1.00  0.00     0.203 HD
HETATM    4  N4  UNL     1      -1.772   0.899   0.294  1.00  0.00     0.009 NA
HETATM    5  N5  UNL     1      -2.393  -0.272   0.293  1.00  0.00     0.037 NA
HETATM    6  N6  UNL     1      -1.468  -1.169  -0.022  1.00  0.00     0.031 N 
ENDROOT
BRANCH   1   7
HETATM    7  N2  UNL     1       0.844  -1.169  -0.541  1.00  0.00    -0.139 N 
HETATM    8  C1  UNL     1       2.011  -0.375  -0.708  1.00  0.00     0.347 C 
HETATM    9  N1  UNL     1       2.540   0.401   0.356  1.00  0.00    -0.039 NA
HETATM   10  O1  UNL     1       2.642  -0.314  -1.812  1.00  0.00    -0.250 OA
ATOM     11  H2  UNL     1       0.879  -2.180  -0.670  1.00  0.00     0.189 HD
ENDBRANCH   1   7
BRANCH   6  12
HETATM   12  O2  UNL     1      -1.665  -2.394  -0.124  1.00  0.00    -0.256 OA
ATOM     13  H2  UNL     1      -2.506  -2.814   0.014  1.00  0.00     0.247 HD
ENDBRANCH   6  12
TORSDOF 2
