REMARK  4 active torsions:
REMARK  status: ('A' for Active; 'I' for Inactive)
REMARK    1  A    between atoms: C1_2  and  C2_4 
REMARK    2  A    between atoms: C7_9  and  N2_10 
REMARK       I    between atoms: N2_10  and  C8_12 
REMARK    3  A    between atoms: C8_12  and  C9_14 
REMARK    4  A    between atoms: N3_18  and  C13_19 
ROOT
HETATM    1  N2  UNL     1       2.007   0.733  -0.046  1.00  0.00    -0.355 N 
ATOM      2  H2  UNL     1       1.977   1.708  -0.344  1.00  0.00     0.162 HD
HETATM    3  C8  UNL     1       0.836  -0.064  -0.223  1.00  0.00     0.223 C 
HETATM    4  O2  UNL     1       0.886  -1.255   0.146  1.00  0.00    -0.273 OA
ENDROOT
BRANCH   3   5
HETATM    5  C9  UNL     1      -0.406   0.467  -0.817  1.00  0.00     0.096 C 
HETATM    6  C10 UNL     1      -0.967   1.626  -0.045  1.00  0.00     0.021 C 
HETATM    7  C11 UNL     1      -2.327   2.071  -0.412  1.00  0.00     0.045 C 
HETATM    8  C12 UNL     1      -3.012   1.063  -1.309  1.00  0.00     0.058 C 
HETATM    9  N3  UNL     1      -2.745  -0.226  -0.884  1.00  0.00    -0.388 N 
HETATM   10  C18 UNL     1      -1.396  -0.666  -0.961  1.00  0.00     0.136 C 
BRANCH   9  11
HETATM   11  C13 UNL     1      -3.682  -1.068  -0.295  1.00  0.00     0.087 C 
HETATM   12  C14 UNL     1      -4.802  -1.366  -1.259  1.00  0.00     0.051 C 
HETATM   13  C15 UNL     1      -6.081  -1.611  -0.454  1.00  0.00     0.169 C 
HETATM   14  O3  UNL     1      -6.368  -0.396   0.131  1.00  0.00    -0.391 OA
HETATM   15  C16 UNL     1      -5.510  -0.098   1.152  1.00  0.00     0.169 C 
HETATM   16  C17 UNL     1      -4.157  -0.681   1.073  1.00  0.00     0.051 C 
ENDBRANCH   9  11
ENDBRANCH   3   5
BRANCH   1  17
HETATM   17  C7  UNL     1       3.224   0.236   0.529  1.00  0.00     0.097 C 
HETATM   18  C2  UNL     1       4.377   0.356  -0.414  1.00  0.00     0.097 C 
HETATM   19  C3  UNL     1       5.650  -0.230   0.142  1.00  0.00     0.015 C 
HETATM   20  C4  UNL     1       5.824  -0.026   1.609  1.00  0.00     0.001 C 
HETATM   21  C5  UNL     1       4.960   1.084   2.154  1.00  0.00     0.002 C 
HETATM   22  C6  UNL     1       3.509   0.866   1.877  1.00  0.00     0.026 C 
BRANCH  18  23
HETATM   23  C1  UNL     1       4.087  -0.372  -1.667  1.00  0.00     0.237 C 
HETATM   24  N1  UNL     1       3.907  -1.769  -1.626  1.00  0.00    -0.062 NA
HETATM   25  O1  UNL     1       3.998   0.226  -2.759  1.00  0.00    -0.276 OA
ENDBRANCH  18  23
ENDBRANCH   1  17
TORSDOF 4
