REMARK  14 active torsions:
REMARK  status: ('A' for Active; 'I' for Inactive)
REMARK    1  A    between atoms: C2_2  and  O1_3 
REMARK    2  A    between atoms: O1_3  and  C3_4 
REMARK    3  A    between atoms: C3_4  and  C4_6 
REMARK    4  A    between atoms: C4_6  and  O3_8 
REMARK    5  A    between atoms: O3_8  and  C6_9 
REMARK    6  A    between atoms: C6_9  and  C7_11 
REMARK    7  A    between atoms: C7_11  and  N1_13 
REMARK    8  A    between atoms: N1_13  and  C9_15 
REMARK    9  A    between atoms: C10_18  and  O5_19 
REMARK   10  A    between atoms: C11_21  and  C12_22 
REMARK   11  A    between atoms: C12_22  and  C13_23 
REMARK       I    between atoms: C13_23  and  N3_25 
REMARK   12  A    between atoms: N4_27  and  C14_29 
REMARK   13  A    between atoms: C14_29  and  S2_31 
REMARK   14  A    between atoms: S2_31  and  C15_32 
ROOT
HETATM    1  C9  UNL     1       0.259   0.641  -0.317  1.00  0.00     0.227 A 
HETATM    2  N2  UNL     1       0.465  -0.678  -0.172  1.00  0.00    -0.301 N 
ATOM      3  H2  UNL     1      -0.197  -1.348   0.219  1.00  0.00     0.171 HD
HETATM    4  C10 UNL     1       1.700  -0.962  -0.633  1.00  0.00     0.174 A 
HETATM    5  C11 UNL     1       2.260   0.216  -1.069  1.00  0.00     0.116 A 
HETATM    6  O7  UNL     1       1.370   1.133  -0.861  1.00  0.00    -0.279 OA
ENDROOT
BRANCH   1   7
HETATM    7  N1  UNL     1      -0.797   1.338  -0.004  1.00  0.00    -0.342 N 
ATOM      8  H1  UNL     1      -0.810   2.344  -0.174  1.00  0.00     0.164 HD
BRANCH   7   9
HETATM    9  C7  UNL     1      -1.938   0.701   0.577  1.00  0.00     0.181 C 
HETATM   10  C8  UNL     1      -1.908   0.793   2.110  1.00  0.00     0.043 C 
BRANCH   9  11
HETATM   11  C6  UNL     1      -3.204   1.359   0.161  1.00  0.00     0.282 C 
HETATM   12  O4  UNL     1      -3.093   2.348  -0.606  1.00  0.00    -0.263 OA
BRANCH  11  13
HETATM   13  O3  UNL     1      -4.462   0.987   0.533  1.00  0.00    -0.305 OA
BRANCH  13  14
HETATM   14  C4  UNL     1      -5.659   1.602   0.144  1.00  0.00     0.227 C 
HETATM   15  C5  UNL     1      -6.534   2.043   1.253  1.00  0.00     0.051 C 
BRANCH  14  16
HETATM   16  C3  UNL     1      -6.455   0.640  -0.700  1.00  0.00     0.288 C 
HETATM   17  O2  UNL     1      -7.565   0.940  -1.180  1.00  0.00    -0.262 OA
BRANCH  16  18
HETATM   18  O1  UNL     1      -5.940  -0.629  -0.957  1.00  0.00    -0.320 OA
BRANCH  18  19
HETATM   19  C2  UNL     1      -6.665  -1.554  -1.747  1.00  0.00     0.174 C 
HETATM   20  C1  UNL     1      -8.009  -1.895  -1.175  1.00  0.00     0.034 C 
ENDBRANCH  18  19
ENDBRANCH  16  18
ENDBRANCH  14  16
ENDBRANCH  13  14
ENDBRANCH  11  13
ENDBRANCH   9  11
ENDBRANCH   7   9
ENDBRANCH   1   7
BRANCH   4  21
HETATM   21  O5  UNL     1       2.256  -2.235  -0.640  1.00  0.00    -0.344 OA
ATOM     22  H5  UNL     1       3.126  -2.435  -0.965  1.00  0.00     0.219 HD
ENDBRANCH   4  21
BRANCH   5  23
HETATM   23  C12 UNL     1       3.617   0.360  -1.654  1.00  0.00     0.174 C 
BRANCH  23  24
HETATM   24  C13 UNL     1       4.666   0.304  -0.622  1.00  0.00     0.242 C 
HETATM   25  O6  UNL     1       4.332   0.133   0.573  1.00  0.00    -0.271 OA
HETATM   26  N3  UNL     1       5.996   0.443  -0.997  1.00  0.00    -0.268 N 
HETATM   27  N4  UNL     1       6.983  -0.266  -0.824  1.00  0.00    -0.282 N 
ATOM     28  H3  UNL     1       6.190   1.299  -1.516  1.00  0.00     0.190 HD
ATOM     29  H4  UNL     1       7.842   0.111  -1.225  1.00  0.00     0.188 HD
BRANCH  27  30
HETATM   30  C14 UNL     1       7.145  -1.490  -0.181  1.00  0.00     0.153 C 
HETATM   31  S1  UNL     1       5.882  -2.518  -0.072  1.00  0.00    -0.051 SA
BRANCH  30  32
HETATM   32  S2  UNL     1       8.683  -2.031   0.550  1.00  0.00    -0.100 SA
BRANCH  32  33
HETATM   33  C15 UNL     1       9.977  -0.758   0.325  1.00  0.00     0.077 C 
HETATM   34  C16 UNL     1       9.595   0.447   1.122  1.00  0.00     0.016 C 
ENDBRANCH  32  33
ENDBRANCH  30  32
ENDBRANCH  27  30
ENDBRANCH  23  24
ENDBRANCH   5  23
TORSDOF 14
