REMARK  7 active torsions:
REMARK  status: ('A' for Active; 'I' for Inactive)
REMARK    1  A    between atoms: C2_2  and  C4_4 
REMARK    2  A    between atoms: C4_4  and  C5_5 
REMARK    3  A    between atoms: C7_7  and  O1_8 
REMARK    4  A    between atoms: C9_11  and  O2_12 
REMARK    5  A    between atoms: C12_16  and  C13_17 
REMARK    6  A    between atoms: C13_17  and  O4_19 
REMARK    7  A    between atoms: C16_22  and  C17_23 
ROOT
HETATM    1  C5  UNL     1      -0.957   1.276  -0.260  1.00  0.00     0.001 C 
HETATM    2  C6  UNL     1      -0.670   2.803  -0.400  1.00  0.00     0.019 C 
HETATM    3  C7  UNL     1      -1.600   0.899  -1.534  1.00  0.00     0.130 C 
HETATM    4  C8  UNL     1      -0.991  -0.087  -2.448  1.00  0.00     0.065 C 
HETATM    5  C9  UNL     1       0.157  -0.903  -2.026  1.00  0.00     0.130 C 
HETATM    6  C10 UNL     1       0.378  -0.862  -0.561  1.00  0.00     0.010 C 
HETATM    7  C11 UNL     1      -0.704  -1.706   0.068  1.00  0.00     0.020 C 
HETATM    8  C12 UNL     1       1.672  -1.515  -0.167  1.00  0.00     0.098 C 
HETATM    9  C15 UNL     1       1.667  -1.801   1.327  1.00  0.00     0.035 C 
HETATM   10  C16 UNL     1       1.481  -0.497   2.035  1.00  0.00     0.126 C 
HETATM   11  C19 UNL     1       0.981   0.631   1.235  1.00  0.00     0.148 C 
HETATM   12  O6  UNL     1       1.121   1.714   1.807  1.00  0.00    -0.296 OA
HETATM   13  C20 UNL     1       0.380   0.573  -0.091  1.00  0.00     0.038 C 
HETATM   14  C21 UNL     1       1.330   1.371  -0.981  1.00  0.00     0.025 C 
ENDROOT
BRANCH   1  15
HETATM   15  C4  UNL     1      -1.843   1.226   0.940  1.00  0.00     0.046 C 
BRANCH  15  16
HETATM   16  C2  UNL     1      -3.095   1.995   0.966  1.00  0.00    -0.092 C 
HETATM   17  C1  UNL     1      -3.188   2.966   1.906  1.00  0.00     0.014 C 
HETATM   18  C3  UNL     1      -4.300   1.881   0.140  1.00  0.00     0.042 C 
ENDBRANCH  15  16
ENDBRANCH   1  15
BRANCH   3  19
HETATM   19  O1  UNL     1      -1.925   2.043  -2.334  1.00  0.00    -0.395 OA
ATOM     20  H1  UNL     1      -2.339   1.800  -3.154  1.00  0.00     0.210 HD
ENDBRANCH   3  19
BRANCH   5  21
HETATM   21  O2  UNL     1       1.321  -0.681  -2.770  1.00  0.00    -0.395 OA
ATOM     22  H2  UNL     1       2.063  -1.208  -2.497  1.00  0.00     0.210 HD
ENDBRANCH   5  21
BRANCH   8  23
HETATM   23  C13 UNL     1       2.002  -2.745  -0.884  1.00  0.00     0.263 C 
HETATM   24  O3  UNL     1       3.002  -2.779  -1.708  1.00  0.00    -0.265 OA
BRANCH  23  25
HETATM   25  O4  UNL     1       1.357  -3.970  -0.806  1.00  0.00    -0.326 OA
HETATM   26  C14 UNL     1       1.711  -5.126  -1.515  1.00  0.00     0.213 C 
ENDBRANCH  23  25
ENDBRANCH   8  23
BRANCH  10  27
HETATM   27  C17 UNL     1       2.707  -0.127   2.816  1.00  0.00     0.134 C 
HETATM   28  C18 UNL     1       2.782   1.101   3.626  1.00  0.00     0.091 C 
HETATM   29  O5  UNL     1       3.653  -0.877   2.764  1.00  0.00    -0.298 OA
ENDBRANCH  10  27
TORSDOF 7
