REMARK  16 active torsions:
REMARK  status: ('A' for Active; 'I' for Inactive)
REMARK    1  A    between atoms: O1_2  and  C2_3 
REMARK    2  A    between atoms: C3_6  and  O2_7 
REMARK    3  A    between atoms: C5_9  and  O3_10 
REMARK    4  A    between atoms: O3_10  and  C6_11 
REMARK    5  A    between atoms: C8_15  and  O6_16 
REMARK    6  A    between atoms: O6_16  and  C9_17 
REMARK    7  A    between atoms: C10_18  and  O7_19 
REMARK    8  A    between atoms: C11_21  and  O8_22 
REMARK    9  A    between atoms: C12_24  and  O9_25 
REMARK   10  A    between atoms: C13_27  and  O10_28 
REMARK   11  A    between atoms: O10_28  and  C14_29 
REMARK   12  A    between atoms: C17_33  and  O12_34 
REMARK   13  A    between atoms: C18_36  and  O13_37 
REMARK   14  A    between atoms: C19_39  and  O14_40 
REMARK   15  A    between atoms: C20_42  and  O15_43 
REMARK   16  A    between atoms: C21_45  and  O16_46 
ROOT
HETATM    1  C9  UNL     1       1.207  -1.861  -0.628  1.00  0.00     0.187 C 
HETATM    2  C10 UNL     1       1.857  -2.889  -1.493  1.00  0.00     0.181 C 
HETATM    3  C11 UNL     1       3.343  -2.978  -1.370  1.00  0.00     0.180 C 
HETATM    4  C12 UNL     1       3.646  -3.225   0.094  1.00  0.00     0.181 C 
HETATM    5  C13 UNL     1       3.272  -1.960   0.812  1.00  0.00     0.187 C 
HETATM    6  C20 UNL     1       1.796  -1.681   0.725  1.00  0.00     0.181 C 
ENDROOT
BRANCH   1   7
HETATM    7  O6  UNL     1      -0.158  -2.150  -0.571  1.00  0.00    -0.348 OA
BRANCH   7   8
HETATM    8  C8  UNL     1      -0.938  -1.189  -1.154  1.00  0.00     0.296 C 
HETATM    9  O5  UNL     1      -1.654  -1.626  -2.268  1.00  0.00    -0.334 OA
HETATM   10  C7  UNL     1      -2.112  -0.555  -3.032  1.00  0.00     0.344 C 
HETATM   11  O4  UNL     1      -2.069   0.622  -2.329  1.00  0.00    -0.334 OA
HETATM   12  C6  UNL     1      -2.690   0.508  -1.063  1.00  0.00     0.299 C 
HETATM   13  C21 UNL     1      -1.915  -0.512  -0.225  1.00  0.00     0.228 C 
BRANCH  12  14
HETATM   14  O3  UNL     1      -3.990   0.138  -1.303  1.00  0.00    -0.324 OA
BRANCH  14  15
HETATM   15  C5  UNL     1      -4.928   1.036  -0.869  1.00  0.00     0.312 C 
HETATM   16  C3  UNL     1      -5.884   0.517   0.168  1.00  0.00     0.277 C 
HETATM   17  N1  UNL     1      -7.092   1.344   0.174  1.00  0.00    -0.342 N 
HETATM   18  C2  UNL     1      -7.286   2.333  -0.613  1.00  0.00     0.144 C 
ATOM     19  H1  UNL     1      -7.824   1.117   0.847  1.00  0.00     0.164 HD
HETATM   20  C22 UNL     1      -6.249   2.677  -1.590  1.00  0.00     0.195 C 
HETATM   21  O17 UNL     1      -5.621   1.492  -1.997  1.00  0.00    -0.344 OA
HETATM   22  C23 UNL     1      -6.849   3.323  -2.797  1.00  0.00     0.048 C 
BRANCH  16  23
HETATM   23  O2  UNL     1      -5.353   0.611   1.452  1.00  0.00    -0.366 OA
HETATM   24  C4  UNL     1      -5.437  -0.629   2.062  1.00  0.00     0.204 C 
ENDBRANCH  16  23
BRANCH  18  25
HETATM   25  O1  UNL     1      -8.484   3.018  -0.483  1.00  0.00    -0.342 OA
HETATM   26  C1  UNL     1      -9.695   2.350  -0.121  1.00  0.00     0.211 C 
ENDBRANCH  18  25
ENDBRANCH  14  15
ENDBRANCH  12  14
BRANCH  13  27
HETATM   27  O16 UNL     1      -1.192   0.208   0.726  1.00  0.00    -0.386 OA
ATOM     28  H16 UNL     1      -0.711  -0.425   1.246  1.00  0.00     0.210 HD
ENDBRANCH  13  27
ENDBRANCH   7   8
ENDBRANCH   1   7
BRANCH   2  29
HETATM   29  O7  UNL     1       1.349  -4.168  -1.264  1.00  0.00    -0.390 OA
ATOM     30  H7  UNL     1       1.763  -4.822  -1.815  1.00  0.00     0.210 HD
ENDBRANCH   2  29
BRANCH   6  31
HETATM   31  O15 UNL     1       1.163  -2.559   1.609  1.00  0.00    -0.390 OA
ATOM     32  H15 UNL     1       1.539  -2.444   2.474  1.00  0.00     0.210 HD
ENDBRANCH   6  31
BRANCH   3  33
HETATM   33  O8  UNL     1       4.028  -1.919  -1.906  1.00  0.00    -0.390 OA
ATOM     34  H8  UNL     1       4.973  -1.976  -1.828  1.00  0.00     0.210 HD
ENDBRANCH   3  33
BRANCH   5  35
HETATM   35  O10 UNL     1       3.967  -0.909   0.247  1.00  0.00    -0.348 OA
BRANCH  35  36
HETATM   36  C14 UNL     1       4.851  -0.276   1.136  1.00  0.00     0.292 C 
HETATM   37  O11 UNL     1       4.444   1.040   1.186  1.00  0.00    -0.351 OA
HETATM   38  C15 UNL     1       5.329   1.950   1.665  1.00  0.00     0.152 C 
HETATM   39  C16 UNL     1       4.595   2.928   2.593  1.00  0.00     0.042 C 
HETATM   40  C17 UNL     1       6.543   1.448   2.351  1.00  0.00     0.178 C 
HETATM   41  C18 UNL     1       7.172   0.254   1.672  1.00  0.00     0.183 C 
HETATM   42  C19 UNL     1       6.255  -0.324   0.610  1.00  0.00     0.204 C 
BRANCH  40  43
HETATM   43  O12 UNL     1       6.299   1.264   3.695  1.00  0.00    -0.390 OA
ATOM     44  H12 UNL     1       7.077   0.942   4.135  1.00  0.00     0.210 HD
ENDBRANCH  40  43
BRANCH  41  45
HETATM   45  O13 UNL     1       8.393   0.552   1.073  1.00  0.00    -0.390 OA
ATOM     46  H13 UNL     1       8.789  -0.199   0.646  1.00  0.00     0.210 HD
ENDBRANCH  41  45
BRANCH  42  47
HETATM   47  O14 UNL     1       6.308   0.571  -0.482  1.00  0.00    -0.388 OA
ATOM     48  H14 UNL     1       7.197   0.541  -0.815  1.00  0.00     0.210 HD
ENDBRANCH  42  47
ENDBRANCH  35  36
ENDBRANCH   5  35
BRANCH   4  49
HETATM   49  O9  UNL     1       4.923  -3.627   0.351  1.00  0.00    -0.390 OA
ATOM     50  H9  UNL     1       5.113  -3.782   1.269  1.00  0.00     0.210 HD
ENDBRANCH   4  49
TORSDOF 16
