REMARK  3 active torsions:
REMARK  status: ('A' for Active; 'I' for Inactive)
REMARK    1  A    between atoms: C7_7  and  N1_8 
REMARK       I    between atoms: N1_8  and  C8_10 
REMARK    2  A    between atoms: C8_10  and  O2_12 
REMARK    3  A    between atoms: O2_12  and  C9_13 
ROOT
HETATM    1  N1  UNL     1       0.051   0.279  -0.473  1.00  0.00    -0.332 N 
ATOM      2  H1  UNL     1      -0.032   0.569  -1.447  1.00  0.00     0.165 HD
HETATM    3  C8  UNL     1      -1.149   0.052   0.248  1.00  0.00     0.361 C 
HETATM    4  O1  UNL     1      -1.060  -0.306   1.447  1.00  0.00    -0.238 OA
ENDROOT
BRANCH   1   5
HETATM    5  C7  UNL     1       1.364   0.132   0.062  1.00  0.00     0.090 C 
HETATM    6  C2  UNL     1       2.260  -0.779  -0.688  1.00  0.00     0.004 C 
HETATM    7  C1  UNL     1       2.661  -1.936   0.219  1.00  0.00     0.012 C 
HETATM    8  C3  UNL     1       3.507  -0.100  -1.233  1.00  0.00     0.006 C 
HETATM    9  C4  UNL     1       4.268   0.625  -0.151  1.00  0.00     0.001 C 
HETATM   10  C5  UNL     1       3.349   1.298   0.843  1.00  0.00     0.002 C 
HETATM   11  C6  UNL     1       2.018   1.507   0.118  1.00  0.00     0.026 C 
ENDBRANCH   1   5
BRANCH   3  12
HETATM   12  O2  UNL     1      -2.385   0.207  -0.311  1.00  0.00    -0.294 OA
BRANCH  12  13
HETATM   13  C9  UNL     1      -3.610  -0.005   0.359  1.00  0.00     0.061 C 
HETATM   14  C10 UNL     1      -3.772  -1.404   0.872  1.00  0.00     0.046 C 
HETATM   15  C11 UNL     1      -4.708   0.219  -0.688  1.00  0.00     0.046 C 
HETATM   16  C12 UNL     1      -3.788   0.950   1.519  1.00  0.00     0.046 C 
ENDBRANCH  12  13
ENDBRANCH   3  12
TORSDOF 3
