REMARK  0 active torsions:
REMARK  status: ('A' for Active; 'I' for Inactive)
ROOT
HETATM    1  C1  UNL     1      -3.797   1.106  -0.620  1.00  0.00     0.272 C 
HETATM    2  N1  UNL     1      -2.778   0.432   0.167  1.00  0.00    -0.075 N 
HETATM    3  C2  UNL     1      -3.377   0.128   1.452  1.00  0.00     0.272 C 
HETATM    4  C3  UNL     1      -1.645   1.303   0.426  1.00  0.00     0.236 C 
HETATM    5  C4  UNL     1      -1.392   2.267  -0.698  1.00  0.00     0.029 C 
HETATM    6  C5  UNL     1       0.061   2.244  -1.145  1.00  0.00     0.017 C 
HETATM    7  C6  UNL     1       0.846   3.295  -0.398  1.00  0.00     0.140 C 
HETATM    8  S1  UNL     1       2.583   3.046  -0.514  1.00  0.00     0.144 S 
HETATM    9  O1  UNL     1       3.236   4.415  -0.431  1.00  0.00    -0.228 OA
HETATM   10  O2  UNL     1       2.898   2.509  -1.868  1.00  0.00    -0.228 OA
HETATM   11  C7  UNL     1       3.241   2.075   0.791  1.00  0.00     0.140 C 
HETATM   12  C8  UNL     1       2.876   0.620   0.716  1.00  0.00     0.015 C 
HETATM   13  C9  UNL     1       3.274  -0.042  -0.558  1.00  0.00     0.002 C 
HETATM   14  C10 UNL     1       3.300  -1.542  -0.337  1.00  0.00     0.020 C 
HETATM   15  C11 UNL     1       1.862  -2.073  -0.431  1.00  0.00     0.124 C 
HETATM   16  N2  UNL     1       1.813  -3.469  -0.032  1.00  0.00    -0.343 N 
ATOM     17  H2  UNL     1       2.528  -4.099  -0.397  1.00  0.00     0.164 HD
HETATM   18  C12 UNL     1       0.828  -4.006   0.836  1.00  0.00     0.316 C 
HETATM   19  O3  UNL     1       1.172  -4.965   1.577  1.00  0.00    -0.247 OA
HETATM   20  N3  UNL     1      -0.516  -3.568   0.954  1.00  0.00    -0.343 N 
ATOM     21  H3  UNL     1      -0.959  -3.661   1.868  1.00  0.00     0.164 HD
HETATM   22  C13 UNL     1      -1.301  -3.008  -0.100  1.00  0.00     0.126 C 
HETATM   23  C14 UNL     1      -2.235  -1.941   0.432  1.00  0.00     0.048 C 
HETATM   24  C15 UNL     1      -2.365  -0.774  -0.493  1.00  0.00     0.238 C 
ENDROOT
TORSDOF 0
