REMARK  4 active torsions:
REMARK  status: ('A' for Active; 'I' for Inactive)
REMARK       I    between atoms: C2_2  and  N1_4 
REMARK       I    between atoms: N1_4  and  C4_6 
REMARK       I    between atoms: N3_8  and  C5_10 
REMARK    1  A    between atoms: C5_10  and  C6_12 
REMARK    2  A    between atoms: N4_16  and  C10_17 
REMARK    3  A    between atoms: C10_17  and  N5_19 
REMARK    4  A    between atoms: N5_19  and  C11_21 
ROOT
HETATM    1  C6  UNL     1       0.680   1.424   0.651  1.00  0.00     0.061 C 
HETATM    2  C7  UNL     1       0.519   1.783  -0.816  1.00  0.00     0.046 C 
HETATM    3  C8  UNL     1      -0.967   1.832  -0.435  1.00  0.00     0.089 C 
HETATM    4  C9  UNL     1      -0.427   2.481   0.854  1.00  0.00     0.046 C 
HETATM    5  N4  UNL     1      -1.271   0.535   0.045  1.00  0.00    -0.352 N 
HETATM    6  C15 UNL     1      -0.066   0.133   0.732  1.00  0.00     0.145 C 
ENDROOT
BRANCH   1   7
HETATM    7  C5  UNL     1       1.912   1.655   1.318  1.00  0.00     0.234 C 
HETATM    8  N3  UNL     1       3.128   1.178   0.785  1.00  0.00    -0.300 N 
HETATM    9  C4  UNL     1       3.566  -0.007   1.023  1.00  0.00     0.199 C 
ATOM     10  H3  UNL     1       3.680   1.796   0.189  1.00  0.00     0.171 HD
HETATM   11  N1  UNL     1       4.798  -0.437   0.460  1.00  0.00    -0.296 N 
HETATM   12  N2  UNL     1       2.853  -0.905   1.849  1.00  0.00    -0.063 NA
HETATM   13  C2  UNL     1       5.296  -1.735   0.689  1.00  0.00     0.221 C 
HETATM   14  C3  UNL     1       5.535   0.520  -0.358  1.00  0.00     0.162 C 
HETATM   15  C1  UNL     1       6.584  -2.226   0.130  1.00  0.00     0.117 C 
HETATM   16  O1  UNL     1       4.657  -2.558   1.395  1.00  0.00    -0.273 OA
HETATM   17  O2  UNL     1       1.967   2.289   2.400  1.00  0.00    -0.272 OA
ENDBRANCH   1   7
BRANCH   5  18
HETATM   18  C10 UNL     1      -2.457  -0.187  -0.117  1.00  0.00     0.170 C 
HETATM   19  S1  UNL     1      -2.565  -1.672   0.552  1.00  0.00    -0.041 SA
BRANCH  18  20
HETATM   20  N5  UNL     1      -3.582   0.301  -0.829  1.00  0.00    -0.359 N 
ATOM     21  H5  UNL     1      -3.532   1.228  -1.252  1.00  0.00     0.162 HD
BRANCH  20  22
HETATM   22  C11 UNL     1      -4.778  -0.457  -0.975  1.00  0.00     0.021 C 
HETATM   23  C12 UNL     1      -4.564  -1.796  -1.641  1.00  0.00     0.037 C 
HETATM   24  C13 UNL     1      -5.373  -0.708   0.399  1.00  0.00     0.037 C 
HETATM   25  C14 UNL     1      -5.750   0.369  -1.818  1.00  0.00     0.037 C 
ENDBRANCH  20  22
ENDBRANCH  18  20
ENDBRANCH   5  18
TORSDOF 4
