REMARK  8 active torsions:
REMARK  status: ('A' for Active; 'I' for Inactive)
REMARK    1  A    between atoms: C2_2  and  C3_3 
REMARK    2  A    between atoms: C2_2  and  C4_5 
REMARK    3  A    between atoms: C4_5  and  N1_7 
REMARK       I    between atoms: N1_7  and  C6_9 
REMARK    4  A    between atoms: C6_9  and  C7_11 
REMARK       I    between atoms: N2_15  and  C11_16 
REMARK    5  A    between atoms: C11_16  and  C12_18 
REMARK    6  A    between atoms: C13_19  and  C14_20 
REMARK    7  A    between atoms: C14_20  and  O4_21 
REMARK    8  A    between atoms: C14_20  and  N3_23 
ROOT
HETATM    1  C12 UNL     1      -1.420   0.308  -0.191  1.00  0.00     0.095 C 
HETATM    2  C13 UNL     1      -2.210  -0.109  -1.402  1.00  0.00     0.074 C 
HETATM    3  C19 UNL     1      -3.248   0.935  -1.630  1.00  0.00     0.018 C 
HETATM    4  C20 UNL     1      -2.799   2.183  -0.926  1.00  0.00    -0.007 A 
HETATM    5  C21 UNL     1      -3.612   2.622   0.270  1.00  0.00     0.015 A 
HETATM    6  C22 UNL     1      -2.494   2.211   1.140  1.00  0.00    -0.035 A 
HETATM    7  C23 UNL     1      -2.542   1.586   2.437  1.00  0.00     0.011 A 
HETATM    8  C24 UNL     1      -1.980   3.013   2.257  1.00  0.00     0.011 A 
HETATM    9  C25 UNL     1      -1.644   1.797  -0.023  1.00  0.00     0.012 A 
ENDROOT
BRANCH   1  10
HETATM   10  C11 UNL     1      -0.003  -0.076  -0.236  1.00  0.00     0.226 C 
HETATM   11  N2  UNL     1       1.032   0.459  -1.026  1.00  0.00    -0.338 N 
HETATM   12  C7  UNL     1       2.427   0.030  -1.077  1.00  0.00     0.179 C 
HETATM   13  C10 UNL     1       0.900   1.571  -1.939  1.00  0.00     0.127 C 
HETATM   14  C8  UNL     1       3.045   0.734  -2.245  1.00  0.00     0.037 C 
HETATM   15  C9  UNL     1       1.903   1.271  -3.047  1.00  0.00     0.022 C 
HETATM   16  O3  UNL     1       0.353  -1.031   0.546  1.00  0.00    -0.273 OA
BRANCH  12  17
HETATM   17  C6  UNL     1       3.166   0.426   0.142  1.00  0.00     0.241 C 
HETATM   18  N1  UNL     1       4.530   0.074   0.245  1.00  0.00    -0.354 N 
ATOM     19  H1  UNL     1       4.955  -0.440  -0.527  1.00  0.00     0.162 HD
HETATM   20  O2  UNL     1       2.637   1.056   1.084  1.00  0.00    -0.271 OA
BRANCH  18  21
HETATM   21  C4  UNL     1       5.359   0.402   1.386  1.00  0.00     0.090 C 
HETATM   22  C5  UNL     1       6.594   1.169   0.990  1.00  0.00     0.033 C 
BRANCH  21  23
HETATM   23  C2  UNL     1       5.834  -0.918   1.991  1.00  0.00     0.065 C 
HETATM   24  C1  UNL     1       4.656  -1.765   2.425  1.00  0.00     0.019 C 
BRANCH  23  25
HETATM   25  C3  UNL     1       6.697  -1.666   1.062  1.00  0.00     0.237 C 
HETATM   26  O1  UNL     1       6.777  -2.870   1.126  1.00  0.00    -0.306 OA
ENDBRANCH  23  25
ENDBRANCH  21  23
ENDBRANCH  18  21
ENDBRANCH  12  17
ENDBRANCH   1  10
BRANCH   2  27
HETATM   27  C14 UNL     1      -2.773  -1.450  -1.377  1.00  0.00     0.118 C 
BRANCH  27  28
HETATM   28  O4  UNL     1      -2.335  -2.233  -2.324  1.00  0.00    -0.349 OA
ATOM     29  H4  UNL     1      -2.703  -3.109  -2.308  1.00  0.00     0.219 HD
ENDBRANCH  27  28
BRANCH  27  30
HETATM   30  N3  UNL     1      -3.693  -2.039  -0.522  1.00  0.00    -0.361 N 
HETATM   31  C15 UNL     1      -4.369  -1.463   0.606  1.00  0.00     0.151 C 
HETATM   32  C16 UNL     1      -5.848  -1.818   0.451  1.00  0.00     0.187 C 
HETATM   33  O5  UNL     1      -6.151  -2.264  -0.828  1.00  0.00    -0.388 OA
HETATM   34  C17 UNL     1      -5.516  -3.468  -1.126  1.00  0.00     0.187 C 
HETATM   35  C18 UNL     1      -4.061  -3.452  -0.756  1.00  0.00     0.151 C 
ENDBRANCH  27  30
ENDBRANCH   2  27
TORSDOF 8
