REMARK  7 active torsions:
REMARK  status: ('A' for Active; 'I' for Inactive)
REMARK    1  A    between atoms: N1_2  and  C3_4 
REMARK    2  A    between atoms: C3_4  and  O1_5 
REMARK    3  A    between atoms: C3_4  and  C4_7 
REMARK    4  A    between atoms: C12_15  and  N2_16 
REMARK    5  A    between atoms: C12_15  and  C26_35 
REMARK       I    between atoms: N2_16  and  C13_18 
REMARK    6  A    between atoms: C13_18  and  C14_20 
REMARK       I    between atoms: C14_20  and  N3_22 
REMARK    7  A    between atoms: N3_22  and  C15_24 
ROOT
HETATM    1  C4  UNL     1      -2.932   1.075   0.410  1.00  0.00     0.072 A 
HETATM    2  C5  UNL     1      -3.671  -0.155   0.354  1.00  0.00     0.005 A 
HETATM    3  C6  UNL     1      -5.078  -0.482   0.120  1.00  0.00     0.010 C 
HETATM    4  C7  UNL     1      -5.388  -1.886  -0.319  1.00  0.00    -0.013 C 
HETATM    5  C8  UNL     1      -5.306  -2.013  -1.841  1.00  0.00     0.009 C 
HETATM    6  C9  UNL     1      -3.958  -2.520  -1.711  1.00  0.00    -0.011 C 
HETATM    7  C10 UNL     1      -4.332  -2.900  -0.262  1.00  0.00     0.009 C 
HETATM    8  C11 UNL     1      -2.734  -1.796  -1.855  1.00  0.00     0.042 C 
HETATM    9  C12 UNL     1      -2.512  -0.362  -1.777  1.00  0.00     0.097 C 
HETATM   10  C27 UNL     1      -3.246   0.552  -0.932  1.00  0.00     0.036 A 
ENDROOT
BRANCH   9  11
HETATM   11  N2  UNL     1      -1.089  -0.093  -1.710  1.00  0.00    -0.338 N 
HETATM   12  C13 UNL     1      -0.135  -0.595  -0.801  1.00  0.00     0.310 C 
HETATM   13  O2  UNL     1      -0.331  -1.396   0.145  1.00  0.00    -0.262 OA
ATOM     14  H2  UNL     1      -0.728   0.547  -2.417  1.00  0.00     0.164 HD
BRANCH  12  15
HETATM   15  C14 UNL     1       1.284  -0.171  -0.917  1.00  0.00     0.309 C 
HETATM   16  O3  UNL     1       1.595   0.625  -1.826  1.00  0.00    -0.262 OA
HETATM   17  N3  UNL     1       2.258  -0.646  -0.034  1.00  0.00    -0.348 N 
ATOM     18  H3  UNL     1       1.992  -1.296   0.705  1.00  0.00     0.163 HD
BRANCH  17  19
HETATM   19  C15 UNL     1       3.642  -0.228  -0.153  1.00  0.00     0.089 C 
HETATM   20  C16 UNL     1       4.470  -1.433  -0.389  1.00  0.00     0.030 C 
HETATM   21  C17 UNL     1       5.877  -1.370   0.071  1.00  0.00    -0.012 C 
HETATM   22  C18 UNL     1       6.567  -0.062  -0.197  1.00  0.00     0.009 C 
HETATM   23  C22 UNL     1       5.961  -1.810   1.507  1.00  0.00     0.009 C 
HETATM   24  C19 UNL     1       6.434   0.943   0.887  1.00  0.00    -0.013 C 
HETATM   25  C20 UNL     1       6.648   0.396   2.265  1.00  0.00     0.009 C 
HETATM   26  C25 UNL     1       5.073   1.567   0.816  1.00  0.00     0.011 C 
HETATM   27  C21 UNL     1       5.645  -0.713   2.485  1.00  0.00    -0.013 C 
HETATM   28  C23 UNL     1       4.236  -0.288   2.293  1.00  0.00     0.011 C 
HETATM   29  C24 UNL     1       3.978   0.549   1.088  1.00  0.00     0.009 C 
ENDBRANCH  17  19
ENDBRANCH  12  15
ENDBRANCH   9  11
BRANCH   9  30
HETATM   30  C26 UNL     1      -2.838   0.148  -3.260  1.00  0.00     0.381 C 
HETATM   31  F1  UNL     1      -1.969  -0.485  -4.125  1.00  0.00    -0.212 F 
HETATM   32  F2  UNL     1      -2.558   1.498  -3.317  1.00  0.00    -0.212 F 
ENDBRANCH   9  30
BRANCH   1  33
HETATM   33  C3  UNL     1      -3.263   2.385   0.923  1.00  0.00     0.117 C 
BRANCH  33  34
HETATM   34  N1  UNL     1      -4.397   3.176   0.995  1.00  0.00    -0.374 N 
HETATM   35  C1  UNL     1      -4.266   4.512   1.645  1.00  0.00     0.150 C 
HETATM   36  C2  UNL     1      -5.690   2.860   0.517  1.00  0.00     0.150 C 
ENDBRANCH  33  34
BRANCH  33  37
HETATM   37  O1  UNL     1      -2.186   2.982   1.470  1.00  0.00    -0.349 OA
ATOM     38  H1  UNL     1      -1.408   2.439   1.421  1.00  0.00     0.219 HD
ENDBRANCH  33  37
ENDBRANCH   1  33
TORSDOF 7
