REMARK  7 active torsions:
REMARK  status: ('A' for Active; 'I' for Inactive)
REMARK    1  A    between atoms: C1_2  and  C2_3 
REMARK       I    between atoms: C1_2  and  N1_21 
REMARK    2  A    between atoms: C2_3  and  C3_4 
REMARK    3  A    between atoms: C3_4  and  C4_5 
REMARK    4  A    between atoms: C3_4  and  O2_7 
REMARK    5  A    between atoms: O2_7  and  C5_8 
REMARK    6  A    between atoms: C5_8  and  C6_10 
REMARK    7  A    between atoms: N1_21  and  C16_23 
ROOT
HETATM    1  C3  UNL     1       1.508  -0.166  -0.899  1.00  0.00     0.150 C 
ENDROOT
BRANCH   1   2
HETATM    2  C2  UNL     1       2.370   0.731  -0.085  1.00  0.00     0.136 C 
BRANCH   2   3
HETATM    3  C1  UNL     1       3.651   1.132  -0.690  1.00  0.00     0.225 C 
HETATM    4  O1  UNL     1       4.001   0.838  -1.843  1.00  0.00    -0.273 OA
HETATM    5  N1  UNL     1       4.606   1.920   0.052  1.00  0.00    -0.312 N 
ATOM      6  H1  UNL     1       4.332   2.808   0.472  1.00  0.00     0.170 HD
BRANCH   5   7
HETATM    7  C16 UNL     1       5.804   1.482   0.173  1.00  0.00     0.123 A 
HETATM    8  C17 UNL     1       6.386   0.333  -0.302  1.00  0.00     0.068 A 
HETATM    9  C18 UNL     1       7.703   0.328   0.103  1.00  0.00     0.111 A 
HETATM   10  N2  UNL     1       7.874   1.468   0.805  1.00  0.00    -0.310 N 
HETATM   11  N3  UNL     1       6.759   2.147   0.846  1.00  0.00    -0.286 N 
ATOM     12  H2  UNL     1       8.749   1.758   1.241  1.00  0.00     0.186 HD
ATOM     13  H3  UNL     1       6.632   3.043   1.316  1.00  0.00     0.188 HD
ENDBRANCH   5   7
ENDBRANCH   2   3
ENDBRANCH   1   2
BRANCH   1  14
HETATM   14  C4  UNL     1       2.179  -1.463  -1.181  1.00  0.00     0.118 C 
HETATM   15 BR1  UNL     1       1.063  -2.646  -2.238  1.00  0.00    -0.094 Br
ENDBRANCH   1  14
BRANCH   1  16
HETATM   16  O2  UNL     1       0.221  -0.352  -0.298  1.00  0.00    -0.314 OA
BRANCH  16  17
HETATM   17  C5  UNL     1      -0.957   0.025  -0.888  1.00  0.00     0.268 C 
HETATM   18  O3  UNL     1      -0.900   0.567  -2.028  1.00  0.00    -0.264 OA
BRANCH  17  19
HETATM   19  C6  UNL     1      -2.293  -0.152  -0.294  1.00  0.00     0.050 C 
HETATM   20  C7  UNL     1      -2.508  -1.632  -0.044  1.00  0.00     0.024 C 
HETATM   21  C8  UNL     1      -3.787  -1.845   0.727  1.00  0.00    -0.012 C 
HETATM   22  C9  UNL     1      -3.721  -1.067   2.008  1.00  0.00     0.009 C 
HETATM   23  C13 UNL     1      -4.922  -1.383  -0.164  1.00  0.00     0.025 C 
HETATM   24  C10 UNL     1      -3.674   0.412   1.701  1.00  0.00    -0.012 C 
HETATM   25  C11 UNL     1      -4.789   0.852   0.797  1.00  0.00     0.025 C 
HETATM   26  C15 UNL     1      -2.364   0.661   0.965  1.00  0.00     0.024 C 
HETATM   27  C12 UNL     1      -4.709   0.077  -0.499  1.00  0.00     0.020 C 
HETATM   28 BR2  UNL     1      -6.192   0.604  -1.650  1.00  0.00    -0.085 Br
HETATM   29  C14 UNL     1      -3.399   0.304  -1.211  1.00  0.00     0.041 C 
ENDBRANCH  17  19
ENDBRANCH  16  17
ENDBRANCH   1  16
TORSDOF 7
