REMARK  15 active torsions:
REMARK  status: ('A' for Active; 'I' for Inactive)
REMARK    1  A    between atoms: N1_2  and  C3_4 
REMARK    2  A    between atoms: C3_4  and  C4_5 
REMARK    3  A    between atoms: C3_4  and  C25_42 
REMARK       I    between atoms: C4_5  and  N2_7 
REMARK       I    between atoms: N2_7  and  C5_9 
REMARK    4  A    between atoms: C5_9  and  C6_11 
REMARK    5  A    between atoms: C6_11  and  C21_38 
REMARK    6  A    between atoms: N3_12  and  C7_14 
REMARK    7  A    between atoms: C7_14  and  C15_22 
REMARK    8  A    between atoms: C8_15  and  C9_16 
REMARK    9  A    between atoms: C15_22  and  O3_23 
REMARK   10  A    between atoms: C16_25  and  O4_26 
REMARK   11  A    between atoms: C16_25  and  N4_28 
REMARK   12  A    between atoms: C17_30  and  C18_31 
REMARK   13  A    between atoms: C18_31  and  C19_32 
REMARK   14  A    between atoms: C19_32  and  C20_33 
REMARK   15  A    between atoms: C20_33  and  N5_34 
ROOT
HETATM    1  C7  UNL     1       1.764   1.433  -0.053  1.00  0.00     0.067 C 
HETATM    2  C8  UNL     1       2.191   2.377   0.950  1.00  0.00     0.010 C 
ENDROOT
BRANCH   1   3
HETATM    3  N3  UNL     1       0.513   1.688  -0.680  1.00  0.00    -0.352 N 
HETATM    4  C6  UNL     1      -0.728   1.821  -0.141  1.00  0.00     0.086 C 
ATOM      5  H3  UNL     1       0.553   1.787  -1.694  1.00  0.00     0.166 HD
BRANCH   4   6
HETATM    6  C5  UNL     1      -1.364   0.674   0.499  1.00  0.00     0.271 C 
HETATM    7  N2  UNL     1      -2.747   0.328   0.472  1.00  0.00    -0.290 N 
HETATM    8  C4  UNL     1      -3.280  -0.805   1.091  1.00  0.00     0.259 C 
ATOM      9  H2  UNL     1      -3.386   0.945  -0.030  1.00  0.00     0.172 HD
HETATM   10  O1  UNL     1      -2.433  -1.550   1.715  1.00  0.00    -0.271 OA
HETATM   11  O2  UNL     1      -0.662  -0.170   1.180  1.00  0.00    -0.266 OA
BRANCH   8  12
HETATM   12  C3  UNL     1      -4.647  -1.271   1.136  1.00  0.00     0.320 C 
BRANCH  12  13
HETATM   13  N1  UNL     1      -4.764  -2.588   1.762  1.00  0.00     0.094 N 
HETATM   14  C1  UNL     1      -4.371  -2.499   3.170  1.00  0.00     0.310 C 
HETATM   15  C2  UNL     1      -3.959  -3.611   1.188  1.00  0.00     0.310 C 
ENDBRANCH  12  13
BRANCH  12  16
HETATM   16  C25 UNL     1      -5.530  -1.197  -0.022  1.00  0.00    -0.011 C 
HETATM   17  C26 UNL     1      -5.229  -2.176  -1.134  1.00  0.00     0.017 C 
HETATM   18  C27 UNL     1      -5.796   0.130  -0.647  1.00  0.00     0.017 C 
HETATM   19  C28 UNL     1      -6.942  -1.670   0.481  1.00  0.00     0.017 C 
ENDBRANCH  12  16
ENDBRANCH   8  12
ENDBRANCH   4   6
BRANCH   4  20
HETATM   20  C21 UNL     1      -1.618   2.626  -1.093  1.00  0.00    -0.003 C 
HETATM   21  C22 UNL     1      -0.775   3.749  -1.714  1.00  0.00     0.021 C 
HETATM   22  C23 UNL     1      -2.215   1.830  -2.194  1.00  0.00     0.021 C 
HETATM   23  C24 UNL     1      -2.723   3.370  -0.362  1.00  0.00     0.021 C 
ENDBRANCH   4  20
ENDBRANCH   1   3
BRANCH   1  24
HETATM   24  C15 UNL     1       2.131   0.031  -0.154  1.00  0.00     0.143 C 
HETATM   25  C16 UNL     1       2.661  -0.934   0.770  1.00  0.00     0.176 C 
BRANCH  24  26
HETATM   26  O3  UNL     1       1.951  -0.524  -1.354  1.00  0.00    -0.355 OA
ATOM     27  H3  UNL     1       2.191  -1.441  -1.420  1.00  0.00     0.218 HD
ENDBRANCH  24  26
BRANCH  25  28
HETATM   28  O4  UNL     1       2.746  -0.687   2.044  1.00  0.00    -0.344 OA
ATOM     29  H4  UNL     1       3.096  -1.325   2.655  1.00  0.00     0.219 HD
ENDBRANCH  25  28
BRANCH  25  30
HETATM   30  N4  UNL     1       3.138  -2.205   0.476  1.00  0.00    -0.348 N 
HETATM   31  C17 UNL     1       3.415  -2.816  -0.557  1.00  0.00     0.063 C 
ATOM     32  H4  UNL     1       3.296  -2.765   1.314  1.00  0.00     0.167 HD
BRANCH  31  33
HETATM   33  C18 UNL     1       3.931  -4.234  -0.547  1.00  0.00     0.046 C 
BRANCH  33  34
HETATM   34  C19 UNL     1       4.549  -4.604  -1.860  1.00  0.00     0.032 C 
BRANCH  34  35
HETATM   35  C20 UNL     1       5.077  -6.033  -1.841  1.00  0.00     0.230 C 
BRANCH  35  36
HETATM   36  N5  UNL     1       6.084  -6.204  -0.817  1.00  0.00    -0.079 N 
ATOM     37  H53 UNL     1       6.840  -5.526  -0.917  1.00  0.00     0.274 HD
ATOM     38  H52 UNL     1       5.739  -5.919   0.100  1.00  0.00     0.274 HD
ATOM     39  H51 UNL     1       6.437  -7.161  -0.804  1.00  0.00     0.274 HD
ENDBRANCH  35  36
ENDBRANCH  34  35
ENDBRANCH  33  34
ENDBRANCH  31  33
ENDBRANCH  25  30
ENDBRANCH   1  24
BRANCH   2  40
HETATM   40  C9  UNL     1       3.516   2.323   1.621  1.00  0.00     0.010 C 
HETATM   41  C10 UNL     1       4.649   2.433   0.576  1.00  0.00     0.008 C 
HETATM   42  C11 UNL     1       4.689   3.778  -0.072  1.00  0.00     0.001 C 
HETATM   43  C12 UNL     1       5.004   4.896   0.893  1.00  0.00     0.000 C 
HETATM   44  C13 UNL     1       5.019   4.248   2.283  1.00  0.00     0.001 C 
HETATM   45  C14 UNL     1       3.680   3.631   2.480  1.00  0.00     0.008 C 
ENDBRANCH   2  40
TORSDOF 15
