REMARK  12 active torsions:
REMARK  status: ('A' for Active; 'I' for Inactive)
REMARK    1  A    between atoms: C2_2  and  C4_4 
REMARK    2  A    between atoms: C4_4  and  C5_5 
REMARK    3  A    between atoms: C5_5  and  C6_6 
REMARK    4  A    between atoms: N1_7  and  C7_8 
REMARK    5  A    between atoms: N1_7  and  C13_15 
REMARK    6  A    between atoms: C7_8  and  C8_9 
REMARK    7  A    between atoms: C13_15  and  C14_16 
REMARK    8  A    between atoms: N3_29  and  C23_30 
REMARK    9  A    between atoms: C23_30  and  C24_31 
REMARK   10  A    between atoms: C24_31  and  O4_32 
REMARK   11  A    between atoms: C24_31  and  C25_34 
REMARK   12  A    between atoms: C25_34  and  O5_35 
ROOT
HETATM    1  C14 UNL     1       0.742  -0.147  -0.832  1.00  0.00     0.145 C 
HETATM    2  O2  UNL     1       0.858  -1.382  -0.284  1.00  0.00    -0.383 OA
HETATM    3  C15 UNL     1       1.222  -2.449  -1.009  1.00  0.00     0.173 C 
HETATM    4  C16 UNL     1       1.754  -3.502  -0.014  1.00  0.00     0.018 C 
HETATM    5  C17 UNL     1       1.015  -3.430   1.282  1.00  0.00     0.013 C 
HETATM    6  C18 UNL     1       3.250  -3.394   0.155  1.00  0.00     0.079 C 
HETATM    7  C19 UNL     1       3.930  -4.725  -0.188  1.00  0.00     0.020 C 
HETATM    8  C20 UNL     1       3.672  -2.978   1.511  1.00  0.00     0.221 C 
HETATM    9  O3  UNL     1       3.431  -3.834   2.436  1.00  0.00    -0.273 OA
HETATM   10  N2  UNL     1       4.297  -1.768   1.872  1.00  0.00    -0.359 N 
ATOM     11  H2  UNL     1       5.180  -1.853   2.376  1.00  0.00     0.162 HD
HETATM   12  C21 UNL     1       3.842  -0.428   1.616  1.00  0.00     0.152 C 
HETATM   13  C22 UNL     1       4.355   0.167   0.324  1.00  0.00     0.292 C 
HETATM   14  N3  UNL     1       3.343   0.958  -0.349  1.00  0.00     0.093 N 
HETATM   15  C26 UNL     1       3.080   0.373  -1.614  1.00  0.00     0.279 C 
HETATM   16  C27 UNL     1       1.643   0.184  -1.976  1.00  0.00     0.040 C 
HETATM   17  C28 UNL     1       1.081   1.387  -2.730  1.00  0.00     0.014 C 
ENDROOT
BRANCH   1  18
HETATM   18  C13 UNL     1      -0.672   0.090  -1.216  1.00  0.00     0.159 C 
BRANCH  18  19
HETATM   19  N1  UNL     1      -1.614  -0.001  -0.075  1.00  0.00    -0.368 N 
HETATM   20  C6  UNL     1      -1.481   0.998   0.826  1.00  0.00     0.086 C 
BRANCH  20  21
HETATM   21  C5  UNL     1      -2.424   2.048   1.196  1.00  0.00    -0.009 C 
BRANCH  21  22
HETATM   22  C4  UNL     1      -3.746   1.777   1.788  1.00  0.00     0.032 C 
BRANCH  22  23
HETATM   23  C2  UNL     1      -4.428   3.140   2.122  1.00  0.00    -0.019 C 
HETATM   24  C1  UNL     1      -4.595   3.956   0.864  1.00  0.00     0.010 C 
HETATM   25  C3  UNL     1      -5.757   2.867   2.734  1.00  0.00     0.010 C 
ENDBRANCH  22  23
ENDBRANCH  21  22
ENDBRANCH  20  21
BRANCH  19  26
HETATM   26  C7  UNL     1      -2.322  -1.176  -0.085  1.00  0.00     0.068 C 
BRANCH  26  27
HETATM   27  C8  UNL     1      -3.791  -1.304  -0.182  1.00  0.00     0.028 C 
HETATM   28  C9  UNL     1      -4.374  -0.669  -1.424  1.00  0.00     0.036 C 
HETATM   29  C10 UNL     1      -4.268  -1.535  -2.640  1.00  0.00     0.168 C 
HETATM   30  O1  UNL     1      -4.766  -2.816  -2.449  1.00  0.00    -0.391 OA
HETATM   31  C11 UNL     1      -3.951  -3.441  -1.512  1.00  0.00     0.168 C 
HETATM   32  C12 UNL     1      -4.179  -2.809  -0.183  1.00  0.00     0.036 C 
ENDBRANCH  26  27
ENDBRANCH  19  26
ENDBRANCH  18  19
ENDBRANCH   1  18
BRANCH  14  33
HETATM   33  C23 UNL     1       3.707   2.323  -0.509  1.00  0.00     0.306 C 
BRANCH  33  34
HETATM   34  C24 UNL     1       3.787   3.129   0.745  1.00  0.00     0.170 C 
BRANCH  34  35
HETATM   35  O4  UNL     1       2.606   3.196   1.450  1.00  0.00    -0.392 OA
ATOM     36  H4  UNL     1       2.657   3.709   2.248  1.00  0.00     0.210 HD
ENDBRANCH  34  35
BRANCH  34  37
HETATM   37  C25 UNL     1       4.137   4.554   0.329  1.00  0.00     0.197 C 
BRANCH  37  38
HETATM   38  O5  UNL     1       5.330   4.586  -0.396  1.00  0.00    -0.398 OA
ATOM     39  H5  UNL     1       5.548   5.474  -0.655  1.00  0.00     0.209 HD
ENDBRANCH  37  38
ENDBRANCH  34  37
ENDBRANCH  33  34
ENDBRANCH  14  33
TORSDOF 12
