REMARK  8 active torsions:
REMARK  status: ('A' for Active; 'I' for Inactive)
REMARK    1  A    between atoms: N1_1  and  C1_5 
REMARK    2  A    between atoms: C1_5  and  C2_6 
REMARK    3  A    between atoms: C2_6  and  C3_7 
REMARK    4  A    between atoms: C3_7  and  O1_8 
REMARK    5  A    between atoms: O1_8  and  C4_9 
REMARK    6  A    between atoms: C5_10  and  C6_11 
REMARK    7  A    between atoms: C6_11  and  N2_12 
REMARK    8  A    between atoms: C6_11  and  N3_16 
ROOT
HETATM    1  C4  UNL     1      -0.524   0.206   0.063  1.00  0.00     0.103 A 
HETATM    2  C5  UNL     1      -1.112  -1.029   0.002  1.00  0.00     0.101 A 
HETATM    3  C7  UNL     1      -2.481  -1.143   0.093  1.00  0.00     0.259 A 
HETATM    4  O2  UNL     1      -3.055  -2.284   0.037  1.00  0.00    -0.267 OA
HETATM    5  N4  UNL     1      -3.292  -0.104   0.241  1.00  0.00    -0.308 N 
ATOM      6  H4  UNL     1      -4.302  -0.232   0.303  1.00  0.00     0.170 HD
HETATM    7  C8  UNL     1      -2.748   1.116   0.306  1.00  0.00     0.130 A 
HETATM    8  N5  UNL     1      -3.539   2.184   0.468  1.00  0.00    -0.293 N 
ATOM      9  H5  UNL     1      -4.548   2.044   0.528  1.00  0.00     0.172 HD
HETATM   10  C9  UNL     1      -3.050   3.441   0.555  1.00  0.00     0.328 A 
HETATM   11  O3  UNL     1      -3.784   4.440   0.706  1.00  0.00    -0.247 OA
HETATM   12  N6  UNL     1      -1.719   3.633   0.476  1.00  0.00    -0.275 N 
ATOM     13  H6  UNL     1      -1.331   4.574   0.540  1.00  0.00     0.173 HD
HETATM   14  C10 UNL     1      -0.909   2.577   0.313  1.00  0.00     0.266 A 
HETATM   15  O4  UNL     1       0.304   2.803   0.250  1.00  0.00    -0.267 OA
HETATM   16  C11 UNL     1      -1.354   1.282   0.218  1.00  0.00     0.110 A 
ENDROOT
BRANCH   2  17
HETATM   17  C6  UNL     1      -0.352  -2.292  -0.160  1.00  0.00     0.419 C 
BRANCH  17  18
HETATM   18  N2  UNL     1      -1.043  -3.077  -1.163  1.00  0.00    -0.046 N 
ATOM     19  H23 UNL     1      -2.028  -3.227  -0.945  1.00  0.00     0.277 HD
ATOM     20  H22 UNL     1      -1.179  -2.576  -2.041  1.00  0.00     0.277 HD
ATOM     21  H21 UNL     1      -0.520  -3.946  -1.274  1.00  0.00     0.277 HD
ENDBRANCH  17  18
BRANCH  17  22
HETATM   22  N3  UNL     1      -0.461  -3.062   1.090  1.00  0.00    -0.046 N 
ATOM     23  H33 UNL     1      -0.165  -2.528   1.907  1.00  0.00     0.277 HD
ATOM     24  H32 UNL     1      -1.429  -3.220   1.371  1.00  0.00     0.277 HD
ATOM     25  H31 UNL     1       0.062  -3.931   0.979  1.00  0.00     0.277 HD
ENDBRANCH  17  22
ENDBRANCH   2  17
BRANCH   1  26
HETATM   26  O1  UNL     1       0.816   0.336  -0.026  1.00  0.00    -0.349 OA
BRANCH  26  27
HETATM   27  C3  UNL     1       1.634   0.433  -1.150  1.00  0.00     0.177 C 
BRANCH  27  28
HETATM   28  C2  UNL     1       3.081   0.581  -0.714  1.00  0.00     0.054 C 
BRANCH  28  29
HETATM   29  C1  UNL     1       3.545  -0.597   0.106  1.00  0.00     0.231 C 
BRANCH  29  30
HETATM   30  N1  UNL     1       4.926  -0.411   0.498  1.00  0.00    -0.079 N 
ATOM     31  H13 UNL     1       5.532  -0.240  -0.304  1.00  0.00     0.274 HD
ATOM     32  H12 UNL     1       5.070   0.474   0.984  1.00  0.00     0.274 HD
ATOM     33  H11 UNL     1       5.240  -1.208   1.052  1.00  0.00     0.274 HD
ENDBRANCH  29  30
ENDBRANCH  28  29
ENDBRANCH  27  28
ENDBRANCH  26  27
ENDBRANCH   1  26
TORSDOF 8
