REMARK  10 active torsions:
REMARK  status: ('A' for Active; 'I' for Inactive)
REMARK    1  A    between atoms: C3_5  and  N2_6 
REMARK    2  A    between atoms: N2_6  and  N3_8 
REMARK       I    between atoms: N3_8  and  C4_10 
REMARK    3  A    between atoms: C5_13  and  C6_14 
REMARK    4  A    between atoms: C6_14  and  C7_15 
REMARK    5  A    between atoms: C6_14  and  N9_23 
REMARK    6  A    between atoms: C7_15  and  C8_16 
REMARK    7  A    between atoms: C8_16  and  C9_17 
REMARK    8  A    between atoms: C9_17  and  N6_18 
REMARK    9  A    between atoms: C11_25  and  C12_26 
REMARK   10  A    between atoms: C12_26  and  N10_27 
ROOT
HETATM    1  C1  UNL     1      -3.147   4.591  -1.290  1.00  0.00     0.049 C 
HETATM    2  C2  UNL     1      -2.322   3.610  -1.006  1.00  0.00     0.093 A 
HETATM    3  N1  UNL     1      -2.768   2.588  -0.265  1.00  0.00    -0.336 N 
ATOM      4  H1  UNL     1      -3.734   2.592   0.062  1.00  0.00     0.168 HD
HETATM    5  C3  UNL     1      -1.967   1.555   0.057  1.00  0.00     0.150 A 
HETATM    6  C5  UNL     1      -0.639   1.520  -0.375  1.00  0.00     0.103 A 
HETATM    7  N11 UNL     1      -0.217   2.557  -1.117  1.00  0.00    -0.317 N 
ATOM      8  H11 UNL     1       0.747   2.561  -1.449  1.00  0.00     0.169 HD
HETATM    9  C13 UNL     1      -1.021   3.597  -1.442  1.00  0.00     0.272 A 
HETATM   10  O1  UNL     1      -0.561   4.539  -2.142  1.00  0.00    -0.266 OA
ENDROOT
BRANCH   6  11
HETATM   11  C6  UNL     1       0.118   0.471  -0.051  1.00  0.00     0.039 C 
BRANCH  11  12
HETATM   12  C7  UNL     1       1.534   0.321  -0.445  1.00  0.00     0.061 C 
BRANCH  12  13
HETATM   13  C8  UNL     1       2.401  -0.051   0.758  1.00  0.00     0.026 C 
BRANCH  13  14
HETATM   14  C9  UNL     1       3.821  -0.177   0.239  1.00  0.00     0.122 C 
BRANCH  14  15
HETATM   15  N6  UNL     1       4.719  -0.526   1.299  1.00  0.00    -0.367 N 
HETATM   16  C10 UNL     1       5.420  -1.581   1.269  1.00  0.00     0.196 C 
HETATM   17  N7  UNL     1       6.305  -1.913   2.327  1.00  0.00    -0.067 NA
HETATM   18  N8  UNL     1       5.332  -2.463   0.163  1.00  0.00    -0.067 NA
ATOM     19  H6  UNL     1       4.797   0.095   2.104  1.00  0.00     0.161 HD
ENDBRANCH  14  15
ENDBRANCH  13  14
ENDBRANCH  12  13
ENDBRANCH  11  12
BRANCH  11  20
HETATM   20  N9  UNL     1      -0.474  -0.570   0.702  1.00  0.00    -0.369 N 
HETATM   21  C11 UNL     1      -0.499  -1.812   0.461  1.00  0.00     0.088 C 
ATOM     22  H9  UNL     1      -0.946  -0.279   1.558  1.00  0.00     0.165 HD
BRANCH  21  23
HETATM   23  C12 UNL     1       0.081  -2.521  -0.675  1.00  0.00     0.274 C 
BRANCH  23  24
HETATM   24  N10 UNL     1      -0.503  -3.846  -0.858  1.00  0.00    -0.075 N 
ATOM     25 3H10 UNL     1      -0.434  -4.400  -0.004  1.00  0.00     0.274 HD
ATOM     26 2H10 UNL     1      -1.519  -3.793  -0.936  1.00  0.00     0.274 HD
ATOM     27 1H10 UNL     1      -0.098  -4.342  -1.652  1.00  0.00     0.274 HD
ENDBRANCH  23  24
ENDBRANCH  21  23
ENDBRANCH  11  20
ENDBRANCH   6  11
BRANCH   5  28
HETATM   28  N2  UNL     1      -2.419   0.577   0.790  1.00  0.00    -0.281 N 
ATOM     29  H2  UNL     1      -1.820  -0.210   1.039  1.00  0.00     0.188 HD
BRANCH  28  30
HETATM   30  N3  UNL     1      -3.743   0.634   1.225  1.00  0.00    -0.274 N 
HETATM   31  C4  UNL     1      -4.724   0.101   0.623  1.00  0.00     0.215 C 
HETATM   32  N4  UNL     1      -4.565  -0.624  -0.585  1.00  0.00    -0.065 NA
HETATM   33  N5  UNL     1      -6.031   0.224   1.160  1.00  0.00    -0.065 NA
ATOM     34  H3  UNL     1      -3.936   1.141   2.089  1.00  0.00     0.189 HD
ENDBRANCH  28  30
ENDBRANCH   5  28
TORSDOF 10
