REMARK  8 active torsions:
REMARK  status: ('A' for Active; 'I' for Inactive)
REMARK    1  A    between atoms: C3_3  and  N1_4 
REMARK    2  A    between atoms: C5_10  and  C6_11 
REMARK       I    between atoms: C6_11  and  N3_13 
REMARK    3  A    between atoms: N3_13  and  C7_15 
REMARK    4  A    between atoms: C7_15  and  C8_16 
REMARK    5  A    between atoms: C8_16  and  C9_17 
REMARK       I    between atoms: C9_17  and  N4_19 
REMARK    6  A    between atoms: N4_19  and  C10_21 
REMARK    7  A    between atoms: C10_21  and  C11_22 
REMARK       I    between atoms: C11_22  and  N5_24 
REMARK    8  A    between atoms: N5_24  and  N6_26 
ROOT
HETATM    1  C6  UNL     1      -1.835  -0.640  -0.392  1.00  0.00     0.248 C 
HETATM    2  O1  UNL     1      -0.871  -0.413  -1.119  1.00  0.00    -0.268 OA
HETATM    3  N3  UNL     1      -2.055  -1.927   0.136  1.00  0.00    -0.333 N 
ATOM      4  H3  UNL     1      -2.897  -1.966   0.711  1.00  0.00     0.168 HD
ENDROOT
BRANCH   1   5
HETATM    5  C5  UNL     1      -2.807   0.398  -0.031  1.00  0.00     0.122 C 
HETATM    6  C4  UNL     1      -2.817   1.656  -0.394  1.00  0.00     0.114 A 
HETATM    7  N2  UNL     1      -1.928   2.249  -1.176  1.00  0.00    -0.328 N 
HETATM    8  N7  UNL     1      -3.837   2.459   0.065  1.00  0.00    -0.309 N 
HETATM    9  C3  UNL     1      -1.985   3.576  -1.530  1.00  0.00     0.115 A 
ATOM     10  H2  UNL     1      -1.156   1.688  -1.537  1.00  0.00     0.169 HD
HETATM   11  C2  UNL     1      -3.004   4.367  -1.069  1.00  0.00     0.066 A 
HETATM   12  C1  UNL     1      -3.112   5.650  -1.377  1.00  0.00     0.033 C 
HETATM   13  C12 UNL     1      -3.928   3.750  -0.255  1.00  0.00     0.260 A 
HETATM   14  O4  UNL     1      -4.881   4.481   0.179  1.00  0.00    -0.267 OA
ATOM     15  H7  UNL     1      -4.549   2.051   0.672  1.00  0.00     0.170 HD
BRANCH   9  16
HETATM   16  N1  UNL     1      -1.093   4.093  -2.293  1.00  0.00    -0.385 N 
ATOM     17  H12 UNL     1      -1.135   5.078  -2.556  1.00  0.00     0.157 HD
ATOM     18  H11 UNL     1      -0.334   3.504  -2.636  1.00  0.00     0.157 HD
ENDBRANCH   9  16
ENDBRANCH   1   5
BRANCH   3  19
HETATM   19  C7  UNL     1      -1.406  -3.167   0.069  1.00  0.00     0.097 C 
BRANCH  19  20
HETATM   20  C8  UNL     1      -0.064  -3.297   0.625  1.00  0.00     0.091 C 
BRANCH  20  21
HETATM   21  C9  UNL     1       1.126  -2.723   0.069  1.00  0.00     0.242 C 
HETATM   22  O2  UNL     1       1.387  -2.372  -1.104  1.00  0.00    -0.269 OA
HETATM   23  N4  UNL     1       2.237  -2.496   0.986  1.00  0.00    -0.349 N 
ATOM     24  H4  UNL     1       2.133  -2.747   1.969  1.00  0.00     0.163 HD
BRANCH  23  25
HETATM   25  C10 UNL     1       3.472  -1.927   0.532  1.00  0.00     0.227 C 
BRANCH  25  26
HETATM   26  C11 UNL     1       4.405  -1.816   1.666  1.00  0.00     0.253 C 
HETATM   27  O3  UNL     1       4.065  -2.193   2.816  1.00  0.00    -0.270 OA
HETATM   28  N5  UNL     1       5.708  -1.265   1.416  1.00  0.00    -0.275 N 
ATOM     29  H5  UNL     1       5.966  -0.964   0.476  1.00  0.00     0.189 HD
BRANCH  28  30
HETATM   30  N6  UNL     1       6.627  -1.143   2.476  1.00  0.00    -0.343 N 
ATOM     31  H62 UNL     1       6.353  -1.449   3.410  1.00  0.00     0.176 HD
ATOM     32  H61 UNL     1       7.552  -0.752   2.299  1.00  0.00     0.176 HD
ENDBRANCH  28  30
ENDBRANCH  25  26
ENDBRANCH  23  25
ENDBRANCH  20  21
ENDBRANCH  19  20
ENDBRANCH   3  19
TORSDOF 8
