REMARK  7 active torsions:
REMARK  status: ('A' for Active; 'I' for Inactive)
REMARK    1  A    between atoms: C2_2  and  C3_3 
REMARK    2  A    between atoms: C2_2  and  N2_9 
REMARK    3  A    between atoms: C3_3  and  C4_4 
REMARK    4  A    between atoms: C4_4  and  N1_5 
REMARK    5  A    between atoms: N2_9  and  C5_11 
REMARK    6  A    between atoms: C8_17  and  C9_18 
REMARK    7  A    between atoms: C9_18  and  C10_19 
ROOT
HETATM    1  C5  UNL     1      -0.810   0.165   0.454  1.00  0.00     0.697 A 
HETATM    2  N3  UNL     1       0.063   1.173   0.758  1.00  0.00    -0.153 N 
ATOM      3  H3  UNL     1      -0.237   1.890   1.418  1.00  0.00     0.187 HD
HETATM    4  C6  UNL     1       1.287   1.266   0.235  1.00  0.00     0.292 A 
HETATM    5  O1  UNL     1       2.083   2.210   0.525  1.00  0.00    -0.265 OA
HETATM    6  C7  UNL     1       1.684   0.292  -0.654  1.00  0.00     0.169 A 
HETATM    7  C8  UNL     1       2.858   0.128  -1.349  1.00  0.00     0.070 A 
HETATM    8  N8  UNL     1       2.647  -1.013  -2.079  1.00  0.00    -0.286 N 
ATOM      9  H8  UNL     1       3.314  -1.442  -2.721  1.00  0.00     0.188 HD
HETATM   10  N9  UNL     1       1.450  -1.458  -1.815  1.00  0.00    -0.220 N 
ATOM     11  H9  UNL     1       1.048  -2.298  -2.231  1.00  0.00     0.210 HD
HETATM   12  N10 UNL     1       0.823  -0.692  -0.947  1.00  0.00    -0.160 N 
HETATM   13  N11 UNL     1      -0.411  -0.770  -0.410  1.00  0.00    -0.109 N 
ATOM     14  H11 UNL     1      -1.034  -1.537  -0.662  1.00  0.00     0.208 HD
ENDROOT
BRANCH   1  15
HETATM   15  N2  UNL     1      -1.927   0.168   0.993  1.00  0.00    -0.220 N 
ATOM     16  H2  UNL     1      -2.038   0.967   1.618  1.00  0.00     0.178 HD
BRANCH  15  17
HETATM   17  C2  UNL     1      -3.075  -0.629   0.974  1.00  0.00     0.097 C 
HETATM   18  C1  UNL     1      -2.948  -2.027   1.523  1.00  0.00     0.032 C 
BRANCH  17  19
HETATM   19  C3  UNL     1      -3.804  -0.673  -0.348  1.00  0.00     0.052 C 
BRANCH  19  20
HETATM   20  C4  UNL     1      -3.965   0.684  -0.962  1.00  0.00     0.231 C 
BRANCH  20  21
HETATM   21  N1  UNL     1      -4.721   1.564  -0.088  1.00  0.00    -0.079 N 
ATOM     22  H13 UNL     1      -5.621   1.158   0.168  1.00  0.00     0.274 HD
ATOM     23  H12 UNL     1      -4.305   1.619   0.842  1.00  0.00     0.274 HD
ATOM     24  H11 UNL     1      -4.831   2.488  -0.506  1.00  0.00     0.274 HD
ENDBRANCH  20  21
ENDBRANCH  19  20
ENDBRANCH  17  19
ENDBRANCH  15  17
ENDBRANCH   1  15
BRANCH   7  25
HETATM   25  C9  UNL     1       4.126   0.842  -1.386  1.00  0.00     0.140 C 
BRANCH  25  26
HETATM   26  C10 UNL     1       5.018   0.427  -0.290  1.00  0.00     0.118 A 
HETATM   27  N4  UNL     1       5.798  -0.661  -0.367  1.00  0.00    -0.272 N 
HETATM   28  N5  UNL     1       6.478  -0.755   0.749  1.00  0.00    -0.227 N 
ATOM     29  H4  UNL     1       5.852  -1.304  -1.157  1.00  0.00     0.190 HD
HETATM   30  N6  UNL     1       6.154   0.245   1.539  1.00  0.00    -0.227 N 
ATOM     31  H5  UNL     1       7.152  -1.488   0.970  1.00  0.00     0.210 HD
HETATM   32  N7  UNL     1       5.255   0.971   0.897  1.00  0.00    -0.272 N 
ATOM     33  H6  UNL     1       6.526   0.426   2.471  1.00  0.00     0.210 HD
ATOM     34  H7  UNL     1       4.813   1.817   1.257  1.00  0.00     0.190 HD
ENDBRANCH  25  26
ENDBRANCH   7  25
TORSDOF 7
