REMARK  6 active torsions:
REMARK  status: ('A' for Active; 'I' for Inactive)
REMARK    1  A    between atoms: C2_2  and  N1_3 
REMARK       I    between atoms: N1_3  and  C3_5 
REMARK    2  A    between atoms: C3_5  and  C4_7 
REMARK    3  A    between atoms: C5_13  and  N5_14 
REMARK    4  A    between atoms: N5_14  and  C6_16 
REMARK    5  A    between atoms: C7_21  and  N8_22 
REMARK    6  A    between atoms: C9_32  and  C10_33 
ROOT
HETATM    1  C4  UNL     1      -1.721  -0.186  -0.374  1.00  0.00     0.148 A 
HETATM    2  N2  UNL     1      -0.626   0.032   0.430  1.00  0.00    -0.257 N 
ATOM      3  H2  UNL     1      -0.753   0.621   1.253  1.00  0.00     0.190 HD
HETATM    4  N3  UNL     1       0.564  -0.461   0.214  1.00  0.00    -0.004 N 
HETATM    5  N4  UNL     1       1.737  -0.386   0.841  1.00  0.00    -0.095 N 
ATOM      6  H4  UNL     1       1.910   0.138   1.699  1.00  0.00     0.208 HD
HETATM    7  C5  UNL     1       2.654  -1.099   0.179  1.00  0.00     0.728 A 
HETATM    8  N10 UNL     1       2.027  -1.621  -0.874  1.00  0.00    -0.017 N 
ATOM      9  H10 UNL     1       2.458  -2.220  -1.578  1.00  0.00     0.203 HD
HETATM   10  C8  UNL     1       0.732  -1.234  -0.865  1.00  0.00     0.734 A 
HETATM   11  N11 UNL     1      -0.297  -1.491  -1.702  1.00  0.00    -0.183 N 
ATOM     12  H11 UNL     1      -0.147  -2.083  -2.519  1.00  0.00     0.184 HD
HETATM   13  C9  UNL     1      -1.550  -0.960  -1.462  1.00  0.00     0.120 A 
ENDROOT
BRANCH   7  14
HETATM   14  N5  UNL     1       4.035  -1.294   0.494  1.00  0.00    -0.018 N 
ATOM     15  H5  UNL     1       4.400  -2.212   0.749  1.00  0.00     0.203 HD
BRANCH  14  16
HETATM   16  C6  UNL     1       4.807  -0.244   0.440  1.00  0.00     0.726 A 
HETATM   17  N6  UNL     1       4.464   1.015   0.120  1.00  0.00    -0.117 N 
HETATM   18  N7  UNL     1       5.505   1.826   0.167  1.00  0.00    -0.118 N 
ATOM     19  H6  UNL     1       3.519   1.307  -0.128  1.00  0.00     0.206 HD
HETATM   20  C7  UNL     1       6.534   1.040   0.530  1.00  0.00     0.705 A 
ATOM     21  H7  UNL     1       5.524   2.827  -0.029  1.00  0.00     0.206 HD
HETATM   22  N9  UNL     1       6.122  -0.235   0.701  1.00  0.00    -0.019 N 
ATOM     23  H9  UNL     1       6.697  -1.032   0.974  1.00  0.00     0.203 HD
BRANCH  20  24
HETATM   24  N8  UNL     1       7.744   1.432   0.694  1.00  0.00    -0.233 N 
ATOM     25  H82 UNL     1       8.055   2.395   0.565  1.00  0.00     0.174 HD
ATOM     26  H81 UNL     1       8.524   0.836   0.969  1.00  0.00     0.174 HD
ENDBRANCH  20  24
ENDBRANCH  14  16
ENDBRANCH   7  14
BRANCH   1  27
HETATM   27  C3  UNL     1      -2.944   0.441   0.005  1.00  0.00     0.272 C 
HETATM   28  N1  UNL     1      -4.195  -0.141   0.292  1.00  0.00    -0.356 N 
ATOM     29  H1  UNL     1      -4.277  -1.156   0.232  1.00  0.00     0.162 HD
HETATM   30  O1  UNL     1      -2.912   1.730   0.115  1.00  0.00    -0.266 OA
BRANCH  28  31
HETATM   31  C2  UNL     1      -5.369   0.616   0.666  1.00  0.00     0.118 C 
HETATM   32  C1  UNL     1      -6.561  -0.259   0.914  1.00  0.00     0.026 C 
ENDBRANCH  28  31
ENDBRANCH   1  27
BRANCH  13  33
HETATM   33  C10 UNL     1      -2.593  -1.215  -2.423  1.00  0.00     0.291 C 
HETATM   34  O2  UNL     1      -3.765  -0.830  -2.427  1.00  0.00    -0.300 OA
ENDBRANCH  13  33
TORSDOF 6
