REMARK  8 active torsions:
REMARK  status: ('A' for Active; 'I' for Inactive)
REMARK    1  A    between atoms: O1_2  and  C2_3 
REMARK    2  A    between atoms: C2_3  and  N2_7 
REMARK    3  A    between atoms: N2_7  and  C3_9 
REMARK    4  A    between atoms: C4_14  and  C5_15 
REMARK       I    between atoms: C5_15  and  N5_17 
REMARK    5  A    between atoms: N5_17  and  N6_19 
REMARK    6  A    between atoms: C6_21  and  C7_22 
REMARK    7  A    between atoms: C7_22  and  C8_24 
REMARK    8  A    between atoms: C8_24  and  O4_26 
ROOT
HETATM    1  C3  UNL     1       3.132   0.351  -1.119  1.00  0.00     0.701 A 
HETATM    2  N3  UNL     1       2.109   0.990  -1.737  1.00  0.00    -0.131 N 
ATOM      3  H3  UNL     1       2.314   1.619  -2.513  1.00  0.00     0.205 HD
HETATM    4  N4  UNL     1       0.841   0.819  -1.359  1.00  0.00    -0.278 N 
ATOM      5  H4  UNL     1       0.097   1.316  -1.848  1.00  0.00     0.188 HD
HETATM    6  C4  UNL     1       0.535  -0.001  -0.341  1.00  0.00     0.160 A 
HETATM    7  C10 UNL     1       1.576  -0.650   0.288  1.00  0.00     0.165 A 
HETATM    8  N7  UNL     1       1.309  -1.514   1.353  1.00  0.00    -0.079 NA
HETATM    9  N8  UNL     1       2.866  -0.468  -0.108  1.00  0.00    -0.175 N 
ATOM     10  H8  UNL     1       3.623  -0.958   0.369  1.00  0.00     0.185 HD
ENDROOT
BRANCH   6  11
HETATM   11  C5  UNL     1      -0.831  -0.221   0.110  1.00  0.00     0.291 C 
HETATM   12  O2  UNL     1      -1.112  -0.976   1.048  1.00  0.00    -0.264 OA
HETATM   13  N5  UNL     1      -1.875   0.467  -0.563  1.00  0.00    -0.265 N 
ATOM     14  H5  UNL     1      -1.645   1.091  -1.336  1.00  0.00     0.190 HD
BRANCH  13  15
HETATM   15  N6  UNL     1      -3.219   0.306  -0.186  1.00  0.00    -0.305 N 
HETATM   16  C6  UNL     1      -3.596   0.469   1.031  1.00  0.00     0.160 C 
ATOM     17  H6  UNL     1      -3.909   0.054  -0.893  1.00  0.00     0.186 HD
BRANCH  16  18
HETATM   18  C7  UNL     1      -4.986   0.296   1.381  1.00  0.00     0.194 C 
HETATM   19  O3  UNL     1      -5.332   0.463   2.594  1.00  0.00    -0.289 OA
BRANCH  18  20
HETATM   20  C8  UNL     1      -5.968  -0.066   0.345  1.00  0.00     0.189 C 
HETATM   21  C9  UNL     1      -5.956   0.979  -0.758  1.00  0.00     0.048 C 
BRANCH  20  22
HETATM   22  O4  UNL     1      -7.223  -0.171   0.942  1.00  0.00    -0.388 OA
ATOM     23  H4  UNL     1      -7.856  -0.405   0.274  1.00  0.00     0.210 HD
ENDBRANCH  20  22
ENDBRANCH  18  20
ENDBRANCH  16  18
ENDBRANCH  13  15
ENDBRANCH   6  11
BRANCH   1  24
HETATM   24  N2  UNL     1       4.311   0.596  -1.573  1.00  0.00    -0.154 N 
ATOM     25  H2  UNL     1       4.385   1.246  -2.355  1.00  0.00     0.188 HD
BRANCH  24  26
HETATM   26  C2  UNL     1       5.502   0.044  -1.082  1.00  0.00     0.231 C 
HETATM   27  N1  UNL     1       5.780  -1.220  -1.084  1.00  0.00    -0.365 N 
ATOM     28  H12 UNL     1       6.647  -1.622  -0.727  1.00  0.00     0.159 HD
ATOM     29  H11 UNL     1       5.075  -1.845  -1.474  1.00  0.00     0.159 HD
BRANCH  26  30
HETATM   30  O1  UNL     1       6.463   0.896  -0.551  1.00  0.00    -0.327 OA
HETATM   31  C1  UNL     1       7.399   0.475   0.409  1.00  0.00     0.213 C 
ENDBRANCH  26  30
ENDBRANCH  24  26
ENDBRANCH   1  24
TORSDOF 8
