REMARK  14 active torsions:
REMARK  status: ('A' for Active; 'I' for Inactive)
REMARK    1  A    between atoms: C2_2  and  C3_3 
REMARK    2  A    between atoms: C3_3  and  O1_4 
REMARK    3  A    between atoms: O1_4  and  C4_5 
REMARK       I    between atoms: C4_5  and  N1_7 
REMARK    4  A    between atoms: N1_7  and  C5_9 
REMARK    5  A    between atoms: C9_15  and  C10_16 
REMARK    6  A    between atoms: C10_16  and  O3_17 
REMARK    7  A    between atoms: C10_16  and  C11_19 
REMARK    8  A    between atoms: C11_19  and  N3_20 
REMARK    9  A    between atoms: N3_20  and  C12_21 
REMARK   10  A    between atoms: N3_20  and  C18_28 
REMARK   11  A    between atoms: C12_21  and  C13_22 
REMARK   12  A    between atoms: C13_22  and  S1_23 
REMARK   13  A    between atoms: S1_23  and  C14_24 
REMARK   14  A    between atoms: C14_24  and  C15_25 
ROOT
HETATM    1  C5  UNL     1       5.208  -1.486   0.384  1.00  0.00     0.111 A 
HETATM    2  C6  UNL     1       4.353  -2.584   0.468  1.00  0.00     0.079 A 
HETATM    3  C7  UNL     1       3.000  -2.481   0.284  1.00  0.00     0.048 A 
HETATM    4  N2  UNL     1       1.994  -3.356   0.306  1.00  0.00    -0.364 N 
ATOM      5  H2  UNL     1       2.095  -4.354   0.489  1.00  0.00     0.165 HD
HETATM    6  C8  UNL     1       0.819  -2.731   0.051  1.00  0.00     0.099 A 
HETATM    7  C9  UNL     1       1.070  -1.391  -0.146  1.00  0.00     0.005 A 
HETATM    8  C21 UNL     1       2.450  -1.250   0.005  1.00  0.00     0.017 A 
HETATM    9  C22 UNL     1       3.288  -0.167  -0.079  1.00  0.00     0.104 A 
HETATM   10  N4  UNL     1       4.610  -0.312   0.108  1.00  0.00    -0.351 N 
ATOM     11  H4  UNL     1       5.197   0.519   0.036  1.00  0.00     0.166 HD
ENDROOT
BRANCH   7  12
HETATM   12  C10 UNL     1       0.118  -0.273  -0.449  1.00  0.00     0.192 C 
BRANCH  12  13
HETATM   13  O3  UNL     1       0.711   0.443  -1.477  1.00  0.00    -0.386 OA
ATOM     14  H3  UNL     1       0.108   1.151  -1.669  1.00  0.00     0.210 HD
ENDBRANCH  12  13
BRANCH  12  15
HETATM   15  C11 UNL     1      -1.232  -0.822  -0.732  1.00  0.00     0.100 C 
BRANCH  15  16
HETATM   16  N3  UNL     1      -2.291   0.002  -1.030  1.00  0.00    -0.365 N 
BRANCH  16  17
HETATM   17  C12 UNL     1      -3.521  -0.643  -1.315  1.00  0.00     0.138 C 
BRANCH  17  18
HETATM   18  C13 UNL     1      -4.195  -1.348  -0.193  1.00  0.00     0.094 C 
BRANCH  18  19
HETATM   19  S1  UNL     1      -4.630  -0.342   1.208  1.00  0.00    -0.167 SA
BRANCH  19  20
HETATM   20  C14 UNL     1      -5.882   0.901   0.841  1.00  0.00     0.077 C 
BRANCH  20  21
HETATM   21  C15 UNL     1      -7.228   0.314   0.486  1.00  0.00    -0.013 C 
HETATM   22  C16 UNL     1      -8.164   1.470   0.206  1.00  0.00     0.010 C 
HETATM   23  C17 UNL     1      -7.791  -0.463   1.652  1.00  0.00     0.010 C 
ENDBRANCH  20  21
ENDBRANCH  19  20
ENDBRANCH  18  19
ENDBRANCH  17  18
ENDBRANCH  16  17
BRANCH  16  24
HETATM   24  C18 UNL     1      -2.292   1.371  -1.185  1.00  0.00    -0.019 C 
HETATM   25  C19 UNL     1      -1.854   2.075   0.112  1.00  0.00     0.063 C 
HETATM   26  C20 UNL     1      -1.738   2.003  -2.412  1.00  0.00     0.063 C 
ENDBRANCH  16  24
ENDBRANCH  15  16
ENDBRANCH  12  15
ENDBRANCH   7  12
BRANCH   1  27
HETATM   27  N1  UNL     1       6.481  -1.621   0.560  1.00  0.00    -0.288 N 
HETATM   28  C4  UNL     1       7.358  -0.513   0.476  1.00  0.00     0.366 C 
HETATM   29  O2  UNL     1       7.527   0.010  -0.649  1.00  0.00    -0.238 OA
ATOM     30  H1  UNL     1       6.862  -2.545   0.764  1.00  0.00     0.172 HD
BRANCH  28  31
HETATM   31  O1  UNL     1       8.022   0.003   1.561  1.00  0.00    -0.300 OA
BRANCH  31  32
HETATM   32  C3  UNL     1       8.889   1.103   1.435  1.00  0.00     0.207 C 
BRANCH  32  33
HETATM   33  C2  UNL     1       9.992   0.745   0.510  1.00  0.00    -0.011 C 
HETATM   34  C1  UNL     1      10.262   1.377  -0.623  1.00  0.00     0.009 C 
ENDBRANCH  32  33
ENDBRANCH  31  32
ENDBRANCH  28  31
ENDBRANCH   1  27
TORSDOF 14
