REMARK  6 active torsions:
REMARK  status: ('A' for Active; 'I' for Inactive)
REMARK    1  A    between atoms: C4_4  and  C5_5 
REMARK    2  A    between atoms: C12_15  and  C13_16 
REMARK    3  A    between atoms: C13_16  and  C14_17 
REMARK    4  A    between atoms: C14_17  and  O4_18 
REMARK    5  A    between atoms: C14_17  and  C15_20 
REMARK    6  A    between atoms: N1_24  and  C18_26 
ROOT
HETATM    1  C13 UNL     1       0.067  -0.690   0.287  1.00  0.00     0.069 C 
ENDROOT
BRANCH   1   2
HETATM    2  C12 UNL     1      -1.130   0.191   0.158  1.00  0.00     0.156 C 
HETATM    3  C7  UNL     1      -1.941   0.056   1.437  1.00  0.00     0.155 C 
HETATM    4  C6  UNL     1      -3.046   1.076   1.369  1.00  0.00     0.048 C 
HETATM    5  O1  UNL     1      -2.299  -1.193   1.759  1.00  0.00    -0.348 OA
HETATM    6  C5  UNL     1      -3.890   0.803   0.161  1.00  0.00     0.066 C 
HETATM    7  C11 UNL     1      -3.241  -0.293  -0.662  1.00  0.00     0.271 C 
HETATM    8  O2  UNL     1      -3.473  -1.546  -0.216  1.00  0.00    -0.326 OA
HETATM    9  O3  UNL     1      -1.903  -0.018  -0.942  1.00  0.00    -0.353 OA
HETATM   10  C8  UNL     1      -3.240  -1.852   1.074  1.00  0.00     0.160 C 
HETATM   11  C9  UNL     1      -4.522  -1.873   1.923  1.00  0.00     0.078 C 
HETATM   12  C10 UNL     1      -2.805  -3.337   1.046  1.00  0.00     0.078 C 
BRANCH   6  13
HETATM   13  C4  UNL     1      -4.192   2.001  -0.631  1.00  0.00    -0.015 C 
HETATM   14  C2  UNL     1      -5.415   2.488  -0.785  1.00  0.00    -0.091 C 
HETATM   15  C1  UNL     1      -5.729   3.687  -1.576  1.00  0.00     0.042 C 
HETATM   16  C3  UNL     1      -6.547   1.777  -0.115  1.00  0.00     0.042 C 
ENDBRANCH   6  13
ENDBRANCH   1   2
BRANCH   1  17
HETATM   17  C14 UNL     1       0.977  -0.668  -0.908  1.00  0.00     0.155 C 
BRANCH  17  18
HETATM   18  O4  UNL     1       0.274  -1.090  -2.019  1.00  0.00    -0.392 OA
ATOM     19  H4  UNL     1       0.849  -1.076  -2.775  1.00  0.00     0.210 HD
ENDBRANCH  17  18
BRANCH  17  20
HETATM   20  C15 UNL     1       2.164  -1.519  -0.588  1.00  0.00     0.095 C 
HETATM   21  C16 UNL     1       1.808  -2.932  -0.250  1.00  0.00     0.050 C 
HETATM   22  O5  UNL     1       2.779  -0.954   0.577  1.00  0.00    -0.326 OA
HETATM   23  C17 UNL     1       3.845  -0.159   0.197  1.00  0.00     0.115 C 
HETATM   24  N1  UNL     1       4.583   0.495   1.011  1.00  0.00    -0.366 N 
HETATM   25  C22 UNL     1       3.973  -0.201  -1.277  1.00  0.00     0.091 C 
ATOM     26  H1  UNL     1       4.371   0.425   2.006  1.00  0.00     0.162 HD
HETATM   27  C23 UNL     1       3.255  -1.497  -1.581  1.00  0.00     0.026 C 
HETATM   28  C24 UNL     1       2.836  -1.619  -3.009  1.00  0.00     0.014 C 
BRANCH  24  29
HETATM   29  C18 UNL     1       5.692   1.323   0.620  1.00  0.00     0.021 C 
HETATM   30  C19 UNL     1       6.867   0.527   0.096  1.00  0.00     0.037 C 
HETATM   31  C20 UNL     1       6.179   2.025   1.895  1.00  0.00     0.037 C 
HETATM   32  C21 UNL     1       5.310   2.411  -0.350  1.00  0.00     0.037 C 
ENDBRANCH  24  29
ENDBRANCH  17  20
ENDBRANCH   1  17
TORSDOF 6
