REMARK  5 active torsions:
REMARK  status: ('A' for Active; 'I' for Inactive)
REMARK    1  A    between atoms: C14_16  and  O3_17 
REMARK    2  A    between atoms: C14_16  and  C20_24 
REMARK    3  A    between atoms: O3_17  and  C15_18 
REMARK    4  A    between atoms: C15_18  and  C16_20 
REMARK    5  A    between atoms: C22_27  and  O6_28 
ROOT
HETATM    1  C1  UNL     1      -3.585   2.883   2.740  1.00  0.00     0.017 C 
HETATM    2  C2  UNL     1      -3.722   2.078   1.859  1.00  0.00    -0.082 C 
HETATM    3  C3  UNL     1      -3.887   1.110   0.801  1.00  0.00    -0.002 C 
HETATM    4  C4  UNL     1      -3.073   0.085   0.531  1.00  0.00    -0.051 C 
HETATM    5  C5  UNL     1      -3.531  -0.691  -0.601  1.00  0.00     0.053 C 
HETATM    6  C6  UNL     1      -4.655   0.138  -1.198  1.00  0.00     0.017 C 
HETATM    7  C7  UNL     1      -5.074   1.025  -0.097  1.00  0.00     0.049 C 
HETATM    8  C8  UNL     1      -2.502  -0.961  -1.668  1.00  0.00     0.096 C 
HETATM    9  C9  UNL     1      -3.116  -0.596  -3.019  1.00  0.00     0.049 C 
HETATM   10  C10 UNL     1      -2.243  -2.442  -1.775  1.00  0.00     0.049 C 
HETATM   11  O1  UNL     1      -1.326  -0.294  -1.585  1.00  0.00    -0.229 OA
HETATM   12  O2  UNL     1      -1.251   0.705  -0.777  1.00  0.00    -0.225 OA
HETATM   13  C11 UNL     1      -0.658   0.285   0.459  1.00  0.00     0.132 C 
HETATM   14  C12 UNL     1      -0.001   1.554   1.035  1.00  0.00     0.048 C 
HETATM   15  C13 UNL     1       1.432   1.201   1.207  1.00  0.00     0.053 C 
HETATM   16  C14 UNL     1       1.727   0.324   0.078  1.00  0.00     0.159 C 
HETATM   17  C22 UNL     1       0.441  -0.558   0.084  1.00  0.00     0.199 C 
HETATM   18  C23 UNL     1      -1.786  -0.112   1.330  1.00  0.00     0.052 C 
HETATM   19  C24 UNL     1      -1.841  -1.443   1.945  1.00  0.00     0.018 C 
ENDROOT
BRANCH  17  20
HETATM   20  O6  UNL     1       0.785  -1.640   0.834  1.00  0.00    -0.389 OA
ATOM     21  H6  UNL     1       1.513  -2.198   0.586  1.00  0.00     0.210 HD
ENDBRANCH  17  20
BRANCH  16  22
HETATM   22  O3  UNL     1       2.838  -0.529   0.220  1.00  0.00    -0.296 OA
BRANCH  22  23
HETATM   23  C15 UNL     1       4.109  -0.111   0.520  1.00  0.00     0.289 C 
HETATM   24  O4  UNL     1       4.252   1.127   0.703  1.00  0.00    -0.260 OA
BRANCH  23  25
HETATM   25  C16 UNL     1       5.262  -0.963   0.630  1.00  0.00     0.009 C 
HETATM   26  C17 UNL     1       5.114  -2.450   0.391  1.00  0.00     0.054 C 
HETATM   27  C18 UNL     1       6.462  -0.514   0.924  1.00  0.00    -0.018 C 
HETATM   28  C19 UNL     1       6.756   0.906   1.173  1.00  0.00     0.036 C 
ENDBRANCH  23  25
ENDBRANCH  22  23
ENDBRANCH  16  22
BRANCH  16  29
HETATM   29  C20 UNL     1       1.888   1.077  -1.170  1.00  0.00     0.160 C 
HETATM   30  C21 UNL     1       3.038   0.823  -2.120  1.00  0.00     0.094 C 
HETATM   31  O5  UNL     1       1.125   1.966  -1.559  1.00  0.00    -0.295 OA
ENDBRANCH  16  29
TORSDOF 5
