REMARK  7 active torsions:
REMARK  status: ('A' for Active; 'I' for Inactive)
REMARK    1  A    between atoms: C2_2  and  C4_4 
REMARK    2  A    between atoms: C4_4  and  C5_5 
REMARK    3  A    between atoms: C5_5  and  N1_7 
REMARK    4  A    between atoms: N1_7  and  C7_10 
REMARK    5  A    between atoms: C7_10  and  C8_11 
REMARK    6  A    between atoms: C11_14  and  C12_15 
REMARK    7  A    between atoms: N2_19  and  C16_20 
ROOT
HETATM    1  C8  UNL     1       1.234   0.454  -0.407  1.00  0.00     0.079 A 
HETATM    2  C9  UNL     1       0.576  -0.209  -1.421  1.00  0.00     0.037 A 
HETATM    3  C10 UNL     1      -0.761   0.053  -1.238  1.00  0.00     0.036 A 
HETATM    4  C11 UNL     1      -0.881   0.850  -0.144  1.00  0.00     0.059 A 
HETATM    5  O1  UNL     1       0.344   1.050   0.302  1.00  0.00    -0.317 OA
ENDROOT
BRANCH   4   6
HETATM    6  C12 UNL     1      -2.109   1.425   0.489  1.00  0.00     0.071 C 
HETATM    7  C13 UNL     1      -2.541   2.595  -0.333  1.00  0.00     0.015 C 
HETATM    8  C14 UNL     1      -3.797   2.453  -1.101  1.00  0.00     0.031 C 
HETATM    9  C15 UNL     1      -4.361   1.050  -1.158  1.00  0.00     0.273 C 
HETATM   10  N2  UNL     1      -4.435   0.602   0.215  1.00  0.00     0.098 N 
HETATM   11  C21 UNL     1      -3.131   0.400   0.788  1.00  0.00     0.284 C 
BRANCH  10  12
HETATM   12  C16 UNL     1      -5.225  -0.592   0.369  1.00  0.00     0.156 C 
HETATM   13  C17 UNL     1      -4.714  -1.817  -0.310  1.00  0.00     0.049 C 
HETATM   14  C18 UNL     1      -6.706  -0.416   0.084  1.00  0.00     0.041 C 
HETATM   15  C19 UNL     1      -6.810   0.165   1.477  1.00  0.00     0.005 C 
HETATM   16  C20 UNL     1      -5.627  -0.767   1.807  1.00  0.00     0.041 C 
ENDBRANCH  10  12
ENDBRANCH   4   6
BRANCH   1  17
HETATM   17  C7  UNL     1       2.720   0.485  -0.161  1.00  0.00     0.297 C 
BRANCH  17  18
HETATM   18  N1  UNL     1       3.356  -0.533  -0.926  1.00  0.00    -0.066 N 
ATOM     19  H12 UNL     1       3.095  -0.481  -1.911  1.00  0.00     0.278 HD
ATOM     20  H11 UNL     1       2.977  -1.455  -0.713  1.00  0.00     0.278 HD
BRANCH  18  21
HETATM   21  C5  UNL     1       4.785  -0.495  -0.754  1.00  0.00     0.182 C 
HETATM   22  C6  UNL     1       5.368  -1.549  -1.686  1.00  0.00     0.040 C 
BRANCH  21  23
HETATM   23  C4  UNL     1       5.142  -0.757   0.669  1.00  0.00     0.036 C 
BRANCH  23  24
HETATM   24  C2  UNL     1       6.644  -0.772   0.895  1.00  0.00    -0.021 C 
HETATM   25  C1  UNL     1       6.827  -1.047   2.391  1.00  0.00     0.009 C 
HETATM   26  C3  UNL     1       7.298   0.528   0.565  1.00  0.00     0.009 C 
ENDBRANCH  23  24
ENDBRANCH  21  23
ENDBRANCH  18  21
ENDBRANCH  17  18
ENDBRANCH   1  17
TORSDOF 7
