REMARK  8 active torsions:
REMARK  status: ('A' for Active; 'I' for Inactive)
REMARK    1  A    between atoms: C1_2  and  C2_4 
REMARK    2  A    between atoms: C2_4  and  C3_6 
REMARK    3  A    between atoms: C4_7  and  C5_8 
REMARK    4  A    between atoms: C8_11  and  N2_12 
REMARK    5  A    between atoms: C9_14  and  N3_15 
REMARK    6  A    between atoms: C9_14  and  C18_28 
REMARK       I    between atoms: N3_15  and  C10_16 
REMARK    7  A    between atoms: C10_16  and  C11_18 
REMARK    8  A    between atoms: C16_23  and  C17_24 
ROOT
HETATM    1  N2  UNL     1      -0.790   0.354   0.031  1.00  0.00    -0.329 N 
ATOM      2  H2  UNL     1      -1.281   1.222   0.245  1.00  0.00     0.168 HD
HETATM    3  C9  UNL     1      -1.512  -0.629  -0.502  1.00  0.00     0.210 C 
ENDROOT
BRANCH   3   4
HETATM    4  N3  UNL     1      -2.838  -0.383  -0.711  1.00  0.00    -0.345 NA
HETATM    5  C10 UNL     1      -4.161  -0.138  -0.920  1.00  0.00     0.329 C 
HETATM    6  O3  UNL     1      -4.987  -0.931  -1.423  1.00  0.00    -0.251 OA
BRANCH   5   7
HETATM    7  C11 UNL     1      -4.746   1.181  -0.537  1.00  0.00     0.061 A 
HETATM    8  C12 UNL     1      -4.038   2.304  -0.927  1.00  0.00     0.019 A 
HETATM    9  C13 UNL     1      -4.476   3.579  -0.595  1.00  0.00     0.001 A 
HETATM   10  C14 UNL     1      -5.634   3.709   0.133  1.00  0.00     0.001 A 
HETATM   11  C15 UNL     1      -6.335   2.602   0.518  1.00  0.00     0.017 A 
HETATM   12  C16 UNL     1      -5.880   1.293   0.174  1.00  0.00     0.064 A 
BRANCH  12  13
HETATM   13  C17 UNL     1      -6.688   0.137   0.587  1.00  0.00     0.418 C 
HETATM   14  F1  UNL     1      -5.898  -0.729   1.313  1.00  0.00    -0.166 F 
HETATM   15  F2  UNL     1      -7.458  -0.430  -0.377  1.00  0.00    -0.166 F 
HETATM   16  F3  UNL     1      -7.604   0.627   1.574  1.00  0.00    -0.166 F 
ENDBRANCH  12  13
ENDBRANCH   5   7
ENDBRANCH   3   4
BRANCH   3  17
HETATM   17  C18 UNL     1      -0.810  -1.871  -0.820  1.00  0.00     0.091 A 
HETATM   18  C19 UNL     1      -1.455  -3.044  -0.502  1.00  0.00     0.034 A 
HETATM   19  C20 UNL     1      -0.825  -4.232  -0.817  1.00  0.00     0.004 A 
HETATM   20  C21 UNL     1       0.399  -4.259  -1.423  1.00  0.00     0.017 A 
HETATM   21  C22 UNL     1       1.014  -3.043  -1.726  1.00  0.00     0.088 A 
HETATM   22  N4  UNL     1       0.381  -1.911  -1.409  1.00  0.00    -0.362 N 
ATOM     23  H4  UNL     1       0.837  -1.026  -1.631  1.00  0.00     0.165 HD
ENDBRANCH   3  17
BRANCH   1  24
HETATM   24  C8  UNL     1       0.565   0.312   0.323  1.00  0.00     0.034 A 
HETATM   25  C7  UNL     1       1.483   0.973  -0.500  1.00  0.00     0.030 A 
HETATM   26  C6  UNL     1       2.847   0.971  -0.206  1.00  0.00     0.013 A 
HETATM   27  C5  UNL     1       3.311   0.311   0.906  1.00  0.00    -0.036 A 
HETATM   28  C24 UNL     1       2.389  -0.349   1.720  1.00  0.00     0.013 A 
HETATM   29  C23 UNL     1       1.043  -0.351   1.439  1.00  0.00     0.030 A 
BRANCH  27  30
HETATM   30  C4  UNL     1       4.739   0.311   1.264  1.00  0.00     0.015 C 
HETATM   31  C3  UNL     1       5.670   0.944   0.596  1.00  0.00     0.061 C 
BRANCH  31  32
HETATM   32  C2  UNL     1       7.068   0.975   0.906  1.00  0.00     0.236 C 
HETATM   33  O2  UNL     1       7.818   1.666   0.115  1.00  0.00    -0.283 OA
BRANCH  32  34
HETATM   34  C1  UNL     1       7.734   0.332   1.992  1.00  0.00     0.304 C 
HETATM   35  N1  UNL     1       9.171   0.537   2.143  1.00  0.00    -0.054 NA
HETATM   36  O1  UNL     1       7.182  -0.411   2.853  1.00  0.00    -0.267 OA
ENDBRANCH  32  34
ENDBRANCH  31  32
ENDBRANCH  27  30
ENDBRANCH   1  24
TORSDOF 8
