REMARK  8 active torsions:
REMARK  status: ('A' for Active; 'I' for Inactive)
REMARK    1  A    between atoms: C4_7  and  C5_8 
REMARK    2  A    between atoms: C9_18  and  C10_19 
REMARK    3  A    between atoms: C11_20  and  C12_21 
REMARK    4  A    between atoms: C12_21  and  O1_22 
REMARK    5  A    between atoms: C15_28  and  N7_29 
REMARK    6  A    between atoms: N7_29  and  C16_31 
REMARK    7  A    between atoms: C19_34  and  N8_35 
REMARK    8  A    between atoms: C22_38  and  N9_39 
ROOT
HETATM    1  C1  UNL     1      -2.354  -3.946  -2.615  1.00  0.00     0.178 C 
HETATM    2  N1  UNL     1      -3.535  -3.545  -1.835  1.00  0.00    -0.292 N 
HETATM    3  N2  UNL     1      -4.745  -4.072  -1.908  1.00  0.00    -0.309 N 
ATOM      4  H2  UNL     1      -5.001  -4.839  -2.530  1.00  0.00     0.186 HD
HETATM    5  C2  UNL     1      -5.597  -3.469  -1.057  1.00  0.00     0.122 A 
HETATM    6  C3  UNL     1      -4.881  -2.474  -0.381  1.00  0.00     0.027 A 
HETATM    7  C4  UNL     1      -5.213  -1.554   0.583  1.00  0.00     0.021 A 
HETATM    8  C14 UNL     1      -4.234  -0.705   1.032  1.00  0.00     0.104 A 
HETATM    9  N6  UNL     1      -2.988  -0.801   0.515  1.00  0.00    -0.349 N 
ATOM     10  H6  UNL     1      -2.273  -0.161   0.861  1.00  0.00     0.166 HD
HETATM   11  C15 UNL     1      -2.637  -1.691  -0.428  1.00  0.00     0.135 A 
HETATM   12  C31 UNL     1      -3.603  -2.572  -0.911  1.00  0.00     0.107 A 
ENDROOT
BRANCH  11  13
HETATM   13  N7  UNL     1      -1.479  -1.788  -0.916  1.00  0.00    -0.341 N 
ATOM     14  H7  UNL     1      -1.350  -2.508  -1.627  1.00  0.00     0.167 HD
BRANCH  13  15
HETATM   15  C16 UNL     1      -0.333  -1.014  -0.593  1.00  0.00     0.033 A 
HETATM   16  C17 UNL     1       0.459  -1.342   0.486  1.00  0.00     0.032 A 
HETATM   17  C18 UNL     1       1.594  -0.605   0.825  1.00  0.00     0.031 A 
HETATM   18  C19 UNL     1       1.997   0.495   0.107  1.00  0.00     0.030 A 
HETATM   19  C29 UNL     1       1.177   0.814  -0.988  1.00  0.00     0.031 A 
HETATM   20  C30 UNL     1       0.059   0.086  -1.321  1.00  0.00     0.032 A 
BRANCH  18  21
HETATM   21  N8  UNL     1       3.128   1.259   0.422  1.00  0.00    -0.381 N 
HETATM   22  C20 UNL     1       3.903   1.093   1.607  1.00  0.00     0.125 C 
HETATM   23  C21 UNL     1       5.299   0.566   1.299  1.00  0.00     0.055 C 
HETATM   24  C22 UNL     1       5.757   1.108  -0.047  1.00  0.00     0.226 C 
HETATM   25  C27 UNL     1       5.107   2.451  -0.308  1.00  0.00     0.055 C 
HETATM   26  C28 UNL     1       3.592   2.297  -0.498  1.00  0.00     0.125 C 
BRANCH  24  27
HETATM   27  N9  UNL     1       7.164   1.149  -0.214  1.00  0.00     0.097 N 
HETATM   28  C23 UNL     1       7.872   1.993   0.694  1.00  0.00     0.299 C 
HETATM   29  C24 UNL     1       9.283   2.192   0.123  1.00  0.00     0.198 C 
HETATM   30  O2  UNL     1       9.896   0.938   0.182  1.00  0.00    -0.388 OA
HETATM   31  C25 UNL     1       9.246   0.033  -0.655  1.00  0.00     0.198 C 
HETATM   32  C26 UNL     1       7.784  -0.145  -0.258  1.00  0.00     0.299 C 
ENDBRANCH  24  27
ENDBRANCH  18  21
ENDBRANCH  13  15
ENDBRANCH  11  13
BRANCH   7  33
HETATM   33  C5  UNL     1      -6.537  -1.574   1.165  1.00  0.00     0.061 A 
HETATM   34  N3  UNL     1      -6.913  -2.653   1.929  1.00  0.00    -0.351 N 
HETATM   35  C6  UNL     1      -8.085  -2.786   2.513  1.00  0.00     0.182 A 
ATOM     36  H3  UNL     1      -6.235  -3.405   2.052  1.00  0.00     0.166 HD
HETATM   37  N4  UNL     1      -8.983  -1.822   2.365  1.00  0.00    -0.338 N 
HETATM   38  C7  UNL     1      -8.679  -0.736   1.624  1.00  0.00     0.120 A 
ATOM     39  H4  UNL     1      -9.898  -1.901   2.809  1.00  0.00     0.168 HD
HETATM   40  N5  UNL     1      -9.406   0.328   1.317  1.00  0.00    -0.350 N 
HETATM   41  C13 UNL     1      -7.436  -0.581   0.996  1.00  0.00     0.056 A 
HETATM   42  C8  UNL     1      -8.752   1.175   0.534  1.00  0.00     0.111 A 
ATOM     43  H5  UNL     1     -10.360   0.479   1.645  1.00  0.00     0.166 HD
HETATM   44  C9  UNL     1      -7.486   0.596   0.323  1.00  0.00     0.049 A 
BRANCH  44  45
HETATM   45  C10 UNL     1      -6.469   1.162  -0.523  1.00  0.00    -0.062 C 
HETATM   46  C11 UNL     1      -5.645   1.662  -1.266  1.00  0.00    -0.075 C 
BRANCH  46  47
HETATM   47  C12 UNL     1      -4.651   2.271  -2.170  1.00  0.00     0.258 C 
BRANCH  47  48
HETATM   48  O1  UNL     1      -4.860   3.663  -2.247  1.00  0.00    -0.389 OA
ATOM     49  H1  UNL     1      -4.220   4.055  -2.829  1.00  0.00     0.210 HD
ENDBRANCH  47  48
ENDBRANCH  46  47
ENDBRANCH  44  45
ENDBRANCH   7  33
TORSDOF 8
