REMARK  4 active torsions:
REMARK  status: ('A' for Active; 'I' for Inactive)
REMARK    1  A    between atoms: C3_4  and  N2_5 
REMARK    2  A    between atoms: C4_7  and  C5_8 
REMARK    3  A    between atoms: C6_10  and  O2_11 
REMARK    4  A    between atoms: C8_14  and  N3_15 
REMARK       I    between atoms: N3_15  and  C9_17 
ROOT
HETATM    1  N1  UNL     1       0.347   3.793  -1.023  1.00  0.00    -0.191 NA
HETATM    2  C1  UNL     1       0.696   2.675  -1.169  1.00  0.00     0.103 C 
HETATM    3  C2  UNL     1       1.111   1.270  -1.357  1.00  0.00     0.085 A 
HETATM    4  C3  UNL     1       0.202   0.372  -1.845  1.00  0.00     0.096 A 
HETATM    5  S1  UNL     1       1.089  -1.086  -1.896  1.00  0.00    -0.075 SA
HETATM    6  C10 UNL     1       2.581  -0.526  -1.301  1.00  0.00    -0.007 A 
HETATM    7  C11 UNL     1       2.353   0.796  -1.074  1.00  0.00    -0.021 A 
HETATM    8  C12 UNL     1       3.662   1.372  -0.539  1.00  0.00     0.042 C 
HETATM    9  C13 UNL     1       4.318   0.185   0.075  1.00  0.00     0.010 C 
HETATM   10  C14 UNL     1       4.006  -0.904  -0.934  1.00  0.00     0.047 C 
ENDROOT
BRANCH   4  11
HETATM   11  N2  UNL     1      -1.171   0.616  -2.221  1.00  0.00    -0.356 N 
HETATM   12  C4  UNL     1      -2.141   0.351  -1.447  1.00  0.00     0.128 C 
ATOM     13  H2  UNL     1      -1.367   1.015  -3.139  1.00  0.00     0.166 HD
BRANCH  12  14
HETATM   14  C5  UNL     1      -2.003  -0.217  -0.116  1.00  0.00     0.120 A 
HETATM   15  O1  UNL     1      -0.890  -0.540   0.487  1.00  0.00    -0.284 OA
HETATM   16  C6  UNL     1      -1.106  -1.025   1.673  1.00  0.00     0.185 A 
HETATM   17  C7  UNL     1      -2.483  -1.040   1.913  1.00  0.00     0.096 A 
HETATM   18  C8  UNL     1      -3.047  -0.523   0.767  1.00  0.00     0.076 A 
BRANCH  16  19
HETATM   19  O2  UNL     1      -0.208  -1.486   2.635  1.00  0.00    -0.341 OA
ATOM     20  H2  UNL     1      -0.366  -1.841   3.502  1.00  0.00     0.220 HD
ENDBRANCH  16  19
BRANCH  18  21
HETATM   21  N3  UNL     1      -4.423  -0.314   0.474  1.00  0.00    -0.311 N 
HETATM   22  C9  UNL     1      -5.478  -0.620   1.360  1.00  0.00     0.319 C 
HETATM   23  O3  UNL     1      -5.364  -1.107   2.502  1.00  0.00    -0.254 OA
HETATM   24 CL1  UNL     1      -7.143  -0.297   0.839  1.00  0.00    -0.020 Cl
ATOM     25  H3  UNL     1      -4.663   0.082  -0.435  1.00  0.00     0.170 HD
ENDBRANCH  18  21
ENDBRANCH  12  14
ENDBRANCH   4  11
TORSDOF 4
