REMARK  4 active torsions:
REMARK  status: ('A' for Active; 'I' for Inactive)
REMARK    1  A    between atoms: C7_9  and  N2_10 
REMARK    2  A    between atoms: N2_10  and  C8_12 
REMARK    3  A    between atoms: N5_19  and  N6_20 
REMARK    4  A    between atoms: C10_22  and  C11_23 
ROOT
HETATM    1  N1  UNL     1       2.075   2.805  -2.642  1.00  0.00    -0.191 NA
HETATM    2  C1  UNL     1       2.591   2.616  -1.633  1.00  0.00     0.102 C 
HETATM    3  C2  UNL     1       3.254   2.361  -0.373  1.00  0.00     0.074 A 
HETATM    4  C3  UNL     1       4.101   3.287   0.169  1.00  0.00     0.067 A 
HETATM    5  C4  UNL     1       4.744   3.075   1.362  1.00  0.00     0.117 A 
HETATM    6  F1  UNL     1       5.585   3.987   1.903  1.00  0.00    -0.206 F 
HETATM    7  C5  UNL     1       4.529   1.896   2.028  1.00  0.00     0.044 A 
HETATM    8  C6  UNL     1       3.673   0.972   1.471  1.00  0.00     0.034 A 
HETATM    9  C7  UNL     1       3.002   1.129   0.281  1.00  0.00     0.070 A 
ENDROOT
BRANCH   9  10
HETATM   10  N2  UNL     1       2.128   0.215  -0.322  1.00  0.00    -0.187 N 
ATOM     11  H2  UNL     1       1.714   0.484  -1.214  1.00  0.00     0.184 HD
BRANCH  10  12
HETATM   12  C8  UNL     1       1.773  -1.043   0.199  1.00  0.00     0.721 A 
HETATM   13  N3  UNL     1       2.120  -1.691   1.324  1.00  0.00    -0.128 N 
HETATM   14  N4  UNL     1       1.541  -2.874   1.410  1.00  0.00    -0.260 N 
ATOM     15  H3  UNL     1       2.755  -1.314   2.027  1.00  0.00     0.205 HD
HETATM   16  C9  UNL     1       0.776  -3.044   0.317  1.00  0.00     0.230 A 
ATOM     17  H4  UNL     1       1.654  -3.542   2.172  1.00  0.00     0.190 HD
HETATM   18  S1  UNL     1      -0.151  -4.366  -0.046  1.00  0.00    -0.037 SA
HETATM   19  N5  UNL     1       0.917  -1.938  -0.413  1.00  0.00    -0.057 N 
BRANCH  19  20
HETATM   20  N6  UNL     1       0.291  -1.707  -1.634  1.00  0.00    -0.292 N 
HETATM   21  C10 UNL     1      -0.926  -1.308  -1.774  1.00  0.00     0.086 C 
ATOM     22  H6  UNL     1       0.836  -1.865  -2.481  1.00  0.00     0.186 HD
BRANCH  21  23
HETATM   23  C11 UNL     1      -1.850  -1.032  -0.638  1.00  0.00     0.025 C 
HETATM   24  C12 UNL     1      -2.081   0.460  -0.470  1.00  0.00     0.010 C 
HETATM   25  C13 UNL     1      -3.415   0.864  -1.066  1.00  0.00     0.001 C 
HETATM   26  C14 UNL     1      -4.559   0.180  -0.347  1.00  0.00     0.000 C 
HETATM   27  C15 UNL     1      -4.232  -1.228   0.044  1.00  0.00     0.001 C 
HETATM   28  C16 UNL     1      -3.161  -1.753  -0.863  1.00  0.00     0.010 C 
ENDBRANCH  21  23
ENDBRANCH  19  20
ENDBRANCH  10  12
ENDBRANCH   9  10
TORSDOF 4
