REMARK  6 active torsions:
REMARK  status: ('A' for Active; 'I' for Inactive)
REMARK    1  A    between atoms: C2_2  and  C4_4 
REMARK    2  A    between atoms: C12_12  and  O1_13 
REMARK    3  A    between atoms: C13_15  and  O2_16 
REMARK    4  A    between atoms: C17_21  and  O3_22 
REMARK    5  A    between atoms: C18_24  and  C19_25 
REMARK    6  A    between atoms: C19_25  and  C20_26 
ROOT
HETATM    1  C4  UNL     1       4.389   0.623  -0.048  1.00  0.00    -0.011 C 
HETATM    2  C5  UNL     1       3.345   1.264   0.806  1.00  0.00     0.006 C 
HETATM    3  C6  UNL     1       2.776   0.320   1.839  1.00  0.00     0.010 C 
HETATM    4  C7  UNL     1       2.118  -0.900   1.307  1.00  0.00    -0.034 C 
HETATM    5  C8  UNL     1       2.247  -1.957   2.428  1.00  0.00     0.016 C 
HETATM    6  C9  UNL     1       2.999  -1.444   0.191  1.00  0.00    -0.003 C 
HETATM    7  C10 UNL     1       4.404  -0.845   0.247  1.00  0.00     0.010 C 
HETATM    8  C11 UNL     1       2.377  -1.223  -1.165  1.00  0.00     0.040 C 
HETATM    9  C12 UNL     1       1.136  -2.105  -1.159  1.00  0.00     0.153 C 
HETATM   10  C13 UNL     1       0.223  -1.824  -0.020  1.00  0.00     0.088 C 
HETATM   11  C14 UNL     1      -1.154  -1.592  -0.550  1.00  0.00     0.046 C 
HETATM   12  C15 UNL     1      -1.394  -0.360  -1.320  1.00  0.00    -0.001 C 
HETATM   13  C16 UNL     1      -2.476  -0.662  -2.368  1.00  0.00     0.037 C 
HETATM   14  C17 UNL     1      -3.763  -0.087  -1.804  1.00  0.00     0.123 C 
HETATM   15  C18 UNL     1      -3.446   0.361  -0.430  1.00  0.00     0.027 C 
HETATM   16  C23 UNL     1      -2.007   0.725  -0.461  1.00  0.00    -0.034 C 
HETATM   17  C24 UNL     1      -1.837   2.093  -1.068  1.00  0.00     0.016 C 
HETATM   18  C25 UNL     1      -1.322   0.694   0.867  1.00  0.00     0.010 C 
HETATM   19  C26 UNL     1       0.197   0.609   0.652  1.00  0.00     0.009 C 
HETATM   20  C27 UNL     1       0.686  -0.796   0.966  1.00  0.00     0.031 C 
ENDROOT
BRANCH  15  21
HETATM   21  C19 UNL     1      -4.351   1.407   0.134  1.00  0.00     0.068 C 
BRANCH  21  22
HETATM   22  C20 UNL     1      -5.764   0.864   0.169  1.00  0.00     0.260 C 
HETATM   23  O4  UNL     1      -6.667   1.787   0.684  1.00  0.00    -0.359 OA
HETATM   24  C21 UNL     1      -7.800   0.981   0.920  1.00  0.00     0.197 C 
HETATM   25  C22 UNL     1      -7.261  -0.409   1.059  1.00  0.00     0.197 C 
HETATM   26  O5  UNL     1      -5.873  -0.180   1.110  1.00  0.00    -0.359 OA
ENDBRANCH  21  22
ENDBRANCH  15  21
BRANCH  14  27
HETATM   27  O3  UNL     1      -4.210   0.869  -2.668  1.00  0.00    -0.395 OA
ATOM     28  H3  UNL     1      -5.015   1.229  -2.315  1.00  0.00     0.210 HD
ENDBRANCH  14  27
BRANCH  10  29
HETATM   29  O2  UNL     1       0.107  -3.038   0.715  1.00  0.00    -0.387 OA
ATOM     30  H2  UNL     1      -0.476  -2.858   1.443  1.00  0.00     0.210 HD
ENDBRANCH  10  29
BRANCH   9  31
HETATM   31  O1  UNL     1       0.492  -2.083  -2.414  1.00  0.00    -0.393 OA
ATOM     32  H1  UNL     1      -0.282  -2.633  -2.410  1.00  0.00     0.210 HD
ENDBRANCH   9  31
BRANCH   1  33
HETATM   33  C2  UNL     1       5.762   1.190   0.157  1.00  0.00    -0.019 C 
HETATM   34  C1  UNL     1       6.796   0.516  -0.722  1.00  0.00     0.010 C 
HETATM   35  C3  UNL     1       5.814   2.672  -0.204  1.00  0.00     0.010 C 
ENDBRANCH   1  33
TORSDOF 6
