REMARK  3 active torsions:
REMARK  status: ('A' for Active; 'I' for Inactive)
REMARK       I    between atoms: C1_2  and  N3_8 
REMARK    1  A    between atoms: N2_3  and  C2_5 
REMARK    2  A    between atoms: N3_8  and  C5_10 
REMARK    3  A    between atoms: C9_14  and  N4_15 
ROOT
HETATM    1  C5  UNL     1      -1.258   0.061   0.694  1.00  0.00     0.114 C 
HETATM    2  C6  UNL     1      -1.731   0.864  -0.505  1.00  0.00     0.027 C 
HETATM    3  C7  UNL     1      -3.214   0.594  -0.642  1.00  0.00     0.004 C 
HETATM    4  C8  UNL     1      -3.584   0.148   0.754  1.00  0.00     0.035 C 
HETATM    5  C9  UNL     1      -2.443  -0.814   1.056  1.00  0.00     0.206 C 
ENDROOT
BRANCH   1   6
HETATM    6  N3  UNL     1      -0.086  -0.712   0.401  1.00  0.00    -0.358 N 
HETATM    7  C1  UNL     1       1.098  -0.059  -0.012  1.00  0.00     0.184 C 
HETATM    8  N1  UNL     1       1.081   1.326  -0.392  1.00  0.00    -0.064 NA
HETATM    9  N2  UNL     1       2.223  -0.677  -0.062  1.00  0.00    -0.360 N 
ATOM     10  H2  UNL     1       2.259  -1.661   0.203  1.00  0.00     0.162 HD
ATOM     11  H3  UNL     1      -0.107  -1.728   0.490  1.00  0.00     0.162 HD
BRANCH   9  12
HETATM   12  C2  UNL     1       3.441  -0.017  -0.484  1.00  0.00     0.084 A 
HETATM   13  C3  UNL     1       4.684  -0.810  -0.279  1.00  0.00     0.027 A 
HETATM   14  C4  UNL     1       4.428   0.449   0.534  1.00  0.00     0.027 A 
ENDBRANCH   9  12
ENDBRANCH   1   6
BRANCH   5  15
HETATM   15  N4  UNL     1      -2.432  -1.936   0.140  1.00  0.00    -0.073 N 
ATOM     16  H43 UNL     1      -2.426  -1.654  -0.840  1.00  0.00     0.274 HD
ATOM     17  H42 UNL     1      -1.546  -2.442   0.135  1.00  0.00     0.274 HD
ATOM     18  H41 UNL     1      -3.229  -2.524   0.383  1.00  0.00     0.274 HD
ENDBRANCH   5  15
TORSDOF 3
