REMARK  5 active torsions:
REMARK  status: ('A' for Active; 'I' for Inactive)
REMARK    1  A    between atoms: C4_4  and  C5_5 
REMARK    2  A    between atoms: C5_5  and  C6_6 
REMARK    3  A    between atoms: C7_9  and  C8_10 
REMARK    4  A    between atoms: C16_18  and  C17_19 
REMARK    5  A    between atoms: C20_22  and  C21_23 
ROOT
HETATM    1  C6  UNL     1      -1.409   0.379   0.617  1.00  0.00     0.025 A 
HETATM    2  N1  UNL     1      -2.654   0.957   0.555  1.00  0.00    -0.358 N 
ATOM      3  H1  UNL     1      -3.425   0.468   1.009  1.00  0.00     0.166 HD
HETATM    4  C7  UNL     1      -2.928   2.111  -0.056  1.00  0.00     0.042 A 
HETATM    5  C14 UNL     1      -1.887   2.760  -0.662  1.00  0.00     0.031 A 
HETATM    6  C15 UNL     1      -0.636   2.211  -0.619  1.00  0.00     0.016 A 
HETATM    7  C16 UNL     1      -0.350   0.991   0.027  1.00  0.00    -0.003 A 
ENDROOT
BRANCH   7   8
HETATM    8  C17 UNL     1       1.022   0.513   0.003  1.00  0.00    -0.024 A 
HETATM    9  C18 UNL     1       1.505  -0.561  -0.681  1.00  0.00     0.013 A 
HETATM   10  C19 UNL     1       2.826  -0.938  -0.635  1.00  0.00     0.013 A 
HETATM   11  C20 UNL     1       3.736  -0.220   0.126  1.00  0.00    -0.026 A 
HETATM   12  C27 UNL     1       3.234   0.865   0.812  1.00  0.00     0.013 A 
HETATM   13  C28 UNL     1       1.938   1.244   0.774  1.00  0.00     0.013 A 
BRANCH  11  14
HETATM   14  C21 UNL     1       5.146  -0.558   0.225  1.00  0.00    -0.026 A 
HETATM   15  C22 UNL     1       5.847  -1.137  -0.806  1.00  0.00     0.012 A 
HETATM   16  C23 UNL     1       7.203  -1.452  -0.686  1.00  0.00     0.001 A 
HETATM   17  C24 UNL     1       7.852  -1.166   0.516  1.00  0.00     0.000 A 
HETATM   18  C25 UNL     1       7.163  -0.587   1.555  1.00  0.00     0.001 A 
HETATM   19  C26 UNL     1       5.821  -0.289   1.400  1.00  0.00     0.012 A 
ENDBRANCH  11  14
ENDBRANCH   7   8
BRANCH   1  20
HETATM   20  C5  UNL     1      -1.379  -0.888   1.343  1.00  0.00     0.096 C 
BRANCH  20  21
HETATM   21  C4  UNL     1      -1.492  -2.123   0.564  1.00  0.00    -0.053 A 
HETATM   22  C3  UNL     1      -2.485  -2.337  -0.378  1.00  0.00     0.007 A 
HETATM   23  C2  UNL     1      -2.618  -3.526  -1.059  1.00  0.00     0.001 A 
HETATM   24  C1  UNL     1      -1.754  -4.571  -0.828  1.00  0.00     0.000 A 
HETATM   25  C30 UNL     1      -0.760  -4.373   0.106  1.00  0.00     0.001 A 
HETATM   26  C29 UNL     1      -0.638  -3.175   0.782  1.00  0.00     0.007 A 
ENDBRANCH  20  21
ENDBRANCH   1  20
BRANCH   4  27
HETATM   27  C8  UNL     1      -4.292   2.639  -0.067  1.00  0.00    -0.009 A 
HETATM   28  C9  UNL     1      -5.276   1.880   0.575  1.00  0.00     0.013 A 
HETATM   29  C10 UNL     1      -6.579   2.317   0.603  1.00  0.00     0.001 A 
HETATM   30  C11 UNL     1      -6.914   3.515  -0.008  1.00  0.00     0.000 A 
HETATM   31  C12 UNL     1      -5.940   4.254  -0.636  1.00  0.00     0.001 A 
HETATM   32  C13 UNL     1      -4.610   3.827  -0.676  1.00  0.00     0.013 A 
ENDBRANCH   4  27
TORSDOF 5
