REMARK  5 active torsions:
REMARK  status: ('A' for Active; 'I' for Inactive)
REMARK    1  A    between atoms: N1_1  and  S1_4 
REMARK    2  A    between atoms: S1_4  and  C1_5 
REMARK    3  A    between atoms: C2_8  and  C3_9 
REMARK    4  A    between atoms: C3_9  and  N3_10 
REMARK    5  A    between atoms: C3_9  and  N4_14 
ROOT
HETATM    1  C1  UNL     1       1.513  -0.768  -0.339  1.00  0.00     0.180 A 
HETATM    2  N2  UNL     1       0.629   0.167   0.039  1.00  0.00    -0.320 N 
ATOM      3  H2  UNL     1       0.828   1.130   0.308  1.00  0.00     0.169 HD
HETATM    4  C2  UNL     1      -0.569  -0.428  -0.011  1.00  0.00     0.156 A 
HETATM    5  N5  UNL     1      -0.408  -1.692  -0.411  1.00  0.00    -0.284 N 
ATOM      6  H5  UNL     1      -1.151  -2.379  -0.539  1.00  0.00     0.188 HD
HETATM    7  N6  UNL     1       0.878  -1.896  -0.612  1.00  0.00    -0.277 N 
ATOM      8  H6  UNL     1       1.307  -2.768  -0.923  1.00  0.00     0.189 HD
ENDROOT
BRANCH   4   9
HETATM    9  C3  UNL     1      -1.842   0.256   0.333  1.00  0.00     0.446 C 
BRANCH   9  10
HETATM   10  N3  UNL     1      -1.883   1.566  -0.274  1.00  0.00    -0.043 N 
ATOM     11  H33 UNL     1      -1.069   2.128  -0.024  1.00  0.00     0.277 HD
ATOM     12  H32 UNL     1      -1.733   1.524  -1.282  1.00  0.00     0.277 HD
ATOM     13  H31 UNL     1      -2.757   2.036  -0.038  1.00  0.00     0.277 HD
ENDBRANCH   9  10
BRANCH   9  14
HETATM   14  N4  UNL     1      -2.986  -0.552  -0.028  1.00  0.00    -0.043 N 
ATOM     15  H43 UNL     1      -2.959  -0.821  -1.012  1.00  0.00     0.277 HD
ATOM     16  H42 UNL     1      -2.935  -1.481   0.390  1.00  0.00     0.277 HD
ATOM     17  H41 UNL     1      -3.860  -0.082   0.208  1.00  0.00     0.277 HD
ENDBRANCH   9  14
ENDBRANCH   4   9
BRANCH   1  18
HETATM   18  S1  UNL     1       3.277  -0.456  -0.436  1.00  0.00     0.017 SA
BRANCH  18  19
HETATM   19  N1  UNL     1       3.655   1.200   0.024  1.00  0.00    -0.367 N 
ATOM     20  H12 UNL     1       2.951   1.882   0.307  1.00  0.00     0.164 HD
ATOM     21  H11 UNL     1       4.658   1.377  -0.031  1.00  0.00     0.164 HD
ENDBRANCH  18  19
ENDBRANCH   1  18
TORSDOF 5
