REMARK  1 active torsions:
REMARK  status: ('A' for Active; 'I' for Inactive)
REMARK    1  A    between atoms: O1_1  and  C1_3 
ROOT
HETATM    1  C1  UNL     1       2.494  -0.540  -0.268  1.00  0.00     0.213 C 
HETATM    2  C2  UNL     1       1.294  -1.324   0.089  1.00  0.00     0.058 C 
HETATM    3  C3  UNL     1       0.048  -0.570   0.331  1.00  0.00    -0.005 C 
HETATM    4  C4  UNL     1      -1.171  -1.418  -0.058  1.00  0.00     0.005 C 
HETATM    5  C5  UNL     1      -2.454  -0.740   0.300  1.00  0.00     0.000 C 
HETATM    6  C6  UNL     1      -2.334   0.714   0.587  1.00  0.00     0.000 C 
HETATM    7  C7  UNL     1      -1.313   1.439  -0.211  1.00  0.00     0.006 C 
HETATM    8  C8  UNL     1      -0.066   0.693  -0.488  1.00  0.00     0.007 C 
HETATM    9  C9  UNL     1       1.199   1.493  -0.248  1.00  0.00     0.121 C 
HETATM   10  N1  UNL     1       2.292   0.759  -0.780  1.00  0.00    -0.396 N 
ATOM     11  H1  UNL     1       2.901   1.152  -1.497  1.00  0.00     0.155 HD
ENDROOT
BRANCH   1  12
HETATM   12  O1  UNL     1       3.404  -0.488   0.814  1.00  0.00    -0.377 OA
ATOM     13  H1  UNL     1       4.176   0.016   0.584  1.00  0.00     0.212 HD
ENDBRANCH   1  12
TORSDOF 1
