REMARK  6 active torsions:
REMARK  status: ('A' for Active; 'I' for Inactive)
REMARK    1  A    between atoms: C2_2  and  C3_3 
REMARK    2  A    between atoms: C4_4  and  N1_5 
REMARK    3  A    between atoms: C9_13  and  O1_14 
REMARK    4  A    between atoms: O1_14  and  O2_15 
REMARK    5  A    between atoms: C10_18  and  C11_19 
REMARK    6  A    between atoms: C13_22  and  O5_23 
ROOT
HETATM    1  C3  UNL     1      -2.298   0.271  -0.264  1.00  0.00     0.043 C 
HETATM    2  C4  UNL     1      -2.468   0.252   1.232  1.00  0.00     0.191 C 
HETATM    3  C5  UNL     1      -1.978  -1.055   1.814  1.00  0.00     0.034 C 
HETATM    4  C6  UNL     1      -0.652  -1.490   1.312  1.00  0.00     0.017 C 
HETATM    5  C7  UNL     1      -0.476  -1.416  -0.186  1.00  0.00     0.013 C 
HETATM    6  C8  UNL     1      -1.398  -2.448  -0.799  1.00  0.00     0.020 C 
HETATM    7  C9  UNL     1       0.939  -1.690  -0.570  1.00  0.00     0.305 C 
HETATM    8  O3  UNL     1       1.578  -0.751  -1.308  1.00  0.00    -0.348 OA
HETATM    9  C10 UNL     1       1.338   0.554  -1.138  1.00  0.00     0.160 C 
HETATM   10  C15 UNL     1       0.158   0.872  -0.229  1.00  0.00     0.043 C 
HETATM   11  C16 UNL     1      -0.935  -0.058  -0.709  1.00  0.00     0.011 C 
ENDROOT
BRANCH   9  12
HETATM   12  C11 UNL     1       2.547   1.247  -0.617  1.00  0.00    -0.002 A 
HETATM   13  C12 UNL     1       3.096   2.457  -1.035  1.00  0.00     0.154 A 
HETATM   14  O4  UNL     1       4.173   2.723  -0.314  1.00  0.00    -0.300 OA
HETATM   15  C13 UNL     1       4.386   1.778   0.561  1.00  0.00     0.183 A 
HETATM   16  C14 UNL     1       3.384   0.829   0.404  1.00  0.00     0.075 A 
BRANCH  15  17
HETATM   17  O5  UNL     1       5.421   1.722   1.485  1.00  0.00    -0.341 OA
ATOM     18  H5  UNL     1       5.576   1.034   2.122  1.00  0.00     0.220 HD
ENDBRANCH  15  17
ENDBRANCH   9  12
BRANCH   7  19
HETATM   19  O1  UNL     1       1.009  -2.902  -1.277  1.00  0.00    -0.209 OA
BRANCH  19  20
HETATM   20  O2  UNL     1       1.707  -3.815  -0.663  1.00  0.00    -0.248 OA
ATOM     21  H2  UNL     1       1.754  -4.635  -1.141  1.00  0.00     0.253 HD
ENDBRANCH  19  20
ENDBRANCH   7  19
BRANCH   1  22
HETATM   22  C2  UNL     1      -2.854   1.475  -0.876  1.00  0.00    -0.030 C 
HETATM   23  C1  UNL     1      -2.277   2.238  -1.785  1.00  0.00     0.007 C 
ENDBRANCH   1  22
BRANCH   2  24
HETATM   24  N1  UNL     1      -1.807   1.333   1.906  1.00  0.00    -0.074 N 
ATOM     25  H13 UNL     1      -0.818   1.359   1.658  1.00  0.00     0.274 HD
ATOM     26  H12 UNL     1      -2.104   2.230   1.523  1.00  0.00     0.274 HD
ATOM     27  H11 UNL     1      -1.922   1.320   2.919  1.00  0.00     0.274 HD
ENDBRANCH   2  24
TORSDOF 6
