REMARK  7 active torsions:
REMARK  status: ('A' for Active; 'I' for Inactive)
REMARK    1  A    between atoms: C1_2  and  O2_3 
REMARK    2  A    between atoms: C1_2  and  O3_20 
REMARK    3  A    between atoms: O2_3  and  C2_4 
REMARK    4  A    between atoms: C5_7  and  C6_8 
REMARK    5  A    between atoms: C6_8  and  C7_9 
REMARK    6  A    between atoms: C7_9  and  C8_10 
REMARK    7  A    between atoms: O3_20  and  C15_21 
ROOT
HETATM    1  C2  UNL     1      -0.750  -0.033   0.382  1.00  0.00     0.134 C 
HETATM    2  C3  UNL     1       0.138  -0.809  -0.519  1.00  0.00     0.033 C 
HETATM    3  C4  UNL     1       1.518  -0.972   0.079  1.00  0.00     0.007 C 
HETATM    4  C5  UNL     1       2.213   0.358   0.240  1.00  0.00    -0.014 C 
HETATM    5  C13 UNL     1       1.240   1.508   0.265  1.00  0.00     0.007 C 
HETATM    6  C14 UNL     1      -0.067   1.177   0.900  1.00  0.00     0.033 C 
ENDROOT
BRANCH   1   7
HETATM    7  O2  UNL     1      -1.998   0.288  -0.183  1.00  0.00    -0.293 OA
BRANCH   7   8
HETATM    8  C1  UNL     1      -3.220  -0.162   0.288  1.00  0.00     0.407 C 
HETATM    9  O1  UNL     1      -3.210  -0.903   1.282  1.00  0.00    -0.229 OA
BRANCH   8  10
HETATM   10  O3  UNL     1      -4.431   0.171  -0.288  1.00  0.00    -0.292 OA
BRANCH  10  11
HETATM   11  C15 UNL     1      -5.599  -0.337   0.266  1.00  0.00     0.138 C 
HETATM   12  C16 UNL     1      -6.407  -1.164  -0.733  1.00  0.00     0.037 C 
HETATM   13  C17 UNL     1      -7.834  -0.702  -0.609  1.00  0.00    -0.012 C 
HETATM   14  C18 UNL     1      -7.965   0.601  -1.337  1.00  0.00     0.005 C 
HETATM   15  C21 UNL     1      -7.832  -0.200   0.845  1.00  0.00     0.012 C 
HETATM   16  C19 UNL     1      -7.071   1.531  -0.515  1.00  0.00     0.007 C 
HETATM   17  C20 UNL     1      -6.599   0.707   0.670  1.00  0.00     0.016 C 
ENDBRANCH  10  11
ENDBRANCH   8  10
ENDBRANCH   7   8
ENDBRANCH   1   7
BRANCH   4  18
HETATM   18  C6  UNL     1       3.185   0.615  -0.890  1.00  0.00     0.007 C 
BRANCH  18  19
HETATM   19  C7  UNL     1       4.271  -0.410  -1.000  1.00  0.00     0.033 C 
BRANCH  19  20
HETATM   20  C8  UNL     1       5.097  -0.461   0.275  1.00  0.00     0.185 C 
HETATM   21  C9  UNL     1       6.189  -1.502   0.143  1.00  0.00     0.033 C 
HETATM   22  C10 UNL     1       7.506  -0.865  -0.278  1.00  0.00     0.004 C 
HETATM   23  C11 UNL     1       7.997   0.114   0.767  1.00  0.00     0.027 C 
HETATM   24  C12 UNL     1       6.773   0.597   1.517  1.00  0.00     0.232 C 
HETATM   25  N1  UNL     1       5.723   0.802   0.559  1.00  0.00    -0.071 N 
ATOM     26  H12 UNL     1       6.053   1.271  -0.285  1.00  0.00     0.277 HD
ATOM     27  H11 UNL     1       5.053   1.509   0.862  1.00  0.00     0.277 HD
ENDBRANCH  19  20
ENDBRANCH  18  19
ENDBRANCH   4  18
TORSDOF 7
