REMARK  14 active torsions:
REMARK  status: ('A' for Active; 'I' for Inactive)
REMARK    1  A    between atoms: C2_2  and  C9_17 
REMARK    2  A    between atoms: C3_3  and  C4_4 
REMARK    3  A    between atoms: C4_4  and  O1_5 
REMARK    4  A    between atoms: C5_7  and  C6_8 
REMARK    5  A    between atoms: C6_8  and  C7_9 
REMARK    6  A    between atoms: C7_9  and  N1_10 
REMARK    7  A    between atoms: C7_9  and  C8_13 
REMARK    8  A    between atoms: C9_17  and  C10_18 
REMARK    9  A    between atoms: C10_18  and  C11_19 
REMARK   10  A    between atoms: C12_20  and  C14_22 
REMARK   11  A    between atoms: C16_24  and  O2_25 
REMARK   12  A    between atoms: C17_27  and  O3_28 
REMARK   13  A    between atoms: C18_30  and  C19_31 
REMARK   14  A    between atoms: C20_34  and  O6_35 
ROOT
HETATM    1  C10 UNL     1      -0.103   0.100   0.575  1.00  0.00     0.032 C 
ENDROOT
BRANCH   1   2
HETATM    2  C9  UNL     1      -0.860   1.322   0.204  1.00  0.00     0.037 C 
BRANCH   2   3
HETATM    3  C2  UNL     1      -2.335   1.065   0.093  1.00  0.00    -0.081 C 
HETATM    4  C1  UNL     1      -3.091   2.302  -0.325  1.00  0.00     0.043 C 
HETATM    5  C3  UNL     1      -2.826  -0.094   0.326  1.00  0.00     0.038 C 
BRANCH   5   6
HETATM    6  C4  UNL     1      -4.140  -0.701   0.306  1.00  0.00     0.066 C 
HETATM    7  C5  UNL     1      -5.352  -0.063  -0.023  1.00  0.00     0.039 C 
BRANCH   6   8
HETATM    8  O1  UNL     1      -4.189  -1.962   0.625  1.00  0.00    -0.361 OA
ATOM      9  H1  UNL     1      -5.051  -2.360   0.612  1.00  0.00     0.217 HD
ENDBRANCH   6   8
BRANCH   7  10
HETATM   10  C6  UNL     1      -6.568  -0.510  -0.071  1.00  0.00     0.033 C 
BRANCH  10  11
HETATM   11  C7  UNL     1      -7.173  -1.776   0.177  1.00  0.00     0.040 C 
BRANCH  11  12
HETATM   12  N1  UNL     1      -6.619  -2.855   0.532  1.00  0.00    -0.398 N 
ATOM     13  H12 UNL     1      -5.609  -2.779   0.648  1.00  0.00     0.156 HD
ATOM     14  H11 UNL     1      -7.052  -3.761   0.710  1.00  0.00     0.156 HD
ENDBRANCH  11  12
BRANCH  11  15
HETATM   15  C8  UNL     1      -8.657  -1.888   0.006  1.00  0.00     0.109 C 
HETATM   16  N2  UNL     1      -9.269  -2.964   0.203  1.00  0.00    -0.406 N 
ATOM     17  H22 UNL     1      -8.725  -3.779   0.488  1.00  0.00     0.155 HD
ATOM     18  H21 UNL     1     -10.279  -3.040   0.087  1.00  0.00     0.155 HD
ENDBRANCH  11  15
ENDBRANCH  10  11
ENDBRANCH   7  10
ENDBRANCH   5   6
ENDBRANCH   2   3
ENDBRANCH   1   2
BRANCH   1  19
HETATM   19  C11 UNL     1       1.356   0.377   0.707  1.00  0.00    -0.019 C 
HETATM   20  C12 UNL     1       2.249  -0.142  -0.090  1.00  0.00    -0.053 C 
HETATM   21  C13 UNL     1       1.832  -1.046  -1.185  1.00  0.00     0.049 C 
BRANCH  20  22
HETATM   22  C14 UNL     1       3.683   0.180   0.078  1.00  0.00     0.007 A 
HETATM   23  C15 UNL     1       4.042   1.154   0.969  1.00  0.00     0.054 A 
HETATM   24  C16 UNL     1       5.359   1.483   1.203  1.00  0.00     0.100 A 
HETATM   25  C17 UNL     1       6.370   0.790   0.498  1.00  0.00     0.118 A 
HETATM   26  C18 UNL     1       6.052  -0.194  -0.405  1.00  0.00     0.110 A 
HETATM   27  C20 UNL     1       4.684  -0.492  -0.606  1.00  0.00     0.096 A 
BRANCH  24  28
HETATM   28  O2  UNL     1       5.755   2.455   2.091  1.00  0.00    -0.358 OA
ATOM     29  H2  UNL     1       6.663   2.682   2.252  1.00  0.00     0.217 HD
ENDBRANCH  24  28
BRANCH  25  30
HETATM   30  O3  UNL     1       7.654   1.171   0.781  1.00  0.00    -0.357 OA
ATOM     31  H3  UNL     1       8.333   0.705   0.307  1.00  0.00     0.218 HD
ENDBRANCH  25  30
BRANCH  26  32
HETATM   32  C19 UNL     1       7.052  -0.932  -1.153  1.00  0.00     0.215 C 
HETATM   33  O4  UNL     1       6.635  -1.824  -1.964  1.00  0.00    -0.644 OA
HETATM   34  O5  UNL     1       8.394  -0.731  -1.041  1.00  0.00    -0.644 OA
ENDBRANCH  26  32
BRANCH  27  35
HETATM   35  O6  UNL     1       4.385  -1.434  -1.466  1.00  0.00    -0.359 OA
ATOM     36  H6  UNL     1       5.071  -1.895  -1.935  1.00  0.00     0.217 HD
ENDBRANCH  27  35
ENDBRANCH  20  22
ENDBRANCH   1  19
TORSDOF 14
