REMARK  10 active torsions:
REMARK  status: ('A' for Active; 'I' for Inactive)
REMARK    1  A    between atoms: C3_3  and  N1_4 
REMARK    2  A    between atoms: N1_4  and  C4_6 
REMARK    3  A    between atoms: C10_14  and  C11_15 
REMARK       I    between atoms: C11_15  and  N3_17 
REMARK    4  A    between atoms: N3_17  and  C12_18 
REMARK    5  A    between atoms: C12_18  and  C13_19 
REMARK    6  A    between atoms: C13_19  and  C14_20 
REMARK    7  A    between atoms: C14_20  and  C15_21 
REMARK    8  A    between atoms: C15_21  and  C16_22 
REMARK    9  A    between atoms: C16_22  and  O2_23 
REMARK   10  A    between atoms: C16_22  and  N4_25 
ROOT
HETATM    1  N4  UNL     1       6.038  -3.565   0.139  1.00  0.00    -0.262 NA
HETATM    2  O3  UNL     1       6.827  -4.512   0.469  1.00  0.00    -0.217 OA
ATOM      3  H3  UNL     1       7.334  -5.296   0.646  1.00  0.00     0.261 HD
ENDROOT
BRANCH   1   4
HETATM    4  C16 UNL     1       5.435  -2.633  -0.072  1.00  0.00     0.222 C 
BRANCH   4   5
HETATM    5  C15 UNL     1       5.937  -1.223   0.516  1.00  0.00     0.103 C 
BRANCH   5   6
HETATM    6  C14 UNL     1       6.332  -0.348  -0.612  1.00  0.00     0.015 C 
BRANCH   6   7
HETATM    7  C13 UNL     1       5.269   0.037  -1.584  1.00  0.00     0.060 C 
BRANCH   7   8
HETATM    8  C12 UNL     1       4.233   0.987  -1.059  1.00  0.00     0.159 C 
BRANCH   8   9
HETATM    9  N3  UNL     1       3.483   0.927  -0.010  1.00  0.00    -0.381 NA
HETATM   10  C11 UNL     1       2.669   0.861   1.149  1.00  0.00     0.359 C 
HETATM   11  O1  UNL     1       3.128   0.775   2.317  1.00  0.00    -0.248 OA
BRANCH  10  12
HETATM   12  C10 UNL     1       1.173   0.892   1.063  1.00  0.00     0.191 A 
HETATM   13  N2  UNL     1       0.453   0.469  -0.078  1.00  0.00    -0.335 N 
HETATM   14  C9  UNL     1      -0.853   0.581   0.291  1.00  0.00     0.063 A 
ATOM     15  H2  UNL     1       0.826   0.152  -0.973  1.00  0.00     0.168 HD
HETATM   16  C8  UNL     1      -2.076   0.300  -0.363  1.00  0.00     0.061 A 
HETATM   17  C17 UNL     1      -0.947   1.057   1.552  1.00  0.00     0.067 A 
HETATM   18  C3  UNL     1      -3.306   0.499   0.229  1.00  0.00     0.037 A 
HETATM   19  C2  UNL     1      -3.393   0.990   1.530  1.00  0.00    -0.027 A 
HETATM   20  C1  UNL     1      -4.660   1.180   2.283  1.00  0.00     0.051 C 
HETATM   21  C18 UNL     1      -2.201   1.244   2.130  1.00  0.00    -0.025 A 
HETATM   22  C19 UNL     1      -2.173   1.840   3.511  1.00  0.00     0.051 C 
HETATM   23  N5  UNL     1       0.310   1.228   1.975  1.00  0.00    -0.335 N 
ATOM     24  H5  UNL     1       0.561   1.579   2.899  1.00  0.00     0.168 HD
BRANCH  18  25
HETATM   25  N1  UNL     1      -4.510   0.284  -0.469  1.00  0.00    -0.381 N 
ATOM     26  H1  UNL     1      -5.368   0.484   0.045  1.00  0.00     0.160 HD
BRANCH  25  27
HETATM   27  C4  UNL     1      -4.674  -0.175  -1.795  1.00  0.00     0.019 C 
HETATM   28  C5  UNL     1      -3.895   0.646  -2.780  1.00  0.00     0.037 C 
HETATM   29  C6  UNL     1      -6.170   0.117  -2.226  1.00  0.00     0.037 C 
HETATM   30  C7  UNL     1      -4.461  -1.641  -2.003  1.00  0.00     0.037 C 
ENDBRANCH  25  27
ENDBRANCH  18  25
ENDBRANCH  10  12
ENDBRANCH   8   9
ENDBRANCH   7   8
ENDBRANCH   6   7
ENDBRANCH   5   6
ENDBRANCH   4   5
BRANCH   4  31
HETATM   31  O2  UNL     1       4.224  -2.460  -0.790  1.00  0.00    -0.337 OA
ATOM     32  H2  UNL     1       3.927  -3.293  -1.137  1.00  0.00     0.220 HD
ENDBRANCH   4  31
ENDBRANCH   1   4
TORSDOF 10
