REMARK  9 active torsions:
REMARK  status: ('A' for Active; 'I' for Inactive)
REMARK    1  A    between atoms: C2_2  and  C3_3 
REMARK    2  A    between atoms: C3_3  and  C4_4 
REMARK    3  A    between atoms: C6_8  and  N2_9 
REMARK       I    between atoms: N2_9  and  C7_11 
REMARK    4  A    between atoms: C7_11  and  C8_13 
REMARK    5  A    between atoms: C8_13  and  C9_14 
REMARK    6  A    between atoms: C9_14  and  C10_15 
REMARK    7  A    between atoms: C10_15  and  N3_16 
REMARK       I    between atoms: N3_16  and  C11_18 
REMARK    8  A    between atoms: C11_18  and  C12_20 
REMARK    9  A    between atoms: C13_21  and  N4_22 
ROOT
HETATM    1  C10 UNL     1      -0.062   0.293  -2.334  1.00  0.00     0.123 C 
ENDROOT
BRANCH   1   2
HETATM    2  C9  UNL     1       0.705   1.104  -1.348  1.00  0.00     0.029 C 
BRANCH   2   3
HETATM    3  C8  UNL     1       1.227   0.336  -0.170  1.00  0.00     0.105 C 
BRANCH   3   4
HETATM    4  C7  UNL     1       2.149  -0.723  -0.548  1.00  0.00     0.235 C 
HETATM    5  N2  UNL     1       2.649  -1.583   0.480  1.00  0.00    -0.160 N 
ATOM      6  H2  UNL     1       1.998  -2.145   1.028  1.00  0.00     0.187 HD
HETATM    7  O1  UNL     1       2.556  -0.959  -1.708  1.00  0.00    -0.273 OA
BRANCH   5   8
HETATM    8  C6  UNL     1       3.929  -1.656   0.724  1.00  0.00     0.685 A 
HETATM    9  N1  UNL     1       4.547  -2.408   1.645  1.00  0.00    -0.200 N 
HETATM   10  C5  UNL     1       5.871  -2.186   1.564  1.00  0.00     0.131 A 
ATOM     11  H1  UNL     1       4.089  -3.043   2.299  1.00  0.00     0.183 HD
HETATM   12  C4  UNL     1       6.089  -1.262   0.557  1.00  0.00     0.042 A 
HETATM   13  N7  UNL     1       4.873  -0.965   0.069  1.00  0.00    -0.194 N 
ATOM     14  H7  UNL     1       4.694  -0.308  -0.691  1.00  0.00     0.184 HD
BRANCH  12  15
HETATM   15  C3  UNL     1       7.421  -0.716   0.114  1.00  0.00     0.058 C 
BRANCH  15  16
HETATM   16  C2  UNL     1       7.676   0.520   0.953  1.00  0.00     0.002 C 
HETATM   17  C1  UNL     1       6.550   1.491   0.682  1.00  0.00     0.005 C 
ENDBRANCH  15  16
ENDBRANCH  12  15
ENDBRANCH   5   8
ENDBRANCH   3   4
ENDBRANCH   2   3
ENDBRANCH   1   2
BRANCH   1  18
HETATM   18  N3  UNL     1      -1.210  -0.334  -1.661  1.00  0.00    -0.355 N 
HETATM   19  C11 UNL     1      -2.245   0.450  -1.077  1.00  0.00     0.281 C 
HETATM   20  O2  UNL     1      -2.095   1.680  -1.196  1.00  0.00    -0.266 OA
ATOM     21  H3  UNL     1      -1.266  -1.351  -1.612  1.00  0.00     0.162 HD
BRANCH  19  22
HETATM   22  C12 UNL     1      -3.373  -0.197  -0.404  1.00  0.00     0.267 A 
HETATM   23  C13 UNL     1      -4.411   0.405   0.186  1.00  0.00     0.246 A 
HETATM   24  C17 UNL     1      -5.278  -0.665   0.722  1.00  0.00     0.303 A 
HETATM   25  O3  UNL     1      -6.374  -0.535   1.358  1.00  0.00    -0.264 OA
HETATM   26  N5  UNL     1      -4.663  -1.880   0.396  1.00  0.00    -0.175 N 
HETATM   27  N6  UNL     1      -3.493  -1.627  -0.302  1.00  0.00     0.046 N 
ATOM     28  H5  UNL     1      -5.020  -2.805   0.635  1.00  0.00     0.198 HD
HETATM   29  C18 UNL     1      -2.372  -2.228   0.403  1.00  0.00     0.309 C 
HETATM   30  C19 UNL     1      -3.575  -2.240  -1.633  1.00  0.00     0.309 C 
BRANCH  23  31
HETATM   31  N4  UNL     1      -4.698   1.788   0.319  1.00  0.00    -0.041 N 
HETATM   32  C14 UNL     1      -5.974   1.935   1.074  1.00  0.00     0.279 C 
HETATM   33  C15 UNL     1      -3.752   2.531   1.105  1.00  0.00     0.279 C 
HETATM   34  C16 UNL     1      -4.951   2.476  -0.917  1.00  0.00     0.279 C 
ENDBRANCH  23  31
ENDBRANCH  19  22
ENDBRANCH   1  18
TORSDOF 9
