REMARK  8 active torsions:
REMARK  status: ('A' for Active; 'I' for Inactive)
REMARK    1  A    between atoms: C2_7  and  C3_8 
REMARK    2  A    between atoms: C3_8  and  C4_9 
REMARK    3  A    between atoms: C4_9  and  N3_10 
REMARK    4  A    between atoms: N5_15  and  O1_16 
REMARK    5  A    between atoms: C9_20  and  C10_21 
REMARK    6  A    between atoms: C10_21  and  C11_22 
REMARK    7  A    between atoms: C11_22  and  N6_23 
REMARK    8  A    between atoms: C14_26  and  C15_27 
ROOT
HETATM    1  N1  UNL     1      -1.245   1.474   1.002  1.00  0.00    -0.385 N 
ATOM      2  H11 UNL     1      -0.227   1.513   1.053  1.00  0.00     0.157 HD
ATOM      3  H12 UNL     1      -1.825   2.234   1.358  1.00  0.00     0.157 HD
HETATM    4  C1  UNL     1      -1.744   0.422   0.450  1.00  0.00     0.105 A 
HETATM    5  N2  UNL     1      -3.112   0.369   0.381  1.00  0.00    -0.346 N 
ATOM      6  H2  UNL     1      -3.656   1.150   0.747  1.00  0.00     0.167 HD
HETATM    7  C2  UNL     1      -3.755  -0.677  -0.152  1.00  0.00     0.012 A 
HETATM    8  C7  UNL     1      -3.017  -1.732  -0.645  1.00  0.00     0.025 A 
HETATM    9  C8  UNL     1      -1.641  -1.695  -0.584  1.00  0.00     0.013 A 
HETATM   10  C9  UNL     1      -0.965  -0.600  -0.028  1.00  0.00    -0.013 A 
ENDROOT
BRANCH  10  11
HETATM   11  C10 UNL     1       0.476  -0.519   0.014  1.00  0.00     0.062 C 
BRANCH  11  12
HETATM   12  C11 UNL     1       1.148   0.274  -1.040  1.00  0.00     0.132 C 
BRANCH  12  13
HETATM   13  N6  UNL     1       2.586   0.262  -0.852  1.00  0.00    -0.366 N 
HETATM   14  C12 UNL     1       3.140   1.227  -0.093  1.00  0.00     0.091 A 
HETATM   15  C13 UNL     1       4.512   1.266   0.116  1.00  0.00     0.029 A 
HETATM   16  C14 UNL     1       5.326   0.319  -0.451  1.00  0.00    -0.023 A 
HETATM   17  C21 UNL     1       4.702  -0.652  -1.223  1.00  0.00     0.029 A 
HETATM   18  C22 UNL     1       3.354  -0.695  -1.432  1.00  0.00     0.091 A 
BRANCH  16  19
HETATM   19  C15 UNL     1       6.779   0.338  -0.248  1.00  0.00    -0.026 A 
HETATM   20  C16 UNL     1       7.426  -0.884  -0.245  1.00  0.00     0.012 A 
HETATM   21  C17 UNL     1       8.801  -0.886  -0.058  1.00  0.00     0.001 A 
HETATM   22  C18 UNL     1       9.498   0.288   0.119  1.00  0.00     0.000 A 
HETATM   23  C19 UNL     1       8.843   1.484   0.113  1.00  0.00     0.001 A 
HETATM   24  C20 UNL     1       7.480   1.505  -0.072  1.00  0.00     0.012 A 
ENDBRANCH  16  19
ENDBRANCH  12  13
ENDBRANCH  11  12
ENDBRANCH  10  11
BRANCH   7  25
HETATM   25  C3  UNL     1      -5.233  -0.766  -0.246  1.00  0.00     0.079 C 
BRANCH  25  26
HETATM   26  C4  UNL     1      -5.927   0.433   0.312  1.00  0.00     0.158 C 
BRANCH  26  27
HETATM   27  N3  UNL     1      -7.356   0.234   0.163  1.00  0.00    -0.261 N 
HETATM   28  C5  UNL     1      -8.098   0.596  -0.887  1.00  0.00     0.203 A 
HETATM   29  N4  UNL     1      -9.377   0.254  -0.680  1.00  0.00    -0.344 N 
HETATM   30  C6  UNL     1      -9.448  -0.328   0.507  1.00  0.00     0.235 A 
ATOM     31  H4  UNL     1     -10.155   0.413  -1.321  1.00  0.00     0.167 HD
HETATM   32  N5  UNL     1      -8.197  -0.333   1.012  1.00  0.00    -0.156 N 
BRANCH  32  33
HETATM   33  O1  UNL     1      -7.888  -0.865   2.245  1.00  0.00    -0.267 OA
ATOM     34  H1  UNL     1      -8.492  -1.272   2.855  1.00  0.00     0.247 HD
ENDBRANCH  32  33
ENDBRANCH  26  27
ENDBRANCH  25  26
ENDBRANCH   7  25
TORSDOF 8
