REMARK  9 active torsions:
REMARK  status: ('A' for Active; 'I' for Inactive)
REMARK    1  A    between atoms: C3_3  and  N1_4 
REMARK    2  A    between atoms: N1_4  and  C6_7 
REMARK    3  A    between atoms: C6_7  and  C7_8 
REMARK    4  A    between atoms: C7_8  and  C8_9 
REMARK    5  A    between atoms: C8_9  and  C10_11 
REMARK    6  A    between atoms: C14_16  and  C15_17 
REMARK    7  A    between atoms: C15_17  and  C16_18 
REMARK    8  A    between atoms: C16_18  and  O1_19 
REMARK    9  A    between atoms: N4_24  and  O2_25 
ROOT
HETATM    1  C1  UNL     1       6.018   2.476  -0.326  1.00  0.00     0.013 C 
HETATM    2  C2  UNL     1       5.099   2.009  -0.968  1.00  0.00    -0.089 C 
HETATM    3  C3  UNL     1       4.004   1.435  -1.718  1.00  0.00     0.328 C 
ENDROOT
BRANCH   3   4
HETATM    4  N1  UNL     1       3.404   0.282  -0.978  1.00  0.00    -0.065 N 
HETATM    5  C4  UNL     1       2.512  -0.321  -1.938  1.00  0.00     0.273 C 
HETATM    6  C5  UNL     1       4.520  -0.583  -0.667  1.00  0.00     0.273 C 
BRANCH   4   7
HETATM    7  C6  UNL     1       2.785   0.863   0.161  1.00  0.00     0.238 C 
BRANCH   7   8
HETATM    8  C7  UNL     1       2.557   0.033   1.355  1.00  0.00     0.040 C 
BRANCH   8   9
HETATM    9  C8  UNL     1       1.643  -1.166   1.198  1.00  0.00     0.051 C 
HETATM   10  C9  UNL     1       1.612  -1.819   2.590  1.00  0.00     0.018 C 
BRANCH   9  11
HETATM   11  C10 UNL     1       0.272  -0.770   0.786  1.00  0.00     0.089 A 
HETATM   12  N2  UNL     1      -0.473  -1.520   0.071  1.00  0.00    -0.324 N 
HETATM   13  C11 UNL     1      -0.025  -2.811  -0.380  1.00  0.00     0.159 C 
HETATM   14  C12 UNL     1      -1.806  -1.065  -0.261  1.00  0.00     0.151 A 
HETATM   15  C13 UNL     1      -2.320   0.157   0.169  1.00  0.00     0.043 A 
HETATM   16  N4  UNL     1      -2.556  -1.864  -1.023  1.00  0.00    -0.193 N 
HETATM   17  C14 UNL     1      -3.606   0.587  -0.166  1.00  0.00    -0.037 A 
HETATM   18  C19 UNL     1      -1.487   1.010   0.981  1.00  0.00     0.038 A 
HETATM   19  C17 UNL     1      -4.326  -0.310  -0.966  1.00  0.00     0.056 A 
HETATM   20  C18 UNL     1      -3.800  -1.497  -1.373  1.00  0.00     0.146 A 
HETATM   21  N3  UNL     1      -4.562  -2.368  -2.178  1.00  0.00    -0.080 NA
HETATM   22  C20 UNL     1      -1.831   2.151   1.450  1.00  0.00     0.044 C 
HETATM   23  N5  UNL     1      -0.167   0.485   1.266  1.00  0.00    -0.345 N 
ATOM     24  H5  UNL     1       0.470   1.043   1.835  1.00  0.00     0.167 HD
BRANCH  17  25
HETATM   25  C15 UNL     1      -4.198   1.852   0.252  1.00  0.00     0.066 C 
BRANCH  25  26
HETATM   26  C16 UNL     1      -5.618   1.891  -0.377  1.00  0.00     0.168 C 
BRANCH  26  27
HETATM   27  O1  UNL     1      -6.168   3.129   0.049  1.00  0.00    -0.401 OA
ATOM     28  H1  UNL     1      -7.036   3.153  -0.336  1.00  0.00     0.209 HD
ENDBRANCH  26  27
ENDBRANCH  25  26
ENDBRANCH  17  25
BRANCH  16  29
HETATM   29  O2  UNL     1      -2.083  -3.091  -1.502  1.00  0.00    -0.280 OA
ATOM     30  H2  UNL     1      -2.617  -3.660  -2.044  1.00  0.00     0.245 HD
ENDBRANCH  16  29
ENDBRANCH   9  11
ENDBRANCH   8   9
ENDBRANCH   7   8
ENDBRANCH   4   7
ENDBRANCH   3   4
TORSDOF 9
