REMARK  10 active torsions:
REMARK  status: ('A' for Active; 'I' for Inactive)
REMARK    1  A    between atoms: C3_3  and  N1_4 
REMARK    2  A    between atoms: N1_4  and  C4_5 
REMARK    3  A    between atoms: N1_4  and  N7_30 
REMARK    4  A    between atoms: C4_5  and  C5_6 
REMARK    5  A    between atoms: C6_7  and  C7_8 
REMARK    6  A    between atoms: C10_11  and  C11_12 
REMARK    7  A    between atoms: N2_13  and  N3_15 
REMARK    8  A    between atoms: C14_26  and  C15_27 
REMARK    9  A    between atoms: C15_27  and  O1_28 
REMARK   10  A    between atoms: N7_30  and  C16_31 
ROOT
HETATM    1  C1  UNL     1      -3.538   0.548  -3.680  1.00  0.00     0.014 C 
HETATM    2  C2  UNL     1      -2.938   0.942  -2.739  1.00  0.00    -0.096 C 
HETATM    3  C3  UNL     1      -2.184   1.399  -1.539  1.00  0.00     0.248 C 
ENDROOT
BRANCH   3   4
HETATM    4  N1  UNL     1      -2.202   0.401  -0.532  1.00  0.00    -0.201 N 
BRANCH   4   5
HETATM    5  C4  UNL     1      -1.551  -0.782  -0.782  1.00  0.00     0.182 C 
BRANCH   5   6
HETATM    6  C5  UNL     1      -0.125  -0.730  -0.840  1.00  0.00    -0.054 C 
HETATM    7  C6  UNL     1       1.086  -0.780  -0.821  1.00  0.00    -0.060 C 
BRANCH   7   8
HETATM    8  C7  UNL     1       2.528  -1.000  -0.590  1.00  0.00     0.027 A 
HETATM    9  C8  UNL     1       3.331   0.004  -0.297  1.00  0.00     0.037 A 
HETATM   10  C9  UNL     1       4.627  -0.314   0.157  1.00  0.00     0.023 A 
HETATM   11  C10 UNL     1       5.568   0.549   0.622  1.00  0.00     0.077 A 
HETATM   12  C12 UNL     1       5.027  -1.619   0.288  1.00  0.00     0.061 A 
HETATM   13  N5  UNL     1       6.595  -0.250   1.089  1.00  0.00    -0.298 N 
HETATM   14  N6  UNL     1       6.273  -1.541   0.882  1.00  0.00    -0.299 N 
ATOM     15  H5  UNL     1       7.457   0.084   1.520  1.00  0.00     0.187 HD
ATOM     16  H6  UNL     1       6.859  -2.339   1.126  1.00  0.00     0.187 HD
HETATM   17  C13 UNL     1       4.209  -2.686  -0.018  1.00  0.00     0.042 A 
HETATM   18  C14 UNL     1       2.959  -2.331  -0.455  1.00  0.00    -0.014 A 
BRANCH  11  19
HETATM   19  C11 UNL     1       5.774   1.979   0.319  1.00  0.00     0.140 C 
HETATM   20  N2  UNL     1       6.285   2.924   0.773  1.00  0.00    -0.296 N 
ATOM     21  H2  UNL     1       6.125   3.699   0.130  1.00  0.00     0.187 HD
BRANCH  20  22
HETATM   22  N3  UNL     1       6.993   3.391   1.796  1.00  0.00    -0.250 N 
HETATM   23  N4  UNL     1       7.808   2.778   2.540  1.00  0.00    -0.331 N 
ATOM     24  H42 UNL     1       7.927   1.791   2.311  1.00  0.00     0.178 HD
ATOM     25  H41 UNL     1       8.351   3.136   3.325  1.00  0.00     0.178 HD
ATOM     26  H3  UNL     1       6.860   4.380   2.009  1.00  0.00     0.207 HD
ENDBRANCH  20  22
ENDBRANCH  11  19
BRANCH  18  27
HETATM   27  C15 UNL     1       1.910  -3.311  -0.840  1.00  0.00     0.204 C 
BRANCH  27  28
HETATM   28  O1  UNL     1       1.835  -3.360  -2.289  1.00  0.00    -0.396 OA
ATOM     29  H1  UNL     1       1.165  -3.986  -2.535  1.00  0.00     0.209 HD
ENDBRANCH  27  28
ENDBRANCH  18  27
ENDBRANCH   7   8
ENDBRANCH   5   6
ENDBRANCH   4   5
BRANCH   4  30
HETATM   30  N7  UNL     1      -3.324   0.278   0.289  1.00  0.00     0.015 N 
HETATM   31  C18 UNL     1      -2.798   0.333   1.675  1.00  0.00     0.265 C 
HETATM   32  C19 UNL     1      -3.591   1.349   2.431  1.00  0.00     0.032 C 
HETATM   33  C20 UNL     1      -3.899   2.342   1.316  1.00  0.00     0.032 C 
HETATM   34  C21 UNL     1      -4.275   1.330   0.216  1.00  0.00     0.265 C 
BRANCH  30  35
HETATM   35  C16 UNL     1      -3.956  -1.019   0.155  1.00  0.00     0.261 C 
HETATM   36  C17 UNL     1      -5.386  -0.970  -0.356  1.00  0.00     0.037 C 
ENDBRANCH  30  35
ENDBRANCH   4  30
ENDBRANCH   3   4
TORSDOF 10
