REMARK  4 active torsions:
REMARK  status: ('A' for Active; 'I' for Inactive)
REMARK    1  A    between atoms: N1_6  and  C6_7 
REMARK    2  A    between atoms: C6_7  and  C7_8 
REMARK    3  A    between atoms: C7_8  and  C8_9 
REMARK    4  A    between atoms: C9_10  and  N2_11 
ROOT
HETATM    1  C8  UNL     1       2.092   0.975   0.282  1.00  0.00     0.056 A 
HETATM    2  C9  UNL     1       3.188   0.389   0.698  1.00  0.00     0.129 A 
HETATM    3  N4  UNL     1       4.144   1.427   0.863  1.00  0.00    -0.337 N 
ATOM      4  H4  UNL     1       5.109   1.320   1.177  1.00  0.00     0.168 HD
HETATM    5  C11 UNL     1       3.502   2.641   0.508  1.00  0.00     0.182 A 
HETATM    6  N5  UNL     1       2.286   2.382   0.163  1.00  0.00    -0.353 N 
ATOM      7  H5  UNL     1       1.589   3.062  -0.140  1.00  0.00     0.166 HD
ENDROOT
BRANCH   1   8
HETATM    8  C7  UNL     1       0.815   0.309  -0.031  1.00  0.00     0.081 C 
BRANCH   8   9
HETATM    9  C6  UNL     1      -0.332   0.819   0.837  1.00  0.00     0.134 C 
BRANCH   9  10
HETATM   10  N1  UNL     1      -1.505   0.129   0.462  1.00  0.00    -0.359 N 
HETATM   11  C4  UNL     1      -2.298   0.627  -0.484  1.00  0.00     0.008 A 
HETATM   12  C3  UNL     1      -3.447  -0.052  -0.859  1.00  0.00     0.033 A 
HETATM   13  C5  UNL     1      -1.977   1.875  -1.123  1.00  0.00     0.068 C 
HETATM   14  C2  UNL     1      -3.792  -1.262  -0.254  1.00  0.00    -0.041 A 
HETATM   15  C1  UNL     1      -5.032  -1.983  -0.668  1.00  0.00     0.049 C 
HETATM   16  C13 UNL     1      -2.943  -1.744   0.722  1.00  0.00     0.032 A 
HETATM   17  C12 UNL     1      -1.797  -1.046   1.081  1.00  0.00     0.110 A 
HETATM   18 BR1  UNL     1      -3.412  -3.394   1.547  1.00  0.00    -0.049 Br
ENDBRANCH   9  10
ENDBRANCH   8   9
ENDBRANCH   1   8
BRANCH   2  19
HETATM   19  N2  UNL     1       3.312  -1.009   0.914  1.00  0.00    -0.339 N 
HETATM   20  C10 UNL     1       4.182  -1.721   0.291  1.00  0.00     0.191 C 
HETATM   21  N3  UNL     1       5.036  -1.057  -0.642  1.00  0.00    -0.097 NA
ATOM     22  H2  UNL     1       2.691  -1.462   1.585  1.00  0.00     0.167 HD
ENDBRANCH   2  19
TORSDOF 4
