REMARK  14 active torsions:
REMARK  status: ('A' for Active; 'I' for Inactive)
REMARK    1  A    between atoms: N2_4  and  C4_6 
REMARK    2  A    between atoms: C4_6  and  C5_7 
REMARK    3  A    between atoms: C5_7  and  C6_8 
REMARK    4  A    between atoms: C6_8  and  C7_9 
REMARK    5  A    between atoms: C7_9  and  N3_10 
REMARK    6  A    between atoms: C9_14  and  N5_15 
REMARK    7  A    between atoms: N5_15  and  C10_17 
REMARK    8  A    between atoms: N7_20  and  C11_21 
REMARK    9  A    between atoms: C11_21  and  C12_22 
REMARK   10  A    between atoms: C12_22  and  C13_23 
REMARK   11  A    between atoms: C13_23  and  C14_24 
REMARK   12  A    between atoms: C14_24  and  C15_25 
REMARK   13  A    between atoms: C15_25  and  C16_26 
REMARK   14  A    between atoms: C16_26  and  N8_27 
ROOT
HETATM    1  N3  UNL     1       0.090   1.204   1.447  1.00  0.00    -0.260 N 
HETATM    2  C8  UNL     1      -0.391   1.337   2.687  1.00  0.00     0.219 A 
HETATM    3  N4  UNL     1       0.095   0.376   3.463  1.00  0.00    -0.185 N 
ATOM      4  H4  UNL     1      -0.104   0.237   4.454  1.00  0.00     0.185 HD
HETATM    5  C9  UNL     1       0.930  -0.409   2.665  1.00  0.00     0.702 A 
HETATM    6  N7  UNL     1       0.892   0.141   1.445  1.00  0.00    -0.120 N 
ENDROOT
BRANCH   1   7
HETATM    7  C7  UNL     1      -0.183   2.024   0.314  1.00  0.00     0.244 C 
BRANCH   7   8
HETATM    8  C6  UNL     1      -1.364   1.475  -0.398  1.00  0.00    -0.083 C 
BRANCH   8   9
HETATM    9  C5  UNL     1      -2.317   1.036  -0.996  1.00  0.00    -0.076 C 
BRANCH   9  10
HETATM   10  C4  UNL     1      -3.446   0.514  -1.729  1.00  0.00     0.337 C 
BRANCH  10  11
HETATM   11  N2  UNL     1      -4.343  -0.152  -0.840  1.00  0.00    -0.026 N 
HETATM   12  C2  UNL     1      -5.624  -0.341  -1.421  1.00  0.00     0.292 C 
HETATM   13  N1  UNL     1      -6.516   0.426  -0.972  1.00  0.00    -0.373 N 
HETATM   14  C1  UNL     1      -7.915   0.494  -1.345  1.00  0.00     0.150 C 
HETATM   15  C18 UNL     1      -5.964   1.289   0.018  1.00  0.00     0.151 C 
HETATM   16  C17 UNL     1      -4.645   0.657   0.339  1.00  0.00     0.265 C 
HETATM   17  C3  UNL     1      -3.873  -1.437  -0.384  1.00  0.00     0.281 C 
ENDBRANCH  10  11
ENDBRANCH   9  10
ENDBRANCH   8   9
ENDBRANCH   7   8
ENDBRANCH   1   7
BRANCH   6  18
HETATM   18  C11 UNL     1       1.616  -0.320   0.323  1.00  0.00     0.168 C 
BRANCH  18  19
HETATM   19  C12 UNL     1       2.947   0.282   0.052  1.00  0.00     0.022 C 
BRANCH  19  20
HETATM   20  C13 UNL     1       3.499  -0.395  -1.186  1.00  0.00     0.002 C 
BRANCH  20  21
HETATM   21  C14 UNL     1       4.838   0.095  -1.611  1.00  0.00     0.002 C 
BRANCH  21  22
HETATM   22  C15 UNL     1       5.870  -0.122  -0.532  1.00  0.00     0.027 C 
BRANCH  22  23
HETATM   23  C16 UNL     1       7.228   0.382  -0.999  1.00  0.00     0.229 C 
BRANCH  23  24
HETATM   24  N8  UNL     1       8.239   0.189   0.013  1.00  0.00    -0.079 N 
ATOM     25  H83 UNL     1       7.967   0.615   0.899  1.00  0.00     0.274 HD
ATOM     26  H82 UNL     1       8.285  -0.784   0.314  1.00  0.00     0.274 HD
ATOM     27  H81 UNL     1       9.149   0.527  -0.300  1.00  0.00     0.274 HD
ENDBRANCH  23  24
ENDBRANCH  22  23
ENDBRANCH  21  22
ENDBRANCH  20  21
ENDBRANCH  19  20
ENDBRANCH  18  19
ENDBRANCH   6  18
BRANCH   5  28
HETATM   28  N5  UNL     1       1.500  -1.402   3.195  1.00  0.00    -0.167 N 
ATOM     29  H5  UNL     1       1.257  -1.492   4.182  1.00  0.00     0.186 HD
BRANCH  28  30
HETATM   30  C10 UNL     1       2.356  -2.388   2.796  1.00  0.00     0.199 C 
HETATM   31  N6  UNL     1       1.946  -3.654   2.233  1.00  0.00    -0.069 NA
HETATM   32  S1  UNL     1       3.984  -2.185   2.980  1.00  0.00    -0.044 SA
ENDBRANCH  28  30
ENDBRANCH   5  28
TORSDOF 14
