REMARK  11 active torsions:
REMARK  status: ('A' for Active; 'I' for Inactive)
REMARK    1  A    between atoms: N1_1  and  C1_4 
REMARK    2  A    between atoms: N2_5  and  N3_7 
REMARK    3  A    between atoms: N3_7  and  C2_9 
REMARK    4  A    between atoms: N5_12  and  O1_13 
REMARK    5  A    between atoms: C5_17  and  N6_18 
REMARK    6  A    between atoms: C6_26  and  C7_27 
REMARK    7  A    between atoms: C7_27  and  N10_28 
REMARK    8  A    between atoms: N10_28  and  C8_30 
REMARK    9  A    between atoms: C9_31  and  O4_32 
REMARK   10  A    between atoms: C10_36  and  N12_37 
REMARK   11  A    between atoms: C11_42  and  N14_43 
ROOT
HETATM    1  C2  UNL     1       2.950   1.025   0.022  1.00  0.00     0.723 A 
HETATM    2  N4  UNL     1       4.300   0.830   0.138  1.00  0.00    -0.102 N 
ATOM      3  H4  UNL     1       4.991   1.571   0.252  1.00  0.00     0.208 HD
HETATM    4  N5  UNL     1       4.571  -0.446   0.081  1.00  0.00    -0.131 N 
HETATM    5  C3  UNL     1       3.420  -1.103  -0.073  1.00  0.00     0.181 A 
HETATM    6  C4  UNL     1       3.189  -2.454  -0.183  1.00  0.00     0.110 A 
HETATM    7  C5  UNL     1       1.910  -2.904  -0.335  1.00  0.00     0.201 A 
HETATM    8  N7  UNL     1       0.942  -1.982  -0.367  1.00  0.00    -0.200 N 
HETATM    9  N8  UNL     1      -0.380  -2.152  -0.503  1.00  0.00    -0.232 N 
ATOM     10  H8  UNL     1      -0.852  -3.051  -0.606  1.00  0.00     0.209 HD
HETATM   11  N9  UNL     1      -0.966  -0.996  -0.483  1.00  0.00    -0.284 N 
ATOM     12  H9  UNL     1      -1.973  -0.856  -0.570  1.00  0.00     0.188 HD
HETATM   13  C6  UNL     1      -0.047   0.016  -0.329  1.00  0.00     0.091 A 
HETATM   14  C12 UNL     1       1.150  -0.642  -0.259  1.00  0.00     0.181 A 
HETATM   15  N15 UNL     1       2.422  -0.170  -0.107  1.00  0.00    -0.107 N 
ENDROOT
BRANCH  13  16
HETATM   16  C7  UNL     1      -0.389   1.434  -0.244  1.00  0.00     0.182 C 
BRANCH  16  17
HETATM   17  N10 UNL     1      -1.808   1.737  -0.390  1.00  0.00    -0.378 N 
ATOM     18  H10 UNL     1      -2.017   2.685  -0.703  1.00  0.00     0.160 HD
BRANCH  17  19
HETATM   19  C8  UNL     1      -2.917   0.934  -0.168  1.00  0.00     0.125 A 
HETATM   20  C9  UNL     1      -3.643   0.347  -1.221  1.00  0.00     0.185 A 
HETATM   21  N11 UNL     1      -4.694  -0.438  -0.975  1.00  0.00    -0.168 N 
HETATM   22  C10 UNL     1      -5.108  -0.704   0.275  1.00  0.00     0.679 A 
ATOM     23  H11 UNL     1      -5.199  -0.849  -1.761  1.00  0.00     0.186 HD
HETATM   24  N13 UNL     1      -4.416  -0.142   1.272  1.00  0.00    -0.175 N 
HETATM   25  C11 UNL     1      -3.340   0.665   1.110  1.00  0.00     0.145 A 
ATOM     26  H13 UNL     1      -4.721  -0.335   2.226  1.00  0.00     0.186 HD
BRANCH  20  27
HETATM   27  O4  UNL     1      -3.238   0.608  -2.523  1.00  0.00    -0.344 OA
ATOM     28  H4  UNL     1      -3.728   0.212  -3.234  1.00  0.00     0.219 HD
ENDBRANCH  20  27
BRANCH  22  29
HETATM   29  N12 UNL     1      -6.141  -1.477   0.497  1.00  0.00    -0.234 N 
ATOM     30 2H12 UNL     1      -6.669  -1.906  -0.263  1.00  0.00     0.174 HD
ATOM     31 1H12 UNL     1      -6.455  -1.679   1.446  1.00  0.00     0.174 HD
ENDBRANCH  22  29
BRANCH  25  32
HETATM   32  N14 UNL     1      -2.791   1.145   2.188  1.00  0.00    -0.383 N 
ATOM     33 2H14 UNL     1      -1.981   1.753   2.066  1.00  0.00     0.157 HD
ATOM     34 1H14 UNL     1      -3.105   0.945   3.138  1.00  0.00     0.157 HD
ENDBRANCH  25  32
ENDBRANCH  17  19
ENDBRANCH  16  17
ENDBRANCH  13  16
BRANCH   7  35
HETATM   35  N6  UNL     1       1.589  -4.283  -0.456  1.00  0.00    -0.096 N 
HETATM   36  O2  UNL     1       2.534  -5.095  -0.419  1.00  0.00    -0.530 OA
HETATM   37  O3  UNL     1       0.329  -4.757  -0.607  1.00  0.00    -0.530 OA
ENDBRANCH   7  35
BRANCH   1  38
HETATM   38  N3  UNL     1       2.500   2.189   0.055  1.00  0.00    -0.129 N 
ATOM     39  H3  UNL     1       1.486   2.256  -0.037  1.00  0.00     0.205 HD
BRANCH  38  40
HETATM   40  N2  UNL     1       3.137   3.383   0.193  1.00  0.00    -0.282 N 
HETATM   41  C1  UNL     1       3.786   3.684   1.253  1.00  0.00     0.191 C 
ATOM     42  H2  UNL     1       3.096   4.058  -0.571  1.00  0.00     0.188 HD
BRANCH  41  43
HETATM   43  N1  UNL     1       4.786   4.067   1.955  1.00  0.00    -0.394 N 
ATOM     44  H12 UNL     1       5.455   4.217   1.200  1.00  0.00     0.156 HD
ATOM     45  H11 UNL     1       5.304   4.307   2.800  1.00  0.00     0.156 HD
ENDBRANCH  41  43
ENDBRANCH  38  40
ENDBRANCH   1  38
BRANCH   4  46
HETATM   46  O1  UNL     1       5.829  -1.045   0.162  1.00  0.00    -0.266 OA
ATOM     47  H1  UNL     1       6.026  -1.973   0.121  1.00  0.00     0.247 HD
ENDBRANCH   4  46
TORSDOF 11
