REMARK  10 active torsions:
REMARK  status: ('A' for Active; 'I' for Inactive)
REMARK    1  A    between atoms: C10_10  and  O1_11 
REMARK    2  A    between atoms: C13_15  and  C14_16 
REMARK    3  A    between atoms: C18_21  and  O3_22 
REMARK    4  A    between atoms: C19_24  and  C20_25 
REMARK    5  A    between atoms: C20_25  and  C21_26 
REMARK    6  A    between atoms: C21_26  and  C22_27 
REMARK    7  A    between atoms: C23_28  and  C24_29 
REMARK    8  A    between atoms: C28_34  and  C29_35 
REMARK    9  A    between atoms: C29_35  and  O5_36 
REMARK   10  A    between atoms: C29_35  and  C30_38 
ROOT
HETATM    1  C1  UNL     1      -5.855   1.186   0.414  1.00  0.00     0.015 C 
HETATM    2  C2  UNL     1      -5.070   0.490  -0.711  1.00  0.00    -0.042 C 
HETATM    3  C3  UNL     1      -5.898  -0.567  -1.305  1.00  0.00     0.015 C 
HETATM    4  C4  UNL     1      -4.903   1.574  -1.786  1.00  0.00     0.009 C 
HETATM    5  C5  UNL     1      -3.599   2.289  -1.685  1.00  0.00     0.002 C 
HETATM    6  C6  UNL     1      -2.509   1.328  -2.025  1.00  0.00     0.010 C 
HETATM    7  C7  UNL     1      -2.633   0.050  -1.197  1.00  0.00    -0.036 C 
HETATM    8  C8  UNL     1      -2.922  -1.069  -2.214  1.00  0.00     0.016 C 
HETATM    9  C9  UNL     1      -1.296  -0.309  -0.627  1.00  0.00     0.052 C 
HETATM   10  C10 UNL     1      -0.846   0.360   0.595  1.00  0.00     0.088 C 
HETATM   11  C11 UNL     1      -1.557  -0.003   1.829  1.00  0.00    -0.048 C 
HETATM   12  C12 UNL     1      -2.741  -0.561   1.949  1.00  0.00    -0.009 C 
HETATM   13  C13 UNL     1      -3.648  -0.960   0.805  1.00  0.00     0.075 C 
HETATM   14  C15 UNL     1      -3.736   0.155  -0.167  1.00  0.00     0.016 C 
HETATM   15  C16 UNL     1      -0.921   0.269   3.138  1.00  0.00     0.039 C 
HETATM   16  C17 UNL     1       0.240  -0.690   3.259  1.00  0.00     0.036 C 
HETATM   17  C18 UNL     1       0.688  -1.148   1.880  1.00  0.00     0.126 C 
HETATM   18  C19 UNL     1       0.619  -0.014   0.854  1.00  0.00     0.057 C 
ENDROOT
BRANCH  18  19
HETATM   19  C20 UNL     1       1.311  -0.493  -0.361  1.00  0.00     0.049 C 
BRANCH  19  20
HETATM   20  C21 UNL     1       2.728  -0.829  -0.069  1.00  0.00    -0.059 C 
HETATM   21  C28 UNL     1       3.136  -2.103  -0.159  1.00  0.00     0.012 C 
BRANCH  20  22
HETATM   22  C22 UNL     1       3.692   0.172   0.275  1.00  0.00     0.005 C 
HETATM   23  C23 UNL     1       3.521   1.463   0.380  1.00  0.00     0.008 C 
BRANCH  23  24
HETATM   24  C24 UNL     1       4.674   2.355   0.762  1.00  0.00     0.179 A 
HETATM   25  O4  UNL     1       4.859   3.443  -0.084  1.00  0.00    -0.366 OA
HETATM   26  C25 UNL     1       5.850   2.454  -0.092  1.00  0.00     0.084 A 
HETATM   27  C26 UNL     1       6.017   1.588  -1.304  1.00  0.00     0.049 C 
HETATM   28  C27 UNL     1       7.153   2.899   0.539  1.00  0.00     0.049 C 
ENDBRANCH  23  24
ENDBRANCH  20  22
BRANCH  21  29
HETATM   29  C29 UNL     1       4.531  -2.477   0.122  1.00  0.00     0.155 C 
BRANCH  29  30
HETATM   30  O5  UNL     1       5.422  -2.075  -0.872  1.00  0.00    -0.391 OA
ATOM     31  H5  UNL     1       6.323  -2.316  -0.691  1.00  0.00     0.210 HD
ENDBRANCH  29  30
BRANCH  29  32
HETATM   32  C30 UNL     1       4.582  -3.990   0.313  1.00  0.00     0.150 C 
HETATM   33 CL1  UNL     1       4.012  -4.736  -1.183  1.00  0.00    -0.128 Cl
ENDBRANCH  29  32
ENDBRANCH  21  29
ENDBRANCH  19  20
ENDBRANCH  18  19
BRANCH  10  34
HETATM   34  O1  UNL     1      -0.863   1.759   0.522  1.00  0.00    -0.385 OA
ATOM     35  H1  UNL     1      -0.571   2.193   1.315  1.00  0.00     0.211 HD
ENDBRANCH  10  34
BRANCH  17  36
HETATM   36  O3  UNL     1       0.064  -2.292   1.465  1.00  0.00    -0.395 OA
ATOM     37  H3  UNL     1       0.344  -2.578   0.603  1.00  0.00     0.210 HD
ENDBRANCH  17  36
BRANCH  13  38
HETATM   38  C14 UNL     1      -4.880  -1.442   1.413  1.00  0.00     0.240 C 
HETATM   39  O2  UNL     1      -5.293  -2.552   1.154  1.00  0.00    -0.306 OA
ENDBRANCH  13  38
TORSDOF 10
