REMARK  12 active torsions:
REMARK  status: ('A' for Active; 'I' for Inactive)
REMARK    1  A    between atoms: C3_3  and  C4_4 
REMARK    2  A    between atoms: C4_4  and  C5_5 
REMARK    3  A    between atoms: C5_5  and  C6_6 
REMARK    4  A    between atoms: C6_6  and  C7_7 
REMARK    5  A    between atoms: C8_8  and  C9_9 
REMARK    6  A    between atoms: C9_9  and  C10_10 
REMARK    7  A    between atoms: C10_10  and  C11_11 
REMARK    8  A    between atoms: C11_11  and  N1_12 
REMARK    9  A    between atoms: C15_16  and  C16_17 
REMARK   10  A    between atoms: C16_17  and  O1_18 
REMARK   11  A    between atoms: N2_20  and  N3_22 
REMARK   12  A    between atoms: C21_32  and  O2_33 
ROOT
HETATM    1  C7  UNL     1       0.395   0.509   1.180  1.00  0.00    -0.107 C 
HETATM    2  C8  UNL     1       1.544   0.201   0.989  1.00  0.00    -0.107 C 
ENDROOT
BRANCH   1   3
HETATM    3  C6  UNL     1      -1.033   0.869   1.432  1.00  0.00     0.094 C 
BRANCH   3   4
HETATM    4  C5  UNL     1      -1.591  -0.162   2.346  1.00  0.00     0.017 C 
BRANCH   4   5
HETATM    5  C4  UNL     1      -2.992  -0.030   2.776  1.00  0.00     0.041 C 
BRANCH   5   6
HETATM    6  C3  UNL     1      -4.038  -0.027   1.759  1.00  0.00    -0.033 C 
HETATM    7  C2  UNL     1      -4.861  -1.062   1.788  1.00  0.00    -0.011 C 
HETATM    8  C1  UNL     1      -4.604  -2.051   2.829  1.00  0.00     0.052 C 
HETATM    9  C22 UNL     1      -6.005  -1.330   0.883  1.00  0.00     0.106 C 
HETATM   10  N6  UNL     1      -6.257  -0.770  -0.400  1.00  0.00    -0.327 N 
HETATM   11  N7  UNL     1      -6.868  -2.177   1.326  1.00  0.00    -0.385 N 
HETATM   12  C20 UNL     1      -5.579   0.335  -0.984  1.00  0.00     0.130 C 
ATOM     13  H6  UNL     1      -6.995  -1.203  -0.955  1.00  0.00     0.169 HD
HETATM   14  N5  UNL     1      -4.732   1.275  -0.297  1.00  0.00    -0.345 N 
HETATM   15  C21 UNL     1      -5.747   0.512  -2.279  1.00  0.00     0.179 C 
HETATM   16  C18 UNL     1      -4.117   1.102   0.823  1.00  0.00     0.100 C 
HETATM   17  C19 UNL     1      -4.576   2.555  -0.961  1.00  0.00     0.157 C 
ATOM     18  H72 UNL     1      -6.687  -2.579   2.246  1.00  0.00     0.157 HD
ATOM     19  H71 UNL     1      -7.655  -2.361   0.704  1.00  0.00     0.157 HD
BRANCH  15  20
HETATM   20  O2  UNL     1      -6.546  -0.348  -3.013  1.00  0.00    -0.369 OA
ATOM     21  H2  UNL     1      -6.667  -0.220  -3.947  1.00  0.00     0.216 HD
ENDBRANCH  15  20
ENDBRANCH   5   6
ENDBRANCH   4   5
ENDBRANCH   3   4
ENDBRANCH   1   3
BRANCH   2  22
HETATM   22  C9  UNL     1       2.953  -0.198   0.772  1.00  0.00     0.095 C 
BRANCH  22  23
HETATM   23  C10 UNL     1       3.048  -1.639   0.360  1.00  0.00     0.032 C 
BRANCH  23  24
HETATM   24  C11 UNL     1       4.448  -2.108   0.131  1.00  0.00     0.128 C 
BRANCH  24  25
HETATM   25  N1  UNL     1       5.094  -1.357  -0.899  1.00  0.00    -0.365 N 
HETATM   26  C12 UNL     1       5.004  -1.765  -2.177  1.00  0.00     0.090 A 
HETATM   27  C13 UNL     1       5.640  -1.030  -3.155  1.00  0.00     0.018 A 
HETATM   28  C14 UNL     1       6.357   0.100  -2.862  1.00  0.00     0.018 A 
HETATM   29  C15 UNL     1       6.445   0.510  -1.566  1.00  0.00     0.032 A 
HETATM   30  C17 UNL     1       5.796  -0.250  -0.608  1.00  0.00     0.106 A 
BRANCH  29  31
HETATM   31  C16 UNL     1       7.190   1.705  -1.162  1.00  0.00     0.167 C 
HETATM   32  N2  UNL     1       7.786   2.397  -2.058  1.00  0.00    -0.265 N 
ATOM     33  H2  UNL     1       7.734   2.108  -3.035  1.00  0.00     0.190 HD
BRANCH  31  34
HETATM   34  O1  UNL     1       7.246   2.075   0.163  1.00  0.00    -0.344 OA
ATOM     35  H1  UNL     1       7.729   2.850   0.425  1.00  0.00     0.219 HD
ENDBRANCH  31  34
BRANCH  32  36
HETATM   36  N3  UNL     1       8.507   3.544  -1.716  1.00  0.00    -0.247 N 
HETATM   37  N4  UNL     1       8.114   4.716  -1.999  1.00  0.00    -0.331 N 
ATOM     38  H42 UNL     1       7.230   4.808  -2.499  1.00  0.00     0.178 HD
ATOM     39  H41 UNL     1       8.640   5.553  -1.749  1.00  0.00     0.178 HD
ATOM     40  H3  UNL     1       9.389   3.434  -1.216  1.00  0.00     0.207 HD
ENDBRANCH  32  36
ENDBRANCH  29  31
ENDBRANCH  24  25
ENDBRANCH  23  24
ENDBRANCH  22  23
ENDBRANCH   2  22
TORSDOF 12
