REMARK  4 active torsions:
REMARK  status: ('A' for Active; 'I' for Inactive)
REMARK    1  A    between atoms: N1_2  and  S1_4 
REMARK    2  A    between atoms: S1_4  and  N2_7 
REMARK    3  A    between atoms: C6_12  and  C7_13 
REMARK       I    between atoms: C7_13  and  N3_15 
REMARK    4  A    between atoms: N3_15  and  N4_17 
REMARK       I    between atoms: N4_17  and  C8_19 
REMARK       I    between atoms: C8_19  and  N6_23 
REMARK       I    between atoms: N6_23  and  C9_25 
ROOT
HETATM    1  C7  UNL     1      -0.461  -0.090  -0.448  1.00  0.00     0.255 C 
HETATM    2  O3  UNL     1      -0.454  -1.257  -0.013  1.00  0.00    -0.270 OA
HETATM    3  N3  UNL     1      -1.677   0.607  -0.669  1.00  0.00    -0.254 N 
ATOM      4  H3  UNL     1      -1.622   1.560  -1.028  1.00  0.00     0.190 HD
ENDROOT
BRANCH   3   5
HETATM    5  N4  UNL     1      -2.935   0.077  -0.429  1.00  0.00    -0.130 N 
HETATM    6  C8  UNL     1      -3.301  -0.621   0.751  1.00  0.00     0.693 C 
HETATM    7  N5  UNL     1      -2.726  -0.364   1.850  1.00  0.00    -0.233 N 
HETATM    8  N6  UNL     1      -4.321  -1.623   0.739  1.00  0.00    -0.163 N 
ATOM      9  H52 UNL     1      -1.998   0.351   1.859  1.00  0.00     0.174 HD
ATOM     10  H51 UNL     1      -2.989  -0.866   2.698  1.00  0.00     0.174 HD
HETATM   11  C9  UNL     1      -5.631  -1.285   1.154  1.00  0.00     0.200 C 
ATOM     12  H6  UNL     1      -4.106  -2.572   0.434  1.00  0.00     0.187 HD
HETATM   13  N7  UNL     1      -6.683  -1.883   0.671  1.00  0.00    -0.373 N 
HETATM   14  N8  UNL     1      -5.794  -0.266   2.127  1.00  0.00    -0.063 NA
ATOM     15  H72 UNL     1      -6.566  -2.616  -0.029  1.00  0.00     0.158 HD
ATOM     16  H71 UNL     1      -7.627  -1.639   0.970  1.00  0.00     0.158 HD
ATOM     17  H4  UNL     1      -3.646   0.197  -1.150  1.00  0.00     0.205 HD
ENDBRANCH   3   5
BRANCH   1  18
HETATM   18  C6  UNL     1       0.858   0.598  -0.746  1.00  0.00     0.169 C 
HETATM   19  N2  UNL     1       1.911  -0.259  -0.352  1.00  0.00    -0.180 NA
HETATM   20  C2  UNL     1       3.095  -0.265  -1.158  1.00  0.00     0.110 C 
HETATM   21  C3  UNL     1       3.212   0.948  -2.078  1.00  0.00     0.016 C 
HETATM   22  C4  UNL     1       2.008   1.003  -2.976  1.00  0.00     0.003 C 
HETATM   23  C5  UNL     1       0.765   1.011  -2.169  1.00  0.00     0.030 C 
BRANCH  19  24
HETATM   24  S1  UNL     1       2.232   0.008   1.314  1.00  0.00     0.299 S 
HETATM   25  O1  UNL     1       2.878   1.377   1.504  1.00  0.00    -0.188 OA
HETATM   26  O2  UNL     1       0.922   0.093   2.044  1.00  0.00    -0.188 OA
BRANCH  24  27
HETATM   27  N1  UNL     1       3.207  -1.147   2.069  1.00  0.00    -0.311 N 
HETATM   28  C1  UNL     1       4.537  -0.611   2.272  1.00  0.00     0.160 C 
ATOM     29  H1  UNL     1       2.904  -2.082   2.341  1.00  0.00     0.172 HD
ENDBRANCH  24  27
ENDBRANCH  19  24
ENDBRANCH   1  18
TORSDOF 4
