REMARK  1 active torsions:
REMARK  status: ('A' for Active; 'I' for Inactive)
REMARK       I    between atoms: C1_4  and  N3_6 
REMARK    1  A    between atoms: C4_12  and  C5_13 
ROOT
HETATM    1  N1  UNL     1      -2.203   1.751  -1.124  1.00  0.00    -0.373 N 
ATOM      2  H11 UNL     1      -1.464   1.995  -1.783  1.00  0.00     0.158 HD
ATOM      3  H12 UNL     1      -3.066   2.292  -1.171  1.00  0.00     0.158 HD
HETATM    4  C1  UNL     1      -2.115   0.821  -0.255  1.00  0.00     0.197 C 
HETATM    5  N2  UNL     1      -3.134   0.485   0.654  1.00  0.00    -0.063 NA
HETATM    6  N3  UNL     1      -0.911   0.066  -0.190  1.00  0.00    -0.237 N 
HETATM    7  C2  UNL     1      -0.710  -1.327  -0.364  1.00  0.00     0.112 A 
HETATM    8  N4  UNL     1      -1.648  -2.163  -0.622  1.00  0.00    -0.385 N 
ATOM      9  H41 UNL     1      -1.503  -3.165  -0.747  1.00  0.00     0.157 HD
ATOM     10  H42 UNL     1      -2.649  -2.008  -0.745  1.00  0.00     0.157 HD
HETATM   11  C3  UNL     1       0.714  -1.548  -0.189  1.00  0.00     0.071 A 
HETATM   12  C4  UNL     1       1.359  -0.405   0.072  1.00  0.00     0.101 A 
HETATM   13  C6  UNL     1       0.350   0.658   0.080  1.00  0.00     0.271 A 
HETATM   14  O2  UNL     1       0.601   1.884   0.295  1.00  0.00    -0.266 OA
ENDROOT
BRANCH  12  15
HETATM   15  C5  UNL     1       2.778  -0.217   0.305  1.00  0.00     0.270 C 
HETATM   16  N5  UNL     1       3.262   1.083   0.565  1.00  0.00    -0.057 NA
HETATM   17  O1  UNL     1       3.525  -1.223   0.267  1.00  0.00    -0.271 OA
ENDBRANCH  12  15
TORSDOF 1
