REMARK  11 active torsions:
REMARK  status: ('A' for Active; 'I' for Inactive)
REMARK    1  A    between atoms: C1_2  and  C2_4 
REMARK    2  A    between atoms: C2_4  and  C3_5 
REMARK    3  A    between atoms: C3_5  and  N2_6 
REMARK       I    between atoms: N2_6  and  C4_8 
REMARK    4  A    between atoms: C4_8  and  C5_10 
REMARK    5  A    between atoms: C5_10  and  N3_11 
REMARK       I    between atoms: N3_11  and  C6_13 
REMARK    6  A    between atoms: C6_13  and  C7_15 
REMARK    7  A    between atoms: C10_18  and  C11_19 
REMARK    8  A    between atoms: C11_19  and  N4_20 
REMARK    9  A    between atoms: N4_20  and  C12_22 
REMARK   10  A    between atoms: C12_22  and  N5_24 
REMARK   11  A    between atoms: N5_24  and  C13_26 
ROOT
HETATM    1  C7  UNL     1       1.122   0.220   0.403  1.00  0.00     0.078 C 
HETATM    2  C8  UNL     1       0.800  -0.018  -1.080  1.00  0.00     0.014 C 
HETATM    3  C9  UNL     1      -0.709   0.012  -1.158  1.00  0.00     0.007 C 
HETATM    4  C10 UNL     1      -1.302   1.296  -0.708  1.00  0.00     0.003 C 
HETATM    5  C19 UNL     1      -0.688   1.848   0.552  1.00  0.00     0.007 C 
HETATM    6  C20 UNL     1       0.798   1.701   0.626  1.00  0.00     0.014 C 
ENDROOT
BRANCH   1   7
HETATM    7  C6  UNL     1       2.514  -0.080   0.723  1.00  0.00     0.222 C 
HETATM    8  N3  UNL     1       3.066  -1.352   0.462  1.00  0.00    -0.352 N 
ATOM      9  H3  UNL     1       2.476  -2.072   0.045  1.00  0.00     0.162 HD
HETATM   10  O3  UNL     1       3.234   0.805   1.238  1.00  0.00    -0.273 OA
BRANCH   8  11
HETATM   11  C5  UNL     1       4.432  -1.661   0.766  1.00  0.00     0.225 C 
BRANCH  11  12
HETATM   12  C4  UNL     1       5.430  -0.849   0.058  1.00  0.00     0.235 C 
HETATM   13  N2  UNL     1       6.809  -1.035   0.297  1.00  0.00    -0.359 N 
ATOM     14  H2  UNL     1       7.100  -1.744   0.970  1.00  0.00     0.162 HD
HETATM   15  O2  UNL     1       5.069   0.017  -0.762  1.00  0.00    -0.272 OA
BRANCH  13  16
HETATM   16  C3  UNL     1       7.829  -0.254  -0.380  1.00  0.00     0.131 C 
BRANCH  16  17
HETATM   17  C2  UNL     1       9.190  -0.678   0.106  1.00  0.00     0.119 C 
BRANCH  17  18
HETATM   18  C1  UNL     1      10.252   0.095  -0.564  1.00  0.00     0.232 C 
HETATM   19  N1  UNL     1      11.595  -0.110  -0.162  1.00  0.00    -0.062 NA
HETATM   20  O1  UNL     1      10.000   0.920  -1.471  1.00  0.00    -0.277 OA
ENDBRANCH  17  18
ENDBRANCH  16  17
ENDBRANCH  13  16
ENDBRANCH  11  12
ENDBRANCH   8  11
ENDBRANCH   1   7
BRANCH   4  21
HETATM   21  C11 UNL     1      -2.796   1.017  -0.391  1.00  0.00     0.126 C 
BRANCH  21  22
HETATM   22  N4  UNL     1      -3.443   2.212   0.045  1.00  0.00    -0.367 N 
ATOM     23  H4  UNL     1      -2.866   3.051  -0.018  1.00  0.00     0.161 HD
BRANCH  22  24
HETATM   24  C12 UNL     1      -4.724   2.430   0.541  1.00  0.00     0.167 C 
HETATM   25  S1  UNL     1      -5.043   4.047   0.918  1.00  0.00    -0.041 SA
BRANCH  24  26
HETATM   26  N5  UNL     1      -5.792   1.565   0.785  1.00  0.00    -0.363 N 
ATOM     27  H5  UNL     1      -6.620   2.024   1.164  1.00  0.00     0.162 HD
BRANCH  26  28
HETATM   28  C13 UNL     1      -5.940   0.165   0.604  1.00  0.00     0.083 C 
HETATM   29  C14 UNL     1      -6.035  -0.331  -0.796  1.00  0.00     0.025 C 
HETATM   30  C15 UNL     1      -7.390  -0.859  -1.185  1.00  0.00     0.002 C 
HETATM   31  C16 UNL     1      -7.850  -1.966  -0.260  1.00  0.00     0.000 C 
HETATM   32  C17 UNL     1      -7.252  -1.829   1.122  1.00  0.00     0.002 C 
HETATM   33  C18 UNL     1      -7.120  -0.372   1.443  1.00  0.00     0.025 C 
ENDBRANCH  26  28
ENDBRANCH  24  26
ENDBRANCH  22  24
ENDBRANCH  21  22
ENDBRANCH   4  21
TORSDOF 11
