REMARK  15 active torsions:
REMARK  status: ('A' for Active; 'I' for Inactive)
REMARK    1  A    between atoms: C4_4  and  C5_5 
REMARK    2  A    between atoms: C6_6  and  C7_7 
REMARK    3  A    between atoms: C6_6  and  C12_12 
REMARK    4  A    between atoms: C7_7  and  C8_8 
REMARK    5  A    between atoms: C8_8  and  C9_9 
REMARK    6  A    between atoms: C12_12  and  C13_13 
REMARK    7  A    between atoms: C14_14  and  O1_15 
REMARK    8  A    between atoms: C15_17  and  O2_18 
REMARK    9  A    between atoms: C15_17  and  C16_20 
REMARK   10  A    between atoms: C16_20  and  C17_21 
REMARK   11  A    between atoms: C17_21  and  C19_23 
REMARK   12  A    between atoms: C19_23  and  O3_24 
REMARK   13  A    between atoms: C19_23  and  C20_26 
REMARK   14  A    between atoms: C20_26  and  O4_27 
REMARK   15  A    between atoms: C20_26  and  O5_29 
ROOT
HETATM    1  C12 UNL     1       0.289  -0.808  -0.630  1.00  0.00     0.013 C 
HETATM    2  C15 UNL     1       1.117  -1.424   0.376  1.00  0.00     0.055 C 
ENDROOT
BRANCH   1   3
HETATM    3  C6  UNL     1      -1.092  -0.345  -0.216  1.00  0.00     0.030 C 
HETATM    4  C5  UNL     1      -1.620  -0.445   0.969  1.00  0.00     0.022 C 
BRANCH   4   5
HETATM    5  C4  UNL     1      -3.012   0.089   1.139  1.00  0.00     0.003 C 
HETATM    6  C2  UNL     1      -3.623   0.035   2.286  1.00  0.00    -0.088 C 
HETATM    7  C1  UNL     1      -4.991   0.562   2.445  1.00  0.00     0.043 C 
HETATM    8  C3  UNL     1      -2.943  -0.564   3.453  1.00  0.00     0.043 C 
ENDBRANCH   4   5
BRANCH   3   9
HETATM    9  C7  UNL     1      -1.912   0.277  -1.261  1.00  0.00    -0.066 C 
BRANCH   9  10
HETATM   10  C8  UNL     1      -2.629   0.806  -2.117  1.00  0.00    -0.097 C 
BRANCH  10  11
HETATM   11  C9  UNL     1      -3.478   1.407  -3.138  1.00  0.00     0.057 C 
HETATM   12  C10 UNL     1      -4.930   1.216  -2.759  1.00  0.00     0.023 C 
HETATM   13  C11 UNL     1      -3.195   2.891  -3.156  1.00  0.00     0.023 C 
ENDBRANCH  10  11
ENDBRANCH   9  10
ENDBRANCH   3   9
ENDBRANCH   1   3
BRANCH   1  14
HETATM   14  C13 UNL     1       0.535  -0.573  -1.885  1.00  0.00     0.039 C 
HETATM   15  C14 UNL     1       1.573  -0.749  -2.836  1.00  0.00     0.132 C 
BRANCH  15  16
HETATM   16  O1  UNL     1       2.772  -1.294  -2.659  1.00  0.00    -0.373 OA
ATOM     17  H1  UNL     1       3.467  -1.412  -3.296  1.00  0.00     0.216 HD
ENDBRANCH  15  16
ENDBRANCH   1  14
BRANCH   2  18
HETATM   18  O2  UNL     1       0.587  -1.521   1.565  1.00  0.00    -0.364 OA
ATOM     19  H2  UNL     1       1.133  -1.927   2.228  1.00  0.00     0.217 HD
ENDBRANCH   2  18
BRANCH   2  20
HETATM   20  C16 UNL     1       2.436  -1.960   0.317  1.00  0.00     0.072 C 
BRANCH  20  21
HETATM   21  C17 UNL     1       3.600  -1.077   0.637  1.00  0.00     0.021 C 
HETATM   22  C18 UNL     1       4.860  -1.934   0.485  1.00  0.00     0.013 C 
BRANCH  21  23
HETATM   23  C19 UNL     1       3.621  -0.437   1.971  1.00  0.00     0.177 C 
BRANCH  23  24
HETATM   24  O3  UNL     1       2.542   0.405   2.214  1.00  0.00    -0.390 OA
ATOM     25  H3  UNL     1       2.555   0.816   3.070  1.00  0.00     0.210 HD
ENDBRANCH  23  24
BRANCH  23  26
HETATM   26  C20 UNL     1       4.864   0.455   2.100  1.00  0.00     0.282 C 
BRANCH  26  27
HETATM   27  O4  UNL     1       4.858   1.492   1.202  1.00  0.00    -0.369 OA
ATOM     28  H4  UNL     1       5.627   2.044   1.282  1.00  0.00     0.212 HD
ENDBRANCH  26  27
BRANCH  26  29
HETATM   29  O5  UNL     1       4.918   0.995   3.385  1.00  0.00    -0.369 OA
ATOM     30  H5  UNL     1       5.687   1.547   3.465  1.00  0.00     0.212 HD
ENDBRANCH  26  29
ENDBRANCH  23  26
ENDBRANCH  21  23
ENDBRANCH  20  21
ENDBRANCH   2  20
TORSDOF 15
