REMARK  19 active torsions:
REMARK  status: ('A' for Active; 'I' for Inactive)
REMARK    1  A    between atoms: C2_2  and  C4_4 
REMARK    2  A    between atoms: C6_6  and  O1_7 
REMARK    3  A    between atoms: C8_10  and  O2_11 
REMARK    4  A    between atoms: O2_11  and  C9_12 
REMARK    5  A    between atoms: C13_17  and  O4_18 
REMARK    6  A    between atoms: C13_17  and  C14_20 
REMARK    7  A    between atoms: C15_24  and  C16_25 
REMARK    8  A    between atoms: C16_25  and  O9_27 
REMARK    9  A    between atoms: C18_29  and  O10_30 
REMARK   10  A    between atoms: C20_35  and  O13_36 
REMARK   11  A    between atoms: O13_36  and  C21_37 
REMARK   12  A    between atoms: C21_37  and  C22_39 
REMARK   13  A    between atoms: C22_39  and  C23_40 
REMARK   14  A    between atoms: C22_39  and  N1_49 
REMARK   15  A    between atoms: C23_40  and  O15_41 
REMARK   16  A    between atoms: C23_40  and  C24_43 
REMARK   17  A    between atoms: C24_43  and  O16_44 
REMARK   18  A    between atoms: C24_43  and  C25_46 
REMARK   19  A    between atoms: C25_46  and  O17_47 
ROOT
HETATM    1  C4  UNL     1      -0.090  -2.709   0.157  1.00  0.00     0.075 C 
HETATM    2  C5  UNL     1      -1.573  -2.444   0.392  1.00  0.00     0.061 C 
HETATM    3  C6  UNL     1      -2.268  -1.537  -0.508  1.00  0.00     0.155 C 
HETATM    4  C7  UNL     1      -2.179  -0.088  -0.492  1.00  0.00     0.033 C 
HETATM    5  C8  UNL     1      -3.452   0.667  -0.635  1.00  0.00     0.095 C 
HETATM    6  C11 UNL     1      -3.332   1.981  -0.756  1.00  0.00     0.023 C 
HETATM    7  C12 UNL     1      -4.528   2.879  -0.912  1.00  0.00     0.053 C 
HETATM    8  C13 UNL     1      -2.024   2.642  -0.720  1.00  0.00     0.283 C 
HETATM    9  O7  UNL     1      -1.004   1.912  -0.260  1.00  0.00    -0.310 OA
HETATM   10  C15 UNL     1      -1.278   0.677   0.382  1.00  0.00     0.239 C 
HETATM   11  C18 UNL     1       0.132   0.092   0.495  1.00  0.00     0.243 C 
HETATM   12  O11 UNL     1       0.164  -0.840   1.596  1.00  0.00    -0.276 OA
HETATM   13  C19 UNL     1       0.620  -2.163   1.292  1.00  0.00     0.275 C 
HETATM   14  O12 UNL     1       1.492  -2.650   1.970  1.00  0.00    -0.264 OA
HETATM   15  C20 UNL     1       0.690  -0.469  -0.746  1.00  0.00     0.200 C 
HETATM   16  C26 UNL     1       0.430  -1.907  -1.038  1.00  0.00     0.062 C 
ENDROOT
BRANCH  15  17
HETATM   17  O13 UNL     1       2.115  -0.263  -0.780  1.00  0.00    -0.308 OA
BRANCH  17  18
HETATM   18  C21 UNL     1       2.765   0.515  -1.686  1.00  0.00     0.291 C 
HETATM   19  O14 UNL     1       2.117   1.117  -2.572  1.00  0.00    -0.263 OA
BRANCH  18  20
HETATM   20  C22 UNL     1       4.270   0.603  -1.563  1.00  0.00     0.286 C 
BRANCH  20  21
HETATM   21  C23 UNL     1       4.606   0.892  -0.147  1.00  0.00     0.187 C 
BRANCH  21  22
HETATM   22  O15 UNL     1       4.225   2.136   0.305  1.00  0.00    -0.390 OA
ATOM     23  H15 UNL     1       4.440   2.321   1.212  1.00  0.00     0.210 HD
ENDBRANCH  21  22
BRANCH  21  24
HETATM   24  C24 UNL     1       6.022   0.544   0.247  1.00  0.00     0.173 C 
BRANCH  24  25
HETATM   25  O16 UNL     1       6.427  -0.691  -0.249  1.00  0.00    -0.391 OA
ATOM     26  H16 UNL     1       7.318  -0.910  -0.001  1.00  0.00     0.210 HD
ENDBRANCH  24  25
BRANCH  24  27
HETATM   27  C25 UNL     1       7.044   1.578  -0.140  1.00  0.00     0.198 C 
BRANCH  27  28
HETATM   28  O17 UNL     1       8.258   1.157   0.455  1.00  0.00    -0.398 OA
ATOM     29  H17 UNL     1       8.903   1.810   0.211  1.00  0.00     0.209 HD
ENDBRANCH  27  28
ENDBRANCH  24  27
ENDBRANCH  21  24
ENDBRANCH  20  21
BRANCH  20  30
HETATM   30  N1  UNL     1       4.820   1.467  -2.550  1.00  0.00    -0.138 N 
HETATM   31  O18 UNL     1       5.588   1.033  -3.461  1.00  0.00    -0.536 OA
HETATM   32  O19 UNL     1       4.544   2.809  -2.591  1.00  0.00    -0.536 OA
ENDBRANCH  20  30
ENDBRANCH  18  20
ENDBRANCH  17  18
ENDBRANCH  15  17
BRANCH  11  33
HETATM   33  O10 UNL     1       0.983   1.110   0.943  1.00  0.00    -0.360 OA
ATOM     34  H10 UNL     1       1.858   0.747   1.013  1.00  0.00     0.213 HD
ENDBRANCH  11  33
BRANCH  10  35
HETATM   35  C16 UNL     1      -1.672   0.968   1.748  1.00  0.00     0.304 C 
HETATM   36  O8  UNL     1      -1.623   2.172   2.167  1.00  0.00    -0.261 OA
BRANCH  35  37
HETATM   37  O9  UNL     1      -2.118   0.096   2.727  1.00  0.00    -0.324 OA
HETATM   38  C17 UNL     1      -2.476   0.491   4.026  1.00  0.00     0.213 C 
ENDBRANCH  35  37
ENDBRANCH  10  35
BRANCH   1  39
HETATM   39  C2  UNL     1       0.181  -4.104  -0.143  1.00  0.00    -0.075 C 
HETATM   40  C1  UNL     1       0.870  -4.933   0.588  1.00  0.00     0.015 C 
HETATM   41  C3  UNL     1      -0.418  -4.666  -1.426  1.00  0.00     0.044 C 
ENDBRANCH   1  39
BRANCH   3  42
HETATM   42  O1  UNL     1      -3.657  -1.907  -0.439  1.00  0.00    -0.391 OA
ATOM     43  H1  UNL     1      -4.111  -1.315  -1.027  1.00  0.00     0.210 HD
ENDBRANCH   3  42
BRANCH   5  44
HETATM   44  O2  UNL     1      -4.735   0.208  -0.659  1.00  0.00    -0.278 OA
BRANCH  44  45
HETATM   45  C9  UNL     1      -5.626   0.127   0.397  1.00  0.00     0.260 C 
HETATM   46  C10 UNL     1      -7.011  -0.397   0.248  1.00  0.00     0.126 C 
HETATM   47  O3  UNL     1      -5.260   0.505   1.511  1.00  0.00    -0.265 OA
ENDBRANCH  44  45
ENDBRANCH   5  44
BRANCH   8  48
HETATM   48  O4  UNL     1      -2.094   3.833   0.064  1.00  0.00    -0.353 OA
ATOM     49  H4  UNL     1      -1.246   4.261   0.087  1.00  0.00     0.214 HD
ENDBRANCH   8  48
BRANCH   8  50
HETATM   50  C14 UNL     1      -1.720   3.159  -2.087  1.00  0.00     0.244 C 
HETATM   51  O5  UNL     1      -1.617   2.405  -3.075  1.00  0.00    -0.644 OA
HETATM   52  O6  UNL     1      -1.531   4.540  -2.338  1.00  0.00    -0.644 OA
ENDBRANCH   8  50
TORSDOF 19
