REMARK  18 active torsions:
REMARK  status: ('A' for Active; 'I' for Inactive)
REMARK    1  A    between atoms: O1_2  and  C2_3 
REMARK    2  A    between atoms: C2_3  and  C3_5 
REMARK    3  A    between atoms: C4_7  and  C5_8 
REMARK    4  A    between atoms: C5_8  and  C6_9 
REMARK    5  A    between atoms: C5_8  and  C10_17 
REMARK    6  A    between atoms: C6_9  and  C7_10 
REMARK    7  A    between atoms: C7_10  and  C8_11 
REMARK    8  A    between atoms: C8_11  and  N1_12 
REMARK       I    between atoms: N1_12  and  C9_14 
REMARK    9  A    between atoms: C10_17  and  O5_19 
REMARK   10  A    between atoms: O5_19  and  C11_20 
REMARK   11  A    between atoms: N4_26  and  C14_27 
REMARK   12  A    between atoms: C14_27  and  O7_28 
REMARK   13  A    between atoms: C14_27  and  C15_30 
REMARK   14  A    between atoms: C15_30  and  C17_32 
REMARK   15  A    between atoms: C15_30  and  N5_35 
REMARK   16  A    between atoms: C17_32  and  O8_33 
REMARK       I    between atoms: N5_35  and  C18_37 
REMARK   17  A    between atoms: C21_43  and  C22_44 
REMARK   18  A    between atoms: C24_48  and  O12_49 
ROOT
HETATM    1  C11 UNL     1      -0.466  -0.827   0.655  1.00  0.00     0.176 C 
HETATM    2  C12 UNL     1      -0.472  -2.077   1.515  1.00  0.00     0.134 C 
HETATM    3  S2  UNL     1       1.071  -1.951   2.501  1.00  0.00    -0.022 SA
HETATM    4  N3  UNL     1       2.265  -1.163   1.423  1.00  0.00    -0.169 N 
HETATM    5  C13 UNL     1       3.560  -0.921   1.672  1.00  0.00     0.364 A 
HETATM    6  O6  UNL     1       4.144  -1.218   2.751  1.00  0.00    -0.243 OA
HETATM    7  N4  UNL     1       4.091  -0.309   0.558  1.00  0.00    -0.192 N 
HETATM    8  C20 UNL     1       3.083  -0.214  -0.312  1.00  0.00     0.355 A 
HETATM    9  O10 UNL     1       3.096   0.273  -1.465  1.00  0.00    -0.244 OA
HETATM   10  N6  UNL     1       1.931  -0.752   0.234  1.00  0.00    -0.209 N 
HETATM   11  C21 UNL     1       0.613  -0.849  -0.375  1.00  0.00     0.233 C 
ENDROOT
BRANCH   1  12
HETATM   12  O5  UNL     1      -1.734  -0.510   0.157  1.00  0.00    -0.312 OA
BRANCH  12  13
HETATM   13  C10 UNL     1      -2.478   0.580   0.546  1.00  0.00     0.268 C 
HETATM   14  O4  UNL     1      -1.993   1.336   1.403  1.00  0.00    -0.264 OA
BRANCH  13  15
HETATM   15  C5  UNL     1      -3.850   0.832  -0.069  1.00  0.00     0.125 C 
BRANCH  15  16
HETATM   16  C4  UNL     1      -4.647  -0.391   0.420  1.00  0.00    -0.000 A 
HETATM   17  S1  UNL     1      -4.448  -2.035   0.037  1.00  0.00    -0.085 SA
HETATM   18  C3  UNL     1      -5.705  -2.693   0.980  1.00  0.00     0.113 A 
HETATM   19  C24 UNL     1      -6.252  -1.587   1.576  1.00  0.00     0.089 A 
HETATM   20  C23 UNL     1      -5.706  -0.399   1.287  1.00  0.00     0.053 A 
BRANCH  18  21
HETATM   21  C2  UNL     1      -6.093  -4.096   1.106  1.00  0.00     0.302 C 
HETATM   22  O2  UNL     1      -5.461  -4.972   0.472  1.00  0.00    -0.259 OA
BRANCH  21  23
HETATM   23  O1  UNL     1      -7.144  -4.500   1.909  1.00  0.00    -0.322 OA
HETATM   24  C1  UNL     1      -7.523  -5.870   2.031  1.00  0.00     0.213 C 
ENDBRANCH  21  23
ENDBRANCH  18  21
BRANCH  19  25
HETATM   25  O12 UNL     1      -7.355  -1.751   2.460  1.00  0.00    -0.359 OA
ATOM     26  H12 UNL     1      -7.734  -0.984   2.873  1.00  0.00     0.217 HD
ENDBRANCH  19  25
ENDBRANCH  15  16
BRANCH  15  27
HETATM   27  C6  UNL     1      -3.677   0.675  -1.541  1.00  0.00     0.021 C 
BRANCH  27  28
HETATM   28  C7  UNL     1      -3.003   1.721  -2.322  1.00  0.00     0.021 C 
BRANCH  28  29
HETATM   29  C8  UNL     1      -3.646   3.053  -2.439  1.00  0.00     0.124 C 
BRANCH  29  30
HETATM   30  N1  UNL     1      -3.766   3.773  -1.230  1.00  0.00    -0.345 N 
HETATM   31  C9  UNL     1      -2.670   4.255  -0.454  1.00  0.00     0.328 C 
HETATM   32  N2  UNL     1      -2.881   4.974   0.758  1.00  0.00    -0.040 NA
HETATM   33  O3  UNL     1      -1.484   4.068  -0.804  1.00  0.00    -0.251 OA
ATOM     34  H1  UNL     1      -4.707   3.963  -0.886  1.00  0.00     0.163 HD
ENDBRANCH  29  30
ENDBRANCH  28  29
ENDBRANCH  27  28
ENDBRANCH  15  27
ENDBRANCH  13  15
ENDBRANCH  12  13
ENDBRANCH   1  12
BRANCH  11  35
HETATM   35  C22 UNL     1       0.596  -2.003  -1.262  1.00  0.00     0.258 C 
HETATM   36  N7  UNL     1      -0.529  -2.236  -2.083  1.00  0.00    -0.060 NA
HETATM   37  O11 UNL     1       1.552  -2.795  -1.316  1.00  0.00    -0.274 OA
ENDBRANCH  11  35
BRANCH   7  38
HETATM   38  C14 UNL     1       5.439   0.055   0.490  1.00  0.00     0.161 C 
BRANCH  38  39
HETATM   39  O7  UNL     1       6.139  -0.264   1.543  1.00  0.00    -0.347 OA
ATOM     40  H7  UNL     1       7.055  -0.017   1.497  1.00  0.00     0.219 HD
ENDBRANCH  38  39
BRANCH  38  41
HETATM   41  C15 UNL     1       6.196   0.729  -0.556  1.00  0.00     0.116 C 
HETATM   42  C16 UNL     1       6.113  -0.051  -1.876  1.00  0.00     0.050 C 
BRANCH  41  43
HETATM   43  C17 UNL     1       5.773   2.153  -0.773  1.00  0.00     0.203 C 
BRANCH  43  44
HETATM   44  O8  UNL     1       6.599   2.661  -1.797  1.00  0.00    -0.398 OA
ATOM     45  H8  UNL     1       6.331   3.562  -1.934  1.00  0.00     0.209 HD
ENDBRANCH  43  44
ENDBRANCH  41  43
BRANCH  41  46
HETATM   46  N5  UNL     1       7.625   0.831  -0.180  1.00  0.00    -0.343 N 
HETATM   47  C18 UNL     1       8.151   1.491   0.919  1.00  0.00     0.214 C 
HETATM   48  C19 UNL     1       9.665   1.445   1.081  1.00  0.00     0.117 C 
HETATM   49  O9  UNL     1       7.524   2.122   1.795  1.00  0.00    -0.274 OA
ATOM     50  H5  UNL     1       8.293   0.366  -0.795  1.00  0.00     0.163 HD
ENDBRANCH  41  46
ENDBRANCH  38  41
ENDBRANCH   7  38
TORSDOF 18
