REMARK  10 active torsions:
REMARK  status: ('A' for Active; 'I' for Inactive)
REMARK    1  A    between atoms: N2_3  and  C2_5 
REMARK    2  A    between atoms: C3_10  and  C4_11 
REMARK    3  A    between atoms: C4_11  and  S1_12 
REMARK    4  A    between atoms: S1_12  and  C5_13 
REMARK    5  A    between atoms: C6_18  and  S2_19 
REMARK    6  A    between atoms: S2_19  and  C7_20 
REMARK    7  A    between atoms: C7_20  and  C8_21 
REMARK       I    between atoms: C8_21  and  N7_23 
REMARK    8  A    between atoms: N7_23  and  N8_25 
REMARK       I    between atoms: N8_25  and  C9_27 
REMARK       I    between atoms: C9_27  and  N9_29 
REMARK    9  A    between atoms: N9_29  and  N10_31 
REMARK   10  A    between atoms: C10_33  and  C11_34 
ROOT
HETATM    1  N1  UNL     1       7.311   2.615  -2.048  1.00  0.00    -0.171 NA
HETATM    2  C1  UNL     1       7.883   1.650  -1.759  1.00  0.00     0.196 C 
HETATM    3  N2  UNL     1       8.592   0.493  -1.421  1.00  0.00    -0.124 N 
ATOM      4  H2  UNL     1       9.280   0.097  -2.061  1.00  0.00     0.197 HD
ENDROOT
BRANCH   3   5
HETATM    5  C2  UNL     1       8.352  -0.071  -0.262  1.00  0.00     0.707 A 
HETATM    6  N3  UNL     1       8.916  -1.171   0.247  1.00  0.00    -0.130 N 
HETATM    7  N4  UNL     1       8.420  -1.434   1.437  1.00  0.00    -0.274 N 
ATOM      8  H3  UNL     1       9.631  -1.728  -0.221  1.00  0.00     0.205 HD
HETATM    9  C3  UNL     1       7.514  -0.487   1.710  1.00  0.00     0.122 A 
ATOM     10  H4  UNL     1       8.678  -2.215   2.040  1.00  0.00     0.189 HD
HETATM   11  N14 UNL     1       7.478   0.347   0.661  1.00  0.00    -0.176 N 
ATOM     12  H14 UNL     1       6.880   1.169   0.579  1.00  0.00     0.185 HD
BRANCH   9  13
HETATM   13  C4  UNL     1       6.703  -0.393   2.958  1.00  0.00     0.160 C 
BRANCH  13  14
HETATM   14  S1  UNL     1       5.142  -1.321   2.696  1.00  0.00    -0.096 SA
BRANCH  14  15
HETATM   15  C5  UNL     1       4.189  -0.453   1.430  1.00  0.00     0.129 A 
HETATM   16  N5  UNL     1       3.302   0.522   1.606  1.00  0.00    -0.287 N 
HETATM   17  N6  UNL     1       2.718   1.027   0.610  1.00  0.00    -0.287 N 
ATOM     18  H5  UNL     1       3.095   0.861   2.546  1.00  0.00     0.188 HD
HETATM   19  C6  UNL     1       2.986   0.589  -0.616  1.00  0.00     0.129 A 
ATOM     20  H6  UNL     1       2.037   1.774   0.745  1.00  0.00     0.188 HD
HETATM   21  S3  UNL     1       4.157  -0.627  -0.269  1.00  0.00    -0.038 SA
BRANCH  19  22
HETATM   22  S2  UNL     1       2.299   1.145  -2.182  1.00  0.00    -0.094 SA
BRANCH  22  23
HETATM   23  C7  UNL     1       0.799   0.213  -2.595  1.00  0.00     0.186 C 
BRANCH  23  24
HETATM   24  C8  UNL     1      -0.206   0.563  -1.573  1.00  0.00     0.245 C 
HETATM   25  O1  UNL     1      -0.892   1.590  -1.712  1.00  0.00    -0.271 OA
HETATM   26  N7  UNL     1      -0.385  -0.263  -0.448  1.00  0.00    -0.265 N 
ATOM     27  H7  UNL     1       0.193  -1.099  -0.363  1.00  0.00     0.190 HD
BRANCH  26  28
HETATM   28  N8  UNL     1      -1.322   0.008   0.566  1.00  0.00    -0.248 N 
HETATM   29  C9  UNL     1      -2.690   0.090   0.202  1.00  0.00     0.353 C 
HETATM   30  O2  UNL     1      -3.096  -0.064  -0.957  1.00  0.00    -0.244 OA
HETATM   31  N9  UNL     1      -3.669   0.367   1.220  1.00  0.00    -0.251 N 
ATOM     32  H9  UNL     1      -3.364   0.495   2.185  1.00  0.00     0.191 HD
ATOM     33  H8  UNL     1      -1.026   0.141   1.533  1.00  0.00     0.192 HD
BRANCH  31  34
HETATM   34  N10 UNL     1      -5.015   0.463   0.917  1.00  0.00    -0.304 N 
HETATM   35  C10 UNL     1      -5.601  -0.483   0.277  1.00  0.00     0.155 C 
ATOM     36  H10 UNL     1      -5.543   1.287   1.203  1.00  0.00     0.186 HD
BRANCH  35  37
HETATM   37  C11 UNL     1      -7.032  -0.402  -0.059  1.00  0.00     0.123 A 
HETATM   38  N11 UNL     1      -7.699  -1.340  -0.716  1.00  0.00    -0.328 N 
HETATM   39  C12 UNL     1      -9.007  -1.217  -1.001  1.00  0.00     0.101 A 
ATOM     40  H11 UNL     1      -7.205  -2.181  -1.015  1.00  0.00     0.169 HD
HETATM   41  N12 UNL     1      -9.595  -2.164  -1.642  1.00  0.00    -0.385 N 
HETATM   42  C13 UNL     1      -9.700  -0.092  -0.607  1.00  0.00     0.065 A 
ATOM     43 2H12 UNL     1      -9.082  -2.996  -1.933  1.00  0.00     0.157 HD
ATOM     44 1H12 UNL     1     -10.587  -2.071  -1.858  1.00  0.00     0.157 HD
HETATM   45  C14 UNL     1      -9.001   0.880   0.077  1.00  0.00     0.093 A 
HETATM   46  N13 UNL     1      -7.704   0.691   0.324  1.00  0.00    -0.351 N 
ATOM     47  H13 UNL     1      -7.198   1.417   0.831  1.00  0.00     0.166 HD
ENDBRANCH  35  37
ENDBRANCH  31  34
ENDBRANCH  26  28
ENDBRANCH  23  24
ENDBRANCH  22  23
ENDBRANCH  19  22
ENDBRANCH  14  15
ENDBRANCH  13  14
ENDBRANCH   9  13
ENDBRANCH   3   5
TORSDOF 10
