REMARK  5 active torsions:
REMARK  status: ('A' for Active; 'I' for Inactive)
REMARK    1  A    between atoms: C2_2  and  C3_3 
REMARK    2  A    between atoms: C3_3  and  N1_4 
REMARK    3  A    between atoms: N2_7  and  C6_8 
REMARK    4  A    between atoms: C6_8  and  C7_9 
REMARK    5  A    between atoms: C9_13  and  N4_14 
ROOT
HETATM    1  N1  UNL     1       2.330   0.077  -0.310  1.00  0.00     0.121 N 
HETATM    2  C4  UNL     1       1.091   0.594   0.199  1.00  0.00     0.320 C 
HETATM    3  C5  UNL     1      -0.136   0.132  -0.520  1.00  0.00     0.098 C 
HETATM    4  N2  UNL     1      -0.853  -0.913   0.077  1.00  0.00    -0.345 N 
HETATM    5  C10 UNL     1      -0.745  -2.209  -0.438  1.00  0.00     0.096 C 
HETATM    6  C11 UNL     1       0.588  -2.884  -0.225  1.00  0.00     0.279 C 
HETATM    7  N6  UNL     1       1.623  -2.155  -0.934  1.00  0.00    -0.044 N 
ATOM      8  H61 UNL     1       1.220  -1.580  -1.674  1.00  0.00     0.279 HD
ATOM      9  H62 UNL     1       2.188  -2.787  -1.502  1.00  0.00     0.279 HD
HETATM   10  C12 UNL     1       2.445  -1.373  -0.075  1.00  0.00     0.503 C 
ENDROOT
BRANCH   4  11
HETATM   11  C6  UNL     1      -1.814  -0.629   1.062  1.00  0.00     0.126 C 
BRANCH  11  12
HETATM   12  C7  UNL     1      -2.935   0.209   0.591  1.00  0.00     0.081 A 
HETATM   13  C8  UNL     1      -3.393   0.448  -0.684  1.00  0.00     0.137 A 
HETATM   14  N3  UNL     1      -4.445   1.289  -0.598  1.00  0.00    -0.200 N 
HETATM   15  C9  UNL     1      -4.663   1.588   0.685  1.00  0.00     0.676 A 
ATOM     16  H3  UNL     1      -4.987   1.640  -1.387  1.00  0.00     0.183 HD
HETATM   17  N5  UNL     1      -3.742   0.928   1.401  1.00  0.00    -0.189 N 
ATOM     18  H5  UNL     1      -3.662   0.964   2.417  1.00  0.00     0.184 HD
BRANCH  15  19
HETATM   19  N4  UNL     1      -5.591   2.372   1.166  1.00  0.00    -0.234 N 
ATOM     20  H42 UNL     1      -6.292   2.874   0.621  1.00  0.00     0.174 HD
ATOM     21  H41 UNL     1      -5.758   2.600   2.146  1.00  0.00     0.174 HD
ENDBRANCH  15  19
ENDBRANCH  11  12
ENDBRANCH   4  11
BRANCH   1  22
HETATM   22  C3  UNL     1       3.433   0.648   0.449  1.00  0.00     0.301 C 
BRANCH  22  23
HETATM   23  C2  UNL     1       3.644   2.083   0.247  1.00  0.00    -0.007 C 
HETATM   24  C1  UNL     1       4.789   2.545  -0.228  1.00  0.00     0.008 C 
ENDBRANCH  22  23
ENDBRANCH   1  22
TORSDOF 5
