REMARK  3 active torsions:
REMARK  status: ('A' for Active; 'I' for Inactive)
REMARK    1  A    between atoms: C2_2  and  O1_4 
REMARK    2  A    between atoms: O1_4  and  N1_5 
REMARK    3  A    between atoms: N1_5  and  C4_7 
ROOT
HETATM    1  C4  UNL     1       0.661   0.197  -0.637  1.00  0.00     0.106 C 
HETATM    2  N2  UNL     1       1.098   0.948   0.303  1.00  0.00    -0.378 N 
ATOM      3  H2  UNL     1       0.339   1.347   0.855  1.00  0.00     0.160 HD
HETATM    4  C5  UNL     1       2.371   1.367   0.772  1.00  0.00     0.121 C 
HETATM    5  C6  UNL     1       3.521   0.517   0.324  1.00  0.00     0.030 C 
HETATM    6  C7  UNL     1       3.340  -0.942   0.611  1.00  0.00     0.076 C 
HETATM    7  S1  UNL     1       2.512  -1.797  -0.783  1.00  0.00    -0.162 SA
HETATM    8  C8  UNL     1       1.500  -0.538  -1.622  1.00  0.00     0.151 C 
ENDROOT
BRANCH   1   9
HETATM    9  N1  UNL     1      -0.739   0.013  -0.799  1.00  0.00    -0.254 N 
ATOM     10  H1  UNL     1      -1.160   0.284  -1.688  1.00  0.00     0.195 HD
BRANCH   9  11
HETATM   11  O1  UNL     1      -1.541  -0.498   0.153  1.00  0.00    -0.274 OA
BRANCH  11  12
HETATM   12  C2  UNL     1      -2.836  -0.029  -0.033  1.00  0.00     0.144 C 
HETATM   13  C1  UNL     1      -3.735  -1.235  -0.328  1.00  0.00     0.042 C 
HETATM   14  C3  UNL     1      -3.345   0.767   1.139  1.00  0.00     0.042 C 
ENDBRANCH  11  12
ENDBRANCH   9  11
ENDBRANCH   1   9
TORSDOF 3
