REMARK  3 active torsions:
REMARK  status: ('A' for Active; 'I' for Inactive)
REMARK    1  A    between atoms: C4_4  and  N1_5 
REMARK    2  A    between atoms: N1_5  and  N2_7 
REMARK    3  A    between atoms: N2_7  and  C5_9 
ROOT
HETATM    1  N1  UNL     1       0.800   0.544   0.825  1.00  0.00    -0.307 N 
ATOM      2  H1  UNL     1       1.008   0.788   1.793  1.00  0.00     0.186 HD
ENDROOT
BRANCH   1   3
HETATM    3  C4  UNL     1      -0.363   0.123   0.555  1.00  0.00     0.004 C 
HETATM    4  C3  UNL     1      -0.850  -0.280  -0.790  1.00  0.00     0.054 C 
HETATM    5  C2  UNL     1      -2.348   0.022  -0.631  1.00  0.00     0.006 C 
HETATM    6  C1  UNL     1      -2.601  -0.674   0.695  1.00  0.00     0.006 C 
HETATM    7  C6  UNL     1      -1.470  -0.051   1.532  1.00  0.00     0.054 C 
ENDBRANCH   1   3
BRANCH   1   8
HETATM    8  N2  UNL     1       1.809   0.694  -0.114  1.00  0.00    -0.279 N 
ATOM      9  H2  UNL     1       1.567   0.993  -1.059  1.00  0.00     0.189 HD
BRANCH   8  10
HETATM   10  C5  UNL     1       3.095   0.456   0.187  1.00  0.00     0.178 A 
HETATM   11  N3  UNL     1       4.144   0.552  -0.584  1.00  0.00    -0.299 N 
HETATM   12  S1  UNL     1       5.342   0.116   0.447  1.00  0.00     0.030 SA
ATOM     13  H3  UNL     1       4.203   0.825  -1.565  1.00  0.00     0.177 HD
HETATM   14  S2  UNL     1       3.772  -0.036   1.624  1.00  0.00     0.003 SA
ENDBRANCH   8  10
ENDBRANCH   1   8
TORSDOF 3
