REMARK  3 active torsions:
REMARK  status: ('A' for Active; 'I' for Inactive)
REMARK    1  A    between atoms: C3_5  and  C4_6 
REMARK    2  A    between atoms: C5_9  and  N4_10 
REMARK    3  A    between atoms: C7_17  and  C8_18 
ROOT
HETATM    1  N1  UNL     1       4.276  -1.994  -1.712  1.00  0.00    -0.190 NA
HETATM    2  C1  UNL     1       3.435  -1.422  -1.163  1.00  0.00     0.114 C 
HETATM    3  C2  UNL     1       2.372  -0.702  -0.498  1.00  0.00     0.128 C 
HETATM    4  N2  UNL     1       2.721  -0.192   0.802  1.00  0.00    -0.090 NA
HETATM    5  C3  UNL     1       1.180  -0.540  -1.039  1.00  0.00     0.069 C 
ENDROOT
BRANCH   5   6
HETATM    6  C4  UNL     1       0.124   0.188  -0.358  1.00  0.00     0.072 A 
HETATM    7  N3  UNL     1       0.395   1.427   0.178  1.00  0.00    -0.191 N 
HETATM    8  C5  UNL     1      -0.526   2.146   0.837  1.00  0.00     0.679 A 
ATOM      9  H3  UNL     1       1.333   1.813   0.070  1.00  0.00     0.184 HD
HETATM   10  N5  UNL     1      -1.752   1.618   0.965  1.00  0.00    -0.155 N 
HETATM   11  C6  UNL     1      -2.110   0.440   0.487  1.00  0.00     0.277 A 
ATOM     12  H5  UNL     1      -2.455   2.162   1.465  1.00  0.00     0.187 HD
HETATM   13  O1  UNL     1      -3.266  -0.052   0.611  1.00  0.00    -0.267 OA
HETATM   14  C7  UNL     1      -1.145  -0.317  -0.203  1.00  0.00     0.124 A 
BRANCH   8  15
HETATM   15  N4  UNL     1      -0.212   3.299   1.321  1.00  0.00    -0.234 N 
ATOM     16  H42 UNL     1       0.721   3.701   1.224  1.00  0.00     0.174 HD
ATOM     17  H41 UNL     1      -0.912   3.846   1.822  1.00  0.00     0.174 HD
ENDBRANCH   8  15
BRANCH  14  18
HETATM   18  C8  UNL     1      -1.509  -1.623  -0.711  1.00  0.00     0.272 C 
HETATM   19  N6  UNL     1      -2.835  -2.088  -0.539  1.00  0.00    -0.057 NA
HETATM   20  O2  UNL     1      -0.702  -2.356  -1.293  1.00  0.00    -0.271 OA
ENDBRANCH  14  18
ENDBRANCH   5   6
TORSDOF 3
