REMARK  5 active torsions:
REMARK  status: ('A' for Active; 'I' for Inactive)
REMARK    1  A    between atoms: C2_2  and  C5_5 
REMARK    2  A    between atoms: C5_5  and  O2_10 
REMARK    3  A    between atoms: N1_6  and  O1_8 
REMARK    4  A    between atoms: O2_10  and  C6_11 
REMARK    5  A    between atoms: C6_11  and  C7_13 
ROOT
HETATM    1  C5  UNL     1      -1.163  -0.800  -0.427  1.00  0.00     0.154 C 
HETATM    2  N1  UNL     1      -0.942  -1.928  -0.957  1.00  0.00    -0.250 N 
ATOM      3  H1  UNL     1       0.016  -2.279  -0.953  1.00  0.00     0.196 HD
ENDROOT
BRANCH   1   4
HETATM    4  C2  UNL     1      -2.485  -0.187  -0.366  1.00  0.00     0.016 C 
HETATM    5  C1  UNL     1      -2.586   1.071  -1.214  1.00  0.00     0.023 C 
HETATM    6  C3  UNL     1      -2.688   0.266   1.105  1.00  0.00     0.023 C 
HETATM    7  C4  UNL     1      -3.656  -1.062  -0.678  1.00  0.00     0.023 C 
ENDBRANCH   1   4
BRANCH   1   8
HETATM    8  O2  UNL     1      -0.038  -0.134   0.122  1.00  0.00    -0.261 OA
BRANCH   8   9
HETATM    9  C6  UNL     1       1.221  -0.708   0.071  1.00  0.00     0.294 C 
HETATM   10  O3  UNL     1       1.322  -1.834  -0.477  1.00  0.00    -0.262 OA
BRANCH   9  11
HETATM   11  C7  UNL     1       2.427  -0.066   0.623  1.00  0.00     0.221 C 
HETATM   12  C8  UNL     1       3.440   0.274  -0.456  1.00  0.00     0.044 C 
HETATM   13  C9  UNL     1       4.331   1.264   0.300  1.00  0.00     0.029 C 
HETATM   14  C10 UNL     1       3.481   1.594   1.519  1.00  0.00     0.169 C 
HETATM   15  O4  UNL     1       2.184   1.160   1.195  1.00  0.00    -0.376 OA
ENDBRANCH   9  11
ENDBRANCH   8   9
ENDBRANCH   1   8
BRANCH   2  16
HETATM   16  O1  UNL     1      -1.892  -2.692  -1.525  1.00  0.00    -0.288 OA
ATOM     17  H1  UNL     1      -1.726  -3.539  -1.923  1.00  0.00     0.244 HD
ENDBRANCH   2  16
TORSDOF 5
