REMARK  2 active torsions:
REMARK  status: ('A' for Active; 'I' for Inactive)
REMARK    1  A    between atoms: C2_2  and  O1_3 
REMARK    2  A    between atoms: O1_3  and  C3_4 
REMARK       I    between atoms: C3_4  and  N1_6 
ROOT
HETATM    1  C3  UNL     1       2.846  -0.424   0.518  1.00  0.00     0.376 C 
HETATM    2  O2  UNL     1       2.844   0.423  -0.434  1.00  0.00    -0.237 OA
HETATM    3  N1  UNL     1       4.047  -1.019   0.975  1.00  0.00    -0.239 N 
ATOM      4  H1  UNL     1       4.004  -1.692   1.740  1.00  0.00     0.183 HD
HETATM    5  C4  UNL     1       5.284  -0.716   0.414  1.00  0.00     0.186 C 
HETATM    6  N2  UNL     1       6.303  -0.446  -0.055  1.00  0.00    -0.172 NA
ENDROOT
BRANCH   1   7
HETATM    7  O1  UNL     1       1.601  -0.705   1.055  1.00  0.00    -0.263 OA
BRANCH   7   8
HETATM    8  C2  UNL     1       0.420  -0.101   0.585  1.00  0.00     0.204 C 
HETATM    9  C1  UNL     1       0.468   1.405   0.729  1.00  0.00     0.082 C 
HETATM   10  C5  UNL     1       0.063  -0.533  -0.811  1.00  0.00     0.074 C 
HETATM   11  C6  UNL     1      -1.291   0.090  -1.144  1.00  0.00     0.047 C 
HETATM   12  C7  UNL     1      -2.215  -0.239  -0.006  1.00  0.00     0.097 A 
HETATM   13  C8  UNL     1      -3.644  -0.373  -0.325  1.00  0.00     0.044 A 
HETATM   14  C9  UNL     1      -3.165   0.722   0.555  1.00  0.00     0.044 A 
HETATM   15  O3  UNL     1      -1.552  -1.169   0.804  1.00  0.00    -0.227 OA
HETATM   16  O4  UNL     1      -0.614  -0.543   1.433  1.00  0.00    -0.200 OA
ENDBRANCH   7   8
ENDBRANCH   1   7
TORSDOF 2
