REMARK  7 active torsions:
REMARK  status: ('A' for Active; 'I' for Inactive)
REMARK    1  A    between atoms: C1_2  and  C2_4 
REMARK    2  A    between atoms: C3_5  and  C4_6 
REMARK    3  A    between atoms: C5_9  and  O4_10 
REMARK    4  A    between atoms: C5_9  and  C6_12 
REMARK    5  A    between atoms: C6_12  and  O5_13 
REMARK    6  A    between atoms: C7_17  and  C8_18 
REMARK    7  A    between atoms: C10_24  and  O9_25 
ROOT
HETATM    1  C2  UNL     1      -2.359   0.512  -0.143  1.00  0.00     0.080 C 
HETATM    2  C3  UNL     1      -1.237   0.054  -0.702  1.00  0.00     0.101 C 
HETATM    3  C5  UNL     1      -0.613  -0.803   0.299  1.00  0.00     0.258 C 
HETATM    4  O8  UNL     1      -0.997  -0.129   1.509  1.00  0.00    -0.312 OA
HETATM    5  C10 UNL     1      -2.359  -0.068   1.269  1.00  0.00     0.301 C 
ENDROOT
BRANCH   3   6
HETATM    6  O4  UNL     1      -1.272  -2.043   0.374  1.00  0.00    -0.357 OA
ATOM      7  H4  UNL     1      -0.865  -2.601   1.026  1.00  0.00     0.213 HD
ENDBRANCH   3   6
BRANCH   3   8
HETATM    8  C6  UNL     1       0.822  -0.967   0.391  1.00  0.00     0.270 C 
HETATM    9  N2  UNL     1       1.493  -1.813  -0.564  1.00  0.00    -0.094 NA
HETATM   10  N3  UNL     1       2.840  -1.665  -0.214  1.00  0.00    -0.123 NA
HETATM   11  C7  UNL     1       3.020  -0.298   0.212  1.00  0.00     0.258 C 
HETATM   12  C9  UNL     1       1.644   0.251   0.301  1.00  0.00     0.214 C 
HETATM   13  O7  UNL     1       1.347   1.402   0.296  1.00  0.00    -0.290 OA
BRANCH   8  14
HETATM   14  O5  UNL     1       1.150  -1.536   1.656  1.00  0.00    -0.362 OA
ATOM     15  H5  UNL     1       2.092  -1.644   1.716  1.00  0.00     0.212 HD
ENDBRANCH   8  14
BRANCH  11  16
HETATM   16  C8  UNL     1       3.906   0.479  -0.644  1.00  0.00     0.259 C 
HETATM   17  N4  UNL     1       4.152   1.835  -0.316  1.00  0.00    -0.060 NA
HETATM   18  O6  UNL     1       4.426  -0.066  -1.643  1.00  0.00    -0.275 OA
ENDBRANCH  11  16
ENDBRANCH   3   8
BRANCH   2  19
HETATM   19  C4  UNL     1      -0.830   0.387  -2.045  1.00  0.00     0.211 C 
HETATM   20  O2  UNL     1      -1.477   1.121  -2.795  1.00  0.00    -0.644 OA
HETATM   21  O3  UNL     1       0.351  -0.122  -2.571  1.00  0.00    -0.644 OA
ENDBRANCH   2  19
BRANCH   1  22
HETATM   22  C1  UNL     1      -3.426   1.363  -0.565  1.00  0.00     0.266 C 
HETATM   23  N1  UNL     1      -4.498   1.605   0.402  1.00  0.00    -0.057 NA
HETATM   24  O1  UNL     1      -3.625   1.956  -1.631  1.00  0.00    -0.271 OA
ENDBRANCH   1  22
BRANCH   5  25
HETATM   25  O9  UNL     1      -3.005   0.791   2.144  1.00  0.00    -0.367 OA
ATOM     26  H9  UNL     1      -3.005   0.430   3.023  1.00  0.00     0.213 HD
ENDBRANCH   5  25
TORSDOF 7
