REMARK  10 active torsions:
REMARK  status: ('A' for Active; 'I' for Inactive)
REMARK    1  A    between atoms: C12_12  and  N1_13 
REMARK       I    between atoms: N1_13  and  C13_15 
REMARK    2  A    between atoms: C13_15  and  C14_17 
REMARK    3  A    between atoms: C14_17  and  C15_18 
REMARK    4  A    between atoms: C15_18  and  C16_19 
REMARK    5  A    between atoms: C16_19  and  C17_20 
REMARK    6  A    between atoms: C17_20  and  N2_21 
REMARK    7  A    between atoms: N2_21  and  C19_23 
REMARK    8  A    between atoms: C19_23  and  C20_24 
REMARK    9  A    between atoms: C20_24  and  C21_25 
REMARK   10  A    between atoms: C25_29  and  C26_30 
ROOT
HETATM    1  C1  UNL     1      -1.893   1.865   3.692  1.00  0.00     0.102 C 
HETATM    2  C2  UNL     1      -2.472   1.375   2.723  1.00  0.00    -0.153 C 
HETATM    3  C3  UNL     1      -3.159   0.765   1.639  1.00  0.00    -0.014 C 
HETATM    4  C4  UNL     1      -3.097   1.240   0.416  1.00  0.00    -0.046 C 
HETATM    5  C5  UNL     1      -3.897   0.458  -0.612  1.00  0.00    -0.011 C 
HETATM    6  C6  UNL     1      -5.355   0.795  -0.376  1.00  0.00     0.021 C 
HETATM    7  C7  UNL     1      -3.592   0.851  -2.028  1.00  0.00     0.015 C 
HETATM    8  C8  UNL     1      -3.630   2.321  -2.165  1.00  0.00     0.007 C 
HETATM    9  C9  UNL     1      -2.931   3.123  -1.197  1.00  0.00     0.000 C 
HETATM   10  C10 UNL     1      -1.776   3.873  -1.811  1.00  0.00     0.008 C 
HETATM   11  C11 UNL     1      -0.555   3.193  -1.319  1.00  0.00     0.027 C 
HETATM   12  C12 UNL     1      -1.000   1.996  -0.502  1.00  0.00     0.097 C 
HETATM   13  C23 UNL     1      -2.359   2.399   0.051  1.00  0.00     0.005 C 
HETATM   14  C24 UNL     1      -2.094   3.527   0.930  1.00  0.00     0.023 C 
HETATM   15  C25 UNL     1      -3.671  -0.994  -0.417  1.00  0.00     0.026 C 
HETATM   16  C29 UNL     1      -3.805  -1.521   0.982  1.00  0.00     0.015 C 
HETATM   17  C30 UNL     1      -3.942  -0.455   2.000  1.00  0.00     0.048 C 
ENDROOT
BRANCH  15  18
HETATM   18  C26 UNL     1      -4.394  -1.949  -1.263  1.00  0.00    -0.088 C 
HETATM   19  C27 UNL     1      -5.448  -1.837  -2.013  1.00  0.00     0.014 C 
HETATM   20  C28 UNL     1      -3.784  -3.357  -1.239  1.00  0.00     0.043 C 
ENDBRANCH  15  18
BRANCH  12  21
HETATM   21  N1  UNL     1      -0.003   1.683   0.477  1.00  0.00    -0.355 N 
HETATM   22  C13 UNL     1       0.716   0.436   0.472  1.00  0.00     0.217 C 
HETATM   23  O1  UNL     1       0.434  -0.382  -0.435  1.00  0.00    -0.274 OA
ATOM     24  H1  UNL     1       0.205   2.368   1.204  1.00  0.00     0.162 HD
BRANCH  22  25
HETATM   25  C14 UNL     1       1.743   0.069   1.450  1.00  0.00     0.103 C 
BRANCH  25  26
HETATM   26  C15 UNL     1       2.351  -1.274   1.204  1.00  0.00     0.011 C 
BRANCH  26  27
HETATM   27  C16 UNL     1       3.397  -1.489   2.309  1.00  0.00     0.031 C 
BRANCH  27  28
HETATM   28  C17 UNL     1       4.017  -2.829   2.082  1.00  0.00     0.271 C 
BRANCH  28  29
HETATM   29  N2  UNL     1       4.649  -2.922   0.803  1.00  0.00     0.084 N 
HETATM   30  C18 UNL     1       5.219  -4.253   0.624  1.00  0.00     0.309 C 
BRANCH  29  31
HETATM   31  C19 UNL     1       5.627  -1.890   0.633  1.00  0.00     0.271 C 
BRANCH  31  32
HETATM   32  C20 UNL     1       6.331  -1.970  -0.707  1.00  0.00     0.030 C 
BRANCH  32  33
HETATM   33  C21 UNL     1       7.334  -0.819  -0.754  1.00  0.00    -0.003 C 
HETATM   34  C22 UNL     1       8.089  -0.807  -2.049  1.00  0.00     0.005 C 
ENDBRANCH  32  33
ENDBRANCH  31  32
ENDBRANCH  29  31
ENDBRANCH  28  29
ENDBRANCH  27  28
ENDBRANCH  26  27
ENDBRANCH  25  26
ENDBRANCH  22  25
ENDBRANCH  12  21
TORSDOF 10
