REMARK  7 active torsions:
REMARK  status: ('A' for Active; 'I' for Inactive)
REMARK    1  A    between atoms: N1_2  and  C2_3 
REMARK    2  A    between atoms: N1_2  and  C11_17 
REMARK    3  A    between atoms: C2_3  and  C3_4 
REMARK    4  A    between atoms: C5_6  and  C6_7 
REMARK    5  A    between atoms: C6_7  and  O1_8 
REMARK    6  A    between atoms: O1_8  and  C7_9 
REMARK    7  A    between atoms: C11_17  and  C12_18 
ROOT
HETATM    1  C3  UNL     1       0.131  -0.054   0.285  1.00  0.00     0.106 A 
HETATM    2  C4  UNL     1       1.049  -1.006  -0.071  1.00  0.00     0.066 A 
HETATM    3  C5  UNL     1       2.135  -0.872   0.818  1.00  0.00     0.058 A 
HETATM    4  N2  UNL     1       1.809   0.125   1.624  1.00  0.00    -0.263 N 
ATOM      5  H2  UNL     1       2.388   0.477   2.386  1.00  0.00     0.194 HD
HETATM    6  O3  UNL     1       0.630   0.591   1.295  1.00  0.00    -0.240 OA
ENDROOT
BRANCH   1   7
HETATM    7  C2  UNL     1      -1.176   0.194  -0.351  1.00  0.00     0.339 C 
BRANCH   7   8
HETATM    8  N1  UNL     1      -2.171  -0.826   0.035  1.00  0.00     0.092 N 
HETATM    9  C1  UNL     1      -1.600  -2.142  -0.372  1.00  0.00     0.310 C 
BRANCH   8  10
HETATM   10  C11 UNL     1      -3.278  -0.680  -0.919  1.00  0.00     0.306 C 
BRANCH  10  11
HETATM   11  C12 UNL     1      -4.282   0.312  -0.497  1.00  0.00     0.173 C 
HETATM   12  C13 UNL     1      -5.106  -0.161   0.704  1.00  0.00     0.201 C 
HETATM   13  O4  UNL     1      -6.331   0.527   0.624  1.00  0.00    -0.386 OA
HETATM   14  C14 UNL     1      -6.064   1.886   0.767  1.00  0.00     0.193 C 
HETATM   15  C15 UNL     1      -5.002   2.396  -0.147  1.00  0.00     0.194 C 
HETATM   16  O5  UNL     1      -3.889   1.592  -0.279  1.00  0.00    -0.380 OA
ENDBRANCH  10  11
ENDBRANCH   8  10
ENDBRANCH   7   8
ENDBRANCH   1   7
BRANCH   3  17
HETATM   17  C6  UNL     1       3.336  -1.707   0.869  1.00  0.00     0.227 C 
BRANCH  17  18
HETATM   18  O1  UNL     1       4.508  -1.026   1.017  1.00  0.00    -0.378 OA
BRANCH  18  19
HETATM   19  C7  UNL     1       4.740  -0.187  -0.046  1.00  0.00     0.147 C 
HETATM   20  C8  UNL     1       5.115   1.209   0.422  1.00  0.00     0.060 C 
HETATM   21  C9  UNL     1       6.637   1.135   0.472  1.00  0.00     0.170 C 
HETATM   22  O2  UNL     1       6.950  -0.234   0.351  1.00  0.00    -0.389 OA
HETATM   23  C10 UNL     1       6.081  -0.631  -0.650  1.00  0.00     0.199 C 
ENDBRANCH  18  19
ENDBRANCH  17  18
ENDBRANCH   3  17
TORSDOF 7
