REMARK  8 active torsions:
REMARK  status: ('A' for Active; 'I' for Inactive)
REMARK    1  A    between atoms: S1_2  and  C2_3 
REMARK    2  A    between atoms: N1_6  and  C5_7 
REMARK    3  A    between atoms: N3_12  and  C8_13 
REMARK    4  A    between atoms: C8_13  and  C9_14 
REMARK    5  A    between atoms: C10_15  and  N4_16 
REMARK       I    between atoms: N4_16  and  C11_18 
REMARK       I    between atoms: C11_18  and  N5_20 
REMARK    6  A    between atoms: N5_20  and  C12_22 
REMARK    7  A    between atoms: C24_35  and  C25_36 
REMARK    8  A    between atoms: C25_36  and  N6_37 
ROOT
HETATM    1  C5  UNL     1      -1.812   0.632  -0.068  1.00  0.00     0.683 A 
HETATM    2  N2  UNL     1      -2.681  -0.064   0.707  1.00  0.00    -0.193 N 
ATOM      3  H2  UNL     1      -3.695   0.045   0.690  1.00  0.00     0.184 HD
HETATM    4  C6  UNL     1      -2.025  -0.901   1.484  1.00  0.00     0.055 A 
HETATM    5  C7  UNL     1      -0.682  -0.725   1.182  1.00  0.00     0.053 A 
HETATM    6  N3  UNL     1      -0.559   0.236   0.204  1.00  0.00    -0.181 N 
HETATM    7  C22 UNL     1       0.045  -1.643   2.060  1.00  0.00     0.060 C 
HETATM    8  C23 UNL     1      -0.884  -2.053   3.176  1.00  0.00     0.018 C 
HETATM    9  C24 UNL     1      -2.222  -1.942   2.537  1.00  0.00     0.064 C 
ENDROOT
BRANCH   6  10
HETATM   10  C8  UNL     1       0.608   0.663  -0.486  1.00  0.00     0.189 C 
BRANCH  10  11
HETATM   11  C9  UNL     1       1.263  -0.361  -1.405  1.00  0.00     0.002 A 
HETATM   12  C10 UNL     1       2.206  -1.214  -0.916  1.00  0.00     0.086 A 
HETATM   13  S2  UNL     1       2.395  -2.312  -2.319  1.00  0.00    -0.076 SA
HETATM   14  C16 UNL     1       1.318  -1.622  -3.366  1.00  0.00    -0.008 A 
HETATM   15  C17 UNL     1       0.805  -0.557  -2.662  1.00  0.00    -0.034 A 
HETATM   16  C21 UNL     1       0.862  -1.916  -4.762  1.00  0.00     0.046 C 
HETATM   17  C18 UNL     1      -0.186   0.230  -3.546  1.00  0.00     0.040 C 
HETATM   18  C19 UNL     1      -1.175  -0.799  -3.969  1.00  0.00     0.005 C 
HETATM   19  C20 UNL     1      -0.581  -1.685  -5.006  1.00  0.00     0.005 C 
BRANCH  12  20
HETATM   20  N4  UNL     1       3.092  -1.327   0.167  1.00  0.00    -0.302 N 
HETATM   21  C11 UNL     1       3.578  -0.452   1.097  1.00  0.00     0.321 C 
HETATM   22  O1  UNL     1       3.385   0.772   1.232  1.00  0.00    -0.247 OA
HETATM   23  N5  UNL     1       4.479  -0.961   2.137  1.00  0.00    -0.335 N 
ATOM     24  H5  UNL     1       4.716  -1.953   2.137  1.00  0.00     0.165 HD
ATOM     25  H4  UNL     1       3.454  -2.273   0.286  1.00  0.00     0.171 HD
BRANCH  23  26
HETATM   26  C12 UNL     1       5.035  -0.127   3.144  1.00  0.00     0.023 C 
HETATM   27  C13 UNL     1       3.971   0.559   3.988  1.00  0.00     0.037 C 
HETATM   28  C14 UNL     1       5.959   0.936   2.602  1.00  0.00     0.037 C 
HETATM   29  C15 UNL     1       5.882  -0.947   4.118  1.00  0.00     0.037 C 
ENDBRANCH  23  26
ENDBRANCH  12  20
ENDBRANCH  10  11
ENDBRANCH   6  10
BRANCH   1  30
HETATM   30  N1  UNL     1      -2.350   1.652  -0.905  1.00  0.00    -0.216 N 
HETATM   31  C4  UNL     1      -1.810   3.000  -1.040  1.00  0.00     0.142 C 
HETATM   32  C3  UNL     1      -3.111   3.797  -1.060  1.00  0.00     0.037 C 
HETATM   33  C2  UNL     1      -3.957   2.987  -2.010  1.00  0.00     0.067 C 
HETATM   34  C26 UNL     1      -3.520   1.572  -1.745  1.00  0.00     0.156 C 
BRANCH  33  35
HETATM   35  S1  UNL     1      -5.718   3.226  -1.655  1.00  0.00    -0.167 SA
HETATM   36  C1  UNL     1      -6.190   4.927  -2.012  1.00  0.00     0.090 C 
ENDBRANCH  33  35
ENDBRANCH   1  30
BRANCH   9  37
HETATM   37  C25 UNL     1      -2.642  -3.206   1.817  1.00  0.00     0.240 C 
BRANCH  37  38
HETATM   38  N6  UNL     1      -2.861  -4.289   2.757  1.00  0.00    -0.079 N 
ATOM     39  H63 UNL     1      -2.045  -4.446   3.348  1.00  0.00     0.274 HD
ATOM     40  H62 UNL     1      -3.529  -4.029   3.482  1.00  0.00     0.274 HD
ATOM     41  H61 UNL     1      -3.144  -5.141   2.272  1.00  0.00     0.274 HD
ENDBRANCH  37  38
ENDBRANCH   9  37
TORSDOF 8
