REMARK  1 active torsions:
REMARK  status: ('A' for Active; 'I' for Inactive)
REMARK    1  A    between atoms: O1_1  and  C1_3 
ROOT
HETATM    1  C1  UNL     1       2.748   1.056  -0.597  1.00  0.00     0.183 C 
HETATM    2  C2  UNL     1       3.971   0.178  -0.862  1.00  0.00     0.037 C 
HETATM    3  C3  UNL     1       4.576  -0.084   0.523  1.00  0.00     0.003 C 
HETATM    4  C4  UNL     1       3.633  -0.969   1.256  1.00  0.00     0.006 C 
HETATM    5  C5  UNL     1       2.225  -0.495   1.309  1.00  0.00     0.074 C 
HETATM    6  C6  UNL     1       1.727   0.168   0.077  1.00  0.00     0.226 C 
HETATM    7  O2  UNL     1       1.352  -0.801  -0.841  1.00  0.00    -0.195 OA
HETATM    8  O3  UNL     1       0.099  -1.043  -0.709  1.00  0.00    -0.197 OA
HETATM    9  C7  UNL     1      -0.484   0.079  -0.072  1.00  0.00     0.208 C 
HETATM   10  O4  UNL     1       0.549   0.865   0.365  1.00  0.00    -0.310 OA
HETATM   11  C8  UNL     1      -1.356   0.724  -1.108  1.00  0.00     0.052 C 
HETATM   12  C9  UNL     1      -2.390   1.645  -0.550  1.00  0.00     0.014 C 
HETATM   13  C10 UNL     1      -3.283   0.906   0.444  1.00  0.00    -0.013 C 
HETATM   14  C11 UNL     1      -3.970  -0.255  -0.232  1.00  0.00     0.009 C 
HETATM   15  C12 UNL     1      -2.889  -1.187  -0.772  1.00  0.00    -0.013 C 
HETATM   16  C13 UNL     1      -2.109  -0.429  -1.789  1.00  0.00     0.014 C 
HETATM   17  C14 UNL     1      -2.092  -1.668   0.397  1.00  0.00     0.014 C 
HETATM   18  C15 UNL     1      -1.329  -0.499   1.034  1.00  0.00     0.052 C 
HETATM   19  C16 UNL     1      -2.357   0.452   1.561  1.00  0.00     0.014 C 
ENDROOT
BRANCH   1  20
HETATM   20  O1  UNL     1       3.061   2.182   0.132  1.00  0.00    -0.390 OA
ATOM     21  H1  UNL     1       2.301   2.728   0.297  1.00  0.00     0.210 HD
ENDBRANCH   1  20
TORSDOF 1
