REMARK  8 active torsions:
REMARK  status: ('A' for Active; 'I' for Inactive)
REMARK       I    between atoms: C2_4  and  N2_5 
REMARK       I    between atoms: C2_4  and  N7_24 
REMARK    1  A    between atoms: N2_5  and  N3_7 
REMARK    2  A    between atoms: N3_7  and  C3_9 
REMARK    3  A    between atoms: C3_9  and  N4_11 
REMARK    4  A    between atoms: N4_11  and  C4_13 
REMARK    5  A    between atoms: C4_13  and  C5_14 
REMARK    6  A    between atoms: C5_14  and  N5_16 
REMARK    7  A    between atoms: C6_18  and  C7_19 
REMARK    8  A    between atoms: C7_19  and  N6_20 
ROOT
HETATM    1  C3  UNL     1       1.001   0.293   0.363  1.00  0.00     0.187 C 
HETATM    2  S1  UNL     1       1.583   1.655  -0.360  1.00  0.00    -0.040 SA
ENDROOT
BRANCH   1   3
HETATM    3  N3  UNL     1      -0.086  -0.423  -0.191  1.00  0.00    -0.262 N 
ATOM      4  H3  UNL     1      -0.448  -1.258   0.270  1.00  0.00     0.190 HD
BRANCH   3   5
HETATM    5  N2  UNL     1      -0.652   0.034  -1.378  1.00  0.00    -0.130 N 
HETATM    6  C2  UNL     1      -1.993  -0.277  -1.785  1.00  0.00     0.690 C 
HETATM    7  N1  UNL     1      -2.115  -0.826  -2.934  1.00  0.00    -0.229 N 
HETATM    8  N7  UNL     1      -3.071   0.031  -0.917  1.00  0.00    -0.217 N 
HETATM    9  C1  UNL     1      -3.342  -1.225  -3.551  1.00  0.00     0.165 C 
ATOM     10  H1  UNL     1      -1.257  -0.995  -3.459  1.00  0.00     0.177 HD
HETATM   11  C8  UNL     1      -3.795  -1.061  -0.314  1.00  0.00     0.141 C 
HETATM   12  C12 UNL     1      -3.398   1.395  -0.675  1.00  0.00     0.141 C 
HETATM   13  C9  UNL     1      -3.976  -0.735   1.160  1.00  0.00     0.020 C 
HETATM   14  C10 UNL     1      -4.806   0.526   1.222  1.00  0.00     0.003 C 
HETATM   15  C11 UNL     1      -4.092   1.682   0.607  1.00  0.00     0.020 C 
ATOM     16  H2  UNL     1      -0.084   0.620  -1.990  1.00  0.00     0.205 HD
ENDBRANCH   3   5
ENDBRANCH   1   3
BRANCH   1  17
HETATM   17  N4  UNL     1       1.573  -0.180   1.574  1.00  0.00    -0.360 N 
ATOM     18  H4  UNL     1       1.181  -1.013   2.012  1.00  0.00     0.162 HD
BRANCH  17  19
HETATM   19  C4  UNL     1       2.691   0.480   2.205  1.00  0.00     0.191 C 
BRANCH  19  20
HETATM   20  C5  UNL     1       3.893   0.274   1.374  1.00  0.00     0.095 C 
HETATM   21  S2  UNL     1       3.846  -0.750   0.121  1.00  0.00    -0.064 SA
BRANCH  20  22
HETATM   22  N5  UNL     1       5.070   0.961   1.697  1.00  0.00    -0.361 N 
HETATM   23  C6  UNL     1       6.248   0.810   1.285  1.00  0.00     0.088 C 
ATOM     24  H5  UNL     1       4.952   1.709   2.381  1.00  0.00     0.165 HD
BRANCH  23  25
HETATM   25  C7  UNL     1       6.725  -0.180   0.303  1.00  0.00     0.274 C 
BRANCH  25  26
HETATM   26  N6  UNL     1       8.166  -0.079   0.127  1.00  0.00    -0.075 N 
ATOM     27  H63 UNL     1       8.450   0.868  -0.123  1.00  0.00     0.274 HD
ATOM     28  H62 UNL     1       8.661  -0.159   1.015  1.00  0.00     0.274 HD
ATOM     29  H61 UNL     1       8.496  -0.764  -0.553  1.00  0.00     0.274 HD
ENDBRANCH  25  26
ENDBRANCH  23  25
ENDBRANCH  20  22
ENDBRANCH  19  20
ENDBRANCH  17  19
ENDBRANCH   1  17
TORSDOF 8
