REMARK  9 active torsions:
REMARK  status: ('A' for Active; 'I' for Inactive)
REMARK    1  A    between atoms: N1_1  and  C1_5 
REMARK    2  A    between atoms: C1_5  and  C2_6 
REMARK    3  A    between atoms: C1_5  and  C13_27 
REMARK    4  A    between atoms: C7_13  and  N3_14 
REMARK    5  A    between atoms: N3_14  and  C8_16 
REMARK    6  A    between atoms: C8_16  and  C9_17 
REMARK    7  A    between atoms: C9_17  and  C10_18 
REMARK    8  A    between atoms: C10_18  and  C11_19 
REMARK    9  A    between atoms: C16_30  and  C17_31 
ROOT
HETATM    1  C2  UNL     1       0.996   0.379  -0.513  1.00  0.00     0.057 A 
HETATM    2  C3  UNL     1       1.194   1.039   0.673  1.00  0.00     0.115 A 
HETATM    3  N2  UNL     1       0.139   1.528   1.387  1.00  0.00    -0.361 N 
ATOM      4  H2  UNL     1       0.311   2.015   2.266  1.00  0.00     0.165 HD
HETATM    5  C4  UNL     1      -1.123   1.378   0.950  1.00  0.00     0.076 A 
HETATM    6  C5  UNL     1      -2.208   1.859   1.647  1.00  0.00     0.037 A 
HETATM    7  C6  UNL     1      -3.496   1.680   1.155  1.00  0.00     0.050 A 
HETATM    8  C7  UNL     1      -3.683   1.018  -0.037  1.00  0.00     0.102 A 
HETATM    9  N4  UNL     1      -2.614   0.554  -0.705  1.00  0.00    -0.327 N 
ATOM     10  H4  UNL     1      -2.758   0.063  -1.587  1.00  0.00     0.169 HD
HETATM   11  C12 UNL     1      -1.341   0.718  -0.241  1.00  0.00     0.134 A 
HETATM   12  N5  UNL     1      -0.285   0.245  -0.926  1.00  0.00    -0.341 N 
ATOM     13  H5  UNL     1      -0.460  -0.242  -1.805  1.00  0.00     0.167 HD
ENDROOT
BRANCH   1  14
HETATM   14  C1  UNL     1       2.105  -0.202  -1.346  1.00  0.00     0.238 C 
BRANCH  14  15
HETATM   15  N1  UNL     1       2.201   0.741  -2.480  1.00  0.00    -0.069 N 
ATOM     16  H13 UNL     1       1.326   0.892  -2.982  1.00  0.00     0.275 HD
ATOM     17  H12 UNL     1       2.336   1.716  -2.212  1.00  0.00     0.275 HD
ATOM     18  H11 UNL     1       2.953   0.347  -3.045  1.00  0.00     0.275 HD
ENDBRANCH  14  15
BRANCH  14  19
HETATM   19  C13 UNL     1       3.404  -0.271  -0.662  1.00  0.00     0.022 C 
HETATM   20  C14 UNL     1       3.482  -1.222   0.480  1.00  0.00     0.008 C 
HETATM   21  C15 UNL     1       4.788  -1.016   1.218  1.00  0.00     0.014 C 
HETATM   22  C16 UNL     1       5.974  -1.091   0.280  1.00  0.00     0.093 C 
HETATM   23  C18 UNL     1       5.794  -0.356  -1.004  1.00  0.00     0.014 C 
HETATM   24  C19 UNL     1       4.467  -0.732  -1.670  1.00  0.00     0.008 C 
BRANCH  22  25
HETATM   25  C17 UNL     1       7.150  -0.464   1.020  1.00  0.00     0.391 C 
HETATM   26  F3  UNL     1       6.772   0.849   1.299  1.00  0.00    -0.171 F 
HETATM   27  F4  UNL     1       7.321  -1.083   2.243  1.00  0.00    -0.171 F 
HETATM   28  F5  UNL     1       8.300  -0.517   0.272  1.00  0.00    -0.171 F 
ENDBRANCH  22  25
ENDBRANCH  14  19
ENDBRANCH   1  14
BRANCH   8  29
HETATM   29  N3  UNL     1      -4.840   0.816  -0.551  1.00  0.00    -0.376 N 
ATOM     30  H3  UNL     1      -4.879   0.314  -1.438  1.00  0.00     0.161 HD
BRANCH  29  31
HETATM   31  C8  UNL     1      -6.085   1.241   0.025  1.00  0.00     0.121 C 
BRANCH  31  32
HETATM   32  C9  UNL     1      -6.523   0.218   1.021  1.00  0.00     0.025 C 
BRANCH  32  33
HETATM   33  C10 UNL     1      -6.680  -1.135   0.406  1.00  0.00     0.073 C 
BRANCH  33  34
HETATM   34  C11 UNL     1      -7.676  -1.247  -0.687  1.00  0.00     0.353 C 
HETATM   35  F1  UNL     1      -8.965  -0.889  -0.309  1.00  0.00    -0.214 F 
HETATM   36  F2  UNL     1      -7.358  -0.649  -1.868  1.00  0.00    -0.214 F 
ENDBRANCH  33  34
ENDBRANCH  32  33
ENDBRANCH  31  32
ENDBRANCH  29  31
ENDBRANCH   8  29
TORSDOF 9
