REMARK  7 active torsions:
REMARK  status: ('A' for Active; 'I' for Inactive)
REMARK    1  A    between atoms: O1_2  and  C2_3 
REMARK    2  A    between atoms: C3_6  and  N2_7 
REMARK       I    between atoms: N2_7  and  C4_9 
REMARK    3  A    between atoms: N4_17  and  C9_18 
REMARK    4  A    between atoms: C9_18  and  C10_19 
REMARK    5  A    between atoms: C10_19  and  N5_21 
REMARK       I    between atoms: N5_21  and  C12_23 
REMARK    6  A    between atoms: C12_23  and  C13_25 
REMARK    7  A    between atoms: C16_28  and  C18_30 
ROOT
HETATM    1  C2  UNL     1       5.690   0.534   0.242  1.00  0.00     0.170 A 
HETATM    2  N1  UNL     1       6.847  -0.008  -0.221  1.00  0.00    -0.169 N 
ATOM      3  H1  UNL     1       7.717   0.507  -0.088  1.00  0.00     0.186 HD
HETATM    4  C3  UNL     1       6.888  -1.194  -0.846  1.00  0.00     0.687 A 
HETATM    5  N3  UNL     1       5.735  -1.876  -1.021  1.00  0.00    -0.194 N 
ATOM      6  H3  UNL     1       5.741  -2.780  -1.493  1.00  0.00     0.184 HD
HETATM    7  C6  UNL     1       4.570  -1.352  -0.566  1.00  0.00     0.044 A 
HETATM    8  C7  UNL     1       4.509  -0.147   0.071  1.00  0.00     0.054 A 
HETATM    9  C8  UNL     1       3.253   0.420   0.544  1.00  0.00     0.108 C 
HETATM   10  N4  UNL     1       2.268  -0.498   0.882  1.00  0.00    -0.367 N 
HETATM   11  C22 UNL     1       2.478  -1.888   0.563  1.00  0.00     0.133 C 
HETATM   12  C23 UNL     1       3.259  -2.073  -0.722  1.00  0.00     0.079 C 
ENDROOT
BRANCH  10  13
HETATM   13  C9  UNL     1       0.933  -0.137   1.073  1.00  0.00     0.088 C 
BRANCH  13  14
HETATM   14  C10 UNL     1       0.085   0.271  -0.062  1.00  0.00     0.119 C 
HETATM   15  C11 UNL     1       0.493   1.468  -0.843  1.00  0.00     0.038 C 
BRANCH  14  16
HETATM   16  N5  UNL     1      -1.291   0.523   0.395  1.00  0.00    -0.352 N 
HETATM   17  C12 UNL     1      -2.381  -0.287   0.050  1.00  0.00     0.222 C 
HETATM   18  O3  UNL     1      -2.146  -1.278  -0.692  1.00  0.00    -0.273 OA
ATOM     19  H5  UNL     1      -1.460   1.330   0.995  1.00  0.00     0.163 HD
BRANCH  17  20
HETATM   20  C13 UNL     1      -3.767  -0.047   0.501  1.00  0.00     0.078 C 
HETATM   21  C14 UNL     1      -4.344   1.252   0.046  1.00  0.00     0.015 C 
HETATM   22  C15 UNL     1      -5.476   1.085  -0.953  1.00  0.00     0.013 C 
HETATM   23  C16 UNL     1      -6.599   0.332  -0.265  1.00  0.00    -0.013 C 
HETATM   24  C17 UNL     1      -7.174   1.225   0.812  1.00  0.00     0.018 C 
HETATM   25  C20 UNL     1      -6.099  -0.944   0.373  1.00  0.00     0.013 C 
HETATM   26  C21 UNL     1      -4.650  -1.200   0.071  1.00  0.00     0.015 C 
BRANCH  23  27
HETATM   27  C18 UNL     1      -7.671   0.068  -1.287  1.00  0.00     0.174 C 
HETATM   28  C19 UNL     1      -8.846  -0.682  -0.709  1.00  0.00     0.046 C 
HETATM   29  F1  UNL     1      -7.149  -0.568  -2.403  1.00  0.00    -0.249 F 
ENDBRANCH  23  27
ENDBRANCH  17  20
ENDBRANCH  14  16
ENDBRANCH  13  14
ENDBRANCH  10  13
BRANCH   1  30
HETATM   30  O1  UNL     1       5.678   1.750   0.878  1.00  0.00    -0.340 OA
HETATM   31  C1  UNL     1       5.969   1.749   2.284  1.00  0.00     0.211 C 
ENDBRANCH   1  30
BRANCH   4  32
HETATM   32  N2  UNL     1       8.007  -1.712  -1.293  1.00  0.00    -0.160 N 
HETATM   33  C4  UNL     1       9.263  -1.109  -1.179  1.00  0.00     0.231 C 
HETATM   34  C5  UNL     1       9.660   0.023  -2.043  1.00  0.00     0.118 C 
HETATM   35  O2  UNL     1      10.077  -1.546  -0.316  1.00  0.00    -0.273 OA
ATOM     36  H2  UNL     1       7.957  -2.619  -1.757  1.00  0.00     0.187 HD
ENDBRANCH   4  32
TORSDOF 7
