REMARK  8 active torsions:
REMARK  status: ('A' for Active; 'I' for Inactive)
REMARK    1  A    between atoms: N1_1  and  N2_4 
REMARK    2  A    between atoms: N3_6  and  C1_8 
REMARK    3  A    between atoms: C6_16  and  C7_17 
REMARK    4  A    between atoms: C7_17  and  O2_19 
REMARK    5  A    between atoms: O2_19  and  C8_20 
REMARK    6  A    between atoms: C8_20  and  C9_21 
REMARK       I    between atoms: C9_21  and  N4_23 
REMARK    7  A    between atoms: N4_23  and  C10_25 
REMARK    8  A    between atoms: C10_25  and  C11_26 
ROOT
HETATM    1  C1  UNL     1       4.103   0.081  -0.936  1.00  0.00     0.090 A 
HETATM    2  C2  UNL     1       5.179   0.719  -1.489  1.00  0.00     0.085 A 
HETATM    3 CL1  UNL     1       5.680   0.351  -3.146  1.00  0.00    -0.080 Cl
HETATM    4  C3  UNL     1       5.858   1.649  -0.732  1.00  0.00     0.059 A 
HETATM    5 CL2  UNL     1       7.240   2.489  -1.398  1.00  0.00    -0.082 Cl
HETATM    6  C4  UNL     1       5.473   1.942   0.562  1.00  0.00     0.050 A 
HETATM    7  C5  UNL     1       4.375   1.271   1.086  1.00  0.00     0.054 A 
HETATM    8 CL3  UNL     1       3.814   1.579   2.720  1.00  0.00    -0.083 Cl
HETATM    9  C6  UNL     1       3.692   0.340   0.331  1.00  0.00     0.091 A 
ENDROOT
BRANCH   9  10
HETATM   10  C7  UNL     1       2.529  -0.353   0.924  1.00  0.00     0.297 C 
HETATM   11  O1  UNL     1       2.766  -1.423   1.533  1.00  0.00    -0.259 OA
BRANCH  10  12
HETATM   12  O2  UNL     1       1.244   0.105   0.842  1.00  0.00    -0.308 OA
BRANCH  12  13
HETATM   13  C8  UNL     1       0.125  -0.549   1.406  1.00  0.00     0.281 C 
BRANCH  13  14
HETATM   14  C9  UNL     1      -1.131   0.223   1.131  1.00  0.00     0.241 C 
HETATM   15  O3  UNL     1      -1.090   1.285   0.485  1.00  0.00    -0.271 OA
HETATM   16  N4  UNL     1      -2.361  -0.270   1.614  1.00  0.00    -0.357 N 
ATOM     17  H4  UNL     1      -2.364  -1.141   2.145  1.00  0.00     0.162 HD
BRANCH  16  18
HETATM   18  C10 UNL     1      -3.605   0.400   1.391  1.00  0.00     0.154 C 
BRANCH  18  19
HETATM   19  C11 UNL     1      -3.924   0.495  -0.059  1.00  0.00     0.139 C 
HETATM   20  C12 UNL     1      -5.308   1.097  -0.237  1.00  0.00     0.035 C 
HETATM   21  C13 UNL     1      -6.094  -0.056  -0.807  1.00  0.00     0.029 C 
HETATM   22  C14 UNL     1      -5.283  -1.251  -0.355  1.00  0.00     0.168 C 
HETATM   23  O4  UNL     1      -3.994  -0.797  -0.575  1.00  0.00    -0.384 OA
ENDBRANCH  18  19
ENDBRANCH  16  18
ENDBRANCH  13  14
ENDBRANCH  12  13
ENDBRANCH  10  12
ENDBRANCH   9  10
BRANCH   1  24
HETATM   24  N3  UNL     1       3.397  -0.882  -1.717  1.00  0.00    -0.284 N 
HETATM   25  N2  UNL     1       3.883  -2.051  -1.754  1.00  0.00    -0.249 N 
ATOM     26  H2  UNL     1       3.388  -2.751  -2.307  1.00  0.00     0.207 HD
ATOM     27  H3  UNL     1       2.543  -0.641  -2.221  1.00  0.00     0.188 HD
BRANCH  25  28
HETATM   28  N1  UNL     1       5.033  -2.448  -1.101  1.00  0.00    -0.331 N 
ATOM     29  H12 UNL     1       5.514  -1.735  -0.553  1.00  0.00     0.178 HD
ATOM     30  H11 UNL     1       5.424  -3.389  -1.131  1.00  0.00     0.178 HD
ENDBRANCH  25  28
ENDBRANCH   1  24
TORSDOF 8
