REMARK  8 active torsions:
REMARK  status: ('A' for Active; 'I' for Inactive)
REMARK    1  A    between atoms: C2_2  and  N1_3 
REMARK    2  A    between atoms: C5_8  and  C6_9 
REMARK    3  A    between atoms: N3_20  and  C14_21 
REMARK    4  A    between atoms: C14_21  and  C15_22 
REMARK    5  A    between atoms: C15_22  and  C16_23 
REMARK    6  A    between atoms: C16_23  and  O1_24 
REMARK    7  A    between atoms: O1_24  and  N4_25 
REMARK    8  A    between atoms: C18_30  and  N7_31 
ROOT
HETATM    1  N1  UNL     1      -1.077   3.041   1.342  1.00  0.00    -0.192 N 
HETATM    2  C3  UNL     1      -1.761   1.973   1.741  1.00  0.00     0.140 A 
HETATM    3  C4  UNL     1      -1.678   0.790   1.025  1.00  0.00     0.076 A 
HETATM    4  N2  UNL     1      -2.200  -0.411   1.091  1.00  0.00    -0.352 N 
ATOM      5  H2  UNL     1      -2.847  -0.708   1.821  1.00  0.00     0.166 HD
HETATM    6  C5  UNL     1      -1.779  -1.224   0.069  1.00  0.00     0.047 A 
HETATM    7  C12 UNL     1      -0.935  -0.466  -0.680  1.00  0.00     0.063 A 
HETATM    8  C13 UNL     1      -0.812   0.812  -0.150  1.00  0.00     0.082 A 
HETATM    9  N3  UNL     1      -0.142   1.911  -0.510  1.00  0.00    -0.181 N 
HETATM   10  C18 UNL     1      -0.274   3.029   0.234  1.00  0.00     0.680 A 
ENDROOT
BRANCH   6  11
HETATM   11  C6  UNL     1      -2.217  -2.608  -0.097  1.00  0.00     0.017 A 
HETATM   12  C7  UNL     1      -3.162  -3.129   0.798  1.00  0.00     0.039 A 
HETATM   13  C8  UNL     1      -3.640  -4.392   0.752  1.00  0.00     0.037 A 
HETATM   14 CL1  UNL     1      -4.816  -4.939   1.916  1.00  0.00    -0.084 Cl
HETATM   15  C9  UNL     1      -3.161  -5.225  -0.251  1.00  0.00     0.068 A 
HETATM   16  C10 UNL     1      -2.239  -4.781  -1.157  1.00  0.00     0.140 A 
HETATM   17  F1  UNL     1      -1.788  -5.610  -2.125  1.00  0.00    -0.204 F 
HETATM   18  C11 UNL     1      -1.787  -3.472  -1.056  1.00  0.00     0.085 A 
HETATM   19 CL2  UNL     1      -0.604  -2.998  -2.252  1.00  0.00    -0.080 Cl
ENDBRANCH   6  11
BRANCH   9  20
HETATM   20  C14 UNL     1       0.747   1.875  -1.643  1.00  0.00     0.150 C 
BRANCH  20  21
HETATM   21  C15 UNL     1       2.159   1.685  -1.246  1.00  0.00     0.049 C 
BRANCH  21  22
HETATM   22  C16 UNL     1       2.563   0.431  -0.584  1.00  0.00     0.203 C 
BRANCH  22  23
HETATM   23  O1  UNL     1       2.447  -0.725  -1.351  1.00  0.00    -0.278 OA
BRANCH  23  24
HETATM   24  N4  UNL     1       2.787  -1.942  -0.852  1.00  0.00    -0.241 N 
HETATM   25  C17 UNL     1       3.971  -2.306  -0.549  1.00  0.00     0.221 C 
HETATM   26  N5  UNL     1       5.128  -1.487  -0.688  1.00  0.00    -0.065 NA
HETATM   27  N6  UNL     1       4.184  -3.628  -0.030  1.00  0.00    -0.065 NA
ATOM     28  H4  UNL     1       2.036  -2.618  -0.708  1.00  0.00     0.196 HD
ENDBRANCH  23  24
ENDBRANCH  22  23
ENDBRANCH  21  22
ENDBRANCH  20  21
ENDBRANCH   9  20
BRANCH   1  29
HETATM   29  C2  UNL     1      -1.169   4.288   2.099  1.00  0.00     0.142 C 
HETATM   30  C1  UNL     1      -2.308   5.131   1.557  1.00  0.00     0.027 C 
ENDBRANCH   1  29
BRANCH  10  31
HETATM   31  N7  UNL     1       0.334   4.106  -0.082  1.00  0.00    -0.234 N 
ATOM     32  H72 UNL     1       0.234   4.951   0.480  1.00  0.00     0.174 HD
ATOM     33  H71 UNL     1       0.933   4.097  -0.908  1.00  0.00     0.174 HD
ENDBRANCH  10  31
TORSDOF 8
