REMARK  0 active torsions:
REMARK  status: ('A' for Active; 'I' for Inactive)
ROOT
HETATM    1  C1  UNL     1      -2.479   0.751   0.241  1.00  0.00     0.005 C 
HETATM    2  C2  UNL     1      -2.678  -0.751   0.306  1.00  0.00     0.030 C 
HETATM    3  C3  UNL     1      -1.390  -1.426  -0.027  1.00  0.00     0.275 C 
HETATM    4  N1  UNL     1      -0.220  -0.629   0.378  1.00  0.00     0.113 N 
HETATM    5  C4  UNL     1       0.932  -1.482   0.153  1.00  0.00     0.301 C 
HETATM    6  C5  UNL     1       2.220  -0.889   0.609  1.00  0.00     0.131 C 
HETATM    7  C6  UNL     1       2.604   0.276  -0.281  1.00  0.00     0.076 C 
HETATM    8  C7  UNL     1       1.948   1.401   0.428  1.00  0.00     0.196 C 
HETATM    9  N2  UNL     1       2.014   0.983   1.788  1.00  0.00    -0.317 N 
ATOM     10  H2  UNL     1       1.950   1.615   2.586  1.00  0.00     0.182 HD
HETATM   11  N3  UNL     1       2.158  -0.234   1.880  1.00  0.00    -0.332 N 
ATOM     12  H3  UNL     1       2.226  -0.727   2.771  1.00  0.00     0.180 HD
HETATM   13  N4  UNL     1       0.570   1.602   0.110  1.00  0.00    -0.372 N 
ATOM     14  H4  UNL     1       0.094   2.478   0.326  1.00  0.00     0.157 HD
HETATM   15  C8  UNL     1      -0.101   0.531  -0.518  1.00  0.00     0.319 C 
HETATM   16  C9  UNL     1      -1.501   1.042  -0.887  1.00  0.00     0.057 C 
ENDROOT
TORSDOF 0
