REMARK  11 active torsions:
REMARK  status: ('A' for Active; 'I' for Inactive)
REMARK    1  A    between atoms: N1_1  and  N2_4 
REMARK       I    between atoms: C1_6  and  N3_7 
REMARK       I    between atoms: C1_6  and  N7_18 
REMARK    2  A    between atoms: N3_7  and  N4_9 
REMARK       I    between atoms: N4_9  and  C2_11 
REMARK       I    between atoms: C2_11  and  N5_13 
REMARK    3  A    between atoms: N5_13  and  N6_15 
REMARK    4  A    between atoms: N7_18  and  C3_19 
REMARK    5  A    between atoms: N7_18  and  C5_23 
REMARK    6  A    between atoms: C3_19  and  C4_20 
REMARK    7  A    between atoms: C4_20  and  O2_21 
REMARK    8  A    between atoms: N10_28  and  C6_29 
REMARK    9  A    between atoms: C6_29  and  S1_30 
REMARK   10  A    between atoms: S1_30  and  C7_31 
REMARK   11  A    between atoms: C12_43  and  O3_44 
ROOT
HETATM    1  C5  UNL     1       1.281  -0.911  -0.489  1.00  0.00     0.192 A 
HETATM    2  N8  UNL     1       1.447  -0.272  -1.703  1.00  0.00    -0.267 N 
ATOM      3  H8  UNL     1       2.337  -0.083  -2.165  1.00  0.00     0.190 HD
HETATM    4  N9  UNL     1       0.276   0.045  -2.151  1.00  0.00    -0.236 N 
ATOM      5  H9  UNL     1       0.112   0.531  -3.033  1.00  0.00     0.208 HD
HETATM    6  N10 UNL     1      -0.711  -0.351  -1.299  1.00  0.00    -0.244 N 
HETATM    7  C12 UNL     1      -0.075  -0.928  -0.291  1.00  0.00     0.206 A 
ENDROOT
BRANCH   1   8
HETATM    8  N7  UNL     1       2.364  -1.417   0.276  1.00  0.00    -0.158 N 
HETATM    9  C1  UNL     1       3.628  -0.711   0.256  1.00  0.00     0.715 C 
HETATM   10  N2  UNL     1       4.705  -1.285   0.490  1.00  0.00    -0.137 N 
HETATM   11  N3  UNL     1       3.660   0.693  -0.055  1.00  0.00    -0.127 N 
ATOM     12  H2  UNL     1       4.586  -2.276   0.701  1.00  0.00     0.205 HD
ATOM     13  H3  UNL     1       2.989   1.302   0.414  1.00  0.00     0.206 HD
BRANCH  10  14
HETATM   14  N1  UNL     1       6.001  -0.893   0.528  1.00  0.00    -0.331 N 
ATOM     15  H12 UNL     1       6.096   0.100   0.314  1.00  0.00     0.177 HD
ATOM     16  H11 UNL     1       6.885  -1.364   0.720  1.00  0.00     0.177 HD
ENDBRANCH  10  14
BRANCH  11  17
HETATM   17  N4  UNL     1       4.549   1.273  -0.955  1.00  0.00    -0.236 N 
HETATM   18  C2  UNL     1       5.538   2.207  -0.579  1.00  0.00     0.353 C 
HETATM   19  O1  UNL     1       5.689   2.590   0.606  1.00  0.00    -0.244 OA
HETATM   20  N5  UNL     1       6.414   2.756  -1.544  1.00  0.00    -0.257 N 
ATOM     21  H5  UNL     1       6.304   2.454  -2.512  1.00  0.00     0.191 HD
ATOM     22  H4  UNL     1       4.482   1.009  -1.938  1.00  0.00     0.192 HD
BRANCH  20  23
HETATM   23  N6  UNL     1       7.413   3.677  -1.265  1.00  0.00    -0.341 N 
ATOM     24  H62 UNL     1       7.509   3.968  -0.292  1.00  0.00     0.177 HD
ATOM     25  H61 UNL     1       8.045   4.073  -1.961  1.00  0.00     0.177 HD
ENDBRANCH  20  23
ENDBRANCH  11  17
BRANCH   8  26
HETATM   26  C3  UNL     1       2.242  -2.660   0.946  1.00  0.00     0.175 C 
BRANCH  26  27
HETATM   27  C4  UNL     1       2.747  -3.847   0.190  1.00  0.00     0.185 C 
BRANCH  27  28
HETATM   28  O2  UNL     1       4.054  -3.866  -0.191  1.00  0.00    -0.399 OA
ATOM     29  H2  UNL     1       4.375  -4.620  -0.671  1.00  0.00     0.209 HD
ENDBRANCH  27  28
ENDBRANCH  26  27
ENDBRANCH   8  26
ENDBRANCH   1   8
BRANCH   7  30
HETATM   30  O3  UNL     1      -0.727  -1.483   0.834  1.00  0.00    -0.342 OA
ATOM     31  H3  UNL     1      -1.667  -1.495   0.971  1.00  0.00     0.219 HD
ENDBRANCH   7  30
BRANCH   6  32
HETATM   32  C6  UNL     1      -2.099  -0.179  -1.652  1.00  0.00     0.235 C 
BRANCH  32  33
HETATM   33  S1  UNL     1      -2.814   1.272  -0.890  1.00  0.00    -0.070 SA
BRANCH  33  34
HETATM   34  C7  UNL     1      -3.925   0.818   0.438  1.00  0.00     0.178 A 
HETATM   35  N11 UNL     1      -3.785   0.540   1.712  1.00  0.00    -0.265 N 
HETATM   36  N12 UNL     1      -4.989   0.293   2.255  1.00  0.00    -0.130 N 
ATOM     37  H11 UNL     1      -2.897   0.515   2.214  1.00  0.00     0.189 HD
HETATM   38  C8  UNL     1      -5.930   0.415   1.310  1.00  0.00     0.697 A 
ATOM     39  H12 UNL     1      -5.159   0.051   3.231  1.00  0.00     0.205 HD
HETATM   40  N13 UNL     1      -5.263   0.739   0.195  1.00  0.00    -0.159 N 
HETATM   41  N14 UNL     1      -7.346   0.282   1.241  1.00  0.00    -0.225 N 
HETATM   42  C9  UNL     1      -6.062   0.980  -1.004  1.00  0.00     0.151 C 
HETATM   43  C10 UNL     1      -7.207   1.875  -0.526  1.00  0.00     0.041 C 
HETATM   44  C11 UNL     1      -8.148   0.962   0.234  1.00  0.00     0.139 C 
ATOM     45  H14 UNL     1      -7.817  -0.313   1.923  1.00  0.00     0.177 HD
ENDBRANCH  33  34
ENDBRANCH  32  33
ENDBRANCH   6  32
TORSDOF 11
