REMARK  8 active torsions:
REMARK  status: ('A' for Active; 'I' for Inactive)
REMARK    1  A    between atoms: C2_2  and  C3_3 
REMARK    2  A    between atoms: C3_3  and  N1_4 
REMARK    3  A    between atoms: N1_4  and  C4_6 
REMARK    4  A    between atoms: C6_13  and  N4_14 
REMARK    5  A    between atoms: N4_14  and  C7_16 
REMARK    6  A    between atoms: C7_16  and  C8_17 
REMARK    7  A    between atoms: C8_17  and  C9_18 
REMARK    8  A    between atoms: C9_18  and  N5_19 
ROOT
HETATM    1  C4  UNL     1      -1.770   0.342   0.068  1.00  0.00     0.697 A 
HETATM    2  N2  UNL     1      -1.899   1.562  -0.494  1.00  0.00    -0.140 N 
ATOM      3  H2  UNL     1      -2.825   1.966  -0.634  1.00  0.00     0.189 HD
HETATM    4  C5  UNL     1      -0.803   2.243  -0.868  1.00  0.00     0.352 A 
HETATM    5  O1  UNL     1      -0.974   3.375  -1.387  1.00  0.00    -0.246 OA
HETATM    6  N3  UNL     1       0.437   1.744  -0.700  1.00  0.00    -0.140 N 
ATOM      7  H3  UNL     1       1.267   2.264  -0.986  1.00  0.00     0.189 HD
HETATM    8  C6  UNL     1       0.526   0.518  -0.133  1.00  0.00     0.696 A 
HETATM    9  N6  UNL     1      -0.551  -0.186   0.251  1.00  0.00    -0.022 N 
ATOM     10  H6  UNL     1      -0.444  -1.107   0.675  1.00  0.00     0.203 HD
ENDROOT
BRANCH   8  11
HETATM   11  N4  UNL     1       1.691  -0.003   0.050  1.00  0.00    -0.225 N 
ATOM     12  H4  UNL     1       1.761  -0.927   0.477  1.00  0.00     0.177 HD
BRANCH  11  13
HETATM   13  C7  UNL     1       2.909   0.693  -0.337  1.00  0.00     0.139 C 
BRANCH  13  14
HETATM   14  C8  UNL     1       4.096  -0.121   0.167  1.00  0.00     0.047 C 
BRANCH  14  15
HETATM   15  C9  UNL     1       4.078  -1.514  -0.447  1.00  0.00     0.231 C 
BRANCH  15  16
HETATM   16  N5  UNL     1       5.231  -2.218   0.081  1.00  0.00    -0.079 N 
ATOM     17  H53 UNL     1       6.109  -1.722  -0.071  1.00  0.00     0.274 HD
ATOM     18  H52 UNL     1       5.264  -2.228   1.100  1.00  0.00     0.274 HD
ATOM     19  H51 UNL     1       5.219  -3.151  -0.330  1.00  0.00     0.274 HD
ENDBRANCH  15  16
ENDBRANCH  14  15
ENDBRANCH  13  14
ENDBRANCH  11  13
ENDBRANCH   8  11
BRANCH   1  20
HETATM   20  N1  UNL     1      -2.804  -0.341   0.440  1.00  0.00    -0.222 N 
ATOM     21  H1  UNL     1      -2.663  -1.259   0.861  1.00  0.00     0.178 HD
BRANCH  20  22
HETATM   22  C3  UNL     1      -4.151   0.153   0.279  1.00  0.00     0.164 C 
BRANCH  22  23
HETATM   23  C2  UNL     1      -5.100  -0.677   1.041  1.00  0.00    -0.017 C 
HETATM   24  C1  UNL     1      -6.077  -1.305   0.416  1.00  0.00     0.008 C 
ENDBRANCH  22  23
ENDBRANCH  20  22
ENDBRANCH   1  20
TORSDOF 8
