REMARK  9 active torsions:
REMARK  status: ('A' for Active; 'I' for Inactive)
REMARK    1  A    between atoms: N1_1  and  C1_4 
REMARK    2  A    between atoms: C4_12  and  N4_13 
REMARK    3  A    between atoms: N4_13  and  O2_15 
REMARK    4  A    between atoms: N5_17  and  C5_18 
REMARK    5  A    between atoms: C5_18  and  C6_19 
REMARK       I    between atoms: C6_19  and  N6_21 
REMARK    6  A    between atoms: N6_21  and  N7_23 
REMARK    7  A    between atoms: C7_25  and  C8_26 
REMARK    8  A    between atoms: C12_30  and  N8_31 
REMARK    9  A    between atoms: C13_34  and  N9_35 
ROOT
HETATM    1  C1  UNL     1      -4.948  -2.029  -1.069  1.00  0.00     0.680 A 
HETATM    2  N2  UNL     1      -5.760  -1.162  -1.695  1.00  0.00    -0.154 N 
ATOM      3  H2  UNL     1      -6.486  -1.498  -2.328  1.00  0.00     0.187 HD
HETATM    4  C2  UNL     1      -5.602   0.153  -1.476  1.00  0.00     0.290 A 
HETATM    5  O1  UNL     1      -6.337   1.015  -2.037  1.00  0.00    -0.265 OA
HETATM    6  C3  UNL     1      -4.630   0.662  -0.623  1.00  0.00     0.163 A 
HETATM    7  N3  UNL     1      -4.252   1.889  -0.225  1.00  0.00    -0.180 N 
ATOM      8  H3  UNL     1      -4.671   2.771  -0.520  1.00  0.00     0.184 HD
HETATM    9  C4  UNL     1      -3.231   1.750   0.625  1.00  0.00     0.707 A 
HETATM   10  N5  UNL     1      -2.959   0.444   0.767  1.00  0.00    -0.155 N 
HETATM   11  C14 UNL     1      -3.815  -0.275  -0.000  1.00  0.00     0.172 A 
HETATM   12  N10 UNL     1      -3.991  -1.587  -0.235  1.00  0.00    -0.174 N 
ATOM     13  H10 UNL     1      -3.384  -2.262   0.230  1.00  0.00     0.186 HD
ENDROOT
BRANCH  10  14
HETATM   14  C5  UNL     1      -1.923  -0.080   1.602  1.00  0.00     0.254 C 
BRANCH  14  15
HETATM   15  C6  UNL     1      -0.632  -0.242   0.945  1.00  0.00     0.255 C 
HETATM   16  O3  UNL     1      -0.465   0.066  -0.266  1.00  0.00    -0.270 OA
HETATM   17  N6  UNL     1       0.478  -0.758   1.662  1.00  0.00    -0.269 N 
ATOM     18  H6  UNL     1       0.332  -1.003   2.641  1.00  0.00     0.190 HD
BRANCH  17  19
HETATM   19  N7  UNL     1       1.735  -0.954   1.142  1.00  0.00    -0.308 N 
HETATM   20  C7  UNL     1       2.500  -0.057   0.614  1.00  0.00     0.121 C 
ATOM     21  H7  UNL     1       2.101  -1.905   1.177  1.00  0.00     0.186 HD
BRANCH  20  22
HETATM   22  C8  UNL     1       3.803  -0.466   0.118  1.00  0.00     0.016 A 
HETATM   23  C9  UNL     1       4.187  -1.803   0.225  1.00  0.00     0.015 A 
HETATM   24  C10 UNL     1       5.418  -2.185  -0.243  1.00  0.00     0.003 A 
HETATM   25  C11 UNL     1       6.249  -1.253  -0.806  1.00  0.00     0.039 A 
HETATM   26  C12 UNL     1       5.862   0.091  -0.913  1.00  0.00     0.136 A 
HETATM   27  C13 UNL     1       4.634   0.495  -0.450  1.00  0.00     0.147 A 
BRANCH  26  28
HETATM   28  N8  UNL     1       6.744   1.020  -1.523  1.00  0.00    -0.113 N 
HETATM   29  O4  UNL     1       6.783   2.187  -1.167  1.00  0.00    -0.532 OA
HETATM   30  O5  UNL     1       7.556   0.519  -2.536  1.00  0.00    -0.532 OA
ENDBRANCH  26  28
BRANCH  27  31
HETATM   31  N9  UNL     1       4.161   1.833  -0.498  1.00  0.00    -0.112 N 
HETATM   32  O6  UNL     1       3.353   2.214  -1.372  1.00  0.00    -0.532 OA
HETATM   33  O7  UNL     1       4.566   2.772   0.410  1.00  0.00    -0.532 OA
ENDBRANCH  27  31
ENDBRANCH  20  22
ENDBRANCH  17  19
ENDBRANCH  14  15
ENDBRANCH  10  14
BRANCH   9  34
HETATM   34  N4  UNL     1      -2.625   2.747   1.201  1.00  0.00    -0.098 N 
ATOM     35  H4  UNL     1      -1.854   2.541   1.836  1.00  0.00     0.213 HD
BRANCH  34  36
HETATM   36  O2  UNL     1      -2.962   4.041   1.004  1.00  0.00    -0.276 OA
ATOM     37  H2  UNL     1      -2.520   4.769   1.425  1.00  0.00     0.245 HD
ENDBRANCH  34  36
ENDBRANCH   9  34
BRANCH   1  38
HETATM   38  N1  UNL     1      -5.086  -3.315  -1.272  1.00  0.00    -0.234 N 
ATOM     39  H12 UNL     1      -5.812  -3.650  -1.905  1.00  0.00     0.174 HD
ATOM     40  H11 UNL     1      -4.469  -3.974  -0.796  1.00  0.00     0.174 HD
ENDBRANCH   1  38
TORSDOF 9
