REMARK  5 active torsions:
REMARK  status: ('A' for Active; 'I' for Inactive)
REMARK    1  A    between atoms: N1_2  and  C2_3 
REMARK    2  A    between atoms: N1_2  and  C4_7 
REMARK    3  A    between atoms: C2_3  and  C3_4 
REMARK    4  A    between atoms: C3_4  and  O1_5 
REMARK    5  A    between atoms: C8_11  and  O2_12 
ROOT
HETATM    1  C4  UNL     1      -0.105  -0.596   0.294  1.00  0.00     0.116 C 
HETATM    2  C5  UNL     1       0.420   0.663   0.992  1.00  0.00     0.066 C 
HETATM    3  C6  UNL     1       1.872   0.453   0.804  1.00  0.00     0.261 A 
HETATM    4  C7  UNL     1       1.780   0.202  -0.728  1.00  0.00     0.286 A 
HETATM    5  C8  UNL     1       1.058  -1.084  -0.575  1.00  0.00     0.176 C 
HETATM    6  N2  UNL     1       2.770   0.878  -0.113  1.00  0.00     0.100 N 
HETATM    7  C9  UNL     1       4.146   0.573   0.018  1.00  0.00     0.311 C 
ENDROOT
BRANCH   1   8
HETATM    8  N1  UNL     1      -1.284  -0.479  -0.421  1.00  0.00    -0.388 N 
HETATM    9  C1  UNL     1      -2.268  -1.500  -0.313  1.00  0.00     0.149 C 
BRANCH   8  10
HETATM   10  C2  UNL     1      -1.821   0.792  -0.695  1.00  0.00     0.084 C 
BRANCH  10  11
HETATM   11  C3  UNL     1      -2.669   1.371   0.423  1.00  0.00     0.208 C 
BRANCH  11  12
HETATM   12  O1  UNL     1      -3.781   0.558   0.703  1.00  0.00    -0.396 OA
ATOM     13  H1  UNL     1      -4.312   0.920   1.403  1.00  0.00     0.209 HD
ENDBRANCH  11  12
ENDBRANCH  10  11
ENDBRANCH   8  10
ENDBRANCH   1   8
BRANCH   5  14
HETATM   14  O2  UNL     1       1.781  -2.091   0.007  1.00  0.00    -0.391 OA
ATOM     15  H2  UNL     1       2.502  -2.394  -0.532  1.00  0.00     0.210 HD
ENDBRANCH   5  14
TORSDOF 5
