REMARK  13 active torsions:
REMARK  status: ('A' for Active; 'I' for Inactive)
REMARK    1  A    between atoms: C3_3  and  O1_4 
REMARK    2  A    between atoms: C3_3  and  C4_6 
REMARK    3  A    between atoms: C4_6  and  N1_7 
REMARK       I    between atoms: N1_7  and  C5_9 
REMARK    4  A    between atoms: C5_9  and  C6_11 
REMARK    5  A    between atoms: C6_11  and  C7_12 
REMARK    6  A    between atoms: C7_12  and  C8_13 
REMARK       I    between atoms: N2_19  and  C14_21 
REMARK    7  A    between atoms: C14_21  and  C15_23 
REMARK    8  A    between atoms: C16_24  and  C17_25 
REMARK    9  A    between atoms: C20_28  and  O4_29 
REMARK   10  A    between atoms: C20_28  and  N3_31 
REMARK   11  A    between atoms: C24_35  and  C25_36 
REMARK       I    between atoms: C25_36  and  N4_38 
REMARK   12  A    between atoms: N4_38  and  C26_39 
REMARK   13  A    between atoms: C26_39  and  C28_41 
REMARK       I    between atoms: C28_41  and  N5_43 
ROOT
HETATM    1  C4  UNL     1       0.328   0.519  -0.903  1.00  0.00     0.119 C 
HETATM    2  C20 UNL     1       1.591   0.062  -0.403  1.00  0.00     0.169 C 
ENDROOT
BRANCH   1   3
HETATM    3  C3  UNL     1      -0.150   0.307  -2.239  1.00  0.00     0.092 C 
HETATM    4  C2  UNL     1      -0.583  -0.236  -3.439  1.00  0.00     0.008 C 
HETATM    5  C1  UNL     1      -1.375  -1.504  -3.167  1.00  0.00     0.039 C 
BRANCH   3   6
HETATM    6  O1  UNL     1      -0.261   1.830  -2.670  1.00  0.00    -0.359 OA
ATOM      7  H1  UNL     1       0.036   2.202  -1.848  1.00  0.00     0.217 HD
ENDBRANCH   3   6
ENDBRANCH   1   3
BRANCH   1   8
HETATM    8  N1  UNL     1      -0.784   0.961  -0.136  1.00  0.00    -0.316 N 
HETATM    9  C5  UNL     1      -1.398   1.638   0.877  1.00  0.00     0.268 C 
HETATM   10  O2  UNL     1      -0.985   2.212   1.890  1.00  0.00    -0.266 OA
ATOM     11  H1  UNL     1      -1.570   0.523  -0.616  1.00  0.00     0.169 HD
BRANCH   9  12
HETATM   12  C6  UNL     1      -2.931   1.737   0.724  1.00  0.00     0.081 C 
HETATM   13  N2  UNL     1      -3.683   0.706   0.960  1.00  0.00    -0.322 N 
HETATM   14  C14 UNL     1      -3.937  -0.563   1.523  1.00  0.00     0.245 C 
ATOM     15  H2  UNL     1      -4.556   0.935   0.485  1.00  0.00     0.169 HD
HETATM   16  O3  UNL     1      -3.450  -1.233   2.356  1.00  0.00    -0.268 OA
BRANCH  12  17
HETATM   17  C7  UNL     1      -3.369   3.151   0.739  1.00  0.00     0.067 C 
BRANCH  17  18
HETATM   18  C8  UNL     1      -4.825   3.428   0.593  1.00  0.00    -0.009 C 
HETATM   19  C9  UNL     1      -5.544   2.911  -0.549  1.00  0.00     0.005 C 
HETATM   20  C10 UNL     1      -6.674   3.975  -0.912  1.00  0.00     0.000 C 
HETATM   21  C11 UNL     1      -7.611   3.919   0.243  1.00  0.00     0.000 C 
HETATM   22  C12 UNL     1      -7.123   3.334   1.513  1.00  0.00     0.000 C 
HETATM   23  C13 UNL     1      -5.673   3.472   1.860  1.00  0.00     0.005 C 
ENDBRANCH  17  18
ENDBRANCH  12  17
BRANCH  14  24
HETATM   24  C15 UNL     1      -5.126  -1.114   0.774  1.00  0.00     0.071 C 
HETATM   25  C16 UNL     1      -6.372  -1.614   1.036  1.00  0.00    -0.017 C 
BRANCH  25  26
HETATM   26  C17 UNL     1      -6.675  -2.853   1.747  1.00  0.00    -0.000 C 
HETATM   27  C18 UNL     1      -6.117  -4.095   0.950  1.00  0.00     0.013 C 
HETATM   28  C19 UNL     1      -8.200  -3.073   1.567  1.00  0.00     0.013 C 
ENDBRANCH  25  26
ENDBRANCH  14  24
ENDBRANCH   9  12
ENDBRANCH   1   8
BRANCH   2  29
HETATM   29  O4  UNL     1       2.047   0.790   0.596  1.00  0.00    -0.344 OA
ATOM     30  H4  UNL     1       2.884   0.487   0.927  1.00  0.00     0.219 HD
ENDBRANCH   2  29
BRANCH   2  31
HETATM   31  N3  UNL     1       2.417  -0.988  -0.793  1.00  0.00    -0.345 N 
HETATM   32  C21 UNL     1       2.066  -2.087  -1.805  1.00  0.00     0.126 C 
HETATM   33  C22 UNL     1       2.554  -3.292  -0.981  1.00  0.00     0.022 C 
HETATM   34  C23 UNL     1       3.823  -2.820  -0.470  1.00  0.00     0.038 C 
HETATM   35  C24 UNL     1       3.716  -1.275  -0.464  1.00  0.00     0.193 C 
BRANCH  35  36
HETATM   36  C25 UNL     1       4.365  -0.855   0.891  1.00  0.00     0.310 C 
HETATM   37  O5  UNL     1       3.706  -0.645   1.833  1.00  0.00    -0.255 OA
HETATM   38  N4  UNL     1       5.729  -0.815   0.583  1.00  0.00    -0.399 NA
BRANCH  38  39
HETATM   39  C26 UNL     1       7.027  -0.772   0.310  1.00  0.00     0.254 C 
HETATM   40  C27 UNL     1       7.166  -0.787  -1.273  1.00  0.00     0.058 C 
BRANCH  39  41
HETATM   41  C28 UNL     1       7.906   0.325   0.749  1.00  0.00     0.255 C 
HETATM   42  O6  UNL     1       7.330   1.352   1.258  1.00  0.00    -0.270 OA
HETATM   43  N5  UNL     1       9.304   0.396   0.716  1.00  0.00    -0.349 N 
HETATM   44  C29 UNL     1      10.255   1.382   1.158  1.00  0.00     0.126 C 
HETATM   45  C32 UNL     1      10.123  -0.673   0.085  1.00  0.00     0.126 C 
HETATM   46  C30 UNL     1      11.517   0.647   1.460  1.00  0.00     0.021 C 
HETATM   47  C31 UNL     1      11.433  -0.693   0.833  1.00  0.00     0.021 C 
ENDBRANCH  39  41
ENDBRANCH  38  39
ENDBRANCH  35  36
ENDBRANCH   2  31
TORSDOF 13
