REMARK  7 active torsions:
REMARK  status: ('A' for Active; 'I' for Inactive)
REMARK    1  A    between atoms: C6_6  and  C7_7 
REMARK    2  A    between atoms: C7_7  and  O1_8 
REMARK    3  A    between atoms: C7_7  and  N1_10 
REMARK    4  A    between atoms: N1_10  and  C8_12 
REMARK    5  A    between atoms: C8_12  and  C9_13 
REMARK       I    between atoms: N2_18  and  C13_19 
REMARK    6  A    between atoms: C13_19  and  C14_21 
REMARK    7  A    between atoms: N3_25  and  N4_26 
ROOT
HETATM    1  C1  UNL     1      -2.019  -2.895   0.301  1.00  0.00     0.068 C 
HETATM    2  C2  UNL     1      -1.320  -1.994  -0.628  1.00  0.00     0.008 C 
HETATM    3  C3  UNL     1      -1.007  -2.388  -1.878  1.00  0.00    -0.002 C 
HETATM    4  C4  UNL     1      -0.304  -1.454  -2.784  1.00  0.00     0.031 C 
HETATM    5  C5  UNL     1       0.734  -0.636  -2.051  1.00  0.00     0.038 C 
HETATM    6  C6  UNL     1       0.417  -0.241  -0.666  1.00  0.00     0.167 C 
HETATM    7  N2  UNL     1      -0.932  -0.682  -0.276  1.00  0.00    -0.307 N 
HETATM    8  C13 UNL     1      -1.820   0.156   0.409  1.00  0.00     0.259 C 
HETATM    9  O2  UNL     1      -1.341   1.314   0.715  1.00  0.00    -0.270 OA
ENDROOT
BRANCH   6  10
HETATM   10  C7  UNL     1       1.413  -0.681   0.386  1.00  0.00     0.139 C 
BRANCH  10  11
HETATM   11  O1  UNL     1       1.491  -2.063   0.515  1.00  0.00    -0.348 OA
ATOM     12  H1  UNL     1       2.116  -2.339   1.175  1.00  0.00     0.219 HD
ENDBRANCH  10  11
BRANCH  10  13
HETATM   13  N1  UNL     1       2.617   0.035   0.415  1.00  0.00    -0.347 N 
ATOM     14  H1  UNL     1       2.861   0.572   1.247  1.00  0.00     0.167 HD
BRANCH  13  15
HETATM   15  C8  UNL     1       3.495   0.025  -0.684  1.00  0.00     0.108 C 
BRANCH  15  16
HETATM   16  C9  UNL     1       4.703   0.854  -0.298  1.00  0.00     0.020 A 
HETATM   17  C10 UNL     1       4.970   1.478   0.889  1.00  0.00     0.021 A 
HETATM   18  C11 UNL     1       6.117   2.156   0.984  1.00  0.00     0.008 A 
HETATM   19  C12 UNL     1       6.935   2.172  -0.113  1.00  0.00     0.050 A 
HETATM   20  S1  UNL     1       6.068   1.234  -1.246  1.00  0.00    -0.101 SA
ENDBRANCH  15  16
ENDBRANCH  13  15
ENDBRANCH  10  13
ENDBRANCH   6  10
BRANCH   8  21
HETATM   21  C14 UNL     1      -3.189  -0.094   0.814  1.00  0.00     0.261 C 
HETATM   22  S2  UNL     1      -4.319  -0.203  -0.635  1.00  0.00    -0.131 SA
HETATM   23  C15 UNL     1      -5.147   1.400  -0.419  1.00  0.00     0.098 C 
HETATM   24  C16 UNL     1      -4.196   2.052   0.561  1.00  0.00     0.161 C 
HETATM   25  N3  UNL     1      -3.789   1.041   1.506  1.00  0.00    -0.244 N 
BRANCH  25  26
HETATM   26  N4  UNL     1      -3.918   1.082   2.892  1.00  0.00    -0.040 N 
HETATM   27  O3  UNL     1      -3.461   2.012   3.567  1.00  0.00    -0.517 OA
HETATM   28  O4  UNL     1      -4.572   0.056   3.515  1.00  0.00    -0.517 OA
ENDBRANCH  25  26
ENDBRANCH   8  21
TORSDOF 7
