REMARK  6 active torsions:
REMARK  status: ('A' for Active; 'I' for Inactive)
REMARK    1  A    between atoms: N1_1  and  N2_4 
REMARK    2  A    between atoms: C1_5  and  S1_6 
REMARK    3  A    between atoms: S1_6  and  C2_7 
REMARK    4  A    between atoms: C2_7  and  C3_8 
REMARK       I    between atoms: C3_8  and  N3_10 
REMARK    5  A    between atoms: N3_10  and  C4_12 
REMARK    6  A    between atoms: N4_15  and  C7_16 
ROOT
HETATM    1  N2  UNL     1       5.202  -1.268   0.494  1.00  0.00    -0.221 N 
HETATM    2  C1  UNL     1       4.107  -1.713   1.174  1.00  0.00     0.182 A 
HETATM    3  N5  UNL     1       3.839  -0.802   2.108  1.00  0.00    -0.277 N 
ATOM      4  H5  UNL     1       3.077  -0.842   2.785  1.00  0.00     0.189 HD
HETATM    5  N6  UNL     1       4.728   0.156   2.003  1.00  0.00    -0.281 N 
ATOM      6  H6  UNL     1       4.757   0.984   2.597  1.00  0.00     0.188 HD
HETATM    7  C14 UNL     1       5.610  -0.102   0.992  1.00  0.00     0.154 A 
HETATM    8  C15 UNL     1       6.705   0.755   0.624  1.00  0.00     0.014 A 
HETATM    9  C16 UNL     1       6.932   1.951   1.311  1.00  0.00     0.032 A 
HETATM   10  C17 UNL     1       7.934   2.811   1.034  1.00  0.00     0.088 A 
HETATM   11  N7  UNL     1       8.785   2.513   0.028  1.00  0.00    -0.375 N 
ATOM     12  H7  UNL     1       9.551   3.145  -0.203  1.00  0.00     0.164 HD
HETATM   13  C18 UNL     1       8.611   1.377  -0.663  1.00  0.00     0.088 A 
HETATM   14  C19 UNL     1       7.577   0.469  -0.393  1.00  0.00     0.032 A 
ENDROOT
BRANCH   2  15
HETATM   15  S1  UNL     1       3.194  -3.210   0.904  1.00  0.00    -0.081 SA
BRANCH  15  16
HETATM   16  C2  UNL     1       1.882  -2.903  -0.285  1.00  0.00     0.185 C 
BRANCH  16  17
HETATM   17  C3  UNL     1       0.856  -1.986   0.261  1.00  0.00     0.227 C 
HETATM   18  O1  UNL     1       1.016  -1.536   1.419  1.00  0.00    -0.273 OA
HETATM   19  N3  UNL     1      -0.292  -1.608  -0.487  1.00  0.00    -0.356 N 
ATOM     20  H3  UNL     1      -0.414  -1.980  -1.429  1.00  0.00     0.162 HD
BRANCH  19  21
HETATM   21  C4  UNL     1      -1.299  -0.706   0.052  1.00  0.00     0.087 C 
HETATM   22  C5  UNL     1      -2.538  -1.500   0.326  1.00  0.00     0.055 C 
HETATM   23  C6  UNL     1      -3.782  -0.904  -0.286  1.00  0.00     0.275 C 
HETATM   24  N4  UNL     1      -3.815   0.486   0.057  1.00  0.00     0.093 N 
HETATM   25  C12 UNL     1      -2.820   1.174  -0.688  1.00  0.00     0.275 C 
HETATM   26  C13 UNL     1      -1.490   0.505  -0.777  1.00  0.00     0.055 C 
BRANCH  24  27
HETATM   27  C7  UNL     1      -5.086   1.087  -0.100  1.00  0.00     0.223 C 
HETATM   28  C8  UNL     1      -5.656   1.112  -1.480  1.00  0.00     0.036 C 
HETATM   29  C9  UNL     1      -7.070   1.653  -1.213  1.00  0.00     0.002 C 
HETATM   30  C10 UNL     1      -7.379   1.300   0.233  1.00  0.00     0.002 C 
HETATM   31  C11 UNL     1      -6.214   0.388   0.659  1.00  0.00     0.036 C 
ENDBRANCH  24  27
ENDBRANCH  19  21
ENDBRANCH  16  17
ENDBRANCH  15  16
ENDBRANCH   2  15
BRANCH   1  32
HETATM   32  N1  UNL     1       5.732  -2.012  -0.557  1.00  0.00    -0.335 N 
ATOM     33  H12 UNL     1       5.420  -2.905  -0.938  1.00  0.00     0.177 HD
ATOM     34  H11 UNL     1       6.551  -1.679  -1.066  1.00  0.00     0.177 HD
ENDBRANCH   1  32
TORSDOF 6
