REMARK  4 active torsions:
REMARK  status: ('A' for Active; 'I' for Inactive)
REMARK    1  A    between atoms: C2_2  and  O1_3 
REMARK    2  A    between atoms: O1_3  and  C3_4 
REMARK    3  A    between atoms: C7_11  and  C8_12 
REMARK    4  A    between atoms: C8_12  and  O5_13 
ROOT
HETATM    1  C3  UNL     1       1.916  -0.433   1.020  1.00  0.00     0.449 C 
HETATM    2  O2  UNL     1       1.160  -0.725   2.146  1.00  0.00    -0.176 OA
HETATM    3  O3  UNL     1      -0.095  -0.527   1.832  1.00  0.00    -0.193 OA
HETATM    4  C4  UNL     1      -0.217  -0.712   0.464  1.00  0.00     0.224 C 
HETATM    5  C5  UNL     1      -0.855  -2.061   0.215  1.00  0.00     0.239 C 
HETATM    6  O4  UNL     1      -2.172  -2.073   0.553  1.00  0.00    -0.385 OA
HETATM    7  C6  UNL     1      -2.980  -1.181  -0.069  1.00  0.00     0.174 C 
HETATM    8  C7  UNL     1      -2.346   0.007  -0.674  1.00  0.00     0.038 C 
HETATM    9  C9  UNL     1      -1.037   0.419  -0.101  1.00  0.00     0.082 C 
HETATM   10  O6  UNL     1       1.070  -0.762  -0.043  1.00  0.00    -0.295 OA
ENDROOT
BRANCH   8  11
HETATM   11  C8  UNL     1      -3.305   1.198  -0.534  1.00  0.00     0.170 C 
BRANCH  11  12
HETATM   12  O5  UNL     1      -2.777   2.346  -1.079  1.00  0.00    -0.400 OA
ATOM     13  H5  UNL     1      -3.370   3.083  -0.992  1.00  0.00     0.209 HD
ENDBRANCH  11  12
ENDBRANCH   8  11
BRANCH   1  14
HETATM   14  O1  UNL     1       2.260   0.884   0.909  1.00  0.00    -0.338 OA
BRANCH  14  15
HETATM   15  C2  UNL     1       3.601   1.144   0.816  1.00  0.00     0.169 C 
HETATM   16  C1  UNL     1       4.148   0.449  -0.408  1.00  0.00     0.033 C 
ENDBRANCH  14  15
ENDBRANCH   1  14
TORSDOF 4
