REMARK  5 active torsions:
REMARK  status: ('A' for Active; 'I' for Inactive)
REMARK    1  A    between atoms: C2_2  and  C3_3 
REMARK    2  A    between atoms: C9_12  and  C10_13 
REMARK    3  A    between atoms: C10_13  and  O1_14 
REMARK    4  A    between atoms: C12_18  and  C14_20 
REMARK    5  A    between atoms: C14_20  and  O3_21 
ROOT
HETATM    1  C1  UNL     1      -2.290   1.947   1.034  1.00  0.00     0.024 C 
HETATM    2  C2  UNL     1      -2.330   0.647   0.206  1.00  0.00     0.030 C 
HETATM    3  C4  UNL     1      -1.941   0.910  -1.227  1.00  0.00     0.047 C 
HETATM    4  C5  UNL     1      -0.440   0.878  -1.354  1.00  0.00     0.001 C 
HETATM    5  C6  UNL     1       0.320   0.088  -0.679  1.00  0.00     0.028 C 
HETATM    6  N1  UNL     1       1.614  -0.209  -0.512  1.00  0.00    -0.316 N 
HETATM    7  C7  UNL     1       2.347  -1.361  -0.769  1.00  0.00     0.404 C 
HETATM    8  N2  UNL     1       2.273  -1.327   0.784  1.00  0.00     0.143 N 
HETATM    9  C8  UNL     1       0.910  -1.226   1.224  1.00  0.00     0.304 C 
HETATM   10  C9  UNL     1      -0.290  -0.971   0.345  1.00  0.00     0.111 C 
HETATM   11  C11 UNL     1      -1.397  -0.259   0.931  1.00  0.00     0.154 C 
HETATM   12  O2  UNL     1      -1.623  -0.385   2.132  1.00  0.00    -0.296 OA
HETATM   13  C12 UNL     1       2.666   0.158   0.356  1.00  0.00     0.293 C 
HETATM   14  C13 UNL     1       4.044   0.234  -0.097  1.00  0.00     0.083 C 
ENDROOT
BRANCH  13  15
HETATM   15  C14 UNL     1       2.426   1.020   1.516  1.00  0.00     0.170 C 
HETATM   16  S1  UNL     1       3.060   0.620   2.954  1.00  0.00    -0.053 SA
BRANCH  15  17
HETATM   17  O3  UNL     1       1.675   2.164   1.407  1.00  0.00    -0.351 OA
ATOM     18  H3  UNL     1       1.519   2.723   2.159  1.00  0.00     0.218 HD
ENDBRANCH  15  17
ENDBRANCH  13  15
BRANCH  10  19
HETATM   19  C10 UNL     1      -0.754  -2.211  -0.328  1.00  0.00     0.189 C 
BRANCH  19  20
HETATM   20  O1  UNL     1      -1.701  -2.102  -1.315  1.00  0.00    -0.399 OA
ATOM     21  H1  UNL     1      -1.998  -2.895  -1.745  1.00  0.00     0.209 HD
ENDBRANCH  19  20
ENDBRANCH  10  19
BRANCH   2  22
HETATM   22  C3  UNL     1      -3.750   0.186   0.247  1.00  0.00     0.102 C 
HETATM   23 BR1  UNL     1      -4.816   1.624  -0.548  1.00  0.00    -0.095 Br
ENDBRANCH   2  22
TORSDOF 5
