REMARK  7 active torsions:
REMARK  status: ('A' for Active; 'I' for Inactive)
REMARK    1  A    between atoms: C2_2  and  O1_3 
REMARK    2  A    between atoms: O1_3  and  C3_4 
REMARK    3  A    between atoms: C3_4  and  C4_6 
REMARK    4  A    between atoms: C5_7  and  C6_8 
REMARK    5  A    between atoms: C6_8  and  C7_10 
REMARK    6  A    between atoms: C12_18  and  C13_19 
REMARK    7  A    between atoms: N2_20  and  N3_22 
REMARK       I    between atoms: N3_22  and  C14_23 
ROOT
HETATM    1  C4  UNL     1      -0.266  -0.770   0.468  1.00  0.00     0.092 A 
HETATM    2  C5  UNL     1      -0.865   0.386   0.078  1.00  0.00     0.098 A 
HETATM    3  N1  UNL     1      -0.039   1.357  -0.414  1.00  0.00    -0.343 N 
ATOM      4  H1  UNL     1      -0.438   2.244  -0.721  1.00  0.00     0.167 HD
HETATM    5  C11 UNL     1       1.304   1.165  -0.502  1.00  0.00     0.114 A 
HETATM    6  S1  UNL     1       2.229   2.388  -1.115  1.00  0.00    -0.059 SA
HETATM    7  C12 UNL     1       1.940   0.022  -0.120  1.00  0.00     0.043 A 
HETATM    8  C16 UNL     1       1.101  -0.982   0.385  1.00  0.00     0.067 A 
HETATM    9 CL1  UNL     1       1.818  -2.488   0.906  1.00  0.00    -0.082 Cl
ENDROOT
BRANCH   7  10
HETATM   10  C13 UNL     1       3.362  -0.233  -0.172  1.00  0.00     0.137 C 
HETATM   11  N2  UNL     1       4.221   0.609  -0.598  1.00  0.00    -0.243 N 
ATOM     12  H2  UNL     1       3.883   1.515  -0.922  1.00  0.00     0.201 HD
BRANCH  11  13
HETATM   13  N3  UNL     1       5.551   0.374  -0.647  1.00  0.00    -0.288 NA
HETATM   14  C14 UNL     1       6.850   0.145  -0.696  1.00  0.00     0.308 C 
HETATM   15  C15 UNL     1       7.729   0.741   0.416  1.00  0.00     0.137 C 
HETATM   16  O4  UNL     1       7.551  -0.524  -1.550  1.00  0.00    -0.256 OA
ENDBRANCH  11  13
ENDBRANCH   7  10
BRANCH   1  17
HETATM   17  C3  UNL     1      -1.040  -1.917   0.967  1.00  0.00     0.297 C 
HETATM   18  O2  UNL     1      -1.364  -2.115   2.138  1.00  0.00    -0.259 OA
BRANCH  17  19
HETATM   19  O1  UNL     1      -1.406  -2.836   0.003  1.00  0.00    -0.318 OA
BRANCH  19  20
HETATM   20  C2  UNL     1      -2.093  -4.021   0.144  1.00  0.00     0.174 C 
HETATM   21  C1  UNL     1      -3.467  -3.920   0.691  1.00  0.00     0.034 C 
ENDBRANCH  19  20
ENDBRANCH  17  19
ENDBRANCH   1  17
BRANCH   2  22
HETATM   22  C6  UNL     1      -2.270   0.618   0.208  1.00  0.00     0.184 C 
HETATM   23  O3  UNL     1      -2.971  -0.329   0.684  1.00  0.00    -0.290 OA
BRANCH  22  24
HETATM   24  C7  UNL     1      -3.030   1.831  -0.144  1.00  0.00     0.016 C 
HETATM   25  C8  UNL     1      -4.504   1.617   0.285  1.00  0.00     0.023 C 
HETATM   26  C9  UNL     1      -2.580   3.073   0.602  1.00  0.00     0.023 C 
HETATM   27  C10 UNL     1      -3.136   2.070  -1.640  1.00  0.00     0.023 C 
ENDBRANCH  22  24
ENDBRANCH   2  22
TORSDOF 7
