REMARK  2 active torsions:
REMARK  status: ('A' for Active; 'I' for Inactive)
REMARK       I    between atoms: C1_2  and  N1_3 
REMARK       I    between atoms: C1_2  and  N2_8 
REMARK    1  A    between atoms: N1_3  and  C2_5 
REMARK    2  A    between atoms: N2_8  and  C5_10 
ROOT
HETATM    1  O1  UNL     1      -0.240   0.628   0.984  1.00  0.00    -0.247 OA
HETATM    2  C1  UNL     1      -0.065  -0.086  -0.061  1.00  0.00     0.317 C 
HETATM    3  N1  UNL     1       1.230  -0.498  -0.446  1.00  0.00    -0.339 N 
ATOM      4  H1  UNL     1       1.369  -1.068  -1.280  1.00  0.00     0.164 HD
HETATM    5  N2  UNL     1      -1.171  -0.475  -0.852  1.00  0.00    -0.334 N 
ATOM      6  H2  UNL     1      -0.981  -1.046  -1.676  1.00  0.00     0.165 HD
ENDROOT
BRANCH   3   7
HETATM    7  C2  UNL     1       2.355  -0.094   0.368  1.00  0.00     0.086 A 
HETATM    8  C3  UNL     1       3.590  -0.939   0.332  1.00  0.00     0.027 A 
HETATM    9  C4  UNL     1       3.625   0.362  -0.359  1.00  0.00     0.027 A 
ENDBRANCH   3   7
BRANCH   5  10
HETATM   10  C5  UNL     1      -2.521  -0.135  -0.591  1.00  0.00     0.039 A 
HETATM   11  C6  UNL     1      -3.174  -0.533   0.692  1.00  0.00     0.038 A 
HETATM   12  C7  UNL     1      -3.020   0.925   0.273  1.00  0.00     0.018 A 
HETATM   13  C8  UNL     1      -3.049   1.142  -1.214  1.00  0.00     0.038 A 
ENDBRANCH   5  10
TORSDOF 2
