REMARK  4 active torsions:
REMARK  status: ('A' for Active; 'I' for Inactive)
REMARK    1  A    between atoms: N1_2  and  C2_4 
REMARK    2  A    between atoms: C2_4  and  C3_5 
REMARK    3  A    between atoms: C2_4  and  C4_10 
REMARK    4  A    between atoms: C3_5  and  N2_6 
ROOT
HETATM    1  C4  UNL     1       0.760  -0.345   0.233  1.00  0.00     0.081 A 
HETATM    2  N3  UNL     1       1.109  -0.954   1.375  1.00  0.00    -0.299 N 
ATOM      3  H3  UNL     1       0.450  -1.266   2.089  1.00  0.00     0.186 HD
HETATM    4  N4  UNL     1       2.425  -1.097   1.453  1.00  0.00    -0.282 N 
ATOM      5  H4  UNL     1       2.931  -1.530   2.225  1.00  0.00     0.188 HD
HETATM    6  C5  UNL     1       2.988  -0.569   0.331  1.00  0.00     0.163 A 
HETATM    7  N5  UNL     1       4.148  -0.318  -0.347  1.00  0.00    -0.266 N 
ATOM      8  H5  UNL     1       5.096  -0.545  -0.048  1.00  0.00     0.186 HD
HETATM    9  N6  UNL     1       3.785   0.286  -1.483  1.00  0.00    -0.020 NA
HETATM   10  N7  UNL     1       2.470   0.414  -1.532  1.00  0.00    -0.279 N 
ATOM     11  H7  UNL     1       1.949   0.842  -2.297  1.00  0.00     0.184 HD
HETATM   12  C6  UNL     1       1.925  -0.106  -0.419  1.00  0.00     0.118 A 
ENDROOT
BRANCH   1  13
HETATM   13  C2  UNL     1      -0.635   0.016  -0.201  1.00  0.00     0.156 C 
BRANCH  13  14
HETATM   14  N1  UNL     1      -0.745   1.438   0.130  1.00  0.00    -0.415 N 
HETATM   15  C1  UNL     1      -1.989   2.038  -0.176  1.00  0.00     0.140 C 
ATOM     16  H1  UNL     1       0.023   1.960   0.552  1.00  0.00     0.153 HD
ENDBRANCH  13  14
BRANCH  13  17
HETATM   17  C3  UNL     1      -1.649  -0.721   0.662  1.00  0.00     0.260 C 
BRANCH  17  18
HETATM   18  N2  UNL     1      -1.590  -2.159   0.392  1.00  0.00    -0.077 N 
ATOM     19  H23 UNL     1      -1.711  -2.366  -0.599  1.00  0.00     0.274 HD
ATOM     20  H22 UNL     1      -0.647  -2.531   0.509  1.00  0.00     0.274 HD
ATOM     21  H21 UNL     1      -2.270  -2.653   0.970  1.00  0.00     0.274 HD
ENDBRANCH  17  18
ENDBRANCH  13  17
ENDBRANCH   1  13
TORSDOF 4
