REMARK  8 active torsions:
REMARK  status: ('A' for Active; 'I' for Inactive)
REMARK    1  A    between atoms: N1_1  and  C1_5 
REMARK    2  A    between atoms: C1_5  and  N2_6 
REMARK    3  A    between atoms: C1_5  and  C2_10 
REMARK    4  A    between atoms: C3_13  and  C4_14 
REMARK       I    between atoms: C4_14  and  N4_16 
REMARK    5  A    between atoms: C5_18  and  C6_19 
REMARK    6  A    between atoms: C7_22  and  N5_23 
REMARK    7  A    between atoms: N5_23  and  N6_25 
REMARK    8  A    between atoms: N6_25  and  C8_26 
ROOT
HETATM    1  C2  UNL     1      -2.171  -1.393   0.024  1.00  0.00     0.111 A 
HETATM    2  N3  UNL     1      -2.189  -0.093  -0.134  1.00  0.00    -0.344 N 
ATOM      3  H3  UNL     1      -3.027   0.362  -0.495  1.00  0.00     0.166 HD
HETATM    4  C3  UNL     1      -1.143   0.621   0.167  1.00  0.00     0.137 A 
HETATM    5  C7  UNL     1      -0.045  -0.029   0.647  1.00  0.00     0.120 A 
HETATM    6  S1  UNL     1      -0.609  -1.674   0.631  1.00  0.00    -0.052 SA
ENDROOT
BRANCH   5   7
HETATM    7  N5  UNL     1       1.246   0.426   1.069  1.00  0.00    -0.293 N 
ATOM      8  H5  UNL     1       1.471   1.420   1.037  1.00  0.00     0.183 HD
BRANCH   7   9
HETATM    9  N6  UNL     1       2.209  -0.500   1.530  1.00  0.00    -0.107 NA
BRANCH   9  10
HETATM   10  C8  UNL     1       3.456  -0.128   0.880  1.00  0.00     0.306 C 
HETATM   11  N7  UNL     1       3.282  -0.213  -0.580  1.00  0.00    -0.091 NA
HETATM   12  N8  UNL     1       4.409   0.278  -1.196  1.00  0.00    -0.230 N 
HETATM   13  N9  UNL     1       5.602  -0.252  -0.772  1.00  0.00    -0.228 N 
ATOM     14  H8  UNL     1       4.361   0.992  -1.923  1.00  0.00     0.205 HD
HETATM   15  N10 UNL     1       5.506  -1.273   0.152  1.00  0.00    -0.252 N 
ATOM     16  H9  UNL     1       6.500   0.086  -1.117  1.00  0.00     0.209 HD
HETATM   17  C9  UNL     1       4.525  -1.147   1.177  1.00  0.00     0.275 C 
ATOM     18  H10 UNL     1       6.116  -2.089   0.103  1.00  0.00     0.191 HD
HETATM   19  O4  UNL     1       4.544  -1.816   2.230  1.00  0.00    -0.268 OA
ENDBRANCH   9  10
ENDBRANCH   7   9
ENDBRANCH   5   7
BRANCH   4  20
HETATM   20  C4  UNL     1      -1.167   2.101  -0.015  1.00  0.00     0.275 C 
HETATM   21  O1  UNL     1      -0.207   2.836   0.249  1.00  0.00    -0.266 OA
HETATM   22  N4  UNL     1      -2.339   2.755  -0.521  1.00  0.00    -0.325 N 
HETATM   23  C5  UNL     1      -3.221   3.229   0.267  1.00  0.00     0.175 C 
ATOM     24  H4  UNL     1      -2.469   2.842  -1.529  1.00  0.00     0.168 HD
BRANCH  23  25
HETATM   25  C6  UNL     1      -4.396   3.884  -0.241  1.00  0.00     0.214 C 
HETATM   26  O2  UNL     1      -5.247   4.341   0.550  1.00  0.00    -0.643 OA
HETATM   27  O3  UNL     1      -4.598   4.017  -1.625  1.00  0.00    -0.643 OA
ENDBRANCH  23  25
ENDBRANCH   4  20
BRANCH   1  28
HETATM   28  C1  UNL     1      -3.268  -2.388  -0.266  1.00  0.00     0.434 C 
BRANCH  28  29
HETATM   29  N1  UNL     1      -3.892  -2.128  -1.527  1.00  0.00    -0.044 N 
ATOM     30  H13 UNL     1      -3.260  -2.249  -2.318  1.00  0.00     0.277 HD
ATOM     31  H12 UNL     1      -4.571  -2.841  -1.791  1.00  0.00     0.277 HD
ATOM     32  H11 UNL     1      -4.294  -1.192  -1.477  1.00  0.00     0.277 HD
ENDBRANCH  28  29
BRANCH  28  33
HETATM   33  N2  UNL     1      -2.693  -3.725  -0.338  1.00  0.00    -0.044 N 
ATOM     34  H23 UNL     1      -3.372  -4.438  -0.602  1.00  0.00     0.277 HD
ATOM     35  H22 UNL     1      -2.061  -3.846  -1.129  1.00  0.00     0.277 HD
ATOM     36  H21 UNL     1      -2.248  -3.910   0.561  1.00  0.00     0.277 HD
ENDBRANCH  28  33
ENDBRANCH   1  28
TORSDOF 8
