REMARK  12 active torsions:
REMARK  status: ('A' for Active; 'I' for Inactive)
REMARK    1  A    between atoms: C2_2  and  N1_3 
REMARK    2  A    between atoms: C2_2  and  C3_7 
REMARK    3  A    between atoms: C3_7  and  O1_8 
REMARK    4  A    between atoms: C3_7  and  N2_10 
REMARK    5  A    between atoms: N2_10  and  C4_12 
REMARK    6  A    between atoms: C4_12  and  O2_13 
REMARK    7  A    between atoms: C4_12  and  C5_15 
REMARK    8  A    between atoms: C5_15  and  N3_16 
REMARK    9  A    between atoms: C5_15  and  C6_20 
REMARK   10  A    between atoms: C6_20  and  C7_21 
REMARK   11  A    between atoms: C9_25  and  N5_26 
REMARK   12  A    between atoms: N9_38  and  N10_39 
ROOT
HETATM    1  C7  UNL     1       1.438  -0.825  -0.174  1.00  0.00     0.110 A 
HETATM    2  N4  UNL     1       1.550   0.149   0.742  1.00  0.00    -0.338 N 
ATOM      3  H4  UNL     1       0.795   0.495   1.334  1.00  0.00     0.167 HD
HETATM    4  C8  UNL     1       2.805   0.590   0.754  1.00  0.00     0.125 A 
HETATM    5  C9  UNL     1       3.404   1.565   1.507  1.00  0.00     0.145 A 
HETATM    6  N6  UNL     1       4.700   1.793   1.297  1.00  0.00    -0.175 N 
ATOM      7  H6  UNL     1       5.171   2.513   1.845  1.00  0.00     0.186 HD
HETATM    8  C10 UNL     1       5.420   1.086   0.364  1.00  0.00     0.681 A 
HETATM    9  N7  UNL     1       6.653   1.365   0.223  1.00  0.00    -0.234 N 
ATOM     10  H71 UNL     1       7.187   0.840  -0.469  1.00  0.00     0.174 HD
ATOM     11  H72 UNL     1       7.086   2.094   0.791  1.00  0.00     0.174 HD
HETATM   12  N8  UNL     1       4.852   0.130  -0.381  1.00  0.00    -0.168 N 
HETATM   13  C11 UNL     1       5.512  -0.669  -1.380  1.00  0.00     0.177 C 
HETATM   14  C12 UNL     1       3.526  -0.118  -0.180  1.00  0.00     0.178 A 
HETATM   15  N9  UNL     1       2.677  -0.982  -0.742  1.00  0.00    -0.210 N 
ENDROOT
BRANCH   1  16
HETATM   16  C6  UNL     1       0.225  -1.591  -0.517  1.00  0.00     0.116 C 
BRANCH  16  17
HETATM   17  C5  UNL     1      -1.031  -1.178   0.149  1.00  0.00     0.238 C 
BRANCH  17  18
HETATM   18  C4  UNL     1      -1.482   0.220  -0.164  1.00  0.00     0.246 C 
BRANCH  18  19
HETATM   19  N2  UNL     1      -2.428   0.770   0.725  1.00  0.00    -0.368 N 
ATOM     20  H2  UNL     1      -2.172   1.596   1.265  1.00  0.00     0.158 HD
BRANCH  19  21
HETATM   21  C3  UNL     1      -3.693   0.228   0.891  1.00  0.00     0.245 C 
BRANCH  21  22
HETATM   22  C2  UNL     1      -4.605   0.221  -0.305  1.00  0.00     0.227 C 
HETATM   23  C1  UNL     1      -5.984  -0.267   0.159  1.00  0.00     0.044 C 
BRANCH  22  24
HETATM   24  N1  UNL     1      -4.774   1.614  -0.718  1.00  0.00    -0.071 N 
ATOM     25  H13 UNL     1      -5.504   1.742  -1.419  1.00  0.00     0.274 HD
ATOM     26  H12 UNL     1      -5.188   2.202   0.005  1.00  0.00     0.274 HD
ATOM     27  H11 UNL     1      -3.857   1.938  -1.026  1.00  0.00     0.274 HD
ENDBRANCH  22  24
ENDBRANCH  21  22
BRANCH  21  28
HETATM   28  O1  UNL     1      -4.365   1.012   1.866  1.00  0.00    -0.375 OA
ATOM     29  H1  UNL     1      -3.789   1.016   2.621  1.00  0.00     0.212 HD
ENDBRANCH  21  28
ENDBRANCH  19  21
ENDBRANCH  18  19
BRANCH  18  30
HETATM   30  O2  UNL     1      -1.891   0.316  -1.524  1.00  0.00    -0.375 OA
ATOM     31  H2  UNL     1      -1.254  -0.055  -2.123  1.00  0.00     0.212 HD
ENDBRANCH  18  30
ENDBRANCH  17  18
BRANCH  17  32
HETATM   32  N3  UNL     1      -2.064  -2.173  -0.072  1.00  0.00    -0.070 N 
ATOM     33  H33 UNL     1      -2.910  -1.939   0.447  1.00  0.00     0.274 HD
ATOM     34  H32 UNL     1      -2.429  -2.113  -1.023  1.00  0.00     0.274 HD
ATOM     35  H31 UNL     1      -1.758  -3.122   0.141  1.00  0.00     0.274 HD
ENDBRANCH  17  32
ENDBRANCH  16  17
ENDBRANCH   1  16
BRANCH  15  36
HETATM   36  N10 UNL     1       2.948  -1.897  -1.730  1.00  0.00    -0.239 N 
HETATM   37  N11 UNL     1       2.396  -1.796  -2.869  1.00  0.00    -0.330 N 
ATOM     38 2H11 UNL     1       1.750  -1.025  -3.035  1.00  0.00     0.178 HD
ATOM     39 1H11 UNL     1       2.597  -2.475  -3.603  1.00  0.00     0.178 HD
ATOM     40  H10 UNL     1       3.597  -2.663  -1.547  1.00  0.00     0.208 HD
ENDBRANCH  15  36
BRANCH   5  41
HETATM   41  N5  UNL     1       2.733   2.249   2.400  1.00  0.00    -0.383 N 
ATOM     42  H52 UNL     1       1.741   2.074   2.561  1.00  0.00     0.157 HD
ATOM     43  H51 UNL     1       3.179   2.975   2.961  1.00  0.00     0.157 HD
ENDBRANCH   5  41
TORSDOF 12
