REMARK  12 active torsions:
REMARK  status: ('A' for Active; 'I' for Inactive)
REMARK    1  A    between atoms: N1_2  and  N2_3 
REMARK    2  A    between atoms: N1_2  and  N3_6 
REMARK       I    between atoms: N3_6  and  C2_8 
REMARK       I    between atoms: C2_8  and  N4_9 
REMARK       I    between atoms: C2_8  and  N13_32 
REMARK    3  A    between atoms: N4_9  and  N5_11 
REMARK    4  A    between atoms: N6_13  and  C3_15 
REMARK    5  A    between atoms: C4_18  and  N8_19 
REMARK    6  A    between atoms: N8_19  and  N9_21 
REMARK    7  A    between atoms: C5_26  and  N11_27 
REMARK       I    between atoms: N13_32  and  C6_34 
REMARK    8  A    between atoms: C6_34  and  C7_36 
REMARK    9  A    between atoms: C7_36  and  N14_37 
REMARK   10  A    between atoms: C7_36  and  C8_41 
REMARK   11  A    between atoms: C8_41  and  C9_42 
REMARK   12  A    between atoms: C9_42  and  N15_43 
ROOT
HETATM    1  N3  UNL     1       0.149  -2.175  -0.894  1.00  0.00    -0.115 N 
ATOM      2  H3  UNL     1       1.019  -2.096  -1.421  1.00  0.00     0.207 HD
HETATM    3  C2  UNL     1      -0.500  -1.190  -0.870  1.00  0.00     0.716 C 
HETATM    4  N4  UNL     1       0.780  -0.450  -1.859  1.00  0.00    -0.116 N 
ATOM      5  H4  UNL     1       0.800  -0.359  -2.875  1.00  0.00     0.207 HD
HETATM    6  N13 UNL     1      -1.248  -0.036  -0.848  1.00  0.00    -0.155 N 
ATOM      7  H13 UNL     1      -0.915   0.822  -1.287  1.00  0.00     0.187 HD
HETATM    8  C6  UNL     1      -2.526  -0.092  -0.177  1.00  0.00     0.266 C 
HETATM    9  O1  UNL     1      -2.891  -1.168   0.341  1.00  0.00    -0.270 OA
ENDROOT
BRANCH   1  10
HETATM   10  N1  UNL     1      -0.068  -3.413  -0.332  1.00  0.00    -0.231 N 
HETATM   11  C1  UNL     1      -1.117  -4.295  -0.864  1.00  0.00     0.200 C 
BRANCH  10  12
HETATM   12  N2  UNL     1       0.680  -3.874   0.735  1.00  0.00    -0.329 N 
ATOM     13  H22 UNL     1       0.519  -4.791   1.151  1.00  0.00     0.178 HD
ATOM     14  H21 UNL     1       1.408  -3.262   1.104  1.00  0.00     0.178 HD
ENDBRANCH  10  12
ENDBRANCH   1  10
BRANCH   4  15
HETATM   15  N5  UNL     1       1.661  -0.059  -1.037  1.00  0.00    -0.214 N 
HETATM   16  N6  UNL     1       2.060   0.729  -0.195  1.00  0.00    -0.116 N 
ATOM     17  H6  UNL     1       1.506   1.535   0.094  1.00  0.00     0.207 HD
ATOM     18  H5  UNL     1       2.411  -0.745  -1.121  1.00  0.00     0.209 HD
BRANCH  16  19
HETATM   19  C3  UNL     1       3.365   0.454   0.370  1.00  0.00     0.727 A 
HETATM   20  N7  UNL     1       4.136   1.521   0.652  1.00  0.00    -0.018 N 
HETATM   21  C4  UNL     1       5.374   1.375   1.170  1.00  0.00     0.725 A 
ATOM     22  H7  UNL     1       3.778   2.459   0.471  1.00  0.00     0.203 HD
HETATM   23  N10 UNL     1       5.812   0.130   1.394  1.00  0.00    -0.020 N 
HETATM   24  C5  UNL     1       5.043  -0.962   1.113  1.00  0.00     0.705 A 
ATOM     25  H10 UNL     1       6.744  -0.006   1.785  1.00  0.00     0.203 HD
HETATM   26  N12 UNL     1       3.798  -0.796   0.592  1.00  0.00    -0.020 N 
ATOM     27  H12 UNL     1       3.209  -1.600   0.376  1.00  0.00     0.203 HD
BRANCH  21  28
HETATM   28  N8  UNL     1       6.132   2.536   1.449  1.00  0.00    -0.138 N 
ATOM     29  H8  UNL     1       7.070   2.409   1.829  1.00  0.00     0.205 HD
BRANCH  28  30
HETATM   30  N9  UNL     1       5.689   3.840   1.242  1.00  0.00    -0.331 N 
ATOM     31  H92 UNL     1       4.749   3.948   0.862  1.00  0.00     0.177 HD
ATOM     32  H91 UNL     1       6.236   4.677   1.443  1.00  0.00     0.177 HD
ENDBRANCH  28  30
ENDBRANCH  21  28
BRANCH  24  33
HETATM   33  N11 UNL     1       5.481  -2.150   1.339  1.00  0.00    -0.234 N 
ATOM     34 2H11 UNL     1       6.415  -2.275   1.730  1.00  0.00     0.174 HD
ATOM     35 1H11 UNL     1       4.906  -2.966   1.129  1.00  0.00     0.174 HD
ENDBRANCH  24  33
ENDBRANCH  16  19
ENDBRANCH   4  15
BRANCH   8  36
HETATM   36  C7  UNL     1      -3.395   1.086  -0.096  1.00  0.00     0.277 C 
BRANCH  36  37
HETATM   37  N14 UNL     1      -2.850   2.240  -0.779  1.00  0.00    -0.066 N 
ATOM     38 3H14 UNL     1      -1.913   2.455  -0.439  1.00  0.00     0.275 HD
ATOM     39 2H14 UNL     1      -2.628   2.017  -1.749  1.00  0.00     0.275 HD
ATOM     40 1H14 UNL     1      -3.455   3.060  -0.723  1.00  0.00     0.275 HD
ENDBRANCH  36  37
BRANCH  36  41
HETATM   41  C8  UNL     1      -4.779   0.837  -0.633  1.00  0.00     0.069 C 
BRANCH  41  42
HETATM   42  C9  UNL     1      -5.574   2.111  -0.504  1.00  0.00     0.232 C 
BRANCH  42  43
HETATM   43  N15 UNL     1      -5.633   2.467   0.876  1.00  0.00    -0.079 N 
ATOM     44 3H15 UNL     1      -6.000   1.715   1.460  1.00  0.00     0.274 HD
ATOM     45 2H15 UNL     1      -4.709   2.536   1.303  1.00  0.00     0.274 HD
ATOM     46 1H15 UNL     1      -6.171   3.329   0.963  1.00  0.00     0.274 HD
ENDBRANCH  42  43
ENDBRANCH  41  42
ENDBRANCH  36  41
ENDBRANCH   8  36
TORSDOF 12
