REMARK  5 active torsions:
REMARK  status: ('A' for Active; 'I' for Inactive)
REMARK    1  A    between atoms: C5_12  and  N4_13 
REMARK    2  A    between atoms: N4_13  and  N5_14 
REMARK    3  A    between atoms: N5_14  and  C6_16 
REMARK    4  A    between atoms: C8_23  and  N8_24 
REMARK    5  A    between atoms: N9_27  and  N10_28 
ROOT
HETATM    1  C6  UNL     1       1.941   0.243  -0.040  1.00  0.00     0.731 A 
HETATM    2  N6  UNL     1       2.031   0.878  -1.225  1.00  0.00    -0.126 N 
ATOM      3  H6  UNL     1       1.180   1.250  -1.646  1.00  0.00     0.206 HD
HETATM    4  N7  UNL     1       3.176   1.038  -1.863  1.00  0.00    -0.249 N 
ATOM      5  H7  UNL     1       3.212   1.523  -2.759  1.00  0.00     0.191 HD
HETATM    6  C7  UNL     1       4.289   0.546  -1.302  1.00  0.00     0.306 A 
HETATM    7  O1  UNL     1       5.395   0.694  -1.907  1.00  0.00    -0.263 OA
HETATM    8  C8  UNL     1       4.255  -0.109  -0.099  1.00  0.00     0.208 A 
HETATM    9  N9  UNL     1       3.057  -0.245   0.512  1.00  0.00    -0.069 N 
ENDROOT
BRANCH   1  10
HETATM   10  N5  UNL     1       0.714   0.066   0.653  1.00  0.00    -0.131 N 
ATOM     11  H5  UNL     1       0.671  -0.419   1.549  1.00  0.00     0.201 HD
BRANCH  10  12
HETATM   12  N4  UNL     1      -0.432   0.589   0.048  1.00  0.00    -0.085 NA
BRANCH  12  13
HETATM   13  C5  UNL     1      -1.646  -0.050   0.521  1.00  0.00     0.364 C 
HETATM   14  C2  UNL     1      -2.780   0.591  -0.194  1.00  0.00     0.121 C 
HETATM   15  N1  UNL     1      -2.896   1.870  -0.368  1.00  0.00    -0.381 N 
HETATM   16  N2  UNL     1      -3.787  -0.268  -0.710  1.00  0.00    -0.376 N 
HETATM   17  C1  UNL     1      -1.945   2.847   0.106  1.00  0.00     0.147 C 
ATOM     18  H1  UNL     1      -3.714   2.209  -0.874  1.00  0.00     0.160 HD
HETATM   19  C3  UNL     1      -4.029  -1.504   0.004  1.00  0.00     0.148 C 
ATOM     20  H2  UNL     1      -4.316  -0.025  -1.547  1.00  0.00     0.160 HD
HETATM   21  C4  UNL     1      -2.739  -2.183   0.353  1.00  0.00     0.254 C 
HETATM   22  N3  UNL     1      -1.567  -1.434   0.045  1.00  0.00    -0.047 N 
ATOM     23  H32 UNL     1      -0.731  -1.898   0.400  1.00  0.00     0.279 HD
ATOM     24  H31 UNL     1      -1.361  -1.468  -0.953  1.00  0.00     0.279 HD
ENDBRANCH  12  13
ENDBRANCH  10  12
ENDBRANCH   1  10
BRANCH   9  25
HETATM   25  N10 UNL     1       3.050  -0.922   1.748  1.00  0.00    -0.322 N 
ATOM     26 2H10 UNL     1       2.146  -1.025   2.209  1.00  0.00     0.178 HD
ATOM     27 1H10 UNL     1       3.901  -1.294   2.169  1.00  0.00     0.178 HD
ENDBRANCH   9  25
BRANCH   8  28
HETATM   28  N8  UNL     1       5.322  -0.592   0.459  1.00  0.00    -0.379 N 
ATOM     29  H82 UNL     1       6.226  -0.489  -0.002  1.00  0.00     0.158 HD
ATOM     30  H81 UNL     1       5.297  -1.080   1.355  1.00  0.00     0.158 HD
ENDBRANCH   8  28
TORSDOF 5
