REMARK  13 active torsions:
REMARK  status: ('A' for Active; 'I' for Inactive)
REMARK    1  A    between atoms: C2_3  and  N2_4 
REMARK    2  A    between atoms: N2_4  and  C3_6 
REMARK    3  A    between atoms: N6_13  and  N7_14 
REMARK    4  A    between atoms: C5_17  and  N8_18 
REMARK    5  A    between atoms: N8_18  and  C6_20 
REMARK    6  A    between atoms: C6_20  and  O1_21 
REMARK    7  A    between atoms: C6_20  and  O2_23 
REMARK    8  A    between atoms: C7_25  and  N9_26 
REMARK    9  A    between atoms: N9_26  and  C8_28 
REMARK   10  A    between atoms: C8_28  and  N10_29 
REMARK   11  A    between atoms: C8_28  and  C9_33 
REMARK   12  A    between atoms: C9_33  and  C10_34 
REMARK   13  A    between atoms: C10_34  and  O3_37 
ROOT
HETATM    1  C1  UNL     1      -3.927   1.582  -1.433  1.00  0.00     0.163 C 
HETATM    2  N1  UNL     1      -2.522   1.179  -1.237  1.00  0.00    -0.288 N 
HETATM    3  C2  UNL     1      -2.076   0.502  -0.179  1.00  0.00     0.143 A 
HETATM    4  C5  UNL     1      -0.708   0.294   0.054  1.00  0.00     0.121 A 
HETATM    5  C7  UNL     1       0.208   0.794  -0.852  1.00  0.00     0.137 A 
HETATM    6  N11 UNL     1      -0.312   1.481  -1.932  1.00  0.00    -0.292 N 
ATOM      7  H11 UNL     1       0.335   1.865  -2.621  1.00  0.00     0.172 HD
HETATM    8  C13 UNL     1      -1.613   1.665  -2.115  1.00  0.00     0.329 A 
HETATM    9  O4  UNL     1      -2.062   2.305  -3.120  1.00  0.00    -0.246 OA
ENDROOT
BRANCH   3  10
HETATM   10  N2  UNL     1      -2.964  -0.246   0.608  1.00  0.00    -0.321 N 
ATOM     11  H2  UNL     1      -2.723  -0.291   1.598  1.00  0.00     0.169 HD
BRANCH  10  12
HETATM   12  C3  UNL     1      -4.138  -0.948   0.252  1.00  0.00     0.190 A 
HETATM   13  C4  UNL     1      -5.165  -1.178   1.196  1.00  0.00     0.180 A 
HETATM   14  N3  UNL     1      -5.222  -0.661   2.514  1.00  0.00    -0.077 NA
HETATM   15  N4  UNL     1      -6.040  -1.975   0.569  1.00  0.00    -0.268 N 
HETATM   16  N5  UNL     1      -5.628  -2.235  -0.646  1.00  0.00    -0.219 N 
ATOM     17  H4  UNL     1      -6.904  -2.329   0.980  1.00  0.00     0.190 HD
HETATM   18  N6  UNL     1      -4.464  -1.617  -0.857  1.00  0.00    -0.168 N 
ATOM     19  H5  UNL     1      -6.119  -2.818  -1.324  1.00  0.00     0.210 HD
BRANCH  18  20
HETATM   20  N7  UNL     1      -3.685  -1.759  -2.022  1.00  0.00    -0.321 N 
ATOM     21  H72 UNL     1      -2.795  -1.287  -2.183  1.00  0.00     0.179 HD
ATOM     22  H71 UNL     1      -3.934  -2.270  -2.869  1.00  0.00     0.179 HD
ENDBRANCH  18  20
ENDBRANCH  10  12
ENDBRANCH   3  10
BRANCH   4  23
HETATM   23  N8  UNL     1      -0.233  -0.355   1.254  1.00  0.00    -0.336 N 
ATOM     24  H8  UNL     1      -0.104  -1.367   1.280  1.00  0.00     0.164 HD
BRANCH  23  25
HETATM   25  C6  UNL     1       0.055   0.448   2.409  1.00  0.00     0.366 C 
BRANCH  25  26
HETATM   26  O1  UNL     1       0.613   1.698   2.137  1.00  0.00    -0.355 OA
ATOM     27  H1  UNL     1       0.804   2.229   2.901  1.00  0.00     0.214 HD
ENDBRANCH  25  26
BRANCH  25  28
HETATM   28  O2  UNL     1      -0.937   0.636   3.337  1.00  0.00    -0.355 OA
ATOM     29  H2  UNL     1      -0.746   1.167   4.101  1.00  0.00     0.214 HD
ENDBRANCH  25  28
ENDBRANCH  23  25
ENDBRANCH   4  23
BRANCH   5  30
HETATM   30  N9  UNL     1       1.423   0.594  -0.827  1.00  0.00    -0.347 N 
ATOM     31  H9  UNL     1       1.782   1.109  -1.631  1.00  0.00     0.163 HD
BRANCH  30  32
HETATM   32  C8  UNL     1       2.522   0.033  -0.267  1.00  0.00     0.285 C 
BRANCH  32  33
HETATM   33  N10 UNL     1       2.448  -1.428  -0.312  1.00  0.00    -0.058 N 
ATOM     34 3H10 UNL     1       1.590  -1.774   0.117  1.00  0.00     0.276 HD
ATOM     35 2H10 UNL     1       2.295  -1.767  -1.262  1.00  0.00     0.276 HD
ATOM     36 1H10 UNL     1       3.275  -1.850   0.110  1.00  0.00     0.276 HD
ENDBRANCH  32  33
BRANCH  32  37
HETATM   37  C9  UNL     1       3.805   0.491  -0.992  1.00  0.00     0.091 C 
BRANCH  37  38
HETATM   38  C10 UNL     1       5.041  -0.098  -0.401  1.00  0.00     0.054 C 
HETATM   39  C11 UNL     1       5.126  -1.591  -0.423  1.00  0.00     0.045 C 
HETATM   40  C12 UNL     1       5.222   0.347   1.059  1.00  0.00     0.045 C 
BRANCH  38  41
HETATM   41  O3  UNL     1       6.153   0.390  -1.129  1.00  0.00    -0.391 OA
ATOM     42  H3  UNL     1       6.940   0.015  -0.753  1.00  0.00     0.210 HD
ENDBRANCH  38  41
ENDBRANCH  37  38
ENDBRANCH  32  37
ENDBRANCH  30  32
ENDBRANCH   5  30
TORSDOF 13
