REMARK  4 active torsions:
REMARK  status: ('A' for Active; 'I' for Inactive)
REMARK    1  A    between atoms: N1_7  and  C7_8 
REMARK    2  A    between atoms: C7_8  and  C8_9 
REMARK    3  A    between atoms: C8_9  and  N2_10 
REMARK    4  A    between atoms: C8_9  and  N3_14 
ROOT
HETATM    1  C7  UNL     1       1.582  -0.777  -0.370  1.00  0.00     0.189 C 
ENDROOT
BRANCH   1   2
HETATM    2  N1  UNL     1       0.574   0.172   0.015  1.00  0.00    -0.369 N 
HETATM    3  C6  UNL     1       0.408   0.247   1.408  1.00  0.00     0.063 C 
HETATM    4  C5  UNL     1      -0.907   0.905   1.797  1.00  0.00     0.046 C 
HETATM    5  C4  UNL     1      -1.970  -0.054   1.251  1.00  0.00     0.019 C 
HETATM    6  C2  UNL     1      -1.887   0.028  -0.247  1.00  0.00    -0.015 C 
HETATM    7  C1  UNL     1      -2.759   1.228  -0.654  1.00  0.00     0.020 C 
HETATM    8  C3  UNL     1      -2.671  -1.185  -0.776  1.00  0.00     0.020 C 
HETATM    9  C9  UNL     1      -0.538   0.106  -0.823  1.00  0.00     0.072 C 
ENDBRANCH   1   2
BRANCH   1  10
HETATM   10  C8  UNL     1       2.977  -0.376   0.017  1.00  0.00     0.395 C 
BRANCH  10  11
HETATM   11  N2  UNL     1       3.406   0.862  -0.561  1.00  0.00    -0.049 N 
ATOM     12  H23 UNL     1       3.308   0.837  -1.576  1.00  0.00     0.276 HD
ATOM     13  H22 UNL     1       2.745   1.608  -0.343  1.00  0.00     0.276 HD
ATOM     14  H21 UNL     1       4.353   1.134  -0.298  1.00  0.00     0.276 HD
ENDBRANCH  10  11
BRANCH  10  15
HETATM   15  N3  UNL     1       3.867  -1.439  -0.454  1.00  0.00    -0.049 N 
ATOM     16  H33 UNL     1       3.605  -2.364  -0.113  1.00  0.00     0.276 HD
ATOM     17  H32 UNL     1       3.767  -1.636  -1.450  1.00  0.00     0.276 HD
ATOM     18  H31 UNL     1       4.814  -1.167  -0.191  1.00  0.00     0.276 HD
ENDBRANCH  10  15
ENDBRANCH   1  10
TORSDOF 4
