REMARK  4 active torsions:
REMARK  status: ('A' for Active; 'I' for Inactive)
REMARK       I    between atoms: N1_2  and  C2_4 
REMARK       I    between atoms: C2_4  and  N2_5 
REMARK    1  A    between atoms: N2_5  and  O1_7 
REMARK    2  A    between atoms: N3_9  and  C3_11 
REMARK    3  A    between atoms: C3_11  and  O2_13 
REMARK    4  A    between atoms: O2_13  and  C4_14 
ROOT
HETATM    1  C1  UNL     1       4.468   0.418  -0.363  1.00  0.00     0.165 C 
HETATM    2  N1  UNL     1       3.397   0.831   0.519  1.00  0.00    -0.229 N 
ATOM      3  H1  UNL     1       3.409   1.748   0.965  1.00  0.00     0.177 HD
HETATM    4  C2  UNL     1       2.328  -0.078   0.745  1.00  0.00     0.700 C 
HETATM    5  N2  UNL     1       2.616  -1.464   0.733  1.00  0.00    -0.099 N 
ATOM      6  H2  UNL     1       2.844  -1.912   1.621  1.00  0.00     0.213 HD
HETATM    7  N3  UNL     1       1.165   0.385   0.948  1.00  0.00    -0.159 N 
ATOM      8  H3  UNL     1       1.067   1.400   0.937  1.00  0.00     0.187 HD
ENDROOT
BRANCH   7   9
HETATM    9  C3  UNL     1      -0.004  -0.361   1.187  1.00  0.00     0.229 C 
HETATM   10  S1  UNL     1       0.113  -1.918   1.624  1.00  0.00    -0.032 SA
BRANCH   9  11
HETATM   11  O2  UNL     1      -1.224   0.206   1.057  1.00  0.00    -0.316 OA
BRANCH  11  12
HETATM   12  C4  UNL     1      -2.129   0.094   0.015  1.00  0.00     0.059 C 
HETATM   13  C5  UNL     1      -1.565   0.587  -1.314  1.00  0.00     0.045 C 
HETATM   14  C6  UNL     1      -3.310   1.008   0.341  1.00  0.00     0.045 C 
HETATM   15  C7  UNL     1      -2.678  -1.308  -0.162  1.00  0.00     0.045 C 
ENDBRANCH  11  12
ENDBRANCH   9  11
ENDBRANCH   7   9
BRANCH   5  16
HETATM   16  O1  UNL     1       2.609  -2.172  -0.291  1.00  0.00    -0.276 OA
ATOM     17  H1  UNL     1       2.802  -3.102  -0.299  1.00  0.00     0.245 HD
ENDBRANCH   5  16
TORSDOF 4
