REMARK  10 active torsions:
REMARK  status: ('A' for Active; 'I' for Inactive)
REMARK    1  A    between atoms: N5_15  and  C6_16 
REMARK    2  A    between atoms: C7_18  and  C8_19 
REMARK    3  A    between atoms: C8_19  and  O2_20 
REMARK    4  A    between atoms: C9_22  and  C10_23 
REMARK    5  A    between atoms: C10_23  and  C11_24 
REMARK    6  A    between atoms: C10_23  and  N7_29 
REMARK    7  A    between atoms: C11_24  and  N6_25 
REMARK    8  A    between atoms: N7_29  and  C12_31 
REMARK    9  A    between atoms: C12_31  and  C13_32 
REMARK   10  A    between atoms: C13_32  and  N8_33 
ROOT
HETATM    1  C6  UNL     1       1.326  -0.773  -0.348  1.00  0.00     0.380 C 
HETATM    2  O1  UNL     1       1.108  -1.927  -1.084  1.00  0.00    -0.333 OA
HETATM    3  C7  UNL     1      -0.252  -2.164  -0.896  1.00  0.00     0.181 C 
HETATM    4  C9  UNL     1      -0.854  -0.803  -0.809  1.00  0.00     0.181 C 
HETATM    5  O3  UNL     1       0.255   0.039  -0.752  1.00  0.00    -0.333 OA
ENDROOT
BRANCH   1   6
HETATM    6  N5  UNL     1       2.596  -0.164  -0.648  1.00  0.00    -0.277 N 
HETATM    7  C3  UNL     1       3.390   0.438   0.254  1.00  0.00     0.144 A 
HETATM    8  N3  UNL     1       3.284   0.652   1.574  1.00  0.00    -0.336 N 
HETATM    9  C4  UNL     1       4.523   0.904  -0.395  1.00  0.00     0.122 A 
HETATM   10  C2  UNL     1       4.206   1.289   2.310  1.00  0.00     0.183 A 
ATOM     11  H3  UNL     1       2.449   0.308   2.048  1.00  0.00     0.168 HD
HETATM   12  N2  UNL     1       5.297   1.737   1.682  1.00  0.00    -0.337 N 
HETATM   13  C1  UNL     1       5.471   1.558   0.356  1.00  0.00     0.131 A 
ATOM     14  H2  UNL     1       6.015   2.226   2.217  1.00  0.00     0.168 HD
HETATM   15  N1  UNL     1       6.549   2.012  -0.214  1.00  0.00    -0.383 N 
ATOM     16  H12 UNL     1       7.252   2.497   0.343  1.00  0.00     0.157 HD
ATOM     17  H11 UNL     1       6.681   1.877  -1.216  1.00  0.00     0.157 HD
HETATM   18  N4  UNL     1       4.387   0.568  -1.692  1.00  0.00    -0.346 N 
HETATM   19  C5  UNL     1       3.215  -0.079  -1.836  1.00  0.00     0.190 A 
ATOM     20  H4  UNL     1       5.055   0.769  -2.436  1.00  0.00     0.167 HD
ENDBRANCH   1   6
BRANCH   3  21
HETATM   21  C8  UNL     1      -0.753  -2.950  -2.098  1.00  0.00     0.199 C 
BRANCH  21  22
HETATM   22  O2  UNL     1      -0.083  -4.160  -2.225  1.00  0.00    -0.398 OA
ATOM     23  H2  UNL     1      -0.396  -4.651  -2.976  1.00  0.00     0.209 HD
ENDBRANCH  21  22
ENDBRANCH   3  21
BRANCH   4  24
HETATM   24  C10 UNL     1      -1.706  -0.606   0.447  1.00  0.00     0.133 C 
BRANCH  24  25
HETATM   25  C11 UNL     1      -2.926  -1.480   0.399  1.00  0.00     0.256 C 
BRANCH  25  26
HETATM   26  N6  UNL     1      -3.691  -1.092  -0.775  1.00  0.00    -0.077 N 
ATOM     27  H63 UNL     1      -3.913  -0.097  -0.795  1.00  0.00     0.274 HD
ATOM     28  H62 UNL     1      -3.144  -1.123  -1.635  1.00  0.00     0.274 HD
ATOM     29  H61 UNL     1      -4.520  -1.686  -0.808  1.00  0.00     0.274 HD
ENDBRANCH  25  26
ENDBRANCH  24  25
BRANCH  24  30
HETATM   30  N7  UNL     1      -2.116   0.763   0.500  1.00  0.00    -0.411 N 
ATOM     31  H7  UNL     1      -1.778   1.459  -0.165  1.00  0.00     0.153 HD
BRANCH  30  32
HETATM   32  C12 UNL     1      -3.029   1.090   1.545  1.00  0.00     0.141 C 
BRANCH  32  33
HETATM   33  C13 UNL     1      -3.326   2.581   1.493  1.00  0.00     0.248 C 
BRANCH  33  34
HETATM   34  N8  UNL     1      -3.907   2.965   0.239  1.00  0.00    -0.078 N 
ATOM     35  H83 UNL     1      -3.323   2.675  -0.545  1.00  0.00     0.274 HD
ATOM     36  H82 UNL     1      -4.739   2.413   0.031  1.00  0.00     0.274 HD
ATOM     37  H81 UNL     1      -4.106   3.965   0.204  1.00  0.00     0.274 HD
ENDBRANCH  33  34
ENDBRANCH  32  33
ENDBRANCH  30  32
ENDBRANCH  24  30
ENDBRANCH   4  24
TORSDOF 10
