REMARK  6 active torsions:
REMARK  status: ('A' for Active; 'I' for Inactive)
REMARK    1  A    between atoms: N1_1  and  N2_4 
REMARK    2  A    between atoms: N2_4  and  C1_6 
REMARK    3  A    between atoms: N3_7  and  C2_8 
REMARK    4  A    between atoms: C5_11  and  N4_12 
REMARK    5  A    between atoms: C8_19  and  C9_20 
REMARK    6  A    between atoms: N8_27  and  N9_28 
ROOT
HETATM    1  C1  UNL     1      -0.397  -1.256   0.005  1.00  0.00     0.740 A 
HETATM    2  N3  UNL     1       0.223  -0.073   0.004  1.00  0.00    -0.082 N 
HETATM    3  N5  UNL     1      -0.706   0.855   0.048  1.00  0.00    -0.260 N 
ATOM      4  H5  UNL     1      -0.521   1.858   0.058  1.00  0.00     0.190 HD
HETATM    5  C8  UNL     1      -1.948   0.299   0.079  1.00  0.00     0.188 A 
HETATM    6  N8  UNL     1      -1.722  -1.025   0.051  1.00  0.00    -0.069 N 
ENDROOT
BRANCH   2   7
HETATM    7  C2  UNL     1       1.620   0.217  -0.037  1.00  0.00     0.075 A 
HETATM    8  C3  UNL     1       2.195   0.977   0.956  1.00  0.00     0.034 A 
HETATM    9  C4  UNL     1       3.545   1.253   0.912  1.00  0.00     0.038 A 
HETATM   10  C5  UNL     1       4.345   0.788  -0.106  1.00  0.00     0.103 A 
HETATM   11  C6  UNL     1       3.736   0.034  -1.077  1.00  0.00     0.038 A 
HETATM   12  C7  UNL     1       2.394  -0.260  -1.064  1.00  0.00     0.034 A 
BRANCH  10  13
HETATM   13  N4  UNL     1       5.735   1.058  -0.175  1.00  0.00    -0.116 N 
HETATM   14  O1  UNL     1       6.409   0.610  -1.121  1.00  0.00    -0.532 OA
HETATM   15  O2  UNL     1       6.379   1.806   0.774  1.00  0.00    -0.532 OA
ENDBRANCH  10  13
ENDBRANCH   2   7
BRANCH   1  16
HETATM   16  N2  UNL     1       0.218  -2.382  -0.032  1.00  0.00    -0.135 N 
ATOM     17  H2  UNL     1       1.237  -2.358  -0.064  1.00  0.00     0.205 HD
BRANCH  16  18
HETATM   18  N1  UNL     1      -0.387  -3.623  -0.032  1.00  0.00    -0.331 N 
ATOM     19  H12 UNL     1      -1.406  -3.627   0.000  1.00  0.00     0.177 HD
ATOM     20  H11 UNL     1       0.102  -4.518  -0.061  1.00  0.00     0.177 HD
ENDBRANCH  16  18
ENDBRANCH   1  16
BRANCH   6  21
HETATM   21  N9  UNL     1      -2.659  -2.054   0.065  1.00  0.00    -0.322 N 
ATOM     22  H92 UNL     1      -2.487  -3.059   0.044  1.00  0.00     0.178 HD
ATOM     23  H91 UNL     1      -3.663  -1.879   0.100  1.00  0.00     0.178 HD
ENDBRANCH   6  21
BRANCH   5  24
HETATM   24  C9  UNL     1      -3.227   0.990   0.130  1.00  0.00     0.097 A 
HETATM   25  C10 UNL     1      -4.488   0.452   0.162  1.00  0.00     0.122 A 
HETATM   26  N6  UNL     1      -5.389   1.452   0.206  1.00  0.00    -0.360 N 
HETATM   27  C11 UNL     1      -4.713   2.621   0.203  1.00  0.00     0.180 A 
ATOM     28  H6  UNL     1      -6.403   1.345   0.236  1.00  0.00     0.166 HD
HETATM   29  N7  UNL     1      -3.385   2.324   0.156  1.00  0.00    -0.348 N 
ATOM     30  H7  UNL     1      -2.628   3.008   0.143  1.00  0.00     0.167 HD
ENDBRANCH   5  24
TORSDOF 6
