REMARK  14 active torsions:
REMARK  status: ('A' for Active; 'I' for Inactive)
REMARK    1  A    between atoms: O1_2  and  C2_3 
REMARK    2  A    between atoms: C3_5  and  C4_6 
REMARK    3  A    between atoms: C4_6  and  S1_7 
REMARK    4  A    between atoms: N1_12  and  C8_13 
REMARK    5  A    between atoms: C9_15  and  O4_16 
REMARK    6  A    between atoms: C9_15  and  C10_18 
REMARK    7  A    between atoms: C10_18  and  O5_19 
REMARK    8  A    between atoms: C11_21  and  O6_22 
REMARK    9  A    between atoms: C12_24  and  O7_25 
REMARK   10  A    between atoms: C12_24  and  C13_27 
REMARK   11  A    between atoms: C13_27  and  O8_28 
REMARK   12  A    between atoms: C14_30  and  O9_31 
REMARK   13  A    between atoms: O9_31  and  N2_32 
REMARK   14  A    between atoms: N2_32  and  O10_36 
ROOT
HETATM    1  C8  UNL     1      -0.736  -0.762  -0.399  1.00  0.00     0.399 C 
HETATM    2  O3  UNL     1      -0.919   0.131  -1.439  1.00  0.00    -0.313 OA
HETATM    3  C9  UNL     1      -2.204   0.143  -1.943  1.00  0.00     0.215 C 
HETATM    4  C11 UNL     1      -3.290   0.207  -0.939  1.00  0.00     0.222 C 
HETATM    5  C12 UNL     1      -3.055  -0.711   0.237  1.00  0.00     0.142 C 
HETATM    6  C14 UNL     1      -1.642  -0.381   0.745  1.00  0.00     0.255 C 
ENDROOT
BRANCH   1   7
HETATM    7  N1  UNL     1       0.637  -0.893  -0.105  1.00  0.00     0.146 N 
HETATM    8  C6  UNL     1       1.476   0.165   0.356  1.00  0.00     0.300 A 
HETATM    9  C3  UNL     1       2.895   0.284  -0.157  1.00  0.00     0.171 C 
HETATM   10  C7  UNL     1       1.194  -0.979   1.199  1.00  0.00     0.329 A 
HETATM   11  O2  UNL     1       3.378  -0.855  -0.744  1.00  0.00    -0.344 OA
HETATM   12  C2  UNL     1       3.792  -1.838   0.120  1.00  0.00     0.327 C 
HETATM   13  S2  UNL     1       2.542  -2.171   1.378  1.00  0.00    -0.071 SA
BRANCH   9  14
HETATM   14  C4  UNL     1       3.824   0.816   0.910  1.00  0.00     0.108 C 
BRANCH  14  15
HETATM   15  S1  UNL     1       3.171   2.320   1.676  1.00  0.00    -0.171 SA
HETATM   16  C5  UNL     1       3.117   3.682   0.486  1.00  0.00     0.089 C 
ENDBRANCH  14  15
ENDBRANCH   9  14
BRANCH  12  17
HETATM   17  O1  UNL     1       3.980  -3.018  -0.603  1.00  0.00    -0.357 OA
HETATM   18  C1  UNL     1       5.271  -3.523  -0.426  1.00  0.00     0.206 C 
ENDBRANCH  12  17
ENDBRANCH   1   7
BRANCH   6  19
HETATM   19  O9  UNL     1      -1.648   1.005   0.993  1.00  0.00    -0.226 OA
BRANCH  19  20
HETATM   20  N2  UNL     1      -1.469   1.549   2.233  1.00  0.00    -0.061 N 
HETATM   21  N3  UNL     1      -1.583   0.903   3.313  1.00  0.00    -0.298 N 
ATOM     22  H32 UNL     1      -1.826  -0.082   3.204  1.00  0.00     0.181 HD
ATOM     23  H31 UNL     1      -1.449   1.309   4.239  1.00  0.00     0.181 HD
BRANCH  20  24
HETATM   24  O10 UNL     1      -1.138   2.891   2.382  1.00  0.00    -0.248 OA
ATOM     25  H10 UNL     1      -1.013   3.269   3.244  1.00  0.00     0.249 HD
ENDBRANCH  20  24
ENDBRANCH  19  20
ENDBRANCH   6  19
BRANCH   3  26
HETATM   26  O4  UNL     1      -2.444  -0.958  -2.785  1.00  0.00    -0.362 OA
ATOM     27  H4  UNL     1      -3.328  -0.950  -3.132  1.00  0.00     0.213 HD
ENDBRANCH   3  26
BRANCH   3  28
HETATM   28  C10 UNL     1      -2.307   1.366  -2.833  1.00  0.00     0.235 C 
BRANCH  28  29
HETATM   29  O5  UNL     1      -2.059   2.517  -2.110  1.00  0.00    -0.395 OA
ATOM     30  H5  UNL     1      -2.124   3.283  -2.668  1.00  0.00     0.209 HD
ENDBRANCH  28  29
ENDBRANCH   3  28
BRANCH   5  31
HETATM   31  O7  UNL     1      -3.013  -2.011  -0.203  1.00  0.00    -0.382 OA
ATOM     32  H7  UNL     1      -2.865  -2.588   0.537  1.00  0.00     0.210 HD
ENDBRANCH   5  31
BRANCH   5  33
HETATM   33  C13 UNL     1      -4.090  -0.587   1.293  1.00  0.00     0.207 C 
BRANCH  33  34
HETATM   34  O8  UNL     1      -5.335  -0.959   0.750  1.00  0.00    -0.398 OA
ATOM     35  H8  UNL     1      -5.998  -0.880   1.426  1.00  0.00     0.209 HD
ENDBRANCH  33  34
ENDBRANCH   5  33
BRANCH   4  36
HETATM   36  O6  UNL     1      -3.543   1.503  -0.571  1.00  0.00    -0.387 OA
ATOM     37  H6  UNL     1      -4.240   1.544   0.073  1.00  0.00     0.210 HD
ENDBRANCH   4  36
TORSDOF 14
