REMARK  18 active torsions:
REMARK  status: ('A' for Active; 'I' for Inactive)
REMARK    1  A    between atoms: C2_2  and  C3_3 
REMARK    2  A    between atoms: C2_2  and  C13_18 
REMARK    3  A    between atoms: C3_3  and  O1_4 
REMARK    4  A    between atoms: C3_3  and  C4_6 
REMARK    5  A    between atoms: C4_6  and  O2_7 
REMARK    6  A    between atoms: C4_6  and  C5_9 
REMARK    7  A    between atoms: C5_9  and  C6_10 
REMARK    8  A    between atoms: C6_10  and  C7_11 
REMARK    9  A    between atoms: C7_11  and  C8_12 
REMARK   10  A    between atoms: C13_18  and  O4_19 
REMARK   11  A    between atoms: C13_18  and  C14_21 
REMARK   12  A    between atoms: C14_21  and  C17_24 
REMARK   13  A    between atoms: C17_24  and  O5_25 
REMARK   14  A    between atoms: C17_24  and  C18_27 
REMARK   15  A    between atoms: C18_27  and  N1_28 
REMARK   16  A    between atoms: N1_28  and  N2_30 
REMARK   17  A    between atoms: N2_30  and  N3_31 
REMARK   18  A    between atoms: C22_37  and  C23_38 
ROOT
HETATM    1  C14 UNL     1      -2.409   0.850  -0.637  1.00  0.00     0.008 C 
HETATM    2  C15 UNL     1      -2.238   1.122   0.811  1.00  0.00     0.020 C 
HETATM    3  C16 UNL     1      -3.048   2.182  -1.142  1.00  0.00     0.020 C 
ENDROOT
BRANCH   1   4
HETATM    4  C13 UNL     1      -1.196   0.692  -1.488  1.00  0.00     0.134 C 
BRANCH   4   5
HETATM    5  C2  UNL     1      -0.190  -0.345  -1.264  1.00  0.00     0.042 C 
HETATM    6  C1  UNL     1       0.487  -0.684  -2.649  1.00  0.00     0.015 C 
BRANCH   5   7
HETATM    7  C3  UNL     1       1.060   0.186  -0.512  1.00  0.00     0.153 C 
BRANCH   7   8
HETATM    8  O1  UNL     1       0.733   0.543   0.761  1.00  0.00    -0.393 OA
ATOM      9  H1  UNL     1       1.498   0.868   1.221  1.00  0.00     0.210 HD
ENDBRANCH   7   8
BRANCH   7  10
HETATM   10  C4  UNL     1       2.104  -0.902  -0.442  1.00  0.00     0.147 C 
BRANCH  10  11
HETATM   11  O2  UNL     1       1.608  -2.039   0.206  1.00  0.00    -0.393 OA
ATOM     12  H2  UNL     1       2.265  -2.724   0.250  1.00  0.00     0.210 HD
ENDBRANCH  10  11
BRANCH  10  13
HETATM   13  C5  UNL     1       3.221  -0.398   0.487  1.00  0.00     0.034 C 
BRANCH  13  14
HETATM   14  C6  UNL     1       3.817   0.858  -0.063  1.00  0.00     0.005 C 
BRANCH  14  15
HETATM   15  C7  UNL     1       4.915   1.464   0.738  1.00  0.00     0.032 C 
BRANCH  15  16
HETATM   16  C8  UNL     1       6.129   0.641   0.956  1.00  0.00     0.121 C 
HETATM   17  C9  UNL     1       6.819   0.222  -0.325  1.00  0.00     0.032 C 
HETATM   18  C10 UNL     1       8.202  -0.294   0.051  1.00  0.00     0.004 C 
HETATM   19  C11 UNL     1       8.160  -1.231   1.215  1.00  0.00     0.026 C 
HETATM   20  C12 UNL     1       7.164  -0.861   2.270  1.00  0.00     0.168 C 
HETATM   21  O3  UNL     1       5.928  -0.474   1.744  1.00  0.00    -0.386 OA
ENDBRANCH  15  16
ENDBRANCH  14  15
ENDBRANCH  13  14
ENDBRANCH  10  13
ENDBRANCH   7  10
ENDBRANCH   5   7
ENDBRANCH   4   5
BRANCH   4  22
HETATM   22  O4  UNL     1      -0.602   1.877  -1.940  1.00  0.00    -0.394 OA
ATOM     23  H4  UNL     1      -1.256   2.551  -2.086  1.00  0.00     0.210 HD
ENDBRANCH   4  22
ENDBRANCH   1   4
BRANCH   1  24
HETATM   24  C17 UNL     1      -3.309  -0.297  -0.990  1.00  0.00     0.166 C 
BRANCH  24  25
HETATM   25  O5  UNL     1      -3.555  -0.083  -2.391  1.00  0.00    -0.392 OA
ATOM     26  H5  UNL     1      -4.125  -0.809  -2.615  1.00  0.00     0.210 HD
ENDBRANCH  24  25
BRANCH  24  27
HETATM   27  C18 UNL     1      -4.601  -0.514  -0.387  1.00  0.00     0.146 C 
HETATM   28  C19 UNL     1      -5.641   0.529  -0.521  1.00  0.00     0.044 C 
HETATM   29  C20 UNL     1      -6.974  -0.137  -0.127  1.00  0.00     0.004 C 
HETATM   30  C21 UNL     1      -6.976  -0.250   1.373  1.00  0.00     0.013 C 
HETATM   31  C22 UNL     1      -5.749  -0.888   1.929  1.00  0.00     0.072 C 
HETATM   32  C24 UNL     1      -4.662  -1.102   0.982  1.00  0.00     0.165 C 
HETATM   33  O6  UNL     1      -3.734  -1.813   1.322  1.00  0.00    -0.295 OA
BRANCH  27  34
HETATM   34  N1  UNL     1      -5.149  -1.678  -1.182  1.00  0.00    -0.233 N 
ATOM     35  H1  UNL     1      -6.030  -1.618  -1.693  1.00  0.00     0.198 HD
BRANCH  34  36
HETATM   36  N2  UNL     1      -4.476  -2.688  -1.174  1.00  0.00    -0.247 NA
BRANCH  36  37
HETATM   37  N3  UNL     1      -3.895  -3.771  -1.236  1.00  0.00    -0.261 N 
ATOM     38  H32 UNL     1      -4.732  -4.051  -1.747  1.00  0.00     0.193 HD
ATOM     39  H31 UNL     1      -3.329  -4.620  -1.229  1.00  0.00     0.193 HD
ENDBRANCH  36  37
ENDBRANCH  34  36
ENDBRANCH  27  34
BRANCH  31  40
HETATM   40  C23 UNL     1      -5.250  -0.061   3.090  1.00  0.00     0.127 C 
HETATM   41 CL1  UNL     1      -3.802  -0.719   3.851  1.00  0.00    -0.130 Cl
ENDBRANCH  31  40
ENDBRANCH  24  27
ENDBRANCH   1  24
TORSDOF 18
