REMARK  1 active torsions:
REMARK  status: ('A' for Active; 'I' for Inactive)
REMARK    1  A    between atoms: C2_2  and  C3_3 
ROOT
HETATM    1  C3  UNL     1      -1.888  -0.106  -1.289  1.00  0.00     0.197 A 
HETATM    2  N1  UNL     1      -1.670   1.286  -1.488  1.00  0.00    -0.312 N 
ATOM      3  H1  UNL     1      -2.444   1.819  -1.884  1.00  0.00     0.182 HD
HETATM    4  N2  UNL     1      -0.616   1.929  -1.224  1.00  0.00    -0.286 N 
ATOM      5  H2  UNL     1      -0.595   2.930  -1.418  1.00  0.00     0.188 HD
HETATM    6  C4  UNL     1       0.533   1.325  -0.673  1.00  0.00     0.150 A 
HETATM    7  N3  UNL     1       1.761   1.752  -0.300  1.00  0.00    -0.324 N 
ATOM      8  H3  UNL     1       2.094   2.714  -0.369  1.00  0.00     0.169 HD
HETATM    9  C5  UNL     1       2.473   0.723   0.173  1.00  0.00     0.138 A 
HETATM   10  N4  UNL     1       3.640   0.353   0.683  1.00  0.00    -0.317 N 
ATOM     11  H4  UNL     1       4.428   0.978   0.851  1.00  0.00     0.170 HD
HETATM   12  C6  UNL     1       3.634  -0.985   0.951  1.00  0.00     0.178 A 
HETATM   13  S1  UNL     1       4.835  -1.859   1.576  1.00  0.00    -0.040 SA
HETATM   14  N5  UNL     1       2.433  -1.457   0.597  1.00  0.00    -0.328 N 
ATOM     15  H5  UNL     1       2.124  -2.426   0.676  1.00  0.00     0.168 HD
HETATM   16  C7  UNL     1       1.707  -0.437   0.121  1.00  0.00     0.109 A 
HETATM   17  C8  UNL     1       0.486  -0.028  -0.418  1.00  0.00     0.106 A 
HETATM   18  N6  UNL     1      -0.709  -0.732  -0.722  1.00  0.00    -0.363 N 
ATOM     19  H6  UNL     1      -0.740  -1.733  -0.531  1.00  0.00     0.162 HD
ENDROOT
BRANCH   1  20
HETATM   20  C2  UNL     1      -3.127  -0.413  -0.482  1.00  0.00     0.043 C 
HETATM   21  C1  UNL     1      -3.087   0.191   0.892  1.00  0.00     0.009 C 
ENDBRANCH   1  20
TORSDOF 1
