REMARK  4 active torsions:
REMARK  status: ('A' for Active; 'I' for Inactive)
REMARK    1  A    between atoms: C2_2  and  C5_5 
REMARK    2  A    between atoms: C7_11  and  O1_12 
REMARK    3  A    between atoms: C9_15  and  N3_16 
REMARK    4  A    between atoms: C10_21  and  O2_22 
ROOT
HETATM    1  C5  UNL     1      -0.792   0.647  -0.295  1.00  0.00     0.049 A 
HETATM    2  N1  UNL     1      -0.714   1.849  -0.951  1.00  0.00    -0.303 N 
ATOM      3  H1  UNL     1      -1.521   2.334  -1.344  1.00  0.00     0.186 HD
HETATM    4  N2  UNL     1       0.500   2.299  -1.016  1.00  0.00    -0.297 N 
ATOM      5  H2  UNL     1       0.775   3.175  -1.461  1.00  0.00     0.187 HD
HETATM    6  C6  UNL     1       1.329   1.458  -0.422  1.00  0.00     0.096 A 
HETATM    7  C7  UNL     1       2.684   1.469  -0.223  1.00  0.00     0.097 A 
HETATM    8  C8  UNL     1       3.289   0.409   0.456  1.00  0.00     0.072 A 
HETATM    9  C9  UNL     1       2.522  -0.641   0.922  1.00  0.00     0.084 A 
HETATM   10  C10 UNL     1       1.158  -0.617   0.702  1.00  0.00     0.108 A 
HETATM   11  C11 UNL     1       0.534   0.404   0.043  1.00  0.00     0.055 A 
ENDROOT
BRANCH   9  12
HETATM   12  N3  UNL     1       3.084  -1.741   1.616  1.00  0.00    -0.304 N 
HETATM   13  N4  UNL     1       3.720  -2.596   0.920  1.00  0.00    -0.345 N 
ATOM     14  H42 UNL     1       3.812  -2.480  -0.089  1.00  0.00     0.176 HD
ATOM     15  H41 UNL     1       4.125  -3.388   1.420  1.00  0.00     0.176 HD
ATOM     16  H3  UNL     1       2.984  -1.843   2.626  1.00  0.00     0.186 HD
ENDBRANCH   9  12
BRANCH  10  17
HETATM   17  O2  UNL     1       0.417  -1.659   1.166  1.00  0.00    -0.357 OA
ATOM     18  H2  UNL     1      -0.521  -1.643   1.015  1.00  0.00     0.217 HD
ENDBRANCH  10  17
BRANCH   7  19
HETATM   19  O1  UNL     1       3.467   2.506  -0.679  1.00  0.00    -0.358 OA
ATOM     20  H1  UNL     1       4.407   2.514  -0.541  1.00  0.00     0.217 HD
ENDBRANCH   7  19
BRANCH   1  21
HETATM   21  C2  UNL     1      -1.996  -0.151  -0.026  1.00  0.00    -0.006 C 
HETATM   22  C1  UNL     1      -2.328  -0.400   1.403  1.00  0.00     0.021 C 
HETATM   23  C3  UNL     1      -2.163  -1.342  -0.926  1.00  0.00     0.021 C 
HETATM   24  C4  UNL     1      -3.174   0.738  -0.515  1.00  0.00     0.021 C 
ENDBRANCH   1  21
TORSDOF 4
