REMARK  2 active torsions:
REMARK  status: ('A' for Active; 'I' for Inactive)
REMARK    1  A    between atoms: C3_5  and  C4_6 
REMARK    2  A    between atoms: N1_12  and  C8_13 
ROOT
HETATM    1  O1  UNL     1      -0.641   3.201  -0.897  1.00  0.00    -0.272 OA
HETATM    2  C1  UNL     1      -1.287   2.166  -1.200  1.00  0.00     0.234 C 
HETATM    3  C2  UNL     1      -2.137   2.146  -2.419  1.00  0.00     0.179 C 
HETATM    4  S1  UNL     1      -3.395   0.917  -1.920  1.00  0.00    -0.129 SA
HETATM    5  C3  UNL     1      -2.695   0.555  -0.286  1.00  0.00     0.191 C 
HETATM    6  N1  UNL     1      -1.281   0.974  -0.463  1.00  0.00    -0.306 N 
ENDROOT
BRANCH   6   7
HETATM    7  C8  UNL     1      -0.154   0.248   0.064  1.00  0.00     0.002 C 
HETATM    8  C9  UNL     1       0.785  -0.369  -0.903  1.00  0.00     0.033 C 
HETATM    9  C10 UNL     1       1.441  -1.568  -0.196  1.00  0.00     0.015 C 
HETATM   10  C14 UNL     1       1.940   0.495  -1.322  1.00  0.00     0.015 C 
HETATM   11  C11 UNL     1       2.119  -1.039   1.040  1.00  0.00    -0.013 C 
HETATM   12  C12 UNL     1       3.278  -0.186   0.573  1.00  0.00     0.009 C 
HETATM   13  C17 UNL     1       1.191  -0.324   1.987  1.00  0.00     0.015 C 
HETATM   14  C13 UNL     1       2.681   1.034  -0.146  1.00  0.00    -0.013 C 
HETATM   15  C15 UNL     1       1.785   1.695   0.880  1.00  0.00     0.015 C 
HETATM   16  C16 UNL     1       0.586   0.876   1.208  1.00  0.00     0.033 C 
ENDBRANCH   6   7
BRANCH   5  17
HETATM   17  C4  UNL     1      -2.798  -0.894  -0.006  1.00  0.00     0.021 A 
HETATM   18  C5  UNL     1      -2.506  -1.934  -0.860  1.00  0.00     0.153 A 
HETATM   19  O2  UNL     1      -2.714  -3.089  -0.285  1.00  0.00    -0.332 OA
HETATM   20  C6  UNL     1      -3.141  -2.872   0.942  1.00  0.00     0.165 A 
HETATM   21  C7  UNL     1      -3.211  -1.503   1.166  1.00  0.00     0.067 A 
HETATM   22 CL1  UNL     1      -3.719  -0.718   2.633  1.00  0.00    -0.082 Cl
ENDBRANCH   5  17
TORSDOF 2
