REMARK  1 active torsions:
REMARK  status: ('A' for Active; 'I' for Inactive)
REMARK       I    between atoms: C1_2  and  N1_3 
REMARK    1  A    between atoms: C1_2  and  C9_17 
ROOT
HETATM    1  O1  UNL     1      -2.341  -2.512   1.547  1.00  0.00    -0.273 OA
HETATM    2  C1  UNL     1      -1.983  -1.377   1.181  1.00  0.00     0.227 C 
HETATM    3  N1  UNL     1      -0.746  -0.901   1.685  1.00  0.00    -0.308 N 
ATOM      4  H1  UNL     1      -0.691  -0.656   2.673  1.00  0.00     0.170 HD
HETATM    5  C2  UNL     1       0.308  -0.762   0.966  1.00  0.00     0.130 C 
HETATM    6  N2  UNL     1       0.481  -1.032  -0.411  1.00  0.00    -0.389 N 
ATOM      7  H2  UNL     1      -0.104  -1.686  -0.931  1.00  0.00     0.143 HD
HETATM    8  B1  UNL     1       1.601  -0.268  -1.030  1.00  0.00     0.514 B 
HETATM    9  F1  UNL     1       1.840  -0.098  -2.466  1.00  0.00    -0.311 F 
HETATM   10  C3  UNL     1       2.781   0.012   0.005  1.00  0.00     0.045 C 
HETATM   11  C4  UNL     1       3.299   1.396  -0.203  1.00  0.00     0.016 C 
HETATM   12  C5  UNL     1       4.582   1.679   0.505  1.00  0.00     0.001 C 
HETATM   13  C6  UNL     1       5.548   0.509   0.473  1.00  0.00     0.000 C 
HETATM   14  C7  UNL     1       5.096  -0.410  -0.644  1.00  0.00     0.001 C 
HETATM   15  C8  UNL     1       3.806  -1.061  -0.179  1.00  0.00     0.016 C 
HETATM   16  S1  UNL     1       1.880  -0.161   1.586  1.00  0.00    -0.090 SA
ENDROOT
BRANCH   2  17
HETATM   17  C9  UNL     1      -2.841  -0.593   0.258  1.00  0.00     0.078 C 
HETATM   18  C10 UNL     1      -4.053  -1.386  -0.069  1.00  0.00     0.014 C 
HETATM   19  C11 UNL     1      -5.178  -0.609  -0.663  1.00  0.00     0.001 C 
HETATM   20  C12 UNL     1      -5.364   0.754  -0.052  1.00  0.00     0.000 C 
HETATM   21  C13 UNL     1      -4.058   1.514   0.052  1.00  0.00     0.001 C 
HETATM   22  C14 UNL     1      -3.149   0.718   0.948  1.00  0.00     0.014 C 
ENDBRANCH   2  17
TORSDOF 1
