REMARK  6 active torsions:
REMARK  status: ('A' for Active; 'I' for Inactive)
REMARK    1  A    between atoms: C2_2  and  C3_3 
REMARK    2  A    between atoms: C2_2  and  N3_13 
REMARK    3  A    between atoms: C3_3  and  C4_4 
REMARK    4  A    between atoms: C9_16  and  C10_17 
REMARK    5  A    between atoms: C16_24  and  C17_25 
REMARK    6  A    between atoms: C22_30  and  C23_31 
ROOT
HETATM    1  N3  UNL     1       1.363   1.249  -0.423  1.00  0.00    -0.282 N 
HETATM    2  C8  UNL     1       0.897   1.932   0.727  1.00  0.00     0.236 C 
HETATM    3  O2  UNL     1       1.697   2.541   1.502  1.00  0.00    -0.272 OA
HETATM    4  C9  UNL     1      -0.551   1.757   0.753  1.00  0.00     0.129 C 
HETATM    5  C16 UNL     1      -0.831   0.518  -0.143  1.00  0.00     0.129 C 
HETATM    6  C27 UNL     1       0.211   0.760  -1.128  1.00  0.00     0.236 C 
HETATM    7  O3  UNL     1       0.180   0.603  -2.377  1.00  0.00    -0.272 OA
ENDROOT
BRANCH   1   8
HETATM    8  C2  UNL     1       2.727   1.080  -0.890  1.00  0.00     0.097 C 
HETATM    9  C1  UNL     1       3.156   2.539  -1.202  1.00  0.00     0.033 C 
BRANCH   8  10
HETATM   10  C3  UNL     1       3.692   0.616   0.149  1.00  0.00     0.084 C 
BRANCH  10  11
HETATM   11  C4  UNL     1       3.446  -0.787   0.499  1.00  0.00     0.028 A 
HETATM   12  C5  UNL     1       4.115  -1.400   1.537  1.00  0.00     0.032 A 
HETATM   13  C6  UNL     1       3.910  -2.736   1.837  1.00  0.00     0.077 A 
HETATM   14  C7  UNL     1       3.018  -3.456   1.075  1.00  0.00     0.259 A 
HETATM   15  O1  UNL     1       2.779  -4.683   1.290  1.00  0.00    -0.267 OA
HETATM   16  N1  UNL     1       2.372  -2.823   0.057  1.00  0.00    -0.266 N 
HETATM   17  N2  UNL     1       2.596  -1.542  -0.199  1.00  0.00    -0.302 N 
ATOM     18  H1  UNL     1       1.707  -3.342  -0.516  1.00  0.00     0.190 HD
ATOM     19  H2  UNL     1       2.091  -1.110  -0.972  1.00  0.00     0.186 HD
ENDBRANCH  10  11
ENDBRANCH   8  10
ENDBRANCH   1   8
BRANCH   4  20
HETATM   20  C10 UNL     1      -1.268   2.937   0.198  1.00  0.00    -0.044 A 
HETATM   21  C11 UNL     1      -2.446   3.338   0.774  1.00  0.00     0.010 A 
HETATM   22  C12 UNL     1      -3.156   4.434   0.307  1.00  0.00     0.024 A 
HETATM   23  C13 UNL     1      -2.682   5.152  -0.763  1.00  0.00     0.034 A 
HETATM   24 CL1  UNL     1      -3.517   6.557  -1.421  1.00  0.00    -0.084 Cl
HETATM   25  C14 UNL     1      -1.488   4.764  -1.365  1.00  0.00     0.024 A 
HETATM   26  C15 UNL     1      -0.800   3.654  -0.865  1.00  0.00     0.010 A 
ENDBRANCH   4  20
BRANCH   5  27
HETATM   27  C17 UNL     1      -0.888  -0.635   0.716  1.00  0.00    -0.037 A 
HETATM   28  C18 UNL     1      -0.305  -0.579   1.978  1.00  0.00     0.009 A 
HETATM   29  C19 UNL     1      -0.337  -1.610   2.892  1.00  0.00     0.001 A 
HETATM   30  C20 UNL     1      -0.978  -2.755   2.541  1.00  0.00     0.001 A 
HETATM   31  C21 UNL     1      -1.556  -2.822   1.299  1.00  0.00     0.008 A 
HETATM   32  C22 UNL     1      -1.551  -1.808   0.338  1.00  0.00    -0.043 A 
BRANCH  32  33
HETATM   33  C23 UNL     1      -2.172  -2.025  -0.969  1.00  0.00    -0.024 C 
HETATM   34  C24 UNL     1      -2.866  -3.429  -0.846  1.00  0.00     0.019 C 
HETATM   35  C25 UNL     1      -1.188  -2.359  -2.088  1.00  0.00     0.019 C 
HETATM   36  C26 UNL     1      -3.302  -1.164  -1.376  1.00  0.00     0.019 C 
ENDBRANCH  32  33
ENDBRANCH   5  27
TORSDOF 6
