REMARK  5 active torsions:
REMARK  status: ('A' for Active; 'I' for Inactive)
REMARK    1  A    between atoms: O1_2  and  C2_3 
REMARK    2  A    between atoms: C5_6  and  C6_7 
REMARK    3  A    between atoms: C7_8  and  C8_9 
REMARK    4  A    between atoms: C13_16  and  S1_17 
REMARK    5  A    between atoms: S1_17  and  N2_20 
ROOT
HETATM    1  C6  UNL     1      -1.536  -0.206   0.734  1.00  0.00    -0.032 C 
HETATM    2  C7  UNL     1      -0.368   0.111   1.337  1.00  0.00     0.029 C 
HETATM    3  C18 UNL     1      -0.348  -0.354   2.712  1.00  0.00     0.161 C 
HETATM    4  O4  UNL     1       0.266  -0.011   3.733  1.00  0.00    -0.292 OA
HETATM    5  C19 UNL     1      -1.345  -1.489   2.699  1.00  0.00     0.088 C 
HETATM    6  C20 UNL     1      -2.364  -0.952   1.697  1.00  0.00     0.048 C 
ENDROOT
BRANCH   2   7
HETATM    7  C8  UNL     1       0.724   0.805   0.695  1.00  0.00     0.006 A 
HETATM    8  C9  UNL     1       0.623   1.905  -0.153  1.00  0.00     0.101 A 
HETATM    9  N1  UNL     1       1.855   2.253  -0.539  1.00  0.00    -0.364 N 
HETATM   10  C10 UNL     1       2.786   1.446   0.002  1.00  0.00     0.043 A 
ATOM     11  H1  UNL     1       2.063   3.032  -1.164  1.00  0.00     0.165 HD
HETATM   12  C11 UNL     1       4.162   1.407  -0.097  1.00  0.00     0.032 A 
HETATM   13  C17 UNL     1       2.069   0.531   0.783  1.00  0.00     0.005 A 
HETATM   14  C12 UNL     1       4.846   0.418   0.607  1.00  0.00     0.027 A 
HETATM   15  C13 UNL     1       4.175  -0.503   1.387  1.00  0.00     0.075 A 
HETATM   16  C16 UNL     1       2.814  -0.440   1.467  1.00  0.00     0.039 A 
BRANCH  15  17
HETATM   17  S1  UNL     1       5.015  -1.747   2.280  1.00  0.00     0.243 S 
HETATM   18  O2  UNL     1       6.343  -1.242   2.767  1.00  0.00    -0.206 OA
HETATM   19  O3  UNL     1       4.243  -2.185   3.488  1.00  0.00    -0.206 OA
BRANCH  17  20
HETATM   20  N2  UNL     1       5.205  -3.110   1.261  1.00  0.00    -0.215 NA
HETATM   21  C14 UNL     1       3.981  -3.691   0.819  1.00  0.00     0.129 C 
HETATM   22  C15 UNL     1       6.140  -2.896   0.197  1.00  0.00     0.129 C 
ENDBRANCH  17  20
ENDBRANCH  15  17
ENDBRANCH   2   7
BRANCH   1  23
HETATM   23  C5  UNL     1      -1.869   0.102  -0.662  1.00  0.00    -0.015 A 
HETATM   24  C4  UNL     1      -2.961   0.816  -1.022  1.00  0.00     0.004 A 
HETATM   25  C3  UNL     1      -3.792   1.393  -0.093  1.00  0.00     0.054 A 
HETATM   26  C24 UNL     1      -3.252   0.992  -2.376  1.00  0.00     0.048 A 
HETATM   27  C2  UNL     1      -4.913   2.144  -0.477  1.00  0.00     0.107 A 
HETATM   28  C26 UNL     1      -5.167   2.294  -1.820  1.00  0.00     0.151 A 
HETATM   29  C25 UNL     1      -4.345   1.724  -2.767  1.00  0.00     0.075 A 
HETATM   30  F1  UNL     1      -6.250   3.018  -2.180  1.00  0.00    -0.203 F 
HETATM   31  N3  UNL     1      -2.482   0.478  -3.349  1.00  0.00    -0.360 N 
HETATM   32  C22 UNL     1      -1.386  -0.235  -3.022  1.00  0.00     0.091 A 
HETATM   33  C23 UNL     1      -2.821   0.686  -4.764  1.00  0.00     0.155 C 
HETATM   34  C21 UNL     1      -1.079  -0.424  -1.696  1.00  0.00     0.030 A 
BRANCH  27  35
HETATM   35  O1  UNL     1      -5.723   2.705   0.480  1.00  0.00    -0.353 OA
HETATM   36  C1  UNL     1      -5.451   2.545   1.859  1.00  0.00     0.210 C 
ENDBRANCH  27  35
ENDBRANCH   1  23
TORSDOF 5
