REMARK  13 active torsions:
REMARK  status: ('A' for Active; 'I' for Inactive)
REMARK    1  A    between atoms: N1_1  and  C1_4 
REMARK    2  A    between atoms: C2_9  and  S1_10 
REMARK    3  A    between atoms: S1_10  and  C3_11 
REMARK    4  A    between atoms: C3_11  and  C4_12 
REMARK    5  A    between atoms: C4_12  and  N4_13 
REMARK    6  A    between atoms: N4_13  and  C5_15 
REMARK    7  A    between atoms: C5_15  and  C6_16 
REMARK    8  A    between atoms: C6_16  and  C7_17 
REMARK    9  A    between atoms: C7_17  and  C8_18 
REMARK   10  A    between atoms: C8_18  and  C9_19 
REMARK   11  A    between atoms: C9_19  and  N5_20 
REMARK   12  A    between atoms: N5_20  and  C10_22 
REMARK   13  A    between atoms: C10_22  and  C11_23 
ROOT
HETATM    1  N4  UNL     1       2.263  -0.300   0.132  1.00  0.00    -0.401 N 
ATOM      2  H4  UNL     1       2.888   0.310   0.659  1.00  0.00     0.158 HD
ENDROOT
BRANCH   1   3
HETATM    3  C4  UNL     1       2.795  -1.362  -0.632  1.00  0.00     0.129 C 
BRANCH   3   4
HETATM    4  C3  UNL     1       4.308  -1.220  -0.740  1.00  0.00     0.102 C 
BRANCH   4   5
HETATM    5  S1  UNL     1       5.080  -1.139   0.899  1.00  0.00    -0.090 SA
BRANCH   5   6
HETATM    6  C2  UNL     1       6.477  -0.008   0.866  1.00  0.00     0.174 A 
HETATM    7  N3  UNL     1       7.244   0.369   1.878  1.00  0.00    -0.265 N 
HETATM    8  N2  UNL     1       8.174   1.245   1.439  1.00  0.00    -0.130 N 
ATOM      9  H3  UNL     1       7.147   0.047   2.841  1.00  0.00     0.189 HD
HETATM   10  C1  UNL     1       7.980   1.424   0.104  1.00  0.00     0.692 A 
ATOM     11  H2  UNL     1       8.893   1.693   2.007  1.00  0.00     0.205 HD
HETATM   12  N6  UNL     1       6.939   0.651  -0.229  1.00  0.00    -0.168 N 
ATOM     13  H6  UNL     1       6.549   0.569  -1.168  1.00  0.00     0.186 HD
BRANCH  10  14
HETATM   14  N1  UNL     1       8.699   2.213  -0.622  1.00  0.00    -0.233 N 
ATOM     15  H12 UNL     1       9.492   2.802  -0.368  1.00  0.00     0.174 HD
ATOM     16  H11 UNL     1       8.554   2.347  -1.623  1.00  0.00     0.174 HD
ENDBRANCH  10  14
ENDBRANCH   5   6
ENDBRANCH   4   5
ENDBRANCH   3   4
ENDBRANCH   1   3
BRANCH   1  17
HETATM   17  C5  UNL     1       0.871  -0.080   0.169  1.00  0.00     0.055 C 
BRANCH  17  18
HETATM   18  C6  UNL     1       0.001  -1.138   0.775  1.00  0.00     0.044 C 
BRANCH  18  19
HETATM   19  C7  UNL     1      -1.420  -0.645   0.837  1.00  0.00     0.010 C 
BRANCH  19  20
HETATM   20  C8  UNL     1      -1.899  -0.178  -0.493  1.00  0.00     0.044 C 
BRANCH  20  21
HETATM   21  C9  UNL     1      -3.323   0.316  -0.442  1.00  0.00     0.056 C 
BRANCH  21  22
HETATM   22  N5  UNL     1      -4.348  -0.609  -0.226  1.00  0.00    -0.398 N 
ATOM     23  H5  UNL     1      -4.408  -1.450  -0.800  1.00  0.00     0.158 HD
BRANCH  22  24
HETATM   24  C10 UNL     1      -5.292  -0.377   0.780  1.00  0.00     0.159 C 
BRANCH  24  25
HETATM   25  C11 UNL     1      -6.614   0.195   0.260  1.00  0.00    -0.010 A 
HETATM   26  C12 UNL     1      -6.780   0.651  -1.004  1.00  0.00     0.042 A 
HETATM   27  C13 UNL     1      -7.979   1.263  -1.283  1.00  0.00     0.076 A 
HETATM   28 CL1  UNL     1      -8.474   1.976  -2.841  1.00  0.00    -0.076 Cl
HETATM   29  S2  UNL     1      -8.823   1.186   0.190  1.00  0.00    -0.065 SA
HETATM   30  C14 UNL     1      -7.650   0.385   1.131  1.00  0.00     0.084 A 
HETATM   31 CL2  UNL     1      -7.732  -0.111   2.840  1.00  0.00    -0.076 Cl
ENDBRANCH  24  25
ENDBRANCH  22  24
ENDBRANCH  21  22
ENDBRANCH  20  21
ENDBRANCH  19  20
ENDBRANCH  18  19
ENDBRANCH  17  18
ENDBRANCH   1  17
TORSDOF 13
