REMARK  14 active torsions:
REMARK  status: ('A' for Active; 'I' for Inactive)
REMARK    1  A    between atoms: N1_1  and  C1_4 
REMARK    2  A    between atoms: N3_8  and  C3_9 
REMARK    3  A    between atoms: C3_9  and  C4_10 
REMARK    4  A    between atoms: C4_10  and  C5_11 
REMARK    5  A    between atoms: C5_11  and  C6_12 
REMARK    6  A    between atoms: C6_12  and  N4_13 
REMARK    7  A    between atoms: N4_13  and  C7_16 
REMARK    8  A    between atoms: C7_16  and  C8_17 
REMARK    9  A    between atoms: C8_17  and  C9_18 
REMARK   10  A    between atoms: C10_19  and  C11_20 
REMARK   11  A    between atoms: C11_20  and  N5_21 
REMARK   12  A    between atoms: N5_21  and  C12_23 
REMARK   13  A    between atoms: C12_23  and  C13_24 
REMARK   14  A    between atoms: C19_32  and  N6_33 
ROOT
HETATM    1  N4  UNL     1       0.690   1.297  -0.787  1.00  0.00    -0.075 N 
ATOM      2  H41 UNL     1       0.754   1.863  -1.633  1.00  0.00     0.277 HD
ATOM      3  H42 UNL     1       0.398   2.041  -0.153  1.00  0.00     0.277 HD
ENDROOT
BRANCH   1   4
HETATM    4  C6  UNL     1       1.955   0.693  -0.410  1.00  0.00     0.232 C 
BRANCH   4   5
HETATM    5  C5  UNL     1       3.008   1.659   0.027  1.00  0.00     0.029 C 
BRANCH   5   6
HETATM    6  C4  UNL     1       4.251   0.935   0.440  1.00  0.00     0.022 C 
BRANCH   6   7
HETATM    7  C3  UNL     1       4.901   0.227  -0.690  1.00  0.00     0.148 C 
BRANCH   7   8
HETATM    8  N3  UNL     1       6.048  -0.561  -0.361  1.00  0.00    -0.179 N 
HETATM    9  C2  UNL     1       5.886  -1.873  -0.127  1.00  0.00     0.218 A 
HETATM   10  N2  UNL     1       6.919  -2.724   0.155  1.00  0.00    -0.187 N 
HETATM   11  C1  UNL     1       8.137  -2.200   0.193  1.00  0.00     0.691 A 
ATOM     12  H2  UNL     1       6.760  -3.717   0.328  1.00  0.00     0.185 HD
HETATM   13  N7  UNL     1       8.328  -0.896  -0.039  1.00  0.00    -0.023 N 
HETATM   14  C19 UNL     1       7.305  -0.060  -0.314  1.00  0.00     0.693 A 
ATOM     15  H7  UNL     1       9.277  -0.522  -0.007  1.00  0.00     0.203 HD
BRANCH  11  16
HETATM   16  N1  UNL     1       9.155  -2.965   0.423  1.00  0.00    -0.234 N 
ATOM     17  H12 UNL     1       9.009  -3.959   0.600  1.00  0.00     0.174 HD
ATOM     18  H11 UNL     1      10.092  -2.562   0.452  1.00  0.00     0.174 HD
ENDBRANCH  11  16
BRANCH  14  19
HETATM   19  N6  UNL     1       7.546   1.193  -0.505  1.00  0.00    -0.234 N 
ATOM     20  H62 UNL     1       6.773   1.825  -0.713  1.00  0.00     0.174 HD
ATOM     21  H61 UNL     1       8.493   1.570  -0.470  1.00  0.00     0.174 HD
ENDBRANCH  14  19
ENDBRANCH   7   8
ENDBRANCH   6   7
ENDBRANCH   5   6
ENDBRANCH   4   5
ENDBRANCH   1   4
BRANCH   1  22
HETATM   22  C7  UNL     1      -0.302   0.206  -0.895  1.00  0.00     0.236 C 
BRANCH  22  23
HETATM   23  C8  UNL     1      -0.632  -0.339   0.464  1.00  0.00     0.054 C 
BRANCH  23  24
HETATM   24  C9  UNL     1      -1.268   0.587   1.427  1.00  0.00    -0.024 C 
HETATM   25  C10 UNL     1      -2.647   0.934   1.485  1.00  0.00     0.013 C 
BRANCH  25  26
HETATM   26  C11 UNL     1      -3.610   1.382   0.498  1.00  0.00     0.083 C 
BRANCH  26  27
HETATM   27  N5  UNL     1      -4.038   0.530  -0.537  1.00  0.00    -0.395 N 
ATOM     28  H5  UNL     1      -3.855   0.752  -1.516  1.00  0.00     0.159 HD
BRANCH  27  29
HETATM   29  C12 UNL     1      -4.748  -0.674  -0.160  1.00  0.00     0.159 C 
BRANCH  29  30
HETATM   30  C13 UNL     1      -6.219  -0.516  -0.271  1.00  0.00    -0.017 A 
HETATM   31  C14 UNL     1      -7.009  -0.586   0.860  1.00  0.00     0.034 A 
HETATM   32  C15 UNL     1      -8.383  -0.529   0.800  1.00  0.00     0.034 A 
HETATM   33 CL1  UNL     1      -9.397  -0.658   2.222  1.00  0.00    -0.084 Cl
HETATM   34  C16 UNL     1      -8.939  -0.391  -0.478  1.00  0.00     0.025 A 
HETATM   35  C17 UNL     1      -8.147  -0.322  -1.597  1.00  0.00     0.026 A 
HETATM   36  C18 UNL     1      -6.779  -0.380  -1.527  1.00  0.00     0.042 A 
HETATM   37 CL2  UNL     1      -5.764  -0.233  -2.947  1.00  0.00    -0.084 Cl
ENDBRANCH  29  30
ENDBRANCH  27  29
ENDBRANCH  26  27
ENDBRANCH  25  26
ENDBRANCH  23  24
ENDBRANCH  22  23
ENDBRANCH   1  22
TORSDOF 14
