REMARK  7 active torsions:
REMARK  status: ('A' for Active; 'I' for Inactive)
REMARK    1  A    between atoms: C1_4  and  C2_6 
REMARK    2  A    between atoms: N3_9  and  C5_10 
REMARK    3  A    between atoms: C5_10  and  C6_11 
REMARK    4  A    between atoms: C6_11  and  C7_12 
REMARK    5  A    between atoms: C7_12  and  C8_13 
REMARK    6  A    between atoms: C8_13  and  N4_14 
REMARK    7  A    between atoms: C10_17  and  N5_18 
ROOT
HETATM    1  C5  UNL     1       0.055   0.224  -0.465  1.00  0.00     0.128 C 
ENDROOT
BRANCH   1   2
HETATM    2  N3  UNL     1      -1.358  -0.083  -0.449  1.00  0.00    -0.366 N 
HETATM    3  C4  UNL     1      -1.870  -1.274  -0.174  1.00  0.00     0.091 A 
HETATM    4  C3  UNL     1      -3.225  -1.509  -0.173  1.00  0.00     0.032 A 
HETATM    5  C2  UNL     1      -4.140  -0.489  -0.467  1.00  0.00     0.007 A 
HETATM    6  C12 UNL     1      -3.596   0.744  -0.751  1.00  0.00     0.032 A 
HETATM    7  C11 UNL     1      -2.213   0.910  -0.733  1.00  0.00     0.091 A 
BRANCH   5   8
HETATM    8  C1  UNL     1      -5.566  -0.767  -0.458  1.00  0.00     0.120 C 
HETATM    9  N1  UNL     1      -6.405   0.154  -0.724  1.00  0.00    -0.387 N 
ATOM     10  H12 UNL     1      -7.406  -0.041  -0.718  1.00  0.00     0.157 HD
ATOM     11  H11 UNL     1      -6.090   1.098  -0.946  1.00  0.00     0.157 HD
HETATM   12  N2  UNL     1      -6.005  -2.082  -0.149  1.00  0.00    -0.082 NA
ENDBRANCH   5   8
ENDBRANCH   1   2
BRANCH   1  13
HETATM   13  C6  UNL     1       0.580   0.680   0.847  1.00  0.00     0.022 C 
BRANCH  13  14
HETATM   14  C7  UNL     1       2.053   0.986   0.749  1.00  0.00     0.023 C 
BRANCH  14  15
HETATM   15  C8  UNL     1       2.889  -0.186   0.338  1.00  0.00     0.149 C 
BRANCH  15  16
HETATM   16  N4  UNL     1       4.316   0.211   0.275  1.00  0.00    -0.295 N 
HETATM   17  C9  UNL     1       4.851   0.685  -0.853  1.00  0.00     0.163 A 
HETATM   18  S1  UNL     1       6.463   0.981  -0.383  1.00  0.00    -0.046 SA
HETATM   19  C10 UNL     1       6.339   0.472   1.241  1.00  0.00     0.158 A 
HETATM   20  N6  UNL     1       5.071   0.112   1.307  1.00  0.00    -0.278 N 
ATOM     21  H6  UNL     1       4.690  -0.247   2.183  1.00  0.00     0.189 HD
BRANCH  19  22
HETATM   22  N5  UNL     1       7.241   0.434   2.200  1.00  0.00    -0.379 N 
ATOM     23  H52 UNL     1       8.221   0.712   2.149  1.00  0.00     0.158 HD
ATOM     24  H51 UNL     1       7.167   0.130   3.171  1.00  0.00     0.158 HD
ENDBRANCH  19  22
ENDBRANCH  15  16
ENDBRANCH  14  15
ENDBRANCH  13  14
ENDBRANCH   1  13
TORSDOF 7
