REMARK  15 active torsions:
REMARK  status: ('A' for Active; 'I' for Inactive)
REMARK    1  A    between atoms: C3_3  and  C4_4 
REMARK    2  A    between atoms: C4_4  and  C5_5 
REMARK    3  A    between atoms: C5_5  and  C6_6 
REMARK    4  A    between atoms: C7_7  and  C8_8 
REMARK    5  A    between atoms: C8_8  and  C9_9 
REMARK    6  A    between atoms: C9_9  and  C10_10 
REMARK    7  A    between atoms: C12_16  and  C13_17 
REMARK    8  A    between atoms: C13_17  and  N3_18 
REMARK    9  A    between atoms: C13_17  and  C14_22 
REMARK   10  A    between atoms: C14_22  and  N4_23 
REMARK   11  A    between atoms: C19_28  and  C20_29 
REMARK   12  A    between atoms: C21_30  and  C22_31 
REMARK   13  A    between atoms: C22_31  and  C23_32 
REMARK   14  A    between atoms: C23_32  and  N5_33 
REMARK       I    between atoms: N5_33  and  C24_35 
REMARK   15  A    between atoms: N7_42  and  O2_43 
ROOT
HETATM    1  C1  UNL     1      12.769   0.248  -2.460  1.00  0.00     0.112 C 
HETATM    2  C2  UNL     1      11.354   0.273  -2.812  1.00  0.00    -0.111 C 
HETATM    3  C3  UNL     1      10.185   0.315  -3.105  1.00  0.00    -0.107 C 
ENDROOT
BRANCH   3   4
HETATM    4  C4  UNL     1       8.768   0.388  -3.453  1.00  0.00     0.098 C 
BRANCH   4   5
HETATM    5  C5  UNL     1       7.994  -0.780  -2.868  1.00  0.00     0.039 C 
BRANCH   5   6
HETATM    6  C6  UNL     1       6.581  -0.600  -3.283  1.00  0.00    -0.026 C 
HETATM    7  C7  UNL     1       5.581  -0.465  -2.454  1.00  0.00    -0.004 C 
BRANCH   7   8
HETATM    8  C8  UNL     1       5.679  -0.467  -1.008  1.00  0.00     0.002 C 
BRANCH   8   9
HETATM    9  C9  UNL     1       4.592  -0.321  -0.239  1.00  0.00     0.031 C 
BRANCH   9  10
HETATM   10  C10 UNL     1       4.737  -0.329   1.208  1.00  0.00     0.058 A 
HETATM   11  N1  UNL     1       5.863  -0.468   1.939  1.00  0.00    -0.351 N 
HETATM   12  C11 UNL     1       5.611  -0.427   3.245  1.00  0.00     0.181 A 
ATOM     13  H1  UNL     1       6.793  -0.590   1.539  1.00  0.00     0.166 HD
HETATM   14  N2  UNL     1       4.276  -0.254   3.342  1.00  0.00    -0.352 N 
HETATM   15  C12 UNL     1       3.724  -0.192   2.129  1.00  0.00     0.069 A 
ATOM     16  H2  UNL     1       3.761  -0.181   4.220  1.00  0.00     0.166 HD
BRANCH  15  17
HETATM   17  C13 UNL     1       2.294  -0.011   1.776  1.00  0.00     0.255 C 
BRANCH  17  18
HETATM   18  N3  UNL     1       1.819  -1.149   1.024  1.00  0.00    -0.068 N 
ATOM     19  H33 UNL     1       2.395  -1.330   0.202  1.00  0.00     0.275 HD
ATOM     20  H32 UNL     1       1.982  -2.027   1.517  1.00  0.00     0.275 HD
ATOM     21  H31 UNL     1       0.836  -1.025   0.781  1.00  0.00     0.275 HD
ENDBRANCH  17  18
BRANCH  17  22
HETATM   22  C14 UNL     1       1.474   0.103   3.032  1.00  0.00     0.187 C 
BRANCH  22  23
HETATM   23  N4  UNL     1       0.068   0.281   2.635  1.00  0.00    -0.298 N 
HETATM   24  C15 UNL     1      -0.568   1.445   2.409  1.00  0.00     0.146 A 
HETATM   25  C16 UNL     1      -1.878   1.203   2.056  1.00  0.00     0.126 A 
HETATM   26  C17 UNL     1      -2.014  -0.164   2.077  1.00  0.00     0.083 A 
HETATM   27  N7  UNL     1      -2.935   1.986   1.730  1.00  0.00    -0.157 N 
HETATM   28  C18 UNL     1      -3.266  -0.670   1.752  1.00  0.00     0.074 A 
HETATM   29  N8  UNL     1      -0.837  -0.659   2.424  1.00  0.00    -0.296 N 
HETATM   30  C19 UNL     1      -4.330   0.146   1.422  1.00  0.00     0.108 A 
HETATM   31  N6  UNL     1      -4.116   1.476   1.425  1.00  0.00    -0.262 N 
HETATM   32  C28 UNL     1      -5.253   2.322   1.074  1.00  0.00     0.181 C 
ATOM     33  H8  UNL     1      -0.649  -1.657   2.518  1.00  0.00     0.187 HD
BRANCH  30  34
HETATM   34  C20 UNL     1      -5.634  -0.391   1.084  1.00  0.00    -0.046 C 
HETATM   35  C21 UNL     1      -6.715  -0.814   0.803  1.00  0.00    -0.088 C 
BRANCH  35  36
HETATM   36  C22 UNL     1      -8.063  -1.317   0.466  1.00  0.00     0.040 A 
HETATM   37  C26 UNL     1      -9.115  -0.980   1.462  1.00  0.00     0.026 A 
HETATM   38  C27 UNL     1      -8.623  -2.386   1.341  1.00  0.00     0.026 A 
BRANCH  36  39
HETATM   39  C23 UNL     1      -8.379  -1.450  -0.995  1.00  0.00     0.145 C 
BRANCH  39  40
HETATM   40  N5  UNL     1      -8.280  -0.191  -1.671  1.00  0.00    -0.360 N 
HETATM   41  C24 UNL     1      -8.541  -0.111  -3.057  1.00  0.00     0.213 C 
HETATM   42  C25 UNL     1      -8.442   1.177  -3.754  1.00  0.00     0.117 C 
HETATM   43  O1  UNL     1      -8.858  -1.142  -3.689  1.00  0.00    -0.274 OA
ATOM     44  H5  UNL     1      -8.021   0.648  -1.152  1.00  0.00     0.162 HD
ENDBRANCH  39  40
ENDBRANCH  36  39
ENDBRANCH  35  36
ENDBRANCH  30  34
BRANCH  27  45
HETATM   45  O2  UNL     1      -2.737   3.346   1.727  1.00  0.00    -0.267 OA
ATOM     46  H2  UNL     1      -3.478   3.895   1.498  1.00  0.00     0.247 HD
ENDBRANCH  27  45
ENDBRANCH  22  23
ENDBRANCH  17  22
ENDBRANCH  15  17
ENDBRANCH   9  10
ENDBRANCH   8   9
ENDBRANCH   7   8
ENDBRANCH   5   6
ENDBRANCH   4   5
ENDBRANCH   3   4
TORSDOF 15
