REMARK  8 active torsions:
REMARK  status: ('A' for Active; 'I' for Inactive)
REMARK    1  A    between atoms: C4_11  and  N4_12 
REMARK    2  A    between atoms: N4_12  and  C5_14 
REMARK    3  A    between atoms: C5_14  and  C6_15 
REMARK    4  A    between atoms: C6_15  and  N5_16 
REMARK    5  A    between atoms: N8_20  and  C7_21 
REMARK    6  A    between atoms: C7_21  and  C8_22 
REMARK    7  A    between atoms: C13_31  and  N10_32 
REMARK    8  A    between atoms: C17_36  and  O3_37 
ROOT
HETATM    1  N1  UNL     1      -5.144  -1.975   2.094  1.00  0.00    -0.234 N 
ATOM      2  H11 UNL     1      -5.746  -1.344   1.565  1.00  0.00     0.174 HD
ATOM      3  H12 UNL     1      -5.743  -2.573   2.663  1.00  0.00     0.174 HD
HETATM    4  C1  UNL     1      -3.880  -1.939   1.988  1.00  0.00     0.698 A 
HETATM    5  N2  UNL     1      -3.060  -2.798   2.708  1.00  0.00    -0.198 N 
ATOM      6  H2  UNL     1      -3.390  -3.509   3.361  1.00  0.00     0.183 HD
HETATM    7  C2  UNL     1      -1.792  -2.562   2.425  1.00  0.00     0.157 A 
HETATM    8  C3  UNL     1      -1.813  -1.536   1.508  1.00  0.00     0.178 A 
HETATM    9  N3  UNL     1      -0.808  -0.886   0.869  1.00  0.00    -0.173 N 
ATOM     10  H3  UNL     1       0.151  -1.172   1.069  1.00  0.00     0.186 HD
HETATM   11  C4  UNL     1      -0.999   0.108  -0.008  1.00  0.00     0.694 A 
HETATM   12  N9  UNL     1      -2.267   0.450  -0.241  1.00  0.00    -0.021 N 
ATOM     13  H9  UNL     1      -2.455   1.203  -0.903  1.00  0.00     0.203 HD
HETATM   14  C13 UNL     1      -3.329  -0.166   0.370  1.00  0.00     0.717 A 
HETATM   15  N11 UNL     1      -3.093  -1.154   1.240  1.00  0.00     0.040 N 
ENDROOT
BRANCH  11  16
HETATM   16  N4  UNL     1      -0.018   0.712  -0.605  1.00  0.00    -0.224 N 
ATOM     17  H4  UNL     1      -0.264   1.457  -1.256  1.00  0.00     0.177 HD
BRANCH  16  18
HETATM   18  C5  UNL     1       1.369   0.435  -0.439  1.00  0.00     0.160 C 
BRANCH  18  19
HETATM   19  C6  UNL     1       1.857  -0.740  -1.265  1.00  0.00     0.175 C 
BRANCH  19  20
HETATM   20  N5  UNL     1       3.275  -0.921  -1.013  1.00  0.00    -0.227 N 
HETATM   21  N6  UNL     1       3.862  -1.650  -0.106  1.00  0.00    -0.220 N 
HETATM   22  N7  UNL     1       5.192  -1.529  -0.227  1.00  0.00     0.000 NA
ATOM     23  H6  UNL     1       3.384  -2.224   0.588  1.00  0.00     0.206 HD
HETATM   24  N8  UNL     1       5.458  -0.708  -1.229  1.00  0.00    -0.221 N 
HETATM   25  C12 UNL     1       4.268  -0.324  -1.726  1.00  0.00     0.357 A 
HETATM   26  O2  UNL     1       4.060   0.466  -2.701  1.00  0.00    -0.244 OA
BRANCH  24  27
HETATM   27  C7  UNL     1       6.761  -0.299  -1.705  1.00  0.00     0.183 C 
BRANCH  27  28
HETATM   28  C8  UNL     1       7.199   0.962  -0.964  1.00  0.00     0.141 C 
HETATM   29  C9  UNL     1       7.286   0.735   0.503  1.00  0.00     0.036 C 
HETATM   30  C10 UNL     1       8.652   1.281   0.875  1.00  0.00     0.029 C 
HETATM   31  C11 UNL     1       9.357   1.255  -0.459  1.00  0.00     0.168 C 
HETATM   32  O1  UNL     1       8.385   1.454  -1.426  1.00  0.00    -0.384 OA
ENDBRANCH  27  28
ENDBRANCH  24  27
ENDBRANCH  19  20
ENDBRANCH  18  19
ENDBRANCH  16  18
ENDBRANCH  11  16
BRANCH  14  33
HETATM   33  N10 UNL     1      -4.624   0.272   0.053  1.00  0.00    -0.215 N 
HETATM   34  C14 UNL     1      -5.428  -0.252  -1.039  1.00  0.00     0.146 C 
HETATM   35  C15 UNL     1      -6.520   0.769  -1.273  1.00  0.00     0.015 A 
HETATM   36  C16 UNL     1      -7.898   0.372  -0.863  1.00  0.00     0.039 A 
HETATM   37  C18 UNL     1      -6.464   1.744  -0.143  1.00  0.00     0.039 A 
HETATM   38  C17 UNL     1      -7.824   1.286   0.337  1.00  0.00     0.124 A 
HETATM   39  C19 UNL     1      -5.316   1.351   0.743  1.00  0.00     0.148 C 
BRANCH  38  40
HETATM   40  O3  UNL     1      -7.846   0.644   1.551  1.00  0.00    -0.395 OA
ATOM     41  H3  UNL     1      -7.799   1.219   2.306  1.00  0.00     0.210 HD
ENDBRANCH  38  40
ENDBRANCH  14  33
TORSDOF 8
