REMARK  9 active torsions:
REMARK  status: ('A' for Active; 'I' for Inactive)
REMARK    1  A    between atoms: C2_3  and  N2_4 
REMARK    2  A    between atoms: N2_4  and  C3_6 
REMARK    3  A    between atoms: C3_6  and  C4_7 
REMARK    4  A    between atoms: N3_9  and  C6_10 
REMARK    5  A    between atoms: C6_10  and  C7_11 
REMARK    6  A    between atoms: C7_11  and  C8_12 
REMARK    7  A    between atoms: C8_12  and  N4_13 
REMARK    8  A    between atoms: N4_13  and  C9_15 
REMARK    9  A    between atoms: C12_24  and  N8_25 
ROOT
HETATM    1  C1  UNL     1       6.481   1.091   1.059  1.00  0.00     0.180 C 
HETATM    2  N1  UNL     1       6.369  -0.323   0.689  1.00  0.00    -0.137 N 
HETATM    3  C2  UNL     1       5.245  -1.029   0.859  1.00  0.00     0.690 A 
HETATM    4  N12 UNL     1       5.254  -2.367   0.469  1.00  0.00    -0.166 N 
ATOM      5  H12 UNL     1       4.400  -2.911   0.596  1.00  0.00     0.186 HD
HETATM    6  C15 UNL     1       6.306  -2.972  -0.056  1.00  0.00     0.206 A 
HETATM    7  C16 UNL     1       6.273  -4.373  -0.450  1.00  0.00     0.137 C 
HETATM    8  N13 UNL     1       6.227  -5.487  -0.757  1.00  0.00    -0.188 NA
HETATM    9  N14 UNL     1       7.425  -2.243  -0.217  1.00  0.00    -0.285 N 
ATOM     10  H14 UNL     1       8.260  -2.671  -0.618  1.00  0.00     0.172 HD
HETATM   11  C17 UNL     1       7.443  -0.949   0.151  1.00  0.00     0.342 A 
HETATM   12  O2  UNL     1       8.496  -0.246   0.004  1.00  0.00    -0.246 OA
ENDROOT
BRANCH   3  13
HETATM   13  N2  UNL     1       4.193  -0.579   1.340  1.00  0.00    -0.199 N 
ATOM     14  H2  UNL     1       3.513  -1.339   1.345  1.00  0.00     0.183 HD
BRANCH  13  15
HETATM   15  C3  UNL     1       3.573   0.525   1.868  1.00  0.00     0.138 C 
BRANCH  15  16
HETATM   16  C4  UNL     1       2.587   1.180   0.919  1.00  0.00     0.082 A 
HETATM   17  C5  UNL     1       1.252   0.834   0.746  1.00  0.00     0.144 A 
HETATM   18  N3  UNL     1       0.770   1.669  -0.179  1.00  0.00    -0.287 N 
HETATM   19  N10 UNL     1       1.710   2.503  -0.587  1.00  0.00    -0.240 N 
HETATM   20  N11 UNL     1       2.790   2.197   0.079  1.00  0.00    -0.284 N 
ATOM     21  H10 UNL     1       1.611   3.240  -1.285  1.00  0.00     0.208 HD
ATOM     22  H11 UNL     1       3.683   2.678  -0.030  1.00  0.00     0.188 HD
BRANCH  18  23
HETATM   23  C6  UNL     1      -0.628   1.611  -0.633  1.00  0.00     0.151 C 
BRANCH  23  24
HETATM   24  C7  UNL     1      -1.438   2.524   0.262  1.00  0.00     0.041 C 
BRANCH  24  25
HETATM   25  C8  UNL     1      -2.870   2.474  -0.191  1.00  0.00     0.123 C 
BRANCH  25  26
HETATM   26  N4  UNL     1      -3.411   1.142  -0.114  1.00  0.00    -0.375 N 
ATOM     27  H4  UNL     1      -2.796   0.364   0.127  1.00  0.00     0.161 HD
BRANCH  26  28
HETATM   28  C9  UNL     1      -4.664   0.915  -0.345  1.00  0.00     0.121 A 
HETATM   29  N5  UNL     1      -5.486   1.939  -0.665  1.00  0.00    -0.338 N 
HETATM   30  C10 UNL     1      -6.783   1.694  -0.903  1.00  0.00     0.183 A 
ATOM     31  H5  UNL     1      -5.123   2.890  -0.725  1.00  0.00     0.168 HD
HETATM   32  N6  UNL     1      -7.310   0.461  -0.837  1.00  0.00    -0.337 N 
HETATM   33  C11 UNL     1      -6.514  -0.581  -0.519  1.00  0.00     0.141 A 
ATOM     34  H6  UNL     1      -8.302   0.314  -1.025  1.00  0.00     0.168 HD
HETATM   35  N7  UNL     1      -6.995  -1.835  -0.440  1.00  0.00    -0.176 N 
HETATM   36  C14 UNL     1      -5.197  -0.354  -0.275  1.00  0.00     0.121 A 
HETATM   37  C12 UNL     1      -6.208  -2.871  -0.126  1.00  0.00     0.680 A 
ATOM     38  H7  UNL     1      -7.985  -2.000  -0.624  1.00  0.00     0.186 HD
HETATM   39  N9  UNL     1      -4.901  -2.671   0.121  1.00  0.00    -0.155 N 
HETATM   40  C13 UNL     1      -4.389  -1.429   0.050  1.00  0.00     0.277 A 
ATOM     41  H9  UNL     1      -4.300  -3.459   0.362  1.00  0.00     0.187 HD
HETATM   42  O1  UNL     1      -3.176  -1.182   0.270  1.00  0.00    -0.267 OA
BRANCH  37  43
HETATM   43  N8  UNL     1      -6.746  -4.045  -0.070  1.00  0.00    -0.234 N 
ATOM     44  H82 UNL     1      -7.737  -4.197  -0.257  1.00  0.00     0.174 HD
ATOM     45  H81 UNL     1      -6.146  -4.835   0.169  1.00  0.00     0.174 HD
ENDBRANCH  37  43
ENDBRANCH  26  28
ENDBRANCH  25  26
ENDBRANCH  24  25
ENDBRANCH  23  24
ENDBRANCH  18  23
ENDBRANCH  15  16
ENDBRANCH  13  15
ENDBRANCH   3  13
TORSDOF 9
