REMARK  11 active torsions:
REMARK  status: ('A' for Active; 'I' for Inactive)
REMARK    1  A    between atoms: C2_5  and  O2_6 
REMARK    2  A    between atoms: C3_8  and  C4_9 
REMARK    3  A    between atoms: C4_9  and  C5_10 
REMARK    4  A    between atoms: C7_15  and  N4_16 
REMARK    5  A    between atoms: N4_16  and  C8_18 
REMARK    6  A    between atoms: C8_18  and  C9_19 
REMARK    7  A    between atoms: C9_19  and  C10_20 
REMARK    8  A    between atoms: C10_20  and  O3_21 
REMARK    9  A    between atoms: C11_25  and  N6_26 
REMARK   10  A    between atoms: C13_28  and  C14_29 
REMARK   11  A    between atoms: C14_29  and  C15_30 
ROOT
HETATM    1  C5  UNL     1      -2.688  -1.308   0.068  1.00  0.00     0.030 A 
HETATM    2  C6  UNL     1      -3.645  -0.334  -0.053  1.00  0.00     0.123 A 
HETATM    3  N2  UNL     1      -3.017   0.836  -0.169  1.00  0.00    -0.288 N 
ATOM      4  H2  UNL     1      -3.480   1.739  -0.274  1.00  0.00     0.187 HD
HETATM    5  N3  UNL     1      -1.713   0.660  -0.129  1.00  0.00    -0.068 N 
HETATM    6  C7  UNL     1      -0.676   1.539  -0.207  1.00  0.00     0.715 A 
HETATM    7  N5  UNL     1       0.558   1.040  -0.133  1.00  0.00    -0.021 N 
ATOM      8  H5  UNL     1       1.348   1.682  -0.189  1.00  0.00     0.203 HD
HETATM    9  C11 UNL     1       0.807  -0.278   0.013  1.00  0.00     0.696 A 
HETATM   10  N11 UNL     1      -0.214  -1.114   0.087  1.00  0.00    -0.173 N 
ATOM     11  H11 UNL     1      -0.043  -2.113   0.198  1.00  0.00     0.186 HD
HETATM   12  C17 UNL     1      -1.482  -0.654   0.017  1.00  0.00     0.172 A 
ENDROOT
BRANCH   9  13
HETATM   13  N6  UNL     1       2.145  -0.754   0.086  1.00  0.00    -0.216 N 
HETATM   14  C12 UNL     1       3.458  -0.107   0.038  1.00  0.00     0.148 C 
HETATM   15  C13 UNL     1       4.021  -1.447  -0.388  1.00  0.00     0.030 C 
HETATM   16  C16 UNL     1       2.776  -2.039   0.234  1.00  0.00     0.148 C 
BRANCH  15  17
HETATM   17  C14 UNL     1       5.308  -1.744   0.310  1.00  0.00     0.086 C 
BRANCH  17  18
HETATM   18  C15 UNL     1       6.279  -0.652  -0.050  1.00  0.00     0.107 A 
HETATM   19  N7  UNL     1       6.073   0.411  -0.845  1.00  0.00    -0.274 N 
HETATM   20  N8  UNL     1       7.166   1.148  -0.919  1.00  0.00    -0.007 NA
ATOM     21  H7  UNL     1       5.197   0.619  -1.324  1.00  0.00     0.185 HD
HETATM   22  N9  UNL     1       8.064   0.541  -0.163  1.00  0.00    -0.007 NA
HETATM   23  N10 UNL     1       7.551  -0.552   0.375  1.00  0.00    -0.274 N 
ATOM     24  H10 UNL     1       8.032  -1.201   0.998  1.00  0.00     0.185 HD
ENDBRANCH  17  18
ENDBRANCH  15  17
ENDBRANCH   9  13
BRANCH   6  25
HETATM   25  N4  UNL     1      -0.944   2.775  -0.345  1.00  0.00    -0.224 N 
ATOM     26  H4  UNL     1      -1.930   3.034  -0.389  1.00  0.00     0.177 HD
BRANCH  25  27
HETATM   27  C8  UNL     1       0.010   3.833  -0.444  1.00  0.00     0.140 C 
BRANCH  27  28
HETATM   28  C9  UNL     1      -0.636   5.111   0.082  1.00  0.00     0.046 C 
BRANCH  28  29
HETATM   29  C10 UNL     1      -1.850   5.390  -0.779  1.00  0.00     0.165 C 
BRANCH  29  30
HETATM   30  O3  UNL     1      -2.502   6.541  -0.370  1.00  0.00    -0.401 OA
ATOM     31  H3  UNL     1      -3.264   6.716  -0.910  1.00  0.00     0.209 HD
ENDBRANCH  29  30
ENDBRANCH  28  29
ENDBRANCH  27  28
ENDBRANCH  25  27
ENDBRANCH   6  25
BRANCH   1  32
HETATM   32  C4  UNL     1      -2.903  -2.603   0.204  1.00  0.00     0.051 C 
BRANCH  32  33
HETATM   33  C3  UNL     1      -4.255  -3.109   0.237  1.00  0.00     0.088 A 
HETATM   34  C2  UNL     1      -4.775  -4.014  -0.655  1.00  0.00     0.171 A 
HETATM   35  N1  UNL     1      -6.055  -4.262  -0.330  1.00  0.00    -0.287 N 
HETATM   36  C1  UNL     1      -6.337  -3.522   0.752  1.00  0.00     0.326 A 
ATOM     37  H1  UNL     1      -6.692  -4.894  -0.815  1.00  0.00     0.172 HD
HETATM   38  O1  UNL     1      -7.464  -3.502   1.343  1.00  0.00    -0.247 OA
HETATM   39  N12 UNL     1      -5.247  -2.823   1.098  1.00  0.00    -0.305 N 
ATOM     40  H12 UNL     1      -5.181  -2.179   1.886  1.00  0.00     0.171 HD
BRANCH  34  41
HETATM   41  O2  UNL     1      -4.059  -4.575  -1.727  1.00  0.00    -0.344 OA
ATOM     42  H2  UNL     1      -3.154  -4.400  -1.957  1.00  0.00     0.219 HD
ENDBRANCH  34  41
ENDBRANCH  32  33
ENDBRANCH   1  32
TORSDOF 11
