REMARK  2 active torsions:
REMARK  status: ('A' for Active; 'I' for Inactive)
REMARK    1  A    between atoms: C12_13  and  O2_14 
REMARK    2  A    between atoms: C16_19  and  O3_20 
ROOT
HETATM    1  C1  UNL     1      -1.682   3.145   0.242  1.00  0.00     0.017 C 
HETATM    2  C2  UNL     1      -1.225   1.961  -0.157  1.00  0.00    -0.058 C 
HETATM    3  C3  UNL     1      -1.669   1.733  -1.560  1.00  0.00     0.202 C 
HETATM    4  O1  UNL     1      -1.318   0.568  -2.110  1.00  0.00    -0.381 OA
HETATM    5  C4  UNL     1      -1.685  -0.620  -1.584  1.00  0.00     0.127 C 
HETATM    6  C5  UNL     1      -3.049  -0.580  -0.891  1.00  0.00     0.039 C 
HETATM    7  C6  UNL     1      -2.793  -0.955   0.537  1.00  0.00     0.022 C 
HETATM    8  C7  UNL     1      -1.636  -1.900   0.396  1.00  0.00     0.015 C 
HETATM    9  C8  UNL     1      -0.762  -1.373  -0.735  1.00  0.00     0.026 C 
HETATM   10  C9  UNL     1       0.541  -0.839  -0.291  1.00  0.00    -0.000 C 
HETATM   11  C10 UNL     1       1.140  -1.911   0.631  1.00  0.00     0.019 C 
HETATM   12  C11 UNL     1       1.498  -0.865  -1.513  1.00  0.00     0.049 C 
HETATM   13  C12 UNL     1       2.861  -0.345  -1.120  1.00  0.00     0.147 C 
HETATM   14  C13 UNL     1       3.003   0.082   0.275  1.00  0.00    -0.056 C 
HETATM   15  C14 UNL     1       4.350   0.017   0.931  1.00  0.00     0.046 C 
HETATM   16  C15 UNL     1       1.957   0.535   1.002  1.00  0.00     0.017 C 
HETATM   17  C16 UNL     1       0.672   0.531   0.183  1.00  0.00     0.091 C 
HETATM   18  C17 UNL     1      -0.426   1.241   0.877  1.00  0.00     0.058 C 
HETATM   19  C18 UNL     1      -1.219   0.522   1.890  1.00  0.00     0.050 C 
HETATM   20  C19 UNL     1      -2.611   0.148   1.486  1.00  0.00     0.175 C 
HETATM   21  F1  UNL     1      -3.342  -0.085   2.666  1.00  0.00    -0.249 F 
ENDROOT
BRANCH  13  22
HETATM   22  O2  UNL     1       3.848  -1.320  -1.401  1.00  0.00    -0.391 OA
ATOM     23  H2  UNL     1       4.705  -0.993  -1.154  1.00  0.00     0.210 HD
ENDBRANCH  13  22
BRANCH  17  24
HETATM   24  O3  UNL     1       1.064   1.466  -0.834  1.00  0.00    -0.384 OA
ATOM     25  H3  UNL     1       1.149   2.360  -0.525  1.00  0.00     0.211 HD
ENDBRANCH  17  24
TORSDOF 2
