REMARK  12 active torsions:
REMARK  status: ('A' for Active; 'I' for Inactive)
REMARK    1  A    between atoms: C2_2  and  N1_3 
REMARK    2  A    between atoms: N2_6  and  C5_7 
REMARK    3  A    between atoms: C5_7  and  C6_8 
REMARK    4  A    between atoms: C6_8  and  N3_9 
REMARK    5  A    between atoms: C9_12  and  O1_13 
REMARK    6  A    between atoms: O1_13  and  C10_14 
REMARK    7  A    between atoms: C10_14  and  C11_15 
REMARK       I    between atoms: C11_15  and  N4_17 
REMARK    8  A    between atoms: N4_17  and  C12_19 
REMARK    9  A    between atoms: C12_19  and  C13_20 
REMARK   10  A    between atoms: C13_20  and  C14_21 
REMARK   11  A    between atoms: C14_21  and  N5_22 
REMARK   12  A    between atoms: C24_33  and  N6_34 
ROOT
HETATM    1  N3  UNL     1      -2.333  -2.005  -1.101  1.00  0.00    -0.330 N 
HETATM    2  C7  UNL     1      -1.170  -2.661  -1.126  1.00  0.00     0.050 A 
HETATM    3  C8  UNL     1       0.153  -2.262  -1.347  1.00  0.00     0.067 A 
HETATM    4  C9  UNL     1       1.192  -3.164  -1.315  1.00  0.00     0.077 A 
HETATM    5  C19 UNL     1       0.933  -4.504  -1.060  1.00  0.00    -0.028 A 
HETATM    6  C20 UNL     1       2.025  -5.512  -1.017  1.00  0.00     0.051 C 
HETATM    7  C21 UNL     1      -0.389  -4.874  -0.844  1.00  0.00     0.024 A 
HETATM    8  C22 UNL     1      -1.438  -3.992  -0.871  1.00  0.00     0.008 A 
HETATM    9  C23 UNL     1      -2.816  -4.094  -0.694  1.00  0.00     0.047 A 
HETATM   10  C24 UNL     1      -3.649  -5.164  -0.416  1.00  0.00     0.042 A 
HETATM   11  C25 UNL     1      -5.025  -4.901  -0.300  1.00  0.00     0.054 A 
HETATM   12  C26 UNL     1      -5.501  -3.646  -0.456  1.00  0.00     0.009 A 
HETATM   13  C27 UNL     1      -6.985  -3.423  -0.318  1.00  0.00     0.068 C 
HETATM   14  N7  UNL     1      -4.699  -2.612  -0.724  1.00  0.00    -0.345 N 
ATOM     15  H7  UNL     1      -5.086  -1.675  -0.837  1.00  0.00     0.167 HD
HETATM   16  C28 UNL     1      -3.375  -2.819  -0.843  1.00  0.00     0.121 A 
ENDROOT
BRANCH   4  17
HETATM   17  O1  UNL     1       2.513  -2.849  -1.523  1.00  0.00    -0.342 OA
BRANCH  17  18
HETATM   18  C10 UNL     1       3.095  -1.627  -1.783  1.00  0.00     0.278 C 
BRANCH  18  19
HETATM   19  C11 UNL     1       2.929  -0.623  -0.678  1.00  0.00     0.241 C 
HETATM   20  O2  UNL     1       2.357  -0.880   0.405  1.00  0.00    -0.271 OA
HETATM   21  N4  UNL     1       3.449   0.671  -0.885  1.00  0.00    -0.359 N 
ATOM     22  H4  UNL     1       3.912   0.880  -1.769  1.00  0.00     0.162 HD
BRANCH  21  23
HETATM   23  C12 UNL     1       3.349   1.706   0.106  1.00  0.00     0.124 C 
BRANCH  23  24
HETATM   24  C13 UNL     1       4.045   1.344   1.381  1.00  0.00     0.050 C 
BRANCH  24  25
HETATM   25  C14 UNL     1       5.502   1.073   1.236  1.00  0.00     0.274 C 
BRANCH  25  26
HETATM   26  N5  UNL     1       6.287   2.162   0.752  1.00  0.00     0.092 N 
HETATM   27  C15 UNL     1       7.636   1.760   0.553  1.00  0.00     0.298 C 
HETATM   28  C16 UNL     1       8.698   2.552   1.215  1.00  0.00     0.198 C 
HETATM   29  O3  UNL     1       8.288   3.442   2.186  1.00  0.00    -0.388 OA
HETATM   30  C17 UNL     1       7.297   4.235   1.557  1.00  0.00     0.198 C 
HETATM   31  C18 UNL     1       6.044   3.416   1.380  1.00  0.00     0.298 C 
ENDBRANCH  25  26
ENDBRANCH  24  25
ENDBRANCH  23  24
ENDBRANCH  21  23
ENDBRANCH  18  19
ENDBRANCH  17  18
ENDBRANCH   4  17
BRANCH   1  32
HETATM   32  C6  UNL     1      -2.470  -0.581  -1.327  1.00  0.00     0.161 C 
BRANCH  32  33
HETATM   33  C5  UNL     1      -2.341   0.105   0.012  1.00  0.00     0.292 C 
BRANCH  33  34
HETATM   34  N2  UNL     1      -2.473   1.545  -0.102  1.00  0.00     0.093 N 
HETATM   35  C4  UNL     1      -2.327   2.137   1.170  1.00  0.00     0.302 C 
HETATM   36  C3  UNL     1      -3.413   3.027   1.657  1.00  0.00     0.302 C 
HETATM   37  N1  UNL     1      -3.916   3.941   0.674  1.00  0.00     0.091 N 
HETATM   38  C30 UNL     1      -3.797   3.444  -0.673  1.00  0.00     0.302 C 
HETATM   39  C29 UNL     1      -3.736   1.922  -0.689  1.00  0.00     0.302 C 
BRANCH  37  40
HETATM   40  C2  UNL     1      -5.187   4.503   0.990  1.00  0.00     0.268 C 
HETATM   41  C1  UNL     1      -6.327   3.538   0.967  1.00  0.00     0.037 C 
ENDBRANCH  37  40
ENDBRANCH  33  34
ENDBRANCH  32  33
ENDBRANCH   1  32
BRANCH  10  42
HETATM   42  N6  UNL     1      -3.237  -6.337  -0.267  1.00  0.00    -0.398 N 
ATOM     43  H62 UNL     1      -2.239  -6.528  -0.351  1.00  0.00     0.156 HD
ATOM     44  H61 UNL     1      -3.851  -7.125  -0.062  1.00  0.00     0.156 HD
ENDBRANCH  10  42
TORSDOF 12
