REMARK  12 active torsions:
REMARK  status: ('A' for Active; 'I' for Inactive)
REMARK    1  A    between atoms: C1_2  and  C2_3 
REMARK       I    between atoms: C1_2  and  N3_20 
REMARK    2  A    between atoms: C3_4  and  C4_5 
REMARK    3  A    between atoms: C5_6  and  C6_7 
REMARK    4  A    between atoms: C6_7  and  N1_8 
REMARK    5  A    between atoms: C9_12  and  C10_13 
REMARK       I    between atoms: C10_13  and  N2_15 
REMARK    6  A    between atoms: N3_20  and  C15_22 
REMARK    7  A    between atoms: C16_23  and  O3_24 
REMARK    8  A    between atoms: C18_27  and  C19_28 
REMARK    9  A    between atoms: C21_32  and  O6_33 
REMARK   10  A    between atoms: O6_33  and  C22_34 
REMARK   11  A    between atoms: C22_34  and  C23_35 
REMARK   12  A    between atoms: C23_35  and  N4_36 
ROOT
HETATM    1  O1  UNL     1      -2.034  -2.287  -2.995  1.00  0.00    -0.268 OA
HETATM    2  C1  UNL     1      -1.151  -1.874  -2.191  1.00  0.00     0.245 C 
HETATM    3  N3  UNL     1      -1.394  -2.040  -0.825  1.00  0.00    -0.319 N 
ATOM      4  H3  UNL     1      -0.698  -1.709  -0.156  1.00  0.00     0.169 HD
ENDROOT
BRANCH   3   5
HETATM    5  C15 UNL     1      -2.595  -2.663  -0.331  1.00  0.00     0.102 A 
HETATM    6  C16 UNL     1      -2.645  -4.003  -0.085  1.00  0.00     0.096 A 
HETATM    7  C17 UNL     1      -3.826  -4.573   0.374  1.00  0.00     0.057 A 
HETATM    8  C18 UNL     1      -4.953  -3.816   0.587  1.00  0.00     0.046 A 
HETATM    9  C20 UNL     1      -4.905  -2.461   0.338  1.00  0.00     0.057 A 
HETATM   10  C21 UNL     1      -3.728  -1.864  -0.122  1.00  0.00     0.099 A 
BRANCH   6  11
HETATM   11  O3  UNL     1      -1.510  -4.799  -0.294  1.00  0.00    -0.358 OA
ATOM     12  H3  UNL     1      -1.545  -5.733  -0.123  1.00  0.00     0.217 HD
ENDBRANCH   6  11
BRANCH   8  13
HETATM   13  C19 UNL     1      -6.159  -4.472   1.065  1.00  0.00     0.209 C 
HETATM   14  O4  UNL     1      -7.235  -3.864   1.286  1.00  0.00    -0.644 OA
HETATM   15  O5  UNL     1      -6.158  -5.844   1.299  1.00  0.00    -0.644 OA
ENDBRANCH   8  13
BRANCH  10  16
HETATM   16  O6  UNL     1      -3.568  -0.543  -0.402  1.00  0.00    -0.347 OA
BRANCH  16  17
HETATM   17  C22 UNL     1      -4.496   0.462  -0.254  1.00  0.00     0.195 C 
BRANCH  17  18
HETATM   18  C23 UNL     1      -4.845   0.727   1.168  1.00  0.00     0.143 C 
BRANCH  18  19
HETATM   19  N4  UNL     1      -5.825   1.775   1.293  1.00  0.00    -0.410 N 
HETATM   20  C24 UNL     1      -5.402   3.080   0.944  1.00  0.00     0.117 C 
HETATM   21  C25 UNL     1      -6.542   3.780   0.192  1.00  0.00     0.019 C 
HETATM   22  C26 UNL     1      -7.711   3.804   1.175  1.00  0.00     0.003 C 
HETATM   23  C27 UNL     1      -8.202   2.375   1.293  1.00  0.00     0.019 C 
HETATM   24  C28 UNL     1      -7.130   1.385   0.898  1.00  0.00     0.117 C 
ENDBRANCH  18  19
ENDBRANCH  17  18
ENDBRANCH  16  17
ENDBRANCH  10  16
ENDBRANCH   3   5
BRANCH   2  25
HETATM   25  C2  UNL     1       0.038  -1.266  -2.702  1.00  0.00     0.074 C 
HETATM   26  C3  UNL     1       1.036  -0.803  -1.944  1.00  0.00     0.005 C 
BRANCH  26  27
HETATM   27  C4  UNL     1       2.190  -0.207  -2.596  1.00  0.00    -0.002 C 
HETATM   28  C5  UNL     1       3.209   0.268  -1.940  1.00  0.00    -0.007 C 
BRANCH  28  29
HETATM   29  C6  UNL     1       3.381   0.291  -0.485  1.00  0.00     0.151 C 
BRANCH  29  30
HETATM   30  N1  UNL     1       4.563  -0.422  -0.046  1.00  0.00    -0.367 N 
HETATM   31  C7  UNL     1       4.544  -1.820  -0.224  1.00  0.00     0.132 C 
HETATM   32  S1  UNL     1       5.508  -1.941  -1.788  1.00  0.00    -0.122 SA
HETATM   33  C8  UNL     1       6.472  -0.397  -1.522  1.00  0.00     0.114 C 
HETATM   34  C9  UNL     1       5.798   0.182  -0.323  1.00  0.00     0.186 C 
BRANCH  34  35
HETATM   35  C10 UNL     1       6.707   0.273   0.857  1.00  0.00     0.243 C 
HETATM   36  O2  UNL     1       6.404  -0.361   1.925  1.00  0.00    -0.271 OA
HETATM   37  N2  UNL     1       7.890   1.016   0.886  1.00  0.00    -0.350 N 
HETATM   38  C11 UNL     1       8.415   1.821  -0.190  1.00  0.00     0.126 C 
HETATM   39  C14 UNL     1       8.813   1.132   1.994  1.00  0.00     0.126 C 
HETATM   40  C12 UNL     1       9.475   2.711   0.364  1.00  0.00     0.021 C 
HETATM   41  C13 UNL     1       9.483   2.473   1.826  1.00  0.00     0.021 C 
ENDBRANCH  34  35
ENDBRANCH  29  30
ENDBRANCH  28  29
ENDBRANCH  26  27
ENDBRANCH   2  25
TORSDOF 12
