REMARK  4 active torsions:
REMARK  status: ('A' for Active; 'I' for Inactive)
REMARK    1  A    between atoms: O1_2  and  C2_3 
REMARK    2  A    between atoms: C2_3  and  C3_4 
REMARK    3  A    between atoms: C5_8  and  O4_9 
REMARK    4  A    between atoms: C10_16  and  O6_17 
ROOT
HETATM    1  C3  UNL     1       1.274   0.421  -0.513  1.00  0.00     0.177 C 
HETATM    2  O2  UNL     1       0.728  -0.197   0.589  1.00  0.00    -0.350 OA
HETATM    3  C4  UNL     1      -0.473   0.439   0.921  1.00  0.00     0.277 C 
HETATM    4  O3  UNL     1      -1.027  -0.020   2.075  1.00  0.00    -0.328 OA
HETATM    5  C5  UNL     1      -2.328  -0.372   1.871  1.00  0.00     0.289 C 
HETATM    6  C6  UNL     1      -2.604  -0.461   0.413  1.00  0.00     0.192 C 
HETATM    7  O5  UNL     1      -3.443   0.536  -0.103  1.00  0.00    -0.379 OA
HETATM    8  C7  UNL     1      -2.363   1.338  -0.536  1.00  0.00     0.185 C 
HETATM    9  C8  UNL     1      -1.426   0.242  -0.206  1.00  0.00     0.064 C 
HETATM   10  C9  UNL     1      -0.812  -0.524  -1.335  1.00  0.00     0.054 C 
HETATM   11  C10 UNL     1       0.476   0.132  -1.782  1.00  0.00     0.150 C 
ENDROOT
BRANCH   1  12
HETATM   12  C2  UNL     1       2.708   0.155  -0.784  1.00  0.00     0.201 C 
BRANCH  12  13
HETATM   13  O1  UNL     1       3.622   0.524   0.135  1.00  0.00    -0.393 OA
HETATM   14  C1  UNL     1       3.580   0.003   1.385  1.00  0.00     0.201 C 
ENDBRANCH  12  13
ENDBRANCH   1  12
BRANCH  11  15
HETATM   15  O6  UNL     1       1.167  -0.696  -2.647  1.00  0.00    -0.393 OA
ATOM     16  H6  UNL     1       0.670  -0.876  -3.437  1.00  0.00     0.210 HD
ENDBRANCH  11  15
BRANCH   5  17
HETATM   17  O4  UNL     1      -2.559  -1.584   2.513  1.00  0.00    -0.368 OA
ATOM     18  H4  UNL     1      -3.466  -1.829   2.371  1.00  0.00     0.212 HD
ENDBRANCH   5  17
TORSDOF 4
