REMARK  4 active torsions:
REMARK  status: ('A' for Active; 'I' for Inactive)
REMARK    1  A    between atoms: C2_2  and  N1_5 
REMARK    2  A    between atoms: N1_5  and  C5_7 
REMARK    3  A    between atoms: C6_10  and  C7_11 
REMARK       I    between atoms: C7_11  and  N2_13 
REMARK    4  A    between atoms: N2_13  and  C8_15 
ROOT
HETATM    1  C5  UNL     1      -0.603   0.306  -0.496  1.00  0.00     0.100 A 
HETATM    2  S1  UNL     1      -0.536  -0.219  -2.082  1.00  0.00    -0.033 SA
HETATM    3  S2  UNL     1       1.268   0.555  -2.119  1.00  0.00    -0.043 SA
HETATM    4  C6  UNL     1       0.649   0.831  -0.556  1.00  0.00     0.114 A 
ENDROOT
BRANCH   4   5
HETATM    5  C7  UNL     1       1.447   1.542   0.486  1.00  0.00     0.267 C 
HETATM    6  O1  UNL     1       0.916   1.701   1.605  1.00  0.00    -0.267 OA
HETATM    7  N2  UNL     1       2.762   2.035   0.254  1.00  0.00    -0.302 N 
ATOM      8  H2  UNL     1       2.969   3.033   0.212  1.00  0.00     0.171 HD
BRANCH   7   9
HETATM    9  C8  UNL     1       3.692   1.118   0.097  1.00  0.00     0.151 A 
HETATM   10  N3  UNL     1       4.989   1.310  -0.131  1.00  0.00    -0.346 N 
HETATM   11  C9  UNL     1       5.763   0.273  -0.260  1.00  0.00     0.097 A 
ATOM     12  H3  UNL     1       5.369   2.254  -0.203  1.00  0.00     0.167 HD
HETATM   13  C10 UNL     1       5.195  -0.969  -0.153  1.00  0.00     0.070 A 
HETATM   14  S3  UNL     1       3.555  -0.582   0.130  1.00  0.00    -0.064 SA
ENDBRANCH   7   9
ENDBRANCH   4   5
BRANCH   1  15
HETATM   15  N1  UNL     1      -1.628   0.214   0.521  1.00  0.00    -0.374 N 
ATOM     16  H1  UNL     1      -1.446   0.615   1.441  1.00  0.00     0.161 HD
BRANCH  15  17
HETATM   17  C2  UNL     1      -2.880  -0.416   0.282  1.00  0.00     0.020 C 
HETATM   18  C1  UNL     1      -3.674   0.222  -0.829  1.00  0.00     0.037 C 
HETATM   19  C3  UNL     1      -2.589  -1.853  -0.168  1.00  0.00     0.037 C 
HETATM   20  C4  UNL     1      -3.690  -0.468   1.549  1.00  0.00     0.037 C 
ENDBRANCH  15  17
ENDBRANCH   1  15
TORSDOF 4
