REMARK  8 active torsions:
REMARK  status: ('A' for Active; 'I' for Inactive)
REMARK    1  A    between atoms: C2_2  and  O1_3 
REMARK    2  A    between atoms: C2_2  and  N1_5 
REMARK    3  A    between atoms: C3_7  and  N2_8 
REMARK    4  A    between atoms: C3_7  and  O2_16 
REMARK    5  A    between atoms: N2_8  and  C4_10 
REMARK    6  A    between atoms: O2_16  and  C10_17 
REMARK    7  A    between atoms: C10_17  and  O4_19 
REMARK    8  A    between atoms: O4_19  and  C11_20 
ROOT
HETATM    1  N1  UNL     1      -0.425  -1.739   0.860  1.00  0.00    -0.330 N 
ATOM      2  H1  UNL     1      -1.425  -1.713   0.659  1.00  0.00     0.165 HD
HETATM    3  C3  UNL     1       0.177  -0.626   0.857  1.00  0.00     0.227 C 
ENDROOT
BRANCH   3   4
HETATM    4  N2  UNL     1       1.566  -0.547   1.124  1.00  0.00    -0.351 N 
ATOM      5  H2  UNL     1       1.899  -0.440   2.082  1.00  0.00     0.163 HD
BRANCH   4   6
HETATM    6  C4  UNL     1       2.506  -0.619   0.035  1.00  0.00     0.085 C 
HETATM    7  C5  UNL     1       2.220   0.529  -0.904  1.00  0.00     0.025 C 
HETATM    8  C6  UNL     1       3.483   1.145  -1.448  1.00  0.00     0.002 C 
HETATM    9  C7  UNL     1       4.355   1.688  -0.349  1.00  0.00     0.000 C 
HETATM   10  C8  UNL     1       4.455   0.750   0.827  1.00  0.00     0.002 C 
HETATM   11  C9  UNL     1       3.927  -0.629   0.519  1.00  0.00     0.025 C 
ENDBRANCH   4   6
ENDBRANCH   3   4
BRANCH   3  12
HETATM   12  O2  UNL     1      -0.531   0.532   0.589  1.00  0.00    -0.222 OA
BRANCH  12  13
HETATM   13  C10 UNL     1      -1.903   0.496   0.320  1.00  0.00     0.414 C 
HETATM   14  O3  UNL     1      -2.449  -0.621   0.335  1.00  0.00    -0.229 OA
BRANCH  13  15
HETATM   15  O4  UNL     1      -2.648   1.610   0.050  1.00  0.00    -0.288 OA
BRANCH  15  16
HETATM   16  C11 UNL     1      -4.030   1.607  -0.224  1.00  0.00     0.062 C 
HETATM   17  C12 UNL     1      -4.483   3.046  -0.473  1.00  0.00     0.046 C 
HETATM   18  C13 UNL     1      -4.851   1.111   0.953  1.00  0.00     0.046 C 
HETATM   19  C14 UNL     1      -4.405   0.807  -1.426  1.00  0.00     0.046 C 
ENDBRANCH  15  16
ENDBRANCH  13  15
ENDBRANCH  12  13
ENDBRANCH   3  12
BRANCH   1  20
HETATM   20  C2  UNL     1       0.135  -3.026   1.113  1.00  0.00     0.216 C 
HETATM   21  C1  UNL     1       0.249  -3.896  -0.103  1.00  0.00     0.063 C 
BRANCH  20  22
HETATM   22  O1  UNL     1       1.349  -2.955   1.828  1.00  0.00    -0.377 OA
ATOM     23  H1  UNL     1       1.277  -2.404   2.598  1.00  0.00     0.212 HD
ENDBRANCH  20  22
ENDBRANCH   1  20
TORSDOF 8
