REMARK  15 active torsions:
REMARK  status: ('A' for Active; 'I' for Inactive)
REMARK    1  A    between atoms: C2_2  and  C3_3 
REMARK    2  A    between atoms: C3_3  and  C4_4 
REMARK    3  A    between atoms: C7_7  and  C8_8 
REMARK    4  A    between atoms: C8_8  and  C9_9 
REMARK    5  A    between atoms: C10_12  and  O1_13 
REMARK    6  A    between atoms: C11_15  and  C12_16 
REMARK    7  A    between atoms: C12_16  and  C14_18 
REMARK    8  A    between atoms: C17_24  and  C18_25 
REMARK    9  A    between atoms: C18_25  and  C19_26 
REMARK   10  A    between atoms: C21_30  and  O3_31 
REMARK   11  A    between atoms: C22_33  and  C23_34 
REMARK   12  A    between atoms: C23_34  and  C24_35 
REMARK   13  A    between atoms: C27_40  and  O4_41 
REMARK   14  A    between atoms: C28_43  and  C29_44 
REMARK   15  A    between atoms: C32_49  and  O5_50 
ROOT
HETATM    1  C9  UNL     1       3.605   0.464  -1.536  1.00  0.00     0.181 C 
HETATM    2  N1  UNL     1       2.966   1.660  -1.952  1.00  0.00    -0.359 N 
ATOM      3  H1  UNL     1       2.712   1.589  -2.937  1.00  0.00     0.162 HD
HETATM    4  C10 UNL     1       2.575   2.892  -1.458  1.00  0.00     0.135 C 
HETATM    5  C11 UNL     1       1.315   3.396  -0.807  1.00  0.00     0.162 C 
HETATM    6  N2  UNL     1       0.436   2.324  -0.361  1.00  0.00    -0.347 N 
ATOM      7  H2  UNL     1       0.171   1.682  -1.108  1.00  0.00     0.163 HD
HETATM    8  C16 UNL     1      -0.111   1.998   0.860  1.00  0.00     0.241 C 
HETATM    9  O2  UNL     1       0.427   0.966   1.432  1.00  0.00    -0.271 OA
HETATM   10  C17 UNL     1      -1.198   2.571   1.688  1.00  0.00     0.175 C 
HETATM   11  N3  UNL     1      -2.533   2.436   1.199  1.00  0.00    -0.359 N 
ATOM     12  H3  UNL     1      -2.771   3.244   0.624  1.00  0.00     0.162 HD
HETATM   13  C21 UNL     1      -3.586   1.586   1.249  1.00  0.00     0.135 C 
HETATM   14  C22 UNL     1      -3.852   0.135   0.900  1.00  0.00     0.158 C 
HETATM   15  N4  UNL     1      -2.638  -0.550   0.578  1.00  0.00    -0.361 N 
ATOM     16  H4  UNL     1      -1.995  -0.502   1.368  1.00  0.00     0.162 HD
HETATM   17  C27 UNL     1      -2.062  -1.247  -0.444  1.00  0.00     0.135 C 
HETATM   18  C28 UNL     1      -1.895  -2.666  -0.840  1.00  0.00     0.161 C 
HETATM   19  N5  UNL     1      -0.516  -3.078  -0.993  1.00  0.00    -0.357 N 
ATOM     20  H5  UNL     1      -0.107  -3.474  -0.146  1.00  0.00     0.162 HD
HETATM   21  C32 UNL     1       0.367  -3.037  -2.084  1.00  0.00     0.159 C 
HETATM   22  C33 UNL     1       1.041  -1.899  -2.714  1.00  0.00     0.059 C 
HETATM   23  C34 UNL     1       0.706  -1.700  -4.186  1.00  0.00     0.072 C 
HETATM   24  N6  UNL     1       1.851  -1.087  -2.233  1.00  0.00    -0.325 N 
ATOM     25  H6  UNL     1       2.073  -0.458  -3.005  1.00  0.00     0.168 HD
HETATM   26  C35 UNL     1       2.578  -0.627  -1.203  1.00  0.00     0.245 C 
HETATM   27  O6  UNL     1       2.615  -0.900   0.041  1.00  0.00    -0.271 OA
ENDROOT
BRANCH   1  28
HETATM   28  C8  UNL     1       4.610   0.565  -0.454  1.00  0.00     0.091 C 
BRANCH  28  29
HETATM   29  C7  UNL     1       5.296  -0.700  -0.126  1.00  0.00     0.011 A 
HETATM   30  C6  UNL     1       5.229  -1.894  -0.797  1.00  0.00     0.027 A 
HETATM   31  C5  UNL     1       6.026  -2.800  -0.139  1.00  0.00     0.027 A 
HETATM   32  C4  UNL     1       6.579  -2.145   0.938  1.00  0.00     0.012 A 
HETATM   33  N7  UNL     1       6.127  -0.893   0.923  1.00  0.00    -0.363 N 
ATOM     34  H7  UNL     1       6.373  -0.178   1.608  1.00  0.00     0.165 HD
BRANCH  32  35
HETATM   35  C3  UNL     1       7.514  -2.800   1.900  1.00  0.00     0.083 C 
BRANCH  35  36
HETATM   36  C2  UNL     1       6.686  -3.411   2.993  1.00  0.00    -0.031 C 
HETATM   37  C1  UNL     1       6.711  -4.710   3.246  1.00  0.00     0.007 C 
ENDBRANCH  35  36
ENDBRANCH  32  35
ENDBRANCH  28  29
ENDBRANCH   1  28
BRANCH   4  38
HETATM   38  O1  UNL     1       3.413   3.908  -1.533  1.00  0.00    -0.348 OA
ATOM     39  H1  UNL     1       3.145   4.754  -1.194  1.00  0.00     0.219 HD
ENDBRANCH   4  38
BRANCH   5  40
HETATM   40  C12 UNL     1       0.508   4.195  -1.816  1.00  0.00     0.012 C 
HETATM   41  C13 UNL     1      -0.751   4.747  -1.220  1.00  0.00     0.012 C 
BRANCH  40  42
HETATM   42  C14 UNL     1       1.221   5.272  -2.542  1.00  0.00     0.002 C 
HETATM   43  C15 UNL     1       0.210   5.921  -3.473  1.00  0.00     0.005 C 
ENDBRANCH  40  42
ENDBRANCH   5  40
BRANCH  21  44
HETATM   44  O5  UNL     1       0.665  -4.167  -2.655  1.00  0.00    -0.345 OA
ATOM     45  H5  UNL     1       1.262  -4.139  -3.393  1.00  0.00     0.219 HD
ENDBRANCH  21  44
BRANCH  10  46
HETATM   46  C18 UNL     1      -0.983   2.141   3.127  1.00  0.00     0.034 C 
BRANCH  46  47
HETATM   47  C19 UNL     1      -1.999   2.673   4.087  1.00  0.00    -0.002 C 
HETATM   48  C20 UNL     1      -1.665   2.195   5.496  1.00  0.00     0.005 C 
ENDBRANCH  46  47
ENDBRANCH  10  46
BRANCH  18  49
HETATM   49  C29 UNL     1      -2.593  -3.674   0.039  1.00  0.00     0.008 C 
HETATM   50  C30 UNL     1      -2.168  -3.666   1.471  1.00  0.00     0.012 C 
HETATM   51  C31 UNL     1      -2.163  -5.054  -0.503  1.00  0.00     0.012 C 
ENDBRANCH  18  49
BRANCH  17  52
HETATM   52  O4  UNL     1      -1.466  -0.538  -1.374  1.00  0.00    -0.348 OA
ATOM     53  H4  UNL     1      -1.065  -1.023  -2.086  1.00  0.00     0.219 HD
ENDBRANCH  17  52
BRANCH  13  54
HETATM   54  O3  UNL     1      -4.712   2.067   1.702  1.00  0.00    -0.348 OA
ATOM     55  H3  UNL     1      -5.451   1.471   1.737  1.00  0.00     0.219 HD
ENDBRANCH  13  54
BRANCH  14  56
HETATM   56  C23 UNL     1      -4.976   0.097  -0.074  1.00  0.00     0.037 C 
BRANCH  56  57
HETATM   57  C24 UNL     1      -5.495  -1.185  -0.557  1.00  0.00    -0.020 C 
HETATM   58  C25 UNL     1      -6.640  -0.835  -1.550  1.00  0.00     0.009 C 
HETATM   59  C26 UNL     1      -6.177  -2.007   0.528  1.00  0.00     0.009 C 
ENDBRANCH  56  57
ENDBRANCH  14  56
TORSDOF 15
