REMARK  11 active torsions:
REMARK  status: ('A' for Active; 'I' for Inactive)
REMARK    1  A    between atoms: C2_2  and  N1_3 
REMARK    2  A    between atoms: N2_6  and  C5_7 
REMARK    3  A    between atoms: C5_7  and  C6_8 
REMARK    4  A    between atoms: C6_8  and  C7_9 
REMARK    5  A    between atoms: C7_9  and  N3_10 
REMARK       I    between atoms: N3_10  and  C8_12 
REMARK    6  A    between atoms: C8_12  and  C9_14 
REMARK    7  A    between atoms: C11_16  and  C12_17 
REMARK    8  A    between atoms: N4_20  and  C15_21 
REMARK    9  A    between atoms: C15_21  and  C16_22 
REMARK   10  A    between atoms: C20_28  and  O2_29 
REMARK   11  A    between atoms: O2_29  and  C21_30 
ROOT
HETATM    1  C12 UNL     1      -0.529  -1.223  -0.962  1.00  0.00     0.040 C 
HETATM    2  C13 UNL     1      -1.083  -0.166  -0.063  1.00  0.00     0.030 C 
HETATM    3  C14 UNL     1      -2.451   0.192  -0.613  1.00  0.00     0.118 C 
HETATM    4  N4  UNL     1      -3.312  -0.907  -0.334  1.00  0.00    -0.408 N 
HETATM    5  C27 UNL     1      -2.883  -2.150  -0.885  1.00  0.00     0.118 C 
HETATM    6  C28 UNL     1      -1.536  -2.172  -1.510  1.00  0.00     0.030 C 
ENDROOT
BRANCH   1   7
HETATM    7  C11 UNL     1       0.468  -2.023  -0.166  1.00  0.00     0.032 A 
HETATM    8  C10 UNL     1       1.822  -2.091  -0.313  1.00  0.00     0.063 A 
HETATM    9  C9  UNL     1       2.310  -2.965   0.642  1.00  0.00     0.117 A 
HETATM   10  N8  UNL     1       1.270  -3.407   1.342  1.00  0.00    -0.295 N 
HETATM   11  N7  UNL     1       0.170  -2.843   0.857  1.00  0.00    -0.304 N 
ATOM     12  H8  UNL     1       1.310  -4.067   2.119  1.00  0.00     0.187 HD
ATOM     13  H7  UNL     1      -0.772  -3.009   1.212  1.00  0.00     0.186 HD
BRANCH   9  14
HETATM   14  C8  UNL     1       3.693  -3.352   0.867  1.00  0.00     0.269 C 
HETATM   15  N3  UNL     1       4.700  -2.768   0.064  1.00  0.00    -0.356 N 
ATOM     16  H3  UNL     1       4.443  -2.088  -0.651  1.00  0.00     0.162 HD
HETATM   17  O1  UNL     1       3.990  -4.188   1.756  1.00  0.00    -0.266 OA
BRANCH  15  18
HETATM   18  C7  UNL     1       6.089  -3.123   0.245  1.00  0.00     0.125 C 
BRANCH  18  19
HETATM   19  C6  UNL     1       6.996  -2.363  -0.712  1.00  0.00     0.050 C 
BRANCH  19  20
HETATM   20  C5  UNL     1       6.870  -0.873  -0.456  1.00  0.00     0.274 C 
BRANCH  20  21
HETATM   21  N2  UNL     1       7.701  -0.131  -1.347  1.00  0.00     0.091 N 
HETATM   22  C4  UNL     1       7.550   1.280  -1.071  1.00  0.00     0.291 C 
HETATM   23  C3  UNL     1       8.110   1.570   0.289  1.00  0.00     0.147 C 
HETATM   24  N1  UNL     1       9.446   1.119   0.495  1.00  0.00    -0.409 N 
HETATM   25  C30 UNL     1       9.764  -0.171  -0.024  1.00  0.00     0.147 C 
HETATM   26  C29 UNL     1       9.086  -0.459  -1.345  1.00  0.00     0.291 C 
BRANCH  24  27
HETATM   27  C2  UNL     1      10.441   2.132   0.279  1.00  0.00     0.112 C 
HETATM   28  C1  UNL     1      10.309   3.173   1.372  1.00  0.00     0.026 C 
ENDBRANCH  24  27
ENDBRANCH  20  21
ENDBRANCH  19  20
ENDBRANCH  18  19
ENDBRANCH  15  18
ENDBRANCH   9  14
ENDBRANCH   1   7
BRANCH   4  29
HETATM   29  C15 UNL     1      -3.847  -0.989   0.981  1.00  0.00     0.157 C 
BRANCH  29  30
HETATM   30  C16 UNL     1      -4.670   0.210   1.272  1.00  0.00    -0.023 A 
HETATM   31  C17 UNL     1      -4.208   1.299   1.989  1.00  0.00     0.097 A 
HETATM   32  N5  UNL     1      -4.988   2.365   2.233  1.00  0.00    -0.367 N 
HETATM   33  C18 UNL     1      -6.254   2.449   1.803  1.00  0.00     0.038 A 
ATOM     34  H5  UNL     1      -4.600   3.142   2.768  1.00  0.00     0.165 HD
HETATM   35  C19 UNL     1      -7.108   3.642   2.083  1.00  0.00     0.071 C 
HETATM   36  C20 UNL     1      -6.762   1.366   1.072  1.00  0.00     0.092 A 
HETATM   37  C26 UNL     1      -5.988   0.261   0.807  1.00  0.00     0.049 A 
BRANCH  36  38
HETATM   38  O2  UNL     1      -8.060   1.488   0.650  1.00  0.00    -0.344 OA
BRANCH  38  39
HETATM   39  C21 UNL     1      -8.830   0.600  -0.082  1.00  0.00     0.132 C 
HETATM   40  C22 UNL     1      -9.308   1.225  -1.392  1.00  0.00     0.060 C 
HETATM   41  C23 UNL     1     -10.233   2.351  -1.046  1.00  0.00     0.235 C 
HETATM   42  N6  UNL     1     -11.418   1.820  -0.434  1.00  0.00    -0.075 N 
HETATM   43  C24 UNL     1     -11.089   1.180   0.827  1.00  0.00     0.235 C 
ATOM     44  H62 UNL     1     -12.141   2.531  -0.323  1.00  0.00     0.277 HD
ATOM     45  H61 UNL     1     -11.921   1.191  -1.060  1.00  0.00     0.277 HD
HETATM   46  C25 UNL     1     -10.052   0.110   0.670  1.00  0.00     0.060 C 
ENDBRANCH  38  39
ENDBRANCH  36  38
ENDBRANCH  29  30
ENDBRANCH   4  29
TORSDOF 11
