REMARK  3 active torsions:
REMARK  status: ('A' for Active; 'I' for Inactive)
REMARK    1  A    between atoms: N1_1  and  C1_4 
REMARK    2  A    between atoms: C4_13  and  C5_14 
REMARK       I    between atoms: C5_14  and  N5_16 
REMARK    3  A    between atoms: N5_16  and  N6_18 
ROOT
HETATM    1  C1  UNL     1      -0.365  -1.304   0.178  1.00  0.00     0.122 A 
HETATM    2  N2  UNL     1      -1.653  -1.748   0.251  1.00  0.00    -0.294 N 
ATOM      3  H2  UNL     1      -1.815  -2.746   0.384  1.00  0.00     0.172 HD
HETATM    4  C2  UNL     1      -2.711  -0.942   0.157  1.00  0.00     0.327 A 
HETATM    5  O1  UNL     1      -3.906  -1.383   0.229  1.00  0.00    -0.247 OA
HETATM    6  N3  UNL     1      -2.457   0.363  -0.017  1.00  0.00    -0.296 N 
ATOM      7  H3  UNL     1      -3.249   1.001  -0.092  1.00  0.00     0.171 HD
HETATM    8  C3  UNL     1      -1.229   0.873  -0.098  1.00  0.00     0.139 A 
HETATM    9  N4  UNL     1      -1.044   2.263  -0.283  1.00  0.00    -0.081 NA
HETATM   10  C4  UNL     1      -0.101   0.024   0.001  1.00  0.00     0.118 A 
ENDROOT
BRANCH  10  11
HETATM   11  C5  UNL     1       1.206   0.605  -0.091  1.00  0.00     0.276 C 
HETATM   12  O2  UNL     1       1.257   1.880  -0.259  1.00  0.00    -0.266 OA
HETATM   13  N5  UNL     1       2.439  -0.036  -0.021  1.00  0.00    -0.272 N 
ATOM     14  H5  UNL     1       2.479  -1.047   0.111  1.00  0.00     0.189 HD
BRANCH  13  15
HETATM   15  N6  UNL     1       3.651   0.717  -0.133  1.00  0.00    -0.342 N 
ATOM     16  H62 UNL     1       3.593   1.727  -0.264  1.00  0.00     0.176 HD
ATOM     17  H61 UNL     1       4.555   0.247  -0.082  1.00  0.00     0.176 HD
ENDBRANCH  13  15
ENDBRANCH  10  11
BRANCH   1  18
HETATM   18  N1  UNL     1       0.598  -2.146   0.278  1.00  0.00    -0.384 N 
ATOM     19  H12 UNL     1       0.401  -3.138   0.410  1.00  0.00     0.157 HD
ATOM     20  H11 UNL     1       1.561  -1.814   0.223  1.00  0.00     0.157 HD
ENDBRANCH   1  18
TORSDOF 3
