REMARK  6 active torsions:
REMARK  status: ('A' for Active; 'I' for Inactive)
REMARK    1  A    between atoms: C2_2  and  N1_3 
REMARK    2  A    between atoms: C2_2  and  C3_7 
REMARK    3  A    between atoms: C3_7  and  N2_8 
REMARK    4  A    between atoms: N2_8  and  C4_10 
REMARK    5  A    between atoms: C7_15  and  C8_16 
REMARK    6  A    between atoms: C11_22  and  N6_23 
ROOT
HETATM    1  C8  UNL     1      -3.532  -0.220  -0.076  1.00  0.00     0.117 A 
HETATM    2  N4  UNL     1      -3.567   1.081   0.341  1.00  0.00    -0.339 N 
ATOM      3  H4  UNL     1      -2.692   1.599   0.421  1.00  0.00     0.167 HD
HETATM    4  C9  UNL     1      -4.702   1.688   0.644  1.00  0.00     0.158 A 
HETATM    5  C10 UNL     1      -4.749   3.069   1.088  1.00  0.00     0.121 C 
HETATM    6  N5  UNL     1      -4.765   4.160   1.436  1.00  0.00    -0.190 NA
HETATM    7  C11 UNL     1      -5.908   1.021   0.550  1.00  0.00     0.139 A 
HETATM    8  N7  UNL     1      -5.926  -0.259   0.145  1.00  0.00    -0.315 N 
ATOM      9  H7  UNL     1      -6.804  -0.773   0.067  1.00  0.00     0.170 HD
HETATM   10  C12 UNL     1      -4.734  -0.853  -0.160  1.00  0.00     0.219 A 
HETATM   11  F1  UNL     1      -4.836  -2.121  -0.553  1.00  0.00    -0.184 F 
ENDROOT
BRANCH   7  12
HETATM   12  N6  UNL     1      -7.008   1.648   0.856  1.00  0.00    -0.383 N 
ATOM     13  H62 UNL     1      -6.994   2.620   1.164  1.00  0.00     0.157 HD
ATOM     14  H61 UNL     1      -7.899   1.155   0.787  1.00  0.00     0.157 HD
ENDBRANCH   7  12
BRANCH   1  15
HETATM   15  C7  UNL     1      -2.231  -0.814  -0.391  1.00  0.00     0.069 A 
HETATM   16  C6  UNL     1      -1.115   0.022  -0.234  1.00  0.00     0.064 A 
HETATM   17  C5  UNL     1       0.147  -0.446  -0.506  1.00  0.00     0.084 A 
HETATM   18  N3  UNL     1       1.367   0.155  -0.433  1.00  0.00    -0.189 N 
HETATM   19  C14 UNL     1       0.315  -1.743  -0.934  1.00  0.00     0.144 A 
HETATM   20  C4  UNL     1       2.274  -0.753  -0.810  1.00  0.00     0.679 A 
ATOM     21  H3  UNL     1       1.554   1.116  -0.145  1.00  0.00     0.184 HD
HETATM   22  N9  UNL     1       1.648  -1.902  -1.114  1.00  0.00    -0.184 N 
ATOM     23  H9  UNL     1       2.104  -2.758  -1.430  1.00  0.00     0.184 HD
HETATM   24  C13 UNL     1      -0.773  -2.571  -1.091  1.00  0.00     0.275 A 
HETATM   25  N8  UNL     1      -1.998  -2.046  -0.805  1.00  0.00    -0.319 N 
HETATM   26  O1  UNL     1      -0.644  -3.759  -1.482  1.00  0.00    -0.266 OA
ATOM     27  H8  UNL     1      -2.805  -2.658  -0.921  1.00  0.00     0.169 HD
BRANCH  20  28
HETATM   28  N2  UNL     1       3.542  -0.560  -0.872  1.00  0.00    -0.224 N 
ATOM     29  H2  UNL     1       4.129  -1.337  -1.176  1.00  0.00     0.177 HD
BRANCH  28  30
HETATM   30  C3  UNL     1       4.183   0.674  -0.542  1.00  0.00     0.170 C 
BRANCH  30  31
HETATM   31  C2  UNL     1       4.887   0.612   0.801  1.00  0.00     0.197 C 
HETATM   32  C1  UNL     1       5.936  -0.476   0.748  1.00  0.00     0.041 C 
BRANCH  31  33
HETATM   33  N1  UNL     1       5.543   1.859   1.054  1.00  0.00    -0.074 N 
ATOM     34  H13 UNL     1       6.124   1.834   1.892  1.00  0.00     0.274 HD
ATOM     35  H12 UNL     1       6.281   2.058   0.379  1.00  0.00     0.274 HD
ATOM     36  H11 UNL     1       4.835   2.593   1.090  1.00  0.00     0.274 HD
ENDBRANCH  31  33
ENDBRANCH  30  31
ENDBRANCH  28  30
ENDBRANCH  20  28
ENDBRANCH   1  15
TORSDOF 6
