REMARK  6 active torsions:
REMARK  status: ('A' for Active; 'I' for Inactive)
REMARK       I    between atoms: N1_2  and  C2_4 
REMARK    1  A    between atoms: C2_4  and  C3_6 
REMARK       I    between atoms: C3_6  and  N2_8 
REMARK    2  A    between atoms: N2_8  and  C4_10 
REMARK    3  A    between atoms: C6_12  and  N3_13 
REMARK    4  A    between atoms: C8_16  and  S1_17 
REMARK    5  A    between atoms: S1_17  and  N4_20 
REMARK    6  A    between atoms: N5_23  and  O5_24 
ROOT
HETATM    1  C4  UNL     1       0.832  -0.704  -0.481  1.00  0.00     0.127 A 
HETATM    2  C5  UNL     1      -0.207  -1.061  -1.312  1.00  0.00     0.082 A 
HETATM    3  C6  UNL     1      -1.493  -0.541  -1.133  1.00  0.00     0.076 A 
HETATM    4  C8  UNL     1      -1.680   0.335  -0.104  1.00  0.00     0.221 A 
HETATM    5  N5  UNL     1      -0.625   0.680   0.719  1.00  0.00    -0.146 N 
HETATM    6  N6  UNL     1       0.567   0.163   0.509  1.00  0.00    -0.258 N 
ATOM      7  H6  UNL     1       1.329   0.435   1.130  1.00  0.00     0.191 HD
ENDROOT
BRANCH   1   8
HETATM    8  N2  UNL     1       2.013  -1.169  -0.631  1.00  0.00    -0.304 N 
HETATM    9  C3  UNL     1       3.119  -0.858   0.167  1.00  0.00     0.315 C 
HETATM   10  O2  UNL     1       3.463  -1.679   1.053  1.00  0.00    -0.262 OA
ATOM     11  H2  UNL     1       2.162  -1.823  -1.399  1.00  0.00     0.171 HD
BRANCH   9  12
HETATM   12  C2  UNL     1       3.892   0.368   0.024  1.00  0.00     0.309 C 
HETATM   13  N1  UNL     1       5.013   0.665   0.846  1.00  0.00    -0.357 N 
HETATM   14  C1  UNL     1       5.783   1.863   0.720  1.00  0.00     0.149 C 
ATOM     15  H1  UNL     1       5.282  -0.010   1.562  1.00  0.00     0.162 HD
HETATM   16  O1  UNL     1       3.573   1.210  -0.854  1.00  0.00    -0.262 OA
ENDBRANCH   9  12
ENDBRANCH   1   8
BRANCH   3  17
HETATM   17  N3  UNL     1      -2.540  -0.944  -1.981  1.00  0.00    -0.392 N 
HETATM   18  C7  UNL     1      -2.354  -1.852  -3.099  1.00  0.00     0.146 C 
ATOM     19  H3  UNL     1      -3.476  -0.581  -1.802  1.00  0.00     0.159 HD
ENDBRANCH   3  17
BRANCH   5  20
HETATM   20  O5  UNL     1      -0.819   1.564   1.757  1.00  0.00    -0.267 OA
ATOM     21  H5  UNL     1      -0.094   1.801   2.323  1.00  0.00     0.247 HD
ENDBRANCH   5  20
BRANCH   4  22
HETATM   22  S1  UNL     1      -3.214   1.062   0.195  1.00  0.00     0.280 S 
HETATM   23  O3  UNL     1      -3.941   1.557  -0.992  1.00  0.00    -0.199 OA
HETATM   24  O4  UNL     1      -2.967   2.311   1.057  1.00  0.00    -0.199 OA
BRANCH  22  25
HETATM   25  N4  UNL     1      -4.247   0.075   1.184  1.00  0.00    -0.318 N 
HETATM   26  C9  UNL     1      -3.572  -0.088   2.459  1.00  0.00     0.159 C 
ATOM     27  H4  UNL     1      -5.152  -0.314   0.920  1.00  0.00     0.171 HD
ENDBRANCH  22  25
ENDBRANCH   4  22
TORSDOF 6
