REMARK  7 active torsions:
REMARK  status: ('A' for Active; 'I' for Inactive)
REMARK    1  A    between atoms: N1_2  and  C3_4 
REMARK    2  A    between atoms: C3_4  and  C4_10 
REMARK    3  A    between atoms: N2_5  and  N3_7 
REMARK    4  A    between atoms: C5_13  and  C6_14 
REMARK    5  A    between atoms: N5_15  and  N6_17 
REMARK    6  A    between atoms: N9_23  and  O1_24 
REMARK    7  A    between atoms: C9_26  and  C10_27 
ROOT
HETATM    1  C4  UNL     1      -1.109   0.293   0.105  1.00  0.00     0.113 A 
HETATM    2  N4  UNL     1       0.225   0.003   0.307  1.00  0.00    -0.349 N 
ATOM      3  H4  UNL     1       0.488  -0.968   0.475  1.00  0.00     0.166 HD
HETATM    4  C5  UNL     1       1.189   0.925   0.294  1.00  0.00     0.068 A 
HETATM    5  C8  UNL     1       0.780   2.220   0.063  1.00  0.00     0.154 A 
HETATM    6  N9  UNL     1      -0.506   2.538  -0.137  1.00  0.00    -0.226 N 
HETATM    7  C9  UNL     1      -1.492   1.578  -0.121  1.00  0.00     0.157 A 
ENDROOT
BRANCH   1   8
HETATM    8  C3  UNL     1      -2.069  -0.795   0.143  1.00  0.00     0.146 C 
HETATM    9  N2  UNL     1      -2.524  -1.179   1.279  1.00  0.00    -0.290 N 
ATOM     10  H2  UNL     1      -3.176  -1.963   1.297  1.00  0.00     0.188 HD
BRANCH   8  11
HETATM   11  N1  UNL     1      -2.491  -1.473  -1.022  1.00  0.00    -0.373 N 
HETATM   12  C1  UNL     1      -3.520  -2.510  -0.956  1.00  0.00     0.150 C 
HETATM   13  C2  UNL     1      -1.950  -1.211  -2.355  1.00  0.00     0.150 C 
ENDBRANCH   8  11
BRANCH   9  14
HETATM   14  N3  UNL     1      -2.175  -0.582   2.496  1.00  0.00    -0.344 N 
ATOM     15  H32 UNL     1      -1.522   0.200   2.460  1.00  0.00     0.176 HD
ATOM     16  H31 UNL     1      -2.537  -0.887   3.399  1.00  0.00     0.176 HD
ENDBRANCH   9  14
ENDBRANCH   1   8
BRANCH   7  17
HETATM   17  C10 UNL     1      -2.869   1.957  -0.320  1.00  0.00     0.286 C 
HETATM   18  N10 UNL     1      -4.021   1.163  -0.276  1.00  0.00    -0.056 NA
HETATM   19  O2  UNL     1      -3.115   3.202  -0.577  1.00  0.00    -0.269 OA
ENDBRANCH   7  17
BRANCH   4  20
HETATM   20  C6  UNL     1       2.596   0.592   0.511  1.00  0.00     0.138 C 
HETATM   21  N5  UNL     1       2.965  -0.603   0.720  1.00  0.00    -0.308 N 
ATOM     22  H5  UNL     1       2.253  -1.333   0.734  1.00  0.00     0.186 HD
BRANCH  21  23
HETATM   23  N6  UNL     1       4.284  -0.969   0.930  1.00  0.00    -0.276 N 
HETATM   24  C7  UNL     1       5.286  -0.590   0.244  1.00  0.00     0.215 C 
HETATM   25  N7  UNL     1       6.568  -1.096   0.643  1.00  0.00    -0.065 NA
HETATM   26  N8  UNL     1       5.258   0.278  -0.866  1.00  0.00    -0.065 NA
ATOM     27  H6  UNL     1       4.470  -1.602   1.708  1.00  0.00     0.189 HD
ENDBRANCH  21  23
ENDBRANCH   4  20
BRANCH   6  28
HETATM   28  O1  UNL     1      -0.910   3.842  -0.369  1.00  0.00    -0.283 OA
ATOM     29  H1  UNL     1      -1.822   4.067  -0.511  1.00  0.00     0.245 HD
ENDBRANCH   6  28
TORSDOF 7
