REMARK  6 active torsions:
REMARK  status: ('A' for Active; 'I' for Inactive)
REMARK    1  A    between atoms: C2_2  and  N1_3 
REMARK    2  A    between atoms: N1_3  and  C3_4 
REMARK    3  A    between atoms: C3_4  and  C4_5 
REMARK    4  A    between atoms: C4_5  and  O1_6 
REMARK    5  A    between atoms: O1_6  and  C5_7 
REMARK    6  A    between atoms: C5_7  and  C6_9 
ROOT
HETATM    1  C3  UNL     1      -0.290   0.008   0.777  1.00  0.00     0.269 C 
ENDROOT
BRANCH   1   2
HETATM    2  N1  UNL     1      -1.630   0.287   0.235  1.00  0.00    -0.046 N 
HETATM    3  C9  UNL     1      -2.540   0.223   1.353  1.00  0.00     0.243 C 
HETATM    4  C10 UNL     1      -3.695  -0.640   0.961  1.00  0.00     0.030 C 
HETATM    5  C11 UNL     1      -3.404  -1.129  -0.426  1.00  0.00     0.030 C 
HETATM    6  C12 UNL     1      -1.949  -0.786  -0.649  1.00  0.00     0.243 C 
BRANCH   2   7
HETATM    7  C2  UNL     1      -1.558   1.560  -0.358  1.00  0.00     0.192 C 
HETATM    8  C1  UNL     1      -2.102   1.920  -1.496  1.00  0.00     0.038 C 
ENDBRANCH   2   7
ENDBRANCH   1   2
BRANCH   1   9
HETATM    9  C4  UNL     1       0.653   0.171  -0.399  1.00  0.00     0.207 C 
BRANCH   9  10
HETATM   10  O1  UNL     1       1.993  -0.069  -0.024  1.00  0.00    -0.319 OA
BRANCH  10  11
HETATM   11  C5  UNL     1       3.006   0.032  -0.966  1.00  0.00     0.263 C 
HETATM   12  O2  UNL     1       2.675   0.340  -2.138  1.00  0.00    -0.265 OA
BRANCH  11  13
HETATM   13  C6  UNL     1       4.408  -0.225  -0.548  1.00  0.00     0.085 A 
HETATM   14  C7  UNL     1       4.775   0.314   0.874  1.00  0.00     0.015 A 
HETATM   15  C8  UNL     1       4.631  -1.134   0.611  1.00  0.00     0.015 A 
ENDBRANCH  11  13
ENDBRANCH  10  11
ENDBRANCH   9  10
ENDBRANCH   1   9
TORSDOF 6
