REMARK  10 active torsions:
REMARK  status: ('A' for Active; 'I' for Inactive)
REMARK    1  A    between atoms: C2_2  and  O2_4 
REMARK    2  A    between atoms: O2_4  and  C3_5 
REMARK    3  A    between atoms: C3_5  and  C4_6 
REMARK    4  A    between atoms: C4_6  and  S1_7 
REMARK    5  A    between atoms: S1_7  and  C5_8 
REMARK    6  A    between atoms: C5_8  and  N1_10 
REMARK    7  A    between atoms: N2_13  and  C8_14 
REMARK    8  A    between atoms: C8_14  and  C9_15 
REMARK    9  A    between atoms: C9_15  and  O3_16 
REMARK   10  A    between atoms: N3_20  and  O4_22 
ROOT
HETATM    1  C5  UNL     1       0.351  -0.016   1.181  1.00  0.00     0.137 C 
HETATM    2  S2  UNL     1       0.874   0.417   2.659  1.00  0.00    -0.053 SA
ENDROOT
BRANCH   1   3
HETATM    3  S1  UNL     1       1.523  -0.193  -0.144  1.00  0.00    -0.092 SA
BRANCH   3   4
HETATM    4  C4  UNL     1       3.160   0.180   0.450  1.00  0.00     0.168 C 
BRANCH   4   5
HETATM    5  C3  UNL     1       4.229   0.064  -0.559  1.00  0.00     0.156 C 
HETATM    6  N3  UNL     1       4.016  -0.294  -1.751  1.00  0.00    -0.250 N 
ATOM      7  H3  UNL     1       4.821  -0.345  -2.375  1.00  0.00     0.196 HD
BRANCH   5   8
HETATM    8  O2  UNL     1       5.554   0.357  -0.212  1.00  0.00    -0.263 OA
BRANCH   8   9
HETATM    9  C2  UNL     1       6.581   0.257  -1.134  1.00  0.00     0.261 C 
HETATM   10  C1  UNL     1       8.006   0.567  -0.783  1.00  0.00     0.126 C 
HETATM   11  O1  UNL     1       6.290  -0.107  -2.300  1.00  0.00    -0.265 OA
ENDBRANCH   8   9
ENDBRANCH   5   8
BRANCH   6  12
HETATM   12  O4  UNL     1       2.808  -0.616  -2.270  1.00  0.00    -0.288 OA
ATOM     13  H4  UNL     1       2.648  -0.885  -3.167  1.00  0.00     0.244 HD
ENDBRANCH   6  12
ENDBRANCH   4   5
ENDBRANCH   3   4
ENDBRANCH   1   3
BRANCH   1  14
HETATM   14  N1  UNL     1      -1.031  -0.244   0.981  1.00  0.00    -0.363 N 
HETATM   15  C6  UNL     1      -2.017  -0.115   2.018  1.00  0.00     0.154 C 
HETATM   16  C7  UNL     1      -3.316   0.362   1.390  1.00  0.00     0.292 C 
HETATM   17  N2  UNL     1      -3.786  -0.512   0.364  1.00  0.00     0.093 N 
HETATM   18  C10 UNL     1      -2.778  -1.402  -0.166  1.00  0.00     0.292 C 
HETATM   19  C11 UNL     1      -1.493  -0.631  -0.348  1.00  0.00     0.154 C 
BRANCH  17  20
HETATM   20  C8  UNL     1      -4.435   0.143  -0.728  1.00  0.00     0.298 C 
BRANCH  20  21
HETATM   21  C9  UNL     1      -5.758   0.773  -0.362  1.00  0.00     0.194 C 
BRANCH  21  22
HETATM   22  O3  UNL     1      -6.678  -0.161   0.116  1.00  0.00    -0.399 OA
ATOM     23  H3  UNL     1      -7.510   0.235   0.346  1.00  0.00     0.209 HD
ENDBRANCH  21  22
ENDBRANCH  20  21
ENDBRANCH  17  20
ENDBRANCH   1  14
TORSDOF 10
