REMARK  4 active torsions:
REMARK  status: ('A' for Active; 'I' for Inactive)
REMARK    1  A    between atoms: C2_2  and  N1_3 
REMARK    2  A    between atoms: C2_2  and  C3_7 
REMARK       I    between atoms: C3_7  and  N2_9 
REMARK    3  A    between atoms: C7_19  and  C8_20 
REMARK    4  A    between atoms: C8_20  and  C11_23 
ROOT
HETATM    1  C3  UNL     1       2.584   0.046   0.626  1.00  0.00     0.253 C 
HETATM    2  O1  UNL     1       2.752   0.156   1.888  1.00  0.00    -0.271 OA
HETATM    3  N2  UNL     1       1.340  -0.149   0.025  1.00  0.00    -0.314 N 
ATOM      4  H2  UNL     1       1.280  -0.869  -0.695  1.00  0.00     0.170 HD
HETATM    5  C4  UNL     1       0.260   0.500   0.299  1.00  0.00     0.100 C 
HETATM    6  N3  UNL     1       0.216   1.519   1.278  1.00  0.00    -0.273 N 
ATOM      7  H3  UNL     1       0.850   1.631   2.069  1.00  0.00     0.180 HD
HETATM    8  S1  UNL     1      -1.123   2.539   0.872  1.00  0.00     0.236 S 
HETATM    9  O2  UNL     1      -1.963   2.874   2.062  1.00  0.00    -0.205 OA
HETATM   10  O3  UNL     1      -0.686   3.759   0.141  1.00  0.00    -0.205 OA
HETATM   11  C5  UNL     1      -1.947   1.363  -0.212  1.00  0.00     0.138 C 
HETATM   12  C6  UNL     1      -2.169   2.130  -1.528  1.00  0.00     0.029 C 
HETATM   13  C7  UNL     1      -1.003   0.249  -0.364  1.00  0.00     0.090 C 
ENDROOT
BRANCH  13  14
HETATM   14  C8  UNL     1      -1.556  -1.132  -0.055  1.00  0.00     0.043 C 
HETATM   15  C9  UNL     1      -0.536  -2.174  -0.548  1.00  0.00     0.025 C 
HETATM   16  C10 UNL     1      -2.821  -1.414  -0.819  1.00  0.00     0.025 C 
BRANCH  14  17
HETATM   17  C11 UNL     1      -1.818  -1.344   1.388  1.00  0.00     0.239 C 
HETATM   18  N4  UNL     1      -2.747  -0.579   2.132  1.00  0.00    -0.061 NA
HETATM   19  O4  UNL     1      -1.207  -2.246   2.051  1.00  0.00    -0.276 OA
ENDBRANCH  14  17
ENDBRANCH  13  14
BRANCH   1  20
HETATM   20  C2  UNL     1       3.810   0.138  -0.198  1.00  0.00     0.271 C 
HETATM   21  C1  UNL     1       4.861  -0.859   0.243  1.00  0.00     0.050 C 
BRANCH  20  22
HETATM   22  N1  UNL     1       3.462  -0.002  -1.581  1.00  0.00    -0.067 N 
ATOM     23  H13 UNL     1       4.290   0.052  -2.174  1.00  0.00     0.275 HD
ATOM     24  H12 UNL     1       3.172  -0.957  -1.791  1.00  0.00     0.275 HD
ATOM     25  H11 UNL     1       2.754   0.670  -1.878  1.00  0.00     0.275 HD
ENDBRANCH  20  22
ENDBRANCH   1  20
TORSDOF 4
