REMARK  11 active torsions:
REMARK  status: ('A' for Active; 'I' for Inactive)
REMARK    1  A    between atoms: C3_3  and  C4_4 
REMARK    2  A    between atoms: C4_4  and  C5_5 
REMARK    3  A    between atoms: C5_5  and  C6_6 
REMARK    4  A    between atoms: C6_6  and  N1_7 
REMARK    5  A    between atoms: C9_12  and  N3_13 
REMARK    6  A    between atoms: N3_13  and  C10_15 
REMARK    7  A    between atoms: C10_15  and  C11_16 
REMARK    8  A    between atoms: C11_16  and  C12_17 
REMARK    9  A    between atoms: C12_17  and  C13_18 
REMARK   10  A    between atoms: C13_18  and  N4_19 
REMARK   11  A    between atoms: C19_29  and  C20_30 
ROOT
HETATM    1  C1  UNL     1       9.491  -1.814   1.808  1.00  0.00     0.113 C 
HETATM    2  C2  UNL     1       8.592  -0.959   1.029  1.00  0.00    -0.097 C 
HETATM    3  C3  UNL     1       7.838  -0.247   0.403  1.00  0.00    -0.015 C 
ENDROOT
BRANCH   3   4
HETATM    4  C4  UNL     1       6.941   0.589  -0.311  1.00  0.00    -0.013 C 
BRANCH   4   5
HETATM    5  C5  UNL     1       6.163   1.290  -0.908  1.00  0.00    -0.072 C 
BRANCH   5   6
HETATM    6  C6  UNL     1       5.185   2.139  -1.630  1.00  0.00     0.222 C 
BRANCH   6   7
HETATM    7  N1  UNL     1       4.002   2.251  -0.820  1.00  0.00    -0.351 N 
HETATM    8  C7  UNL     1       3.860   3.234   0.079  1.00  0.00     0.108 A 
HETATM    9  C8  UNL     1       2.720   3.351   0.868  1.00  0.00     0.107 A 
HETATM   10  N2  UNL     1       1.745   2.461   0.724  1.00  0.00    -0.350 N 
HETATM   11  C9  UNL     1       1.861   1.459  -0.176  1.00  0.00     0.116 A 
ATOM     12  H2  UNL     1       0.904   2.534   1.296  1.00  0.00     0.166 HD
HETATM   13  C22 UNL     1       3.006   1.366  -0.947  1.00  0.00     0.139 A 
BRANCH  11  14
HETATM   14  N3  UNL     1       0.886   0.638  -0.263  1.00  0.00    -0.375 N 
ATOM     15  H3  UNL     1       0.091   0.801   0.354  1.00  0.00     0.161 HD
BRANCH  14  16
HETATM   16  C10 UNL     1       0.800  -0.489  -1.142  1.00  0.00     0.121 C 
BRANCH  16  17
HETATM   17  C11 UNL     1      -0.199  -1.522  -0.659  1.00  0.00     0.021 C 
BRANCH  17  18
HETATM   18  C12 UNL     1      -1.592  -0.904  -0.561  1.00  0.00     0.022 C 
BRANCH  18  19
HETATM   19  C13 UNL     1      -2.601  -1.898  -0.086  1.00  0.00     0.128 C 
BRANCH  19  20
HETATM   20  N4  UNL     1      -3.932  -1.383   0.035  1.00  0.00    -0.358 N 
HETATM   21  C14 UNL     1      -4.741  -1.384  -1.070  1.00  0.00     0.122 A 
HETATM   22  C15 UNL     1      -6.019  -0.917  -1.087  1.00  0.00     0.075 A 
HETATM   23  N5  UNL     1      -6.996  -0.811  -2.028  1.00  0.00    -0.349 N 
HETATM   24  C17 UNL     1      -6.552  -0.411   0.056  1.00  0.00     0.063 A 
HETATM   25  C16 UNL     1      -8.089  -0.259  -1.478  1.00  0.00     0.181 A 
ATOM     26  H5  UNL     1      -6.911  -1.105  -3.001  1.00  0.00     0.166 HD
HETATM   27  N6  UNL     1      -7.820  -0.014  -0.206  1.00  0.00    -0.350 N 
ATOM     28  H6  UNL     1      -8.462   0.405   0.467  1.00  0.00     0.166 HD
HETATM   29  C18 UNL     1      -5.754  -0.401   1.181  1.00  0.00     0.057 A 
HETATM   30  C19 UNL     1      -4.446  -0.886   1.172  1.00  0.00     0.013 A 
BRANCH  30  31
HETATM   31  C20 UNL     1      -3.714  -0.822   2.438  1.00  0.00     0.053 C 
HETATM   32  C21 UNL     1      -3.001   0.479   2.645  1.00  0.00     0.011 C 
ENDBRANCH  30  31
ENDBRANCH  19  20
ENDBRANCH  18  19
ENDBRANCH  17  18
ENDBRANCH  16  17
ENDBRANCH  14  16
ENDBRANCH  11  14
ENDBRANCH   6   7
ENDBRANCH   5   6
ENDBRANCH   4   5
ENDBRANCH   3   4
TORSDOF 11
