REMARK  3 active torsions:
REMARK  status: ('A' for Active; 'I' for Inactive)
REMARK    1  A    between atoms: O1_2  and  C2_3 
REMARK    2  A    between atoms: C5_7  and  O3_8 
REMARK    3  A    between atoms: C11_17  and  C12_18 
ROOT
HETATM    1  C2  UNL     1       2.699  -0.076  -0.153  1.00  0.00     0.220 A 
HETATM    2  O2  UNL     1       1.690   0.646   0.204  1.00  0.00    -0.286 OA
HETATM    3  C3  UNL     1       0.554   0.082  -0.028  1.00  0.00     0.112 A 
HETATM    4  C4  UNL     1       0.821  -1.143  -0.598  1.00  0.00     0.015 A 
HETATM    5  C5  UNL     1       2.208  -1.252  -0.682  1.00  0.00     0.133 A 
HETATM    6  C6  UNL     1      -0.280  -2.061  -0.993  1.00  0.00     0.074 C 
HETATM    7  C7  UNL     1      -1.475  -1.203  -1.302  1.00  0.00     0.279 C 
HETATM    8  N1  UNL     1      -1.820  -0.380  -0.179  1.00  0.00     0.115 N 
HETATM    9  C8  UNL     1      -2.251  -1.135   0.953  1.00  0.00     0.311 C 
HETATM   10  C9  UNL     1      -2.338  -0.049   2.034  1.00  0.00     0.201 C 
HETATM   11  F1  UNL     1      -2.263  -0.647   3.268  1.00  0.00    -0.247 F 
HETATM   12  C10 UNL     1      -1.076   0.745   1.719  1.00  0.00     0.096 C 
HETATM   13  C11 UNL     1      -0.839   0.552   0.223  1.00  0.00     0.270 C 
ENDROOT
BRANCH  13  14
HETATM   14  C12 UNL     1      -1.035   1.886  -0.405  1.00  0.00     0.168 C 
HETATM   15  C13 UNL     1      -2.142   2.199  -1.349  1.00  0.00     0.094 C 
HETATM   16  O4  UNL     1      -0.252   2.770  -0.135  1.00  0.00    -0.295 OA
ENDBRANCH  13  14
BRANCH   1  17
HETATM   17  O1  UNL     1       4.066   0.169  -0.074  1.00  0.00    -0.333 OA
HETATM   18  C1  UNL     1       4.624   1.342   0.452  1.00  0.00     0.212 C 
ENDBRANCH   1  17
BRANCH   5  19
HETATM   19  O3  UNL     1       2.920  -2.324  -1.193  1.00  0.00    -0.356 OA
ATOM     20  H3  UNL     1       2.582  -3.134  -1.557  1.00  0.00     0.218 HD
ENDBRANCH   5  19
TORSDOF 3
