REMARK  6 active torsions:
REMARK  status: ('A' for Active; 'I' for Inactive)
REMARK    1  A    between atoms: C2_2  and  N1_3 
REMARK    2  A    between atoms: C2_2  and  N7_29 
REMARK    3  A    between atoms: N1_3  and  C3_5 
REMARK    4  A    between atoms: C4_8  and  C5_9 
REMARK    5  A    between atoms: C12_18  and  N4_19 
REMARK    6  A    between atoms: N4_19  and  C14_21 
ROOT
HETATM    1  C3  UNL     1       2.212   0.270   0.422  1.00  0.00     0.682 A 
HETATM    2  N2  UNL     1       1.642   1.492   0.371  1.00  0.00    -0.189 N 
ATOM      3  H2  UNL     1       2.250   2.308   0.436  1.00  0.00     0.184 HD
HETATM    4  C4  UNL     1       0.321   1.697   0.240  1.00  0.00     0.090 A 
HETATM    5  C11 UNL     1      -0.458   0.538   0.156  1.00  0.00     0.122 A 
HETATM    6  N3  UNL     1      -1.753   0.389   0.027  1.00  0.00    -0.185 N 
ATOM      7  H3  UNL     1      -2.431   1.148  -0.037  1.00  0.00     0.184 HD
HETATM    8  C12 UNL     1      -2.052  -0.942  -0.008  1.00  0.00     0.684 A 
HETATM    9  N5  UNL     1      -0.895  -1.612   0.103  1.00  0.00    -0.170 N 
HETATM   10  C17 UNL     1      -0.655  -3.031   0.121  1.00  0.00     0.177 C 
HETATM   11  C18 UNL     1       0.129  -0.703   0.208  1.00  0.00     0.168 A 
HETATM   12  N6  UNL     1       1.466  -0.844   0.341  1.00  0.00    -0.174 N 
ATOM     13  H6  UNL     1       1.896  -1.768   0.379  1.00  0.00     0.186 HD
ENDROOT
BRANCH   1  14
HETATM   14  N1  UNL     1       3.463   0.240   0.548  1.00  0.00    -0.194 N 
ATOM     15  H1  UNL     1       3.885   1.167   0.596  1.00  0.00     0.180 HD
BRANCH  14  16
HETATM   16  C2  UNL     1       4.400  -0.800   0.636  1.00  0.00     0.331 C 
HETATM   17  C1  UNL     1       4.182  -1.818   1.695  1.00  0.00     0.066 C 
BRANCH  16  18
HETATM   18  N7  UNL     1       4.538  -1.406  -0.700  1.00  0.00     0.102 N 
HETATM   19  C19 UNL     1       5.693  -2.272  -0.769  1.00  0.00     0.312 C 
HETATM   20  C20 UNL     1       4.715  -0.276  -1.618  1.00  0.00     0.312 C 
ENDBRANCH  16  18
ENDBRANCH  14  16
ENDBRANCH   1  14
BRANCH   4  21
HETATM   21  C5  UNL     1      -0.269   3.033   0.186  1.00  0.00    -0.006 A 
HETATM   22  C6  UNL     1      -1.400   3.303   0.926  1.00  0.00     0.014 A 
HETATM   23  C7  UNL     1      -1.941   4.574   0.860  1.00  0.00     0.001 A 
HETATM   24  C8  UNL     1      -1.353   5.536   0.068  1.00  0.00     0.000 A 
HETATM   25  C9  UNL     1      -0.221   5.272  -0.674  1.00  0.00     0.001 A 
HETATM   26  C10 UNL     1       0.335   4.007  -0.621  1.00  0.00     0.014 A 
ENDBRANCH   4  21
BRANCH   8  27
HETATM   27  N4  UNL     1      -3.370  -1.422  -0.137  1.00  0.00    -0.218 N 
HETATM   28  C13 UNL     1      -3.683  -2.867  -0.195  1.00  0.00     0.169 C 
BRANCH  27  29
HETATM   29  C14 UNL     1      -4.517  -0.570  -0.224  1.00  0.00     0.093 C 
HETATM   30  C15 UNL     1      -4.334   0.886  -0.143  1.00  0.00     0.032 C 
HETATM   31  C16 UNL     1      -5.281  -0.873  -1.525  1.00  0.00     0.032 C 
ENDBRANCH  27  29
ENDBRANCH   8  27
TORSDOF 6
