REMARK  5 active torsions:
REMARK  status: ('A' for Active; 'I' for Inactive)
REMARK    1  A    between atoms: C4_5  and  N2_6 
REMARK    2  A    between atoms: C4_5  and  C6_11 
REMARK       I    between atoms: N2_6  and  C5_8 
REMARK       I    between atoms: C6_11  and  N4_13 
REMARK    3  A    between atoms: N4_13  and  C7_15 
REMARK    4  A    between atoms: C7_15  and  C8_16 
REMARK    5  A    between atoms: C8_16  and  N5_17 
ROOT
HETATM    1  C1  UNL     1      -2.851  -2.351   0.764  1.00  0.00     0.310 C 
HETATM    2  N1  UNL     1      -2.692  -0.951   0.986  1.00  0.00     0.087 N 
HETATM    3  C2  UNL     1      -2.068  -0.612   2.236  1.00  0.00     0.275 C 
HETATM    4  C3  UNL     1      -1.563   0.799   2.053  1.00  0.00     0.073 C 
HETATM    5  C4  UNL     1      -1.406   0.986   0.553  1.00  0.00     0.142 C 
HETATM    6  C10 UNL     1      -2.033  -0.236  -0.053  1.00  0.00     0.312 C 
ENDROOT
BRANCH   5   7
HETATM    7  N2  UNL     1      -2.022   2.203   0.129  1.00  0.00    -0.325 N 
HETATM    8  C5  UNL     1      -3.413   2.478   0.306  1.00  0.00     0.329 C 
HETATM    9  N3  UNL     1      -3.992   3.700  -0.129  1.00  0.00    -0.040 NA
HETATM   10  O1  UNL     1      -4.198   1.655   0.854  1.00  0.00    -0.251 OA
ATOM     11  H2  UNL     1      -1.441   2.910  -0.322  1.00  0.00     0.165 HD
ENDBRANCH   5   7
BRANCH   5  12
HETATM   12  C6  UNL     1       0.035   1.015   0.189  1.00  0.00     0.248 C 
HETATM   13  O2  UNL     1       0.493   2.021  -0.394  1.00  0.00    -0.271 OA
HETATM   14  N4  UNL     1       0.912  -0.055   0.478  1.00  0.00    -0.357 N 
ATOM     15  H4  UNL     1       0.530  -0.872   0.955  1.00  0.00     0.162 HD
BRANCH  14  16
HETATM   16  C7  UNL     1       2.301  -0.062   0.142  1.00  0.00     0.142 C 
BRANCH  16  17
HETATM   17  C8  UNL     1       2.601   0.050  -1.313  1.00  0.00     0.141 C 
BRANCH  17  18
HETATM   18  N5  UNL     1       4.064   0.021  -1.443  1.00  0.00    -0.365 N 
HETATM   19  C9  UNL     1       4.652  -1.124  -1.452  1.00  0.00     0.197 C 
HETATM   20  N6  UNL     1       6.054  -1.176  -1.576  1.00  0.00    -0.067 NA
HETATM   21  N7  UNL     1       3.930  -2.341  -1.341  1.00  0.00    -0.067 NA
ATOM     22  H5  UNL     1       4.600   0.885  -1.524  1.00  0.00     0.161 HD
ENDBRANCH  17  18
ENDBRANCH  16  17
ENDBRANCH  14  16
ENDBRANCH   5  12
TORSDOF 5
