REMARK  11 active torsions:
REMARK  status: ('A' for Active; 'I' for Inactive)
REMARK    1  A    between atoms: C2_2  and  C4_4 
REMARK    2  A    between atoms: C4_4  and  N1_5 
REMARK       I    between atoms: N1_5  and  C5_6 
REMARK    3  A    between atoms: C5_6  and  O2_8 
REMARK    4  A    between atoms: O2_8  and  C6_9 
REMARK    5  A    between atoms: C10_13  and  O3_14 
REMARK    6  A    between atoms: C10_13  and  C11_16 
REMARK       I    between atoms: C11_16  and  N2_18 
REMARK    7  A    between atoms: N2_18  and  C12_20 
REMARK    8  A    between atoms: C12_20  and  C13_21 
REMARK    9  A    between atoms: C12_20  and  C16_24 
REMARK   10  A    between atoms: C16_24  and  O5_25 
REMARK   11  A    between atoms: C16_24  and  N3_27 
ROOT
HETATM    1  C11 UNL     1      -0.225  -0.894  -0.604  1.00  0.00     0.278 C 
HETATM    2  O4  UNL     1      -0.458  -1.548  -1.615  1.00  0.00    -0.265 OA
HETATM    3  N2  UNL     1      -1.353  -0.281   0.027  1.00  0.00    -0.346 N 
ATOM      4  H2  UNL     1      -1.121   0.257   0.862  1.00  0.00     0.163 HD
ENDROOT
BRANCH   1   5
HETATM    5  C10 UNL     1       1.065  -0.717  -0.014  1.00  0.00     0.171 C 
HETATM    6  C4  UNL     1       2.301  -1.429  -0.017  1.00  0.00     0.133 C 
BRANCH   6   7
HETATM    7  C2  UNL     1       2.819  -2.277  -1.092  1.00  0.00     0.045 C 
HETATM    8  C1  UNL     1       1.980  -3.214  -1.848  1.00  0.00     0.017 C 
HETATM    9  C3  UNL     1       3.912  -3.180  -0.413  1.00  0.00     0.017 C 
ENDBRANCH   6   7
BRANCH   6  10
HETATM   10  N1  UNL     1       3.420  -0.662   0.533  1.00  0.00    -0.347 NA
HETATM   11  C5  UNL     1       4.401   0.041   1.059  1.00  0.00     0.441 C 
HETATM   12  O1  UNL     1       4.375   0.791   2.095  1.00  0.00    -0.221 OA
BRANCH  11  13
HETATM   13  O2  UNL     1       5.723   0.052   0.488  1.00  0.00    -0.282 OA
BRANCH  13  14
HETATM   14  C6  UNL     1       6.786   0.789   0.942  1.00  0.00     0.062 C 
HETATM   15  C7  UNL     1       7.263   0.482   2.326  1.00  0.00     0.046 C 
HETATM   16  C8  UNL     1       6.557   2.297   0.857  1.00  0.00     0.046 C 
HETATM   17  C9  UNL     1       7.960   0.503  -0.005  1.00  0.00     0.046 C 
ENDBRANCH  13  14
ENDBRANCH  11  13
ENDBRANCH   6  10
BRANCH   5  18
HETATM   18  O3  UNL     1       1.127   0.393   0.745  1.00  0.00    -0.353 OA
ATOM     19  H3  UNL     1       0.304   0.867   0.747  1.00  0.00     0.218 HD
ENDBRANCH   5  18
ENDBRANCH   1   5
BRANCH   3  20
HETATM   20  C12 UNL     1      -2.734  -0.284  -0.295  1.00  0.00     0.136 C 
BRANCH  20  21
HETATM   21  C13 UNL     1      -3.414  -1.395   0.454  1.00  0.00     0.004 C 
HETATM   22  C14 UNL     1      -4.895  -1.499   0.277  1.00  0.00     0.012 C 
HETATM   23  C15 UNL     1      -2.886  -2.745  -0.123  1.00  0.00     0.012 C 
ENDBRANCH  20  21
BRANCH  20  24
HETATM   24  C16 UNL     1      -3.286   1.084  -0.046  1.00  0.00     0.238 C 
BRANCH  24  25
HETATM   25  O5  UNL     1      -3.036   1.346   1.343  1.00  0.00    -0.375 OA
ATOM     26  H5  UNL     1      -3.387   2.215   1.501  1.00  0.00     0.212 HD
ENDBRANCH  24  25
BRANCH  24  27
HETATM   27  N3  UNL     1      -4.625   1.343  -0.334  1.00  0.00    -0.386 N 
HETATM   28  C17 UNL     1      -5.314   2.053   0.709  1.00  0.00     0.122 C 
HETATM   29  C18 UNL     1      -5.504   3.507   0.232  1.00  0.00     0.056 C 
HETATM   30  C19 UNL     1      -6.619   3.464  -0.766  1.00  0.00     0.173 C 
HETATM   31  F1  UNL     1      -7.811   3.426  -0.070  1.00  0.00    -0.249 F 
HETATM   32  C20 UNL     1      -6.507   2.159  -1.529  1.00  0.00     0.056 C 
HETATM   33  C21 UNL     1      -5.040   1.693  -1.633  1.00  0.00     0.122 C 
ENDBRANCH  24  27
ENDBRANCH  20  24
ENDBRANCH   3  20
TORSDOF 11
