REMARK  5 active torsions:
REMARK  status: ('A' for Active; 'I' for Inactive)
REMARK    1  A    between atoms: C3_5  and  N2_6 
REMARK    2  A    between atoms: C5_15  and  C6_16 
REMARK    3  A    between atoms: N6_18  and  N7_20 
REMARK       I    between atoms: N7_20  and  C7_21 
REMARK    4  A    between atoms: C7_21  and  C8_23 
REMARK    5  A    between atoms: C8_23  and  N8_24 
ROOT
HETATM    1  C6  UNL     1      -1.379  -0.546   0.048  1.00  0.00     0.158 C 
HETATM    2  N5  UNL     1      -1.063  -1.900   0.358  1.00  0.00    -0.079 NA
HETATM    3  N6  UNL     1      -0.427   0.295   0.178  1.00  0.00    -0.217 N 
ATOM      4  H6  UNL     1      -0.741   1.233  -0.072  1.00  0.00     0.203 HD
ENDROOT
BRANCH   3   5
HETATM    5  N7  UNL     1       0.788   0.312   0.524  1.00  0.00    -0.284 NA
HETATM    6  C7  UNL     1       2.106   0.330   0.900  1.00  0.00     0.333 C 
HETATM    7  O1  UNL     1       2.619  -0.360   1.816  1.00  0.00    -0.253 OA
BRANCH   6   8
HETATM    8  C8  UNL     1       3.130   1.226   0.214  1.00  0.00     0.294 C 
BRANCH   8   9
HETATM    9  N8  UNL     1       4.422   1.050   0.803  1.00  0.00    -0.173 N 
HETATM   10  N9  UNL     1       4.897   1.752   1.807  1.00  0.00    -0.209 N 
HETATM   11  N10 UNL     1       6.103   1.351   2.156  1.00  0.00    -0.113 N 
ATOM     12  H9  UNL     1       4.394   2.514   2.261  1.00  0.00     0.210 HD
HETATM   13  C9  UNL     1       6.378   0.337   1.307  1.00  0.00     0.737 A 
ATOM     14  H10 UNL     1       6.695   1.722   2.899  1.00  0.00     0.207 HD
HETATM   15  N11 UNL     1       7.335  -0.565   1.001  1.00  0.00    -0.182 N 
HETATM   16  N13 UNL     1       5.342   0.160   0.480  1.00  0.00     0.001 N 
HETATM   17  C10 UNL     1       6.881  -1.295  -0.018  1.00  0.00     0.217 A 
ATOM     18  H11 UNL     1       8.238  -0.669   1.464  1.00  0.00     0.185 HD
HETATM   19  N12 UNL     1       5.659  -0.849  -0.335  1.00  0.00    -0.258 N 
ATOM     20  H12 UNL     1       5.067  -1.220  -1.078  1.00  0.00     0.190 HD
ENDBRANCH   8   9
ENDBRANCH   6   8
ENDBRANCH   3   5
BRANCH   1  21
HETATM   21  C5  UNL     1      -2.676  -0.072  -0.394  1.00  0.00     0.074 A 
HETATM   22  C2  UNL     1      -3.748  -0.891  -0.565  1.00  0.00     0.040 A 
HETATM   23  C1  UNL     1      -3.642  -2.335  -0.387  1.00  0.00     0.070 C 
HETATM   24  N1  UNL     1      -4.966  -0.372  -0.913  1.00  0.00    -0.195 N 
HETATM   25  C3  UNL     1      -5.130   0.946  -1.093  1.00  0.00     0.677 A 
ATOM     26  H1  UNL     1      -5.761  -0.998  -1.037  1.00  0.00     0.184 HD
HETATM   27  N3  UNL     1      -4.064   1.780  -0.927  1.00  0.00    -0.176 N 
HETATM   28  C4  UNL     1      -2.860   1.303  -0.588  1.00  0.00     0.130 A 
ATOM     29  H3  UNL     1      -4.186   2.783  -1.063  1.00  0.00     0.186 HD
HETATM   30  N4  UNL     1      -1.872   2.103  -0.432  1.00  0.00    -0.384 N 
ATOM     31  H42 UNL     1      -2.006   3.104  -0.573  1.00  0.00     0.157 HD
ATOM     32  H41 UNL     1      -0.955   1.740  -0.174  1.00  0.00     0.157 HD
BRANCH  25  33
HETATM   33  N2  UNL     1      -6.280   1.407  -1.418  1.00  0.00    -0.234 N 
ATOM     34  H22 UNL     1      -7.077   0.783  -1.542  1.00  0.00     0.174 HD
ATOM     35  H21 UNL     1      -6.405   2.410  -1.555  1.00  0.00     0.174 HD
ENDBRANCH  25  33
ENDBRANCH   1  21
TORSDOF 5
