REMARK  8 active torsions:
REMARK  status: ('A' for Active; 'I' for Inactive)
REMARK    1  A    between atoms: N1_1  and  N2_4 
REMARK    2  A    between atoms: N2_4  and  N3_6 
REMARK    3  A    between atoms: N3_6  and  C1_8 
REMARK    4  A    between atoms: C2_11  and  C3_12 
REMARK       I    between atoms: N5_13  and  C4_15 
REMARK    5  A    between atoms: C4_15  and  C5_17 
REMARK    6  A    between atoms: C7_19  and  C8_20 
REMARK    7  A    between atoms: C9_33  and  N12_34 
REMARK    8  A    between atoms: N12_34  and  N13_36 
ROOT
HETATM    1  C3  UNL     1       1.620  -0.929   1.620  1.00  0.00     0.097 C 
HETATM    2  N5  UNL     1       0.737  -0.148   1.096  1.00  0.00    -0.333 N 
ATOM      3  H5  UNL     1       1.013   0.600   0.460  1.00  0.00     0.168 HD
HETATM    4  C4  UNL     1      -0.625  -0.353   1.425  1.00  0.00     0.273 C 
HETATM    5  O1  UNL     1      -0.928  -0.901   2.494  1.00  0.00    -0.266 OA
ENDROOT
BRANCH   1   6
HETATM    6  C2  UNL     1       3.047  -0.694   1.259  1.00  0.00     0.208 A 
HETATM    7  N4  UNL     1       3.213   0.719   1.130  1.00  0.00    -0.208 N 
HETATM    8  C1  UNL     1       3.474   1.005  -0.074  1.00  0.00     0.696 A 
ATOM      9  H4  UNL     1       3.133   1.393   1.891  1.00  0.00     0.179 HD
HETATM   10  N14 UNL     1       3.502  -0.181  -0.831  1.00  0.00    -0.176 N 
HETATM   11  C9  UNL     1       3.258  -1.209  -0.101  1.00  0.00     0.140 A 
ATOM     12  H14 UNL     1       3.692  -0.219  -1.832  1.00  0.00     0.185 HD
BRANCH   8  13
HETATM   13  N3  UNL     1       3.695   2.357  -0.517  1.00  0.00    -0.118 N 
ATOM     14  H3  UNL     1       2.996   2.864  -1.060  1.00  0.00     0.207 HD
BRANCH  13  15
HETATM   15  N2  UNL     1       4.910   2.938  -0.167  1.00  0.00    -0.235 N 
ATOM     16  H2  UNL     1       5.605   2.389   0.339  1.00  0.00     0.208 HD
BRANCH  15  17
HETATM   17  N1  UNL     1       5.166   4.161  -0.475  1.00  0.00    -0.330 N 
ATOM     18  H12 UNL     1       4.460   4.696  -0.981  1.00  0.00     0.178 HD
ATOM     19  H11 UNL     1       6.057   4.587  -0.218  1.00  0.00     0.178 HD
ENDBRANCH  15  17
ENDBRANCH  13  15
ENDBRANCH   8  13
BRANCH  11  20
HETATM   20  N12 UNL     1       3.195  -2.582  -0.478  1.00  0.00    -0.293 N 
ATOM     21  H12 UNL     1       3.712  -3.274   0.065  1.00  0.00     0.187 HD
BRANCH  20  22
HETATM   22  N13 UNL     1       2.431  -3.004  -1.588  1.00  0.00    -0.344 N 
ATOM     23 2H13 UNL     1       1.920  -2.299  -2.120  1.00  0.00     0.176 HD
ATOM     24 1H13 UNL     1       2.386  -3.987  -1.858  1.00  0.00     0.176 HD
ENDBRANCH  20  22
ENDBRANCH  11  20
ENDBRANCH   1   6
BRANCH   4  25
HETATM   25  C5  UNL     1      -1.654   0.077   0.514  1.00  0.00     0.118 A 
HETATM   26  C6  UNL     1      -3.029  -0.043   0.675  1.00  0.00     0.071 A 
HETATM   27  C7  UNL     1      -3.651   0.494  -0.425  1.00  0.00     0.097 A 
HETATM   28  N10 UNL     1      -2.662   0.926  -1.225  1.00  0.00    -0.296 N 
HETATM   29  N11 UNL     1      -1.485   0.680  -0.671  1.00  0.00    -0.295 N 
ATOM     30  H10 UNL     1      -2.798   1.378  -2.129  1.00  0.00     0.187 HD
ATOM     31  H11 UNL     1      -0.583   0.915  -1.085  1.00  0.00     0.187 HD
BRANCH  27  32
HETATM   32  C8  UNL     1      -5.088   0.572  -0.661  1.00  0.00     0.165 A 
HETATM   33  N6  UNL     1      -5.729   1.089  -1.723  1.00  0.00    -0.267 N 
HETATM   34  N7  UNL     1      -7.016   0.965  -1.550  1.00  0.00    -0.227 N 
ATOM     35  H6  UNL     1      -5.280   1.511  -2.536  1.00  0.00     0.190 HD
HETATM   36  N8  UNL     1      -7.201   0.378  -0.397  1.00  0.00    -0.227 N 
ATOM     37  H7  UNL     1      -7.744   1.270  -2.196  1.00  0.00     0.210 HD
HETATM   38  N9  UNL     1      -6.036   0.127   0.167  1.00  0.00    -0.267 N 
ATOM     39  H8  UNL     1      -8.110   0.149   0.006  1.00  0.00     0.210 HD
ATOM     40  H9  UNL     1      -5.887  -0.324   1.070  1.00  0.00     0.190 HD
ENDBRANCH  27  32
ENDBRANCH   4  25
TORSDOF 8
